MODEL 1
REMARK VINA RESULT:    -4.603      0.000      0.000
REMARK INTER + INTRA:          -8.059
REMARK INTER:                  -7.294
REMARK INTRA:                  -0.764
REMARK UNBOUND:                -0.764
REMARK SMILES CCCCCCCCCCCC(=O)[O-]
REMARK SMILES IDX 7 1 8 2 9 3 10 4 11 5 12 6 13 7 14 8 6 9 5 10 4 11 3 12 2 13
REMARK SMILES IDX 1 14
REMARK H PARENT
REMARK Flexibility Score: inf
ROOT
ATOM      1  C   UNL     1     258.027 261.982 250.280  1.00  0.00     0.000 C 
ENDROOT
BRANCH   1   2
ATOM      2  C   UNL     1     256.812 262.597 250.999  1.00  0.00     0.000 C 
BRANCH   2   3
ATOM      3  C   UNL     1     255.936 261.548 251.699  1.00  0.00     0.000 C 
BRANCH   3   4
ATOM      4  C   UNL     1     254.696 262.198 252.326  1.00  0.00     0.006 C 
BRANCH   4   5
ATOM      5  C   UNL     1     254.794 262.204 253.855  1.00  0.00     0.053 C 
BRANCH   5   6
ATOM      6  C   UNL     1     254.206 260.950 254.422  1.00  0.00     0.041 C 
ATOM      7  O   UNL     1     254.627 260.493 255.517  1.00  0.00    -0.550 OA
ATOM      8  O   UNL     1     253.228 260.260 253.718  1.00  0.00    -0.550 OA
ENDBRANCH   5   6
ENDBRANCH   4   5
ENDBRANCH   3   4
ENDBRANCH   2   3
ENDBRANCH   1   2
BRANCH   1   9
ATOM      9  C   UNL     1     257.884 261.847 248.753  1.00  0.00     0.000 C 
BRANCH   9  10
ATOM     10  C   UNL     1     257.199 260.536 248.330  1.00  0.00    -0.000 C 
BRANCH  10  11
ATOM     11  C   UNL     1     255.898 260.768 247.543  1.00  0.00    -0.000 C 
BRANCH  11  12
ATOM     12  C   UNL     1     254.605 260.696 248.379  1.00  0.00    -0.000 C 
BRANCH  12  13
ATOM     13  C   UNL     1     253.345 261.167 247.623  1.00  0.00    -0.003 C 
ATOM     14  C   UNL     1     252.512 260.001 247.094  1.00  0.00     0.004 C 
ENDBRANCH  12  13
ENDBRANCH  11  12
ENDBRANCH  10  11
ENDBRANCH   9  10
ENDBRANCH   1   9
TORSDOF 10
ENDMDL
MODEL 2
REMARK VINA RESULT:    -4.597      4.114      5.896
REMARK INTER + INTRA:          -8.049
REMARK INTER:                  -6.811
REMARK INTRA:                  -1.238
REMARK UNBOUND:                -0.764
REMARK SMILES CCCCCCCCCCCC(=O)[O-]
REMARK SMILES IDX 7 1 8 2 9 3 10 4 11 5 12 6 13 7 14 8 6 9 5 10 4 11 3 12 2 13
REMARK SMILES IDX 1 14
REMARK H PARENT
REMARK Flexibility Score: inf
ROOT
ATOM      1  C   UNL     1     254.523 260.077 248.352  1.00  0.00     0.000 C 
ENDROOT
BRANCH   1   2
ATOM      2  C   UNL     1     255.021 260.989 249.487  1.00  0.00     0.000 C 
BRANCH   2   3
ATOM      3  C   UNL     1     256.496 260.751 249.845  1.00  0.00     0.000 C 
BRANCH   3   4
ATOM      4  C   UNL     1     257.423 261.486 248.870  1.00  0.00     0.006 C 
BRANCH   4   5
ATOM      5  C   UNL     1     258.275 260.496 248.070  1.00  0.00     0.053 C 
BRANCH   5   6
ATOM      6  C   UNL     1     259.662 261.028 247.887  1.00  0.00     0.041 C 
ATOM      7  O   UNL     1     260.099 261.932 248.646  1.00  0.00    -0.550 OA
ATOM      8  O   UNL     1     260.455 260.558 246.848  1.00  0.00    -0.550 OA
ENDBRANCH   5   6
ENDBRANCH   4   5
ENDBRANCH   3   4
ENDBRANCH   2   3
ENDBRANCH   1   2
BRANCH   1   9
ATOM      9  C   UNL     1     254.033 260.811 247.091  1.00  0.00     0.000 C 
BRANCH   9  10
ATOM     10  C   UNL     1     254.836 260.441 245.831  1.00  0.00    -0.000 C 
BRANCH  10  11
ATOM     11  C   UNL     1     255.973 261.434 245.535  1.00  0.00    -0.000 C 
BRANCH  11  12
ATOM     12  C   UNL     1     257.086 260.898 244.613  1.00  0.00    -0.000 C 
BRANCH  12  13
ATOM     13  C   UNL     1     258.264 261.876 244.422  1.00  0.00    -0.003 C 
ATOM     14  C   UNL     1     258.057 263.193 245.169  1.00  0.00     0.004 C 
ENDBRANCH  12  13
ENDBRANCH  11  12
ENDBRANCH  10  11
ENDBRANCH   9  10
ENDBRANCH   1   9
TORSDOF 10
ENDMDL
MODEL 3
REMARK VINA RESULT:    -4.584      1.644      2.848
REMARK INTER + INTRA:          -8.029
REMARK INTER:                  -7.580
REMARK INTRA:                  -0.449
REMARK UNBOUND:                -0.764
REMARK SMILES CCCCCCCCCCCC(=O)[O-]
REMARK SMILES IDX 7 1 8 2 9 3 10 4 11 5 12 6 13 7 14 8 6 9 5 10 4 11 3 12 2 13
REMARK SMILES IDX 1 14
REMARK H PARENT
REMARK Flexibility Score: inf
ROOT
ATOM      1  C   UNL     1     255.333 260.890 249.357  1.00  0.00     0.000 C 
ENDROOT
BRANCH   1   2
ATOM      2  C   UNL     1     254.997 260.587 250.829  1.00  0.00     0.000 C 
BRANCH   2   3
ATOM      3  C   UNL     1     255.614 261.600 251.805  1.00  0.00     0.000 C 
BRANCH   3   4
ATOM      4  C   UNL     1     254.536 262.230 252.696  1.00  0.00     0.006 C 
BRANCH   4   5
ATOM      5  C   UNL     1     254.844 261.998 254.178  1.00  0.00     0.053 C 
BRANCH   5   6
ATOM      6  C   UNL     1     254.148 260.768 254.671  1.00  0.00     0.041 C 
ATOM      7  O   UNL     1     254.462 260.265 255.781  1.00  0.00    -0.550 OA
ATOM      8  O   UNL     1     253.187 260.150 253.882  1.00  0.00    -0.550 OA
ENDBRANCH   5   6
ENDBRANCH   4   5
ENDBRANCH   3   4
ENDBRANCH   2   3
ENDBRANCH   1   2
BRANCH   1   9
ATOM      9  C   UNL     1     254.666 259.958 248.329  1.00  0.00     0.000 C 
BRANCH   9  10
ATOM     10  C   UNL     1     254.213 260.696 247.057  1.00  0.00    -0.000 C 
BRANCH  10  11
ATOM     11  C   UNL     1     254.455 259.880 245.775  1.00  0.00    -0.000 C 
BRANCH  11  12
ATOM     12  C   UNL     1     255.454 260.504 244.781  1.00  0.00    -0.000 C 
BRANCH  12  13
ATOM     13  C   UNL     1     256.597 261.290 245.455  1.00  0.00    -0.003 C 
ATOM     14  C   UNL     1     257.887 261.265 244.635  1.00  0.00     0.004 C 
ENDBRANCH  12  13
ENDBRANCH  11  12
ENDBRANCH  10  11
ENDBRANCH   9  10
ENDBRANCH   1   9
TORSDOF 10
ENDMDL
MODEL 4
REMARK VINA RESULT:    -4.556      4.260      6.838
REMARK INTER + INTRA:          -7.984
REMARK INTER:                  -7.088
REMARK INTRA:                  -0.897
REMARK UNBOUND:                -0.764
REMARK SMILES CCCCCCCCCCCC(=O)[O-]
REMARK SMILES IDX 7 1 8 2 9 3 10 4 11 5 12 6 13 7 14 8 6 9 5 10 4 11 3 12 2 13
REMARK SMILES IDX 1 14
REMARK H PARENT
REMARK Flexibility Score: inf
ROOT
ATOM      1  C   UNL     1     254.912 260.253 245.454  1.00  0.00     0.000 C 
ENDROOT
BRANCH   1   2
ATOM      2  C   UNL     1     256.184 261.058 245.776  1.00  0.00     0.000 C 
BRANCH   2   3
ATOM      3  C   UNL     1     257.148 261.157 244.585  1.00  0.00     0.000 C 
BRANCH   3   4
ATOM      4  C   UNL     1     258.607 261.160 245.058  1.00  0.00     0.006 C 
BRANCH   4   5
ATOM      5  C   UNL     1     258.818 262.180 246.181  1.00  0.00     0.053 C 
BRANCH   5   6
ATOM      6  C   UNL     1     260.001 261.803 247.016  1.00  0.00     0.041 C 
ATOM      7  O   UNL     1     260.468 260.635 246.961  1.00  0.00    -0.550 OA
ATOM      8  O   UNL     1     260.558 262.726 247.891  1.00  0.00    -0.550 OA
ENDBRANCH   5   6
ENDBRANCH   4   5
ENDBRANCH   3   4
ENDBRANCH   2   3
ENDBRANCH   1   2
BRANCH   1   9
ATOM      9  C   UNL     1     253.961 260.028 246.644  1.00  0.00     0.000 C 
BRANCH   9  10
ATOM     10  C   UNL     1     254.276 260.942 247.842  1.00  0.00    -0.000 C 
BRANCH  10  11
ATOM     11  C   UNL     1     254.877 260.177 249.034  1.00  0.00    -0.000 C 
BRANCH  11  12
ATOM     12  C   UNL     1     255.742 261.026 249.987  1.00  0.00    -0.000 C 
BRANCH  12  13
ATOM     13  C   UNL     1     257.157 261.322 249.448  1.00  0.00    -0.003 C 
ATOM     14  C   UNL     1     257.854 262.443 250.220  1.00  0.00     0.004 C 
ENDBRANCH  12  13
ENDBRANCH  11  12
ENDBRANCH  10  11
ENDBRANCH   9  10
ENDBRANCH   1   9
TORSDOF 10
ENDMDL
MODEL 5
REMARK VINA RESULT:    -4.551      3.156      5.004
REMARK INTER + INTRA:          -7.976
REMARK INTER:                  -7.117
REMARK INTRA:                  -0.860
REMARK UNBOUND:                -0.764
REMARK SMILES CCCCCCCCCCCC(=O)[O-]
REMARK SMILES IDX 7 1 8 2 9 3 10 4 11 5 12 6 13 7 14 8 6 9 5 10 4 11 3 12 2 13
REMARK SMILES IDX 1 14
REMARK H PARENT
REMARK Flexibility Score: inf
ROOT
ATOM      1  C   UNL     1     253.943 260.896 248.144  1.00  0.00     0.000 C 
ENDROOT
BRANCH   1   2
ATOM      2  C   UNL     1     254.574 259.594 248.671  1.00  0.00     0.000 C 
BRANCH   2   3
ATOM      3  C   UNL     1     256.085 259.718 248.918  1.00  0.00     0.000 C 
BRANCH   3   4
ATOM      4  C   UNL     1     256.406 260.973 249.740  1.00  0.00     0.006 C 
BRANCH   4   5
ATOM      5  C   UNL     1     257.676 261.657 249.225  1.00  0.00     0.053 C 
BRANCH   5   6
ATOM      6  C   UNL     1     258.288 262.500 250.299  1.00  0.00     0.041 C 
ATOM      7  O   UNL     1     259.436 262.991 250.140  1.00  0.00    -0.550 OA
ATOM      8  O   UNL     1     257.611 262.704 251.494  1.00  0.00    -0.550 OA
ENDBRANCH   5   6
ENDBRANCH   4   5
ENDBRANCH   3   4
ENDBRANCH   2   3
ENDBRANCH   1   2
BRANCH   1   9
ATOM      9  C   UNL     1     253.357 260.809 246.723  1.00  0.00     0.000 C 
BRANCH   9  10
ATOM     10  C   UNL     1     254.003 259.700 245.875  1.00  0.00    -0.000 C 
BRANCH  10  11
ATOM     11  C   UNL     1     255.010 260.245 244.847  1.00  0.00    -0.000 C 
BRANCH  11  12
ATOM     12  C   UNL     1     256.131 261.126 245.432  1.00  0.00    -0.000 C 
BRANCH  12  13
ATOM     13  C   UNL     1     257.429 261.120 244.599  1.00  0.00    -0.003 C 
ATOM     14  C   UNL     1     258.363 262.274 244.962  1.00  0.00     0.004 C 
ENDBRANCH  12  13
ENDBRANCH  11  12
ENDBRANCH  10  11
ENDBRANCH   9  10
ENDBRANCH   1   9
TORSDOF 10
ENDMDL
MODEL 6
REMARK VINA RESULT:    -4.514      4.771      6.159
REMARK INTER + INTRA:          -7.917
REMARK INTER:                  -6.659
REMARK INTRA:                  -1.258
REMARK UNBOUND:                -0.764
REMARK SMILES CCCCCCCCCCCC(=O)[O-]
REMARK SMILES IDX 7 1 8 2 9 3 10 4 11 5 12 6 13 7 14 8 6 9 5 10 4 11 3 12 2 13
REMARK SMILES IDX 1 14
REMARK H PARENT
REMARK Flexibility Score: inf
ROOT
ATOM      1  C   UNL     1     254.878 260.839 248.891  1.00  0.00     0.000 C 
ENDROOT
BRANCH   1   2
ATOM      2  C   UNL     1     256.329 260.347 248.734  1.00  0.00     0.000 C 
BRANCH   2   3
ATOM      3  C   UNL     1     257.368 261.419 249.096  1.00  0.00     0.000 C 
BRANCH   3   4
ATOM      4  C   UNL     1     258.463 261.505 248.025  1.00  0.00     0.006 C 
BRANCH   4   5
ATOM      5  C   UNL     1     257.903 262.058 246.711  1.00  0.00     0.053 C 
BRANCH   5   6
ATOM      6  C   UNL     1     258.384 261.242 245.553  1.00  0.00     0.041 C 
ATOM      7  O   UNL     1     259.420 260.535 245.662  1.00  0.00    -0.550 OA
ATOM      8  O   UNL     1     257.714 261.298 244.337  1.00  0.00    -0.550 OA
ENDBRANCH   5   6
ENDBRANCH   4   5
ENDBRANCH   3   4
ENDBRANCH   2   3
ENDBRANCH   1   2
BRANCH   1   9
ATOM      9  C   UNL     1     254.067 260.906 247.584  1.00  0.00     0.000 C 
BRANCH   9  10
ATOM     10  C   UNL     1     254.744 260.163 246.419  1.00  0.00    -0.000 C 
BRANCH  10  11
ATOM     11  C   UNL     1     253.849 259.073 245.804  1.00  0.00    -0.000 C 
BRANCH  11  12
ATOM     12  C   UNL     1     253.258 258.066 246.811  1.00  0.00    -0.000 C 
BRANCH  12  13
ATOM     13  C   UNL     1     254.315 257.178 247.498  1.00  0.00    -0.003 C 
ATOM     14  C   UNL     1     254.195 257.198 249.021  1.00  0.00     0.004 C 
ENDBRANCH  12  13
ENDBRANCH  11  12
ENDBRANCH  10  11
ENDBRANCH   9  10
ENDBRANCH   1   9
TORSDOF 10
ENDMDL
MODEL 7
REMARK VINA RESULT:    -4.495      4.488      6.372
REMARK INTER + INTRA:          -7.888
REMARK INTER:                  -7.100
REMARK INTRA:                  -0.788
REMARK UNBOUND:                -0.764
REMARK SMILES CCCCCCCCCCCC(=O)[O-]
REMARK SMILES IDX 7 1 8 2 9 3 10 4 11 5 12 6 13 7 14 8 6 9 5 10 4 11 3 12 2 13
REMARK SMILES IDX 1 14
REMARK H PARENT
REMARK Flexibility Score: inf
ROOT
ATOM      1  C   UNL     1     254.959 260.434 246.283  1.00  0.00     0.000 C 
ENDROOT
BRANCH   1   2
ATOM      2  C   UNL     1     253.825 259.542 245.747  1.00  0.00     0.000 C 
BRANCH   2   3
ATOM      3  C   UNL     1     253.532 258.335 246.651  1.00  0.00     0.000 C 
BRANCH   3   4
ATOM      4  C   UNL     1     252.034 258.234 246.963  1.00  0.00     0.006 C 
BRANCH   4   5
ATOM      5  C   UNL     1     251.410 259.625 247.116  1.00  0.00     0.053 C 
BRANCH   5   6
ATOM      6  C   UNL     1     249.917 259.540 247.044  1.00  0.00     0.041 C 
ATOM      7  O   UNL     1     249.306 258.612 247.635  1.00  0.00    -0.550 OA
ATOM      8  O   UNL     1     249.205 260.458 246.283  1.00  0.00    -0.550 OA
ENDBRANCH   5   6
ENDBRANCH   4   5
ENDBRANCH   3   4
ENDBRANCH   2   3
ENDBRANCH   1   2
BRANCH   1   9
ATOM      9  C   UNL     1     254.993 260.597 247.814  1.00  0.00     0.000 C 
BRANCH   9  10
ATOM     10  C   UNL     1     256.346 260.197 248.429  1.00  0.00    -0.000 C 
BRANCH  10  11
ATOM     11  C   UNL     1     257.412 261.298 248.295  1.00  0.00    -0.000 C 
BRANCH  11  12
ATOM     12  C   UNL     1     258.410 261.104 247.135  1.00  0.00    -0.000 C 
BRANCH  12  13
ATOM     13  C   UNL     1     258.174 262.054 245.943  1.00  0.00    -0.003 C 
ATOM     14  C   UNL     1     258.163 261.319 244.603  1.00  0.00     0.004 C 
ENDBRANCH  12  13
ENDBRANCH  11  12
ENDBRANCH  10  11
ENDBRANCH   9  10
ENDBRANCH   1   9
TORSDOF 10
ENDMDL
MODEL 8
REMARK VINA RESULT:    -4.474      3.492      6.371
REMARK INTER + INTRA:          -7.855
REMARK INTER:                  -7.112
REMARK INTRA:                  -0.742
REMARK UNBOUND:                -0.764
REMARK SMILES CCCCCCCCCCCC(=O)[O-]
REMARK SMILES IDX 7 1 8 2 9 3 10 4 11 5 12 6 13 7 14 8 6 9 5 10 4 11 3 12 2 13
REMARK SMILES IDX 1 14
REMARK H PARENT
REMARK Flexibility Score: inf
ROOT
ATOM      1  C   UNL     1     254.122 260.884 246.800  1.00  0.00     0.000 C 
ENDROOT
BRANCH   1   2
ATOM      2  C   UNL     1     254.234 259.591 245.971  1.00  0.00     0.000 C 
BRANCH   2   3
ATOM      3  C   UNL     1     254.033 258.321 246.811  1.00  0.00     0.000 C 
BRANCH   3   4
ATOM      4  C   UNL     1     252.685 257.662 246.494  1.00  0.00     0.006 C 
BRANCH   4   5
ATOM      5  C   UNL     1     251.705 257.828 247.659  1.00  0.00     0.053 C 
BRANCH   5   6
ATOM      6  C   UNL     1     250.548 258.685 247.252  1.00  0.00     0.041 C 
ATOM      7  O   UNL     1     250.736 259.880 246.905  1.00  0.00    -0.550 OA
ATOM      8  O   UNL     1     249.256 258.178 247.301  1.00  0.00    -0.550 OA
ENDBRANCH   5   6
ENDBRANCH   4   5
ENDBRANCH   3   4
ENDBRANCH   2   3
ENDBRANCH   1   2
BRANCH   1   9
ATOM      9  C   UNL     1     254.107 260.682 248.326  1.00  0.00     0.000 C 
BRANCH   9  10
ATOM     10  C   UNL     1     255.504 260.808 248.961  1.00  0.00    -0.000 C 
BRANCH  10  11
ATOM     11  C   UNL     1     255.495 260.559 250.479  1.00  0.00    -0.000 C 
BRANCH  11  12
ATOM     12  C   UNL     1     255.743 261.808 251.348  1.00  0.00    -0.000 C 
BRANCH  12  13
ATOM     13  C   UNL     1     254.496 262.291 252.117  1.00  0.00    -0.003 C 
ATOM     14  C   UNL     1     254.658 262.166 253.631  1.00  0.00     0.004 C 
ENDBRANCH  12  13
ENDBRANCH  11  12
ENDBRANCH  10  11
ENDBRANCH   9  10
ENDBRANCH   1   9
TORSDOF 10
ENDMDL
MODEL 9
REMARK VINA RESULT:    -4.470      3.944      6.341
REMARK INTER + INTRA:          -7.848
REMARK INTER:                  -7.140
REMARK INTRA:                  -0.708
REMARK UNBOUND:                -0.764
REMARK SMILES CCCCCCCCCCCC(=O)[O-]
REMARK SMILES IDX 7 1 8 2 9 3 10 4 11 5 12 6 13 7 14 8 6 9 5 10 4 11 3 12 2 13
REMARK SMILES IDX 1 14
REMARK H PARENT
REMARK Flexibility Score: inf
ROOT
ATOM      1  C   UNL     1     255.457 260.434 244.734  1.00  0.00     0.000 C 
ENDROOT
BRANCH   1   2
ATOM      2  C   UNL     1     256.578 261.236 245.422  1.00  0.00     0.000 C 
BRANCH   2   3
ATOM      3  C   UNL     1     257.922 261.140 244.685  1.00  0.00     0.000 C 
BRANCH   3   4
ATOM      4  C   UNL     1     259.093 261.385 245.645  1.00  0.00     0.006 C 
BRANCH   4   5
ATOM      5  C   UNL     1     258.635 261.295 247.104  1.00  0.00     0.053 C 
BRANCH   5   6
ATOM      6  C   UNL     1     259.630 260.531 247.919  1.00  0.00     0.041 C 
ATOM      7  O   UNL     1     259.973 260.950 249.056  1.00  0.00    -0.550 OA
ATOM      8  O   UNL     1     260.216 259.382 247.404  1.00  0.00    -0.550 OA
ENDBRANCH   5   6
ENDBRANCH   4   5
ENDBRANCH   3   4
ENDBRANCH   2   3
ENDBRANCH   1   2
BRANCH   1   9
ATOM      9  C   UNL     1     254.387 259.863 245.682  1.00  0.00     0.000 C 
BRANCH   9  10
ATOM     10  C   UNL     1     253.859 260.903 246.686  1.00  0.00    -0.000 C 
BRANCH  10  11
ATOM     11  C   UNL     1     254.039 260.465 248.149  1.00  0.00    -0.000 C 
BRANCH  11  12
ATOM     12  C   UNL     1     255.404 260.814 248.774  1.00  0.00    -0.000 C 
BRANCH  12  13
ATOM     13  C   UNL     1     255.348 261.072 250.294  1.00  0.00    -0.003 C 
ATOM     14  C   UNL     1     255.252 259.780 251.103  1.00  0.00     0.004 C 
ENDBRANCH  12  13
ENDBRANCH  11  12
ENDBRANCH  10  11
ENDBRANCH   9  10
ENDBRANCH   1   9
TORSDOF 10
ENDMDL
