MODEL 1
REMARK VINA RESULT:    34.293      0.000      0.000
REMARK INTER + INTRA:          37.699
REMARK INTER:                  37.300
REMARK INTRA:                   0.398
REMARK UNBOUND:                 0.398
REMARK SMILES C[C@@H]1[C@H](C)CC[C@@]2(C(=O)[O-])CC[C@@]3(C)C(=CC[C@@H]4[C@]5(C)CC[C@@H](O)C(C)(C)[C@@H]5CC[C@]43C)[C@@H]12
REMARK SMILES IDX 7 1 6 2 11 3 33 4 5 5 12 6 15 7 2 8 3 9 13 10 16 11 1 12
REMARK SMILES IDX 4 13 14 14 31 15 17 16 18 17 30 18 32 19 19 20 29 21 28 22
REMARK SMILES IDX 21 23 20 24 25 25 22 26 23 27 26 28 27 29 8 30 9 31 10 32
REMARK SMILES IDX 24 33
REMARK H PARENT 24 34
REMARK Flexibility Score: inf
ROOT
ATOM      1  C   UNL     1       1.542  22.342  52.244  1.00  0.00     0.017 C 
ATOM      2  C   UNL     1       2.199  22.069  53.627  1.00  0.00     0.014 C 
ATOM      3  C   UNL     1       1.895  21.211  51.242  1.00  0.00     0.014 C 
ATOM      4  C   UNL     1      -0.016  22.462  52.375  1.00  0.00     0.030 C 
ATOM      5  C   UNL     1       1.527  20.946  54.428  1.00  0.00     0.004 C 
ATOM      6  C   UNL     1       1.275  21.434  49.843  1.00  0.00     0.013 C 
ATOM      7  C   UNL     1      -0.641  22.602  50.972  1.00  0.00    -0.063 C 
ATOM      8  C   UNL     1      -0.680  21.360  53.256  1.00  0.00    -0.003 C 
ATOM      9  C   UNL     1       0.023  21.199  54.632  1.00  0.00    -0.011 C 
ATOM     10  C   UNL     1      -0.287  21.592  49.837  1.00  0.00    -0.006 C 
ATOM     11  C   UNL     1      -1.255  23.783  50.719  1.00  0.00    -0.027 C 
ATOM     12  C   UNL     1      -2.192  21.604  53.418  1.00  0.00     0.008 C 
ATOM     13  C   UNL     1      -0.228  22.357  55.619  1.00  0.00     0.008 C 
ATOM     14  C   UNL     1      -0.891  20.184  50.148  1.00  0.00     0.017 C 
ATOM     15  C   UNL     1      -0.849  22.090  48.395  1.00  0.00    -0.020 C 
ATOM     16  C   UNL     1      -1.537  24.325  49.353  1.00  0.00     0.032 C 
ATOM     17  C   UNL     1      -0.691  23.635  48.261  1.00  0.00     0.006 C 
ATOM     18  C   UNL     1      -0.030  21.453  47.241  1.00  0.00     0.008 C 
ATOM     19  C   UNL     1      -2.363  21.710  48.249  1.00  0.00     0.012 C 
ATOM     20  C   UNL     1      -0.821  24.313  46.797  1.00  0.00    -0.025 C 
ATOM     21  C   UNL     1      -0.593  21.801  45.878  1.00  0.00     0.005 C 
ATOM     22  C   UNL     1      -0.564  23.320  45.558  1.00  0.00     0.003 C 
ATOM     23  C   UNL     1      -2.185  25.049  46.605  1.00  0.00     0.010 C 
ATOM     24  C   UNL     1       0.284  25.424  46.792  1.00  0.00     0.012 C 
ATOM     25  C   UNL     1      -1.396  23.619  44.224  1.00  0.00    -0.006 C 
ATOM     26  C   UNL     1      -2.348  25.793  45.263  1.00  0.00     0.033 C 
ATOM     27  C   UNL     1      -1.662  25.141  44.041  1.00  0.00     0.120 C 
ATOM     28  C   UNL     1      -2.772  22.882  44.164  1.00  0.00     0.014 C 
ATOM     29  C   UNL     1      -0.588  23.127  42.990  1.00  0.00     0.014 C 
ENDROOT
BRANCH   1  30
ATOM     30  C   UNL     1       2.151  23.650  51.737  1.00  0.00     0.048 C 
ATOM     31  O   UNL     1       3.353  23.708  51.364  1.00  0.00    -0.550 OA
ATOM     32  O   UNL     1       1.353  24.779  51.589  1.00  0.00    -0.550 OA
ENDBRANCH   1  30
BRANCH  27  33
ATOM     33  O   UNL     1      -0.470  25.819  43.725  1.00  0.00    -0.393 OA
ATOM     34  H   UNL     1      -0.305  25.690  42.755  1.00  0.00     0.210 HD
ENDBRANCH  27  33
TORSDOF 2
ENDMDL
