MODEL 1
REMARK VINA RESULT:    -5.619      0.000      0.000
REMARK INTER + INTRA:          -6.901
REMARK INTER:                  -6.605
REMARK INTRA:                  -0.296
REMARK UNBOUND:                -0.296
REMARK SMILES O=c1cc(-c2ccc(O)c(O)c2)oc2cc(O)cc(O)c12
REMARK SMILES IDX 4 1 3 2 2 3 1 4 21 5 19 6 18 7 16 8 15 9 14 10 13 11 5 12
REMARK SMILES IDX 6 13 7 14 8 15 12 16 10 17 9 18 11 20 20 22 17 24
REMARK H PARENT 9 19 11 21 20 23 17 25
REMARK Flexibility Score: inf
ROOT
ATOM      1  C   UNL     1     -11.427   7.371  -1.433  1.00  0.00     0.138 A 
ATOM      2  C   UNL     1     -10.962   7.921  -2.636  1.00  0.00     0.100 A 
ATOM      3  C   UNL     1     -10.996   7.159  -3.805  1.00  0.00     0.197 A 
ATOM      4  O   UNL     1     -10.623   7.699  -4.876  1.00  0.00    -0.289 OA
ATOM      5  C   UNL     1     -11.466   5.824  -3.759  1.00  0.00     0.107 A 
ATOM      6  C   UNL     1     -11.515   4.940  -4.879  1.00  0.00     0.134 A 
ATOM      7  C   UNL     1     -12.093   3.673  -4.733  1.00  0.00     0.093 A 
ATOM      8  C   UNL     1     -12.570   3.236  -3.498  1.00  0.00     0.123 A 
ATOM      9  C   UNL     1     -12.481   4.072  -2.385  1.00  0.00     0.094 A 
ATOM     10  C   UNL     1     -11.942   5.355  -2.505  1.00  0.00     0.146 A 
ATOM     11  O   UNL     1     -11.893   6.127  -1.425  1.00  0.00    -0.456 OA
ENDROOT
BRANCH   1  12
ATOM     12  C   UNL     1     -11.410   8.136  -0.162  1.00  0.00     0.021 A 
ATOM     13  C   UNL     1     -11.799   9.488  -0.105  1.00  0.00     0.016 A 
ATOM     14  C   UNL     1     -11.783  10.179   1.109  1.00  0.00     0.051 A 
ATOM     15  C   UNL     1     -11.388   9.538   2.285  1.00  0.00     0.157 A 
ATOM     16  C   UNL     1     -11.028   7.491   1.028  1.00  0.00     0.062 A 
ATOM     17  C   UNL     1     -11.011   8.185   2.247  1.00  0.00     0.158 A 
BRANCH  15  18
ATOM     18  O   UNL     1     -11.382  10.256   3.481  1.00  0.00    -0.504 OA
ATOM     19  H   UNL     1     -10.702  10.080   4.210  1.00  0.00     0.293 HD
ENDBRANCH  15  18
BRANCH  17  20
ATOM     20  O   UNL     1     -10.619   7.537   3.417  1.00  0.00    -0.504 OA
ATOM     21  H   UNL     1     -10.357   6.558   3.420  1.00  0.00     0.293 HD
ENDBRANCH  17  20
ENDBRANCH   1  12
BRANCH   6  22
ATOM     22  O   UNL     1     -10.995   5.243  -6.141  1.00  0.00    -0.507 OA
ATOM     23  H   UNL     1     -10.557   6.116  -6.393  1.00  0.00     0.293 HD
ENDBRANCH   6  22
BRANCH   8  24
ATOM     24  O   UNL     1     -13.125   1.962  -3.387  1.00  0.00    -0.508 OA
ATOM     25  H   UNL     1     -12.675   1.151  -3.793  1.00  0.00     0.293 HD
ENDBRANCH   8  24
TORSDOF 5
ENDMDL
MODEL 2
REMARK VINA RESULT:    -5.423      1.593      3.288
REMARK INTER + INTRA:          -6.670
REMARK INTER:                  -6.357
REMARK INTRA:                  -0.313
REMARK UNBOUND:                -0.296
REMARK SMILES O=c1cc(-c2ccc(O)c(O)c2)oc2cc(O)cc(O)c12
REMARK SMILES IDX 4 1 3 2 2 3 1 4 21 5 19 6 18 7 16 8 15 9 14 10 13 11 5 12
REMARK SMILES IDX 6 13 7 14 8 15 12 16 10 17 9 18 11 20 20 22 17 24
REMARK H PARENT 9 19 11 21 20 23 17 25
REMARK Flexibility Score: inf
ROOT
ATOM      1  C   UNL     1     -12.103   7.529   0.217  1.00  0.00     0.138 A 
ATOM      2  C   UNL     1     -12.627   6.306   0.660  1.00  0.00     0.100 A 
ATOM      3  C   UNL     1     -12.701   5.225  -0.221  1.00  0.00     0.197 A 
ATOM      4  O   UNL     1     -13.125   4.128   0.222  1.00  0.00    -0.289 OA
ATOM      5  C   UNL     1     -12.279   5.383  -1.563  1.00  0.00     0.107 A 
ATOM      6  C   UNL     1     -12.338   4.362  -2.560  1.00  0.00     0.134 A 
ATOM      7  C   UNL     1     -11.799   4.606  -3.829  1.00  0.00     0.093 A 
ATOM      8  C   UNL     1     -11.257   5.847  -4.157  1.00  0.00     0.123 A 
ATOM      9  C   UNL     1     -11.239   6.869  -3.206  1.00  0.00     0.094 A 
ATOM     10  C   UNL     1     -11.737   6.647  -1.920  1.00  0.00     0.146 A 
ATOM     11  O   UNL     1     -11.684   7.640  -1.039  1.00  0.00    -0.456 OA
ENDROOT
BRANCH   1  12
ATOM     12  C   UNL     1     -12.005   8.710   1.110  1.00  0.00     0.021 A 
ATOM     13  C   UNL     1     -12.769   8.813   2.288  1.00  0.00     0.016 A 
ATOM     14  C   UNL     1     -12.648   9.933   3.115  1.00  0.00     0.051 A 
ATOM     15  C   UNL     1     -11.762  10.963   2.788  1.00  0.00     0.157 A 
ATOM     16  C   UNL     1     -11.105   9.743   0.794  1.00  0.00     0.062 A 
ATOM     17  C   UNL     1     -10.984  10.868   1.623  1.00  0.00     0.158 A 
BRANCH  15  18
ATOM     18  O   UNL     1     -11.665  12.068   3.634  1.00  0.00    -0.504 OA
ATOM     19  H   UNL     1     -10.846  12.237   4.205  1.00  0.00     0.293 HD
ENDBRANCH  15  18
BRANCH  17  20
ATOM     20  O   UNL     1     -10.095  11.890   1.292  1.00  0.00    -0.504 OA
ATOM     21  H   UNL     1      -9.978  12.704   1.883  1.00  0.00     0.293 HD
ENDBRANCH  17  20
ENDBRANCH   1  12
BRANCH   6  22
ATOM     22  O   UNL     1     -12.931   3.111  -2.366  1.00  0.00    -0.507 OA
ATOM     23  H   UNL     1     -13.217   2.484  -3.102  1.00  0.00     0.293 HD
ENDBRANCH   6  22
BRANCH   8  24
ATOM     24  O   UNL     1     -10.744   6.058  -5.435  1.00  0.00    -0.508 OA
ATOM     25  H   UNL     1     -10.147   5.375  -5.886  1.00  0.00     0.293 HD
ENDBRANCH   8  24
TORSDOF 5
ENDMDL
MODEL 3
REMARK VINA RESULT:    -5.298      1.371      6.997
REMARK INTER + INTRA:          -6.523
REMARK INTER:                  -6.247
REMARK INTRA:                  -0.276
REMARK UNBOUND:                -0.296
REMARK SMILES O=c1cc(-c2ccc(O)c(O)c2)oc2cc(O)cc(O)c12
REMARK SMILES IDX 4 1 3 2 2 3 1 4 21 5 19 6 18 7 16 8 15 9 14 10 13 11 5 12
REMARK SMILES IDX 6 13 7 14 8 15 12 16 10 17 9 18 11 20 20 22 17 24
REMARK H PARENT 9 19 11 21 20 23 17 25
REMARK Flexibility Score: inf
ROOT
ATOM      1  C   UNL     1     -11.681   7.199  -1.670  1.00  0.00     0.138 A 
ATOM      2  C   UNL     1     -12.207   8.499  -1.670  1.00  0.00     0.100 A 
ATOM      3  C   UNL     1     -12.225   9.237  -0.485  1.00  0.00     0.197 A 
ATOM      4  O   UNL     1     -12.652  10.418  -0.530  1.00  0.00    -0.289 OA
ATOM      5  C   UNL     1     -11.747   8.655   0.713  1.00  0.00     0.107 A 
ATOM      6  C   UNL     1     -11.747   9.299   1.988  1.00  0.00     0.134 A 
ATOM      7  C   UNL     1     -11.157   8.660   3.084  1.00  0.00     0.093 A 
ATOM      8  C   UNL     1     -10.619   7.379   2.968  1.00  0.00     0.123 A 
ATOM      9  C   UNL     1     -10.658   6.719   1.740  1.00  0.00     0.094 A 
ATOM     10  C   UNL     1     -11.209   7.344   0.618  1.00  0.00     0.146 A 
ATOM     11  O   UNL     1     -11.209   6.688  -0.537  1.00  0.00    -0.456 OA
ENDROOT
BRANCH   1  12
ATOM     12  C   UNL     1     -11.641   6.369  -2.899  1.00  0.00     0.021 A 
ATOM     13  C   UNL     1     -12.022   5.013  -2.892  1.00  0.00     0.016 A 
ATOM     14  C   UNL     1     -11.983   4.260  -4.067  1.00  0.00     0.051 A 
ATOM     15  C   UNL     1     -11.573   4.842  -5.269  1.00  0.00     0.157 A 
ATOM     16  C   UNL     1     -11.242   6.953  -4.115  1.00  0.00     0.062 A 
ATOM     17  C   UNL     1     -11.203   6.197  -5.296  1.00  0.00     0.158 A 
BRANCH  15  18
ATOM     18  O   UNL     1     -11.545   4.063  -6.426  1.00  0.00    -0.504 OA
ATOM     19  H   UNL     1     -11.053   4.358  -7.260  1.00  0.00     0.293 HD
ENDBRANCH  15  18
BRANCH  17  20
ATOM     20  O   UNL     1     -10.796   6.786  -6.492  1.00  0.00    -0.504 OA
ATOM     21  H   UNL     1      -9.906   6.559  -6.920  1.00  0.00     0.293 HD
ENDBRANCH  17  20
ENDBRANCH   1  12
BRANCH   6  22
ATOM     22  O   UNL     1     -12.330  10.546   2.235  1.00  0.00    -0.507 OA
ATOM     23  H   UNL     1     -13.238  10.691   2.647  1.00  0.00     0.293 HD
ENDBRANCH   6  22
BRANCH   8  24
ATOM     24  O   UNL     1     -10.053   6.767   4.086  1.00  0.00    -0.508 OA
ATOM     25  H   UNL     1     -10.608   6.210   4.723  1.00  0.00     0.293 HD
ENDBRANCH   8  24
TORSDOF 5
ENDMDL
MODEL 4
REMARK VINA RESULT:    -5.277      1.592      3.181
REMARK INTER + INTRA:          -6.499
REMARK INTER:                  -6.218
REMARK INTRA:                  -0.281
REMARK UNBOUND:                -0.296
REMARK SMILES O=c1cc(-c2ccc(O)c(O)c2)oc2cc(O)cc(O)c12
REMARK SMILES IDX 4 1 3 2 2 3 1 4 21 5 19 6 18 7 16 8 15 9 14 10 13 11 5 12
REMARK SMILES IDX 6 13 7 14 8 15 12 16 10 17 9 18 11 20 20 22 17 24
REMARK H PARENT 9 19 11 21 20 23 17 25
REMARK Flexibility Score: inf
ROOT
ATOM      1  C   UNL     1     -11.410   7.193  -1.856  1.00  0.00     0.138 A 
ATOM      2  C   UNL     1     -11.732   5.861  -2.152  1.00  0.00     0.100 A 
ATOM      3  C   UNL     1     -11.803   5.446  -3.483  1.00  0.00     0.197 A 
ATOM      4  O   UNL     1     -12.041   4.234  -3.715  1.00  0.00    -0.289 OA
ATOM      5  C   UNL     1     -11.583   6.382  -4.523  1.00  0.00     0.107 A 
ATOM      6  C   UNL     1     -11.662   6.083  -5.917  1.00  0.00     0.134 A 
ATOM      7  C   UNL     1     -11.327   7.067  -6.854  1.00  0.00     0.093 A 
ATOM      8  C   UNL     1     -10.973   8.354  -6.453  1.00  0.00     0.123 A 
ATOM      9  C   UNL     1     -10.942   8.673  -5.094  1.00  0.00     0.094 A 
ATOM     10  C   UNL     1     -11.237   7.703  -4.133  1.00  0.00     0.146 A 
ATOM     11  O   UNL     1     -11.177   8.043  -2.850  1.00  0.00    -0.456 OA
ENDROOT
BRANCH   1  12
ATOM     12  C   UNL     1     -11.325   7.687  -0.459  1.00  0.00     0.021 A 
ATOM     13  C   UNL     1     -11.763   8.976  -0.101  1.00  0.00     0.016 A 
ATOM     14  C   UNL     1     -11.681   9.410   1.224  1.00  0.00     0.051 A 
ATOM     15  C   UNL     1     -11.170   8.568   2.215  1.00  0.00     0.157 A 
ATOM     16  C   UNL     1     -10.824   6.839   0.545  1.00  0.00     0.062 A 
ATOM     17  C   UNL     1     -10.741   7.275   1.876  1.00  0.00     0.158 A 
BRANCH  15  18
ATOM     18  O   UNL     1     -11.100   9.031   3.529  1.00  0.00    -0.504 OA
ATOM     19  H   UNL     1     -10.226   9.072   4.039  1.00  0.00     0.293 HD
ENDBRANCH  15  18
BRANCH  17  20
ATOM     20  O   UNL     1     -10.233   6.427   2.860  1.00  0.00    -0.504 OA
ATOM     21  H   UNL     1     -10.523   5.459   2.929  1.00  0.00     0.293 HD
ENDBRANCH  17  20
ENDBRANCH   1  12
BRANCH   6  22
ATOM     22  O   UNL     1     -12.082   4.852  -6.432  1.00  0.00    -0.507 OA
ATOM     23  H   UNL     1     -11.697   3.956  -6.179  1.00  0.00     0.293 HD
ENDBRANCH   6  22
BRANCH   8  24
ATOM     24  O   UNL     1     -10.661   9.314  -7.414  1.00  0.00    -0.508 OA
ATOM     25  H   UNL     1     -11.344   9.994  -7.726  1.00  0.00     0.293 HD
ENDBRANCH   8  24
TORSDOF 5
ENDMDL
MODEL 5
REMARK VINA RESULT:    -5.081      1.886      7.265
REMARK INTER + INTRA:          -6.268
REMARK INTER:                  -5.974
REMARK INTRA:                  -0.295
REMARK UNBOUND:                -0.296
REMARK SMILES O=c1cc(-c2ccc(O)c(O)c2)oc2cc(O)cc(O)c12
REMARK SMILES IDX 4 1 3 2 2 3 1 4 21 5 19 6 18 7 16 8 15 9 14 10 13 11 5 12
REMARK SMILES IDX 6 13 7 14 8 15 12 16 10 17 9 18 11 20 20 22 17 24
REMARK H PARENT 9 19 11 21 20 23 17 25
REMARK Flexibility Score: inf
ROOT
ATOM      1  C   UNL     1     -11.490   7.766  -1.373  1.00  0.00     0.138 A 
ATOM      2  C   UNL     1     -11.111   6.726  -0.513  1.00  0.00     0.100 A 
ATOM      3  C   UNL     1     -11.035   6.958   0.861  1.00  0.00     0.197 A 
ATOM      4  O   UNL     1     -10.745   5.991   1.610  1.00  0.00    -0.289 OA
ATOM      5  C   UNL     1     -11.306   8.250   1.372  1.00  0.00     0.107 A 
ATOM      6  C   UNL     1     -11.227   8.613   2.751  1.00  0.00     0.134 A 
ATOM      7  C   UNL     1     -11.615   9.898   3.149  1.00  0.00     0.093 A 
ATOM      8  C   UNL     1     -12.022  10.850   2.216  1.00  0.00     0.123 A 
ATOM      9  C   UNL     1     -12.055  10.523   0.860  1.00  0.00     0.094 A 
ATOM     10  C   UNL     1     -11.708   9.238   0.434  1.00  0.00     0.146 A 
ATOM     11  O   UNL     1     -11.770   8.962  -0.864  1.00  0.00    -0.456 OA
ENDROOT
BRANCH   1  12
ATOM     12  C   UNL     1     -11.584   7.576  -2.842  1.00  0.00     0.021 A 
ATOM     13  C   UNL     1     -12.025   8.604  -3.696  1.00  0.00     0.016 A 
ATOM     14  C   UNL     1     -12.092   8.399  -5.076  1.00  0.00     0.051 A 
ATOM     15  C   UNL     1     -11.715   7.173  -5.630  1.00  0.00     0.157 A 
ATOM     16  C   UNL     1     -11.192   6.349  -3.406  1.00  0.00     0.062 A 
ATOM     17  C   UNL     1     -11.260   6.142  -4.792  1.00  0.00     0.158 A 
BRANCH  15  18
ATOM     18  O   UNL     1     -11.794   6.999  -7.011  1.00  0.00    -0.504 OA
ATOM     19  H   UNL     1     -10.972   7.013  -7.602  1.00  0.00     0.293 HD
ENDBRANCH  15  18
BRANCH  17  20
ATOM     20  O   UNL     1     -10.878   4.917  -5.336  1.00  0.00    -0.504 OA
ATOM     21  H   UNL     1     -10.521   4.166  -4.757  1.00  0.00     0.293 HD
ENDBRANCH  17  20
ENDBRANCH   1  12
BRANCH   6  22
ATOM     22  O   UNL     1     -10.758   7.766   3.759  1.00  0.00    -0.507 OA
ATOM     23  H   UNL     1     -10.164   6.965   3.613  1.00  0.00     0.293 HD
ENDBRANCH   6  22
BRANCH   8  24
ATOM     24  O   UNL     1     -12.386  12.125   2.647  1.00  0.00    -0.508 OA
ATOM     25  H   UNL     1     -13.020  12.260   3.425  1.00  0.00     0.293 HD
ENDBRANCH   8  24
TORSDOF 5
ENDMDL
MODEL 6
REMARK VINA RESULT:    -5.018      3.273      7.444
REMARK INTER + INTRA:          -6.195
REMARK INTER:                  -5.908
REMARK INTRA:                  -0.287
REMARK UNBOUND:                -0.296
REMARK SMILES O=c1cc(-c2ccc(O)c(O)c2)oc2cc(O)cc(O)c12
REMARK SMILES IDX 4 1 3 2 2 3 1 4 21 5 19 6 18 7 16 8 15 9 14 10 13 11 5 12
REMARK SMILES IDX 6 13 7 14 8 15 12 16 10 17 9 18 11 20 20 22 17 24
REMARK H PARENT 9 19 11 21 20 23 17 25
REMARK Flexibility Score: inf
ROOT
ATOM      1  C   UNL     1     -12.687   2.403  -1.367  1.00  0.00     0.138 A 
ATOM      2  C   UNL     1     -12.909   3.115  -0.180  1.00  0.00     0.100 A 
ATOM      3  C   UNL     1     -12.865   4.510  -0.191  1.00  0.00     0.197 A 
ATOM      4  O   UNL     1     -13.122   5.120   0.877  1.00  0.00    -0.289 OA
ATOM      5  C   UNL     1     -12.561   5.193  -1.393  1.00  0.00     0.107 A 
ATOM      6  C   UNL     1     -12.454   6.612  -1.518  1.00  0.00     0.134 A 
ATOM      7  C   UNL     1     -12.246   7.180  -2.781  1.00  0.00     0.093 A 
ATOM      8  C   UNL     1     -12.083   6.382  -3.912  1.00  0.00     0.123 A 
ATOM      9  C   UNL     1     -12.134   4.992  -3.794  1.00  0.00     0.094 A 
ATOM     10  C   UNL     1     -12.375   4.396  -2.554  1.00  0.00     0.146 A 
ATOM     11  O   UNL     1     -12.436   3.070  -2.488  1.00  0.00    -0.456 OA
ENDROOT
BRANCH   1  12
ATOM     12  C   UNL     1     -12.719   0.920  -1.411  1.00  0.00     0.021 A 
ATOM     13  C   UNL     1     -13.051   0.220  -2.586  1.00  0.00     0.016 A 
ATOM     14  C   UNL     1     -13.062  -1.177  -2.599  1.00  0.00     0.051 A 
ATOM     15  C   UNL     1     -12.737  -1.900  -1.449  1.00  0.00     0.157 A 
ATOM     16  C   UNL     1     -12.379   0.187  -0.259  1.00  0.00     0.062 A 
ATOM     17  C   UNL     1     -12.390  -1.215  -0.272  1.00  0.00     0.158 A 
BRANCH  15  18
ATOM     18  O   UNL     1     -12.758  -3.293  -1.494  1.00  0.00    -0.504 OA
ATOM     19  H   UNL     1     -12.196  -3.860  -0.870  1.00  0.00     0.293 HD
ENDBRANCH  15  18
BRANCH  17  20
ATOM     20  O   UNL     1     -12.060  -1.929   0.879  1.00  0.00    -0.504 OA
ATOM     21  H   UNL     1     -12.718  -2.563   1.318  1.00  0.00     0.293 HD
ENDBRANCH  17  20
ENDBRANCH   1  12
BRANCH   6  22
ATOM     22  O   UNL     1     -12.522   7.501  -0.441  1.00  0.00    -0.507 OA
ATOM     23  H   UNL     1     -13.027   8.373  -0.440  1.00  0.00     0.293 HD
ENDBRANCH   6  22
BRANCH   8  24
ATOM     24  O   UNL     1     -11.861   6.981  -5.151  1.00  0.00    -0.508 OA
ATOM     25  H   UNL     1     -11.549   6.445  -5.951  1.00  0.00     0.293 HD
ENDBRANCH   8  24
TORSDOF 5
ENDMDL
MODEL 7
REMARK VINA RESULT:    -4.934      1.730      2.413
REMARK INTER + INTRA:          -6.095
REMARK INTER:                  -5.777
REMARK INTRA:                  -0.318
REMARK UNBOUND:                -0.296
REMARK SMILES O=c1cc(-c2ccc(O)c(O)c2)oc2cc(O)cc(O)c12
REMARK SMILES IDX 4 1 3 2 2 3 1 4 21 5 19 6 18 7 16 8 15 9 14 10 13 11 5 12
REMARK SMILES IDX 6 13 7 14 8 15 12 16 10 17 9 18 11 20 20 22 17 24
REMARK H PARENT 9 19 11 21 20 23 17 25
REMARK Flexibility Score: inf
ROOT
ATOM      1  C   UNL     1     -11.665   7.947  -1.952  1.00  0.00     0.138 A 
ATOM      2  C   UNL     1     -12.080   9.101  -2.631  1.00  0.00     0.100 A 
ATOM      3  C   UNL     1     -12.317   9.048  -4.005  1.00  0.00     0.197 A 
ATOM      4  O   UNL     1     -12.740  10.085  -4.575  1.00  0.00    -0.289 OA
ATOM      5  C   UNL     1     -12.102   7.838  -4.709  1.00  0.00     0.107 A 
ATOM      6  C   UNL     1     -12.278   7.672  -6.116  1.00  0.00     0.134 A 
ATOM      7  C   UNL     1     -12.132   6.401  -6.685  1.00  0.00     0.093 A 
ATOM      8  C   UNL     1     -11.759   5.304  -5.911  1.00  0.00     0.123 A 
ATOM      9  C   UNL     1     -11.535   5.464  -4.543  1.00  0.00     0.094 A 
ATOM     10  C   UNL     1     -11.707   6.711  -3.939  1.00  0.00     0.146 A 
ATOM     11  O   UNL     1     -11.502   6.816  -2.630  1.00  0.00    -0.456 OA
ENDROOT
BRANCH   1  12
ATOM     12  C   UNL     1     -11.396   7.949  -0.492  1.00  0.00     0.021 A 
ATOM     13  C   UNL     1     -11.572   9.105   0.292  1.00  0.00     0.016 A 
ATOM     14  C   UNL     1     -11.320   9.073   1.666  1.00  0.00     0.051 A 
ATOM     15  C   UNL     1     -10.897   7.893   2.283  1.00  0.00     0.157 A 
ATOM     16  C   UNL     1     -10.984   6.761   0.136  1.00  0.00     0.062 A 
ATOM     17  C   UNL     1     -10.730   6.729   1.516  1.00  0.00     0.158 A 
BRANCH  15  18
ATOM     18  O   UNL     1     -10.654   7.895   3.656  1.00  0.00    -0.504 OA
ATOM     19  H   UNL     1     -11.014   8.620   4.265  1.00  0.00     0.293 HD
ENDBRANCH  15  18
BRANCH  17  20
ATOM     20  O   UNL     1     -10.312   5.546   2.124  1.00  0.00    -0.504 OA
ATOM     21  H   UNL     1     -10.685   5.248   3.017  1.00  0.00     0.293 HD
ENDBRANCH  17  20
ENDBRANCH   1  12
BRANCH   6  22
ATOM     22  O   UNL     1     -12.573   8.717  -6.997  1.00  0.00    -0.507 OA
ATOM     23  H   UNL     1     -12.807   8.606  -7.972  1.00  0.00     0.293 HD
ENDBRANCH   6  22
BRANCH   8  24
ATOM     24  O   UNL     1     -11.607   4.056  -6.515  1.00  0.00    -0.508 OA
ATOM     25  H   UNL     1     -10.790   3.833  -7.069  1.00  0.00     0.293 HD
ENDBRANCH   8  24
TORSDOF 5
ENDMDL
MODEL 8
REMARK VINA RESULT:    -4.828      3.454      7.305
REMARK INTER + INTRA:          -5.970
REMARK INTER:                  -5.661
REMARK INTRA:                  -0.310
REMARK UNBOUND:                -0.296
REMARK SMILES O=c1cc(-c2ccc(O)c(O)c2)oc2cc(O)cc(O)c12
REMARK SMILES IDX 4 1 3 2 2 3 1 4 21 5 19 6 18 7 16 8 15 9 14 10 13 11 5 12
REMARK SMILES IDX 6 13 7 14 8 15 12 16 10 17 9 18 11 20 20 22 17 24
REMARK H PARENT 9 19 11 21 20 23 17 25
REMARK Flexibility Score: inf
ROOT
ATOM      1  C   UNL     1     -12.698   2.293  -1.877  1.00  0.00     0.138 A 
ATOM      2  C   UNL     1     -12.603   2.812  -3.176  1.00  0.00     0.100 A 
ATOM      3  C   UNL     1     -12.647   4.193  -3.375  1.00  0.00     0.197 A 
ATOM      4  O   UNL     1     -12.505   4.628  -4.545  1.00  0.00    -0.289 OA
ATOM      5  C   UNL     1     -12.823   5.057  -2.267  1.00  0.00     0.107 A 
ATOM      6  C   UNL     1     -12.917   6.479  -2.351  1.00  0.00     0.134 A 
ATOM      7  C   UNL     1     -12.990   7.236  -1.176  1.00  0.00     0.093 A 
ATOM      8  C   UNL     1     -13.033   6.623   0.076  1.00  0.00     0.123 A 
ATOM      9  C   UNL     1     -12.993   5.232   0.168  1.00  0.00     0.094 A 
ATOM     10  C   UNL     1     -12.884   4.449  -0.984  1.00  0.00     0.146 A 
ATOM     11  O   UNL     1     -12.831   3.128  -0.851  1.00  0.00    -0.456 OA
ENDROOT
BRANCH   1  12
ATOM     12  C   UNL     1     -12.661   0.834  -1.609  1.00  0.00     0.021 A 
ATOM     13  C   UNL     1     -13.014  -0.109  -2.593  1.00  0.00     0.016 A 
ATOM     14  C   UNL     1     -12.959  -1.477  -2.315  1.00  0.00     0.051 A 
ATOM     15  C   UNL     1     -12.546  -1.930  -1.060  1.00  0.00     0.157 A 
ATOM     16  C   UNL     1     -12.232   0.372  -0.352  1.00  0.00     0.062 A 
ATOM     17  C   UNL     1     -12.177  -1.001  -0.073  1.00  0.00     0.158 A 
BRANCH  15  18
ATOM     18  O   UNL     1     -12.502  -3.302  -0.814  1.00  0.00    -0.504 OA
ATOM     19  H   UNL     1     -12.458  -3.678   0.125  1.00  0.00     0.293 HD
ENDBRANCH  15  18
BRANCH  17  20
ATOM     20  O   UNL     1     -11.759  -1.445   1.181  1.00  0.00    -0.504 OA
ATOM     21  H   UNL     1     -12.423  -1.687   1.907  1.00  0.00     0.293 HD
ENDBRANCH  17  20
ENDBRANCH   1  12
BRANCH   6  22
ATOM     22  O   UNL     1     -12.964   7.192  -3.553  1.00  0.00    -0.507 OA
ATOM     23  H   UNL     1     -12.657   6.842  -4.447  1.00  0.00     0.293 HD
ENDBRANCH   6  22
BRANCH   8  24
ATOM     24  O   UNL     1     -13.123   7.409   1.224  1.00  0.00    -0.508 OA
ATOM     25  H   UNL     1     -13.898   7.317   1.869  1.00  0.00     0.293 HD
ENDBRANCH   8  24
TORSDOF 5
ENDMDL
MODEL 9
REMARK VINA RESULT:    -4.742      1.979      6.648
REMARK INTER + INTRA:          -5.869
REMARK INTER:                  -5.560
REMARK INTRA:                  -0.310
REMARK UNBOUND:                -0.296
REMARK SMILES O=c1cc(-c2ccc(O)c(O)c2)oc2cc(O)cc(O)c12
REMARK SMILES IDX 4 1 3 2 2 3 1 4 21 5 19 6 18 7 16 8 15 9 14 10 13 11 5 12
REMARK SMILES IDX 6 13 7 14 8 15 12 16 10 17 9 18 11 20 20 22 17 24
REMARK H PARENT 9 19 11 21 20 23 17 25
REMARK Flexibility Score: inf
ROOT
ATOM      1  C   UNL     1     -12.405   6.200  -1.245  1.00  0.00     0.138 A 
ATOM      2  C   UNL     1     -12.657   7.205  -2.189  1.00  0.00     0.100 A 
ATOM      3  C   UNL     1     -12.538   8.546  -1.820  1.00  0.00     0.197 A 
ATOM      4  O   UNL     1     -12.717   9.422  -2.704  1.00  0.00    -0.289 OA
ATOM      5  C   UNL     1     -12.201   8.881  -0.487  1.00  0.00     0.107 A 
ATOM      6  C   UNL     1     -12.084  10.213   0.014  1.00  0.00     0.134 A 
ATOM      7  C   UNL     1     -11.647  10.421   1.327  1.00  0.00     0.093 A 
ATOM      8  C   UNL     1     -11.378   9.349   2.176  1.00  0.00     0.123 A 
ATOM      9  C   UNL     1     -11.536   8.042   1.714  1.00  0.00     0.094 A 
ATOM     10  C   UNL     1     -11.938   7.801   0.397  1.00  0.00     0.146 A 
ATOM     11  O   UNL     1     -12.058   6.541  -0.009  1.00  0.00    -0.456 OA
ENDROOT
BRANCH   1  12
ATOM     12  C   UNL     1     -12.520   4.759  -1.583  1.00  0.00     0.021 A 
ATOM     13  C   UNL     1     -12.356   4.292  -2.901  1.00  0.00     0.016 A 
ATOM     14  C   UNL     1     -12.460   2.928  -3.186  1.00  0.00     0.051 A 
ATOM     15  C   UNL     1     -12.719   2.008  -2.168  1.00  0.00     0.157 A 
ATOM     16  C   UNL     1     -12.766   3.827  -0.559  1.00  0.00     0.062 A 
ATOM     17  C   UNL     1     -12.870   2.458  -0.846  1.00  0.00     0.158 A 
BRANCH  15  18
ATOM     18  O   UNL     1     -12.816   0.653  -2.485  1.00  0.00    -0.504 OA
ATOM     19  H   UNL     1     -12.731   0.317  -3.437  1.00  0.00     0.293 HD
ENDBRANCH  15  18
BRANCH  17  20
ATOM     20  O   UNL     1     -13.125   1.545   0.177  1.00  0.00    -0.504 OA
ATOM     21  H   UNL     1     -12.728   0.613   0.169  1.00  0.00     0.293 HD
ENDBRANCH  17  20
ENDBRANCH   1  12
BRANCH   6  22
ATOM     22  O   UNL     1     -12.405  11.358  -0.723  1.00  0.00    -0.507 OA
ATOM     23  H   UNL     1     -11.779  12.128  -0.900  1.00  0.00     0.293 HD
ENDBRANCH   6  22
BRANCH   8  24
ATOM     24  O   UNL     1     -10.959   9.594   3.483  1.00  0.00    -0.508 OA
ATOM     25  H   UNL     1     -11.284  10.402   4.000  1.00  0.00     0.293 HD
ENDBRANCH   8  24
TORSDOF 5
ENDMDL
