MODEL 1
REMARK VINA RESULT:    -4.518      0.000      0.000
REMARK INTER + INTRA:          -5.641
REMARK INTER:                  -5.443
REMARK INTRA:                  -0.198
REMARK UNBOUND:                -0.198
REMARK SMILES Oc1cc(O)c2cc(O)c(-c3ccc(O)c(O)c3)[o+]c2c1
REMARK SMILES IDX 10 1 19 2 20 3 21 4 2 5 3 6 4 7 6 8 7 9 8 10 11 11 12 12
REMARK SMILES IDX 13 13 14 14 18 15 16 16 15 17 17 19 9 21 1 23 5 25
REMARK H PARENT 15 18 17 20 9 22 1 24 5 26
REMARK Flexibility Score: inf
ROOT
ATOM      1  C   UNL     1       6.203  29.120  24.317  1.00  0.00     0.402 A 
ATOM      2  O   UNL     1       5.427  29.982  23.664  1.00  0.00    -0.202 OA
ATOM      3  C   UNL     1       5.672  31.287  23.609  1.00  0.00     0.368 A 
ATOM      4  C   UNL     1       4.800  32.112  22.895  1.00  0.00     0.162 A 
ATOM      5  C   UNL     1       5.033  33.485  22.817  1.00  0.00     0.128 A 
ATOM      6  C   UNL     1       6.146  34.040  23.457  1.00  0.00     0.093 A 
ATOM      7  C   UNL     1       7.036  33.234  24.179  1.00  0.00     0.136 A 
ATOM      8  C   UNL     1       6.800  31.837  24.262  1.00  0.00     0.125 A 
ATOM      9  C   UNL     1       7.630  30.955  24.975  1.00  0.00     0.078 A 
ATOM     10  C   UNL     1       7.330  29.591  25.015  1.00  0.00     0.223 A 
ENDROOT
BRANCH   1  11
ATOM     11  C   UNL     1       5.829  27.687  24.296  1.00  0.00     0.087 A 
ATOM     12  C   UNL     1       6.684  26.716  23.747  1.00  0.00     0.022 A 
ATOM     13  C   UNL     1       6.300  25.372  23.717  1.00  0.00     0.051 A 
ATOM     14  C   UNL     1       5.053  24.981  24.223  1.00  0.00     0.157 A 
ATOM     15  C   UNL     1       4.571  27.293  24.782  1.00  0.00     0.068 A 
ATOM     16  C   UNL     1       4.184  25.948  24.755  1.00  0.00     0.158 A 
BRANCH  14  17
ATOM     17  O   UNL     1       4.674  23.640  24.192  1.00  0.00    -0.504 OA
ATOM     18  H   UNL     1       4.043  23.251  24.884  1.00  0.00     0.293 HD
ENDBRANCH  14  17
BRANCH  16  19
ATOM     19  O   UNL     1       2.933  25.594  25.259  1.00  0.00    -0.504 OA
ATOM     20  H   UNL     1       2.120  25.499  24.661  1.00  0.00     0.293 HD
ENDBRANCH  16  19
ENDBRANCH   1  11
BRANCH  10  21
ATOM     21  O   UNL     1       8.126  28.722  25.763  1.00  0.00    -0.500 OA
ATOM     22  H   UNL     1       8.783  28.089  25.322  1.00  0.00     0.294 HD
ENDBRANCH  10  21
BRANCH   5  23
ATOM     23  O   UNL     1       4.152  34.291  22.100  1.00  0.00    -0.507 OA
ATOM     24  H   UNL     1       4.478  35.088  21.564  1.00  0.00     0.293 HD
ENDBRANCH   5  23
BRANCH   7  25
ATOM     25  O   UNL     1       8.126  33.863  24.787  1.00  0.00    -0.507 OA
ATOM     26  H   UNL     1       8.745  34.511  24.320  1.00  0.00     0.293 HD
ENDBRANCH   7  25
TORSDOF 6
ENDMDL
MODEL 2
REMARK VINA RESULT:    -4.443      1.753      6.907
REMARK INTER + INTRA:          -5.551
REMARK INTER:                  -5.265
REMARK INTRA:                  -0.286
REMARK UNBOUND:                -0.198
REMARK SMILES Oc1cc(O)c2cc(O)c(-c3ccc(O)c(O)c3)[o+]c2c1
REMARK SMILES IDX 10 1 19 2 20 3 21 4 2 5 3 6 4 7 6 8 7 9 8 10 11 11 12 12
REMARK SMILES IDX 13 13 14 14 18 15 16 16 15 17 17 19 9 21 1 23 5 25
REMARK H PARENT 15 18 17 20 9 22 1 24 5 26
REMARK Flexibility Score: inf
ROOT
ATOM      1  C   UNL     1       5.752  28.551  24.073  1.00  0.00     0.402 A 
ATOM      2  O   UNL     1       4.757  27.735  24.412  1.00  0.00    -0.202 OA
ATOM      3  C   UNL     1       4.935  26.452  24.710  1.00  0.00     0.368 A 
ATOM      4  C   UNL     1       3.826  25.675  25.057  1.00  0.00     0.162 A 
ATOM      5  C   UNL     1       3.983  24.326  25.377  1.00  0.00     0.128 A 
ATOM      6  C   UNL     1       5.256  23.748  25.351  1.00  0.00     0.093 A 
ATOM      7  C   UNL     1       6.383  24.505  25.007  1.00  0.00     0.136 A 
ATOM      8  C   UNL     1       6.227  25.876  24.678  1.00  0.00     0.125 A 
ATOM      9  C   UNL     1       7.297  26.708  24.308  1.00  0.00     0.078 A 
ATOM     10  C   UNL     1       7.064  28.050  23.993  1.00  0.00     0.223 A 
ENDROOT
BRANCH   1  11
ATOM     11  C   UNL     1       5.427  29.964  23.773  1.00  0.00     0.087 A 
ATOM     12  C   UNL     1       5.797  31.002  24.646  1.00  0.00     0.022 A 
ATOM     13  C   UNL     1       5.459  32.326  24.353  1.00  0.00     0.051 A 
ATOM     14  C   UNL     1       4.735  32.632  23.193  1.00  0.00     0.157 A 
ATOM     15  C   UNL     1       4.683  30.274  22.622  1.00  0.00     0.068 A 
ATOM     16  C   UNL     1       4.344  31.598  22.325  1.00  0.00     0.158 A 
BRANCH  14  17
ATOM     17  O   UNL     1       4.401  33.953  22.903  1.00  0.00    -0.504 OA
ATOM     18  H   UNL     1       4.772  34.726  23.445  1.00  0.00     0.293 HD
ENDBRANCH  14  17
BRANCH  16  19
ATOM     19  O   UNL     1       3.616  31.868  21.166  1.00  0.00    -0.504 OA
ATOM     20  H   UNL     1       3.029  31.170  20.725  1.00  0.00     0.293 HD
ENDBRANCH  16  19
ENDBRANCH   1  11
BRANCH  10  21
ATOM     21  O   UNL     1       8.119  28.864  23.577  1.00  0.00    -0.500 OA
ATOM     22  H   UNL     1       9.067  28.712  23.899  1.00  0.00     0.294 HD
ENDBRANCH  10  21
BRANCH   5  23
ATOM     23  O   UNL     1       2.866  23.569  25.721  1.00  0.00    -0.507 OA
ATOM     24  H   UNL     1       1.926  23.878  25.500  1.00  0.00     0.293 HD
ENDBRANCH   5  23
BRANCH   7  25
ATOM     25  O   UNL     1       7.620  23.855  25.008  1.00  0.00    -0.507 OA
ATOM     26  H   UNL     1       7.788  22.945  25.415  1.00  0.00     0.293 HD
ENDBRANCH   7  25
TORSDOF 6
ENDMDL
MODEL 3
REMARK VINA RESULT:    -4.336      1.538      2.974
REMARK INTER + INTRA:          -5.421
REMARK INTER:                  -5.375
REMARK INTRA:                  -0.046
REMARK UNBOUND:                -0.198
REMARK SMILES Oc1cc(O)c2cc(O)c(-c3ccc(O)c(O)c3)[o+]c2c1
REMARK SMILES IDX 10 1 19 2 20 3 21 4 2 5 3 6 4 7 6 8 7 9 8 10 11 11 12 12
REMARK SMILES IDX 13 13 14 14 18 15 16 16 15 17 17 19 9 21 1 23 5 25
REMARK H PARENT 15 18 17 20 9 22 1 24 5 26
REMARK Flexibility Score: inf
ROOT
ATOM      1  C   UNL     1       5.660  27.662  24.085  1.00  0.00     0.402 A 
ATOM      2  O   UNL     1       6.585  28.507  24.532  1.00  0.00    -0.202 OA
ATOM      3  C   UNL     1       6.547  29.817  24.308  1.00  0.00     0.368 A 
ATOM      4  C   UNL     1       7.564  30.624  24.822  1.00  0.00     0.162 A 
ATOM      5  C   UNL     1       7.549  32.002  24.605  1.00  0.00     0.128 A 
ATOM      6  C   UNL     1       6.509  32.579  23.869  1.00  0.00     0.093 A 
ATOM      7  C   UNL     1       5.478  31.792  23.342  1.00  0.00     0.136 A 
ATOM      8  C   UNL     1       5.492  30.390  23.559  1.00  0.00     0.125 A 
ATOM      9  C   UNL     1       4.508  29.521  23.058  1.00  0.00     0.078 A 
ATOM     10  C   UNL     1       4.592  28.149  23.310  1.00  0.00     0.223 A 
ENDROOT
BRANCH   1  11
ATOM     11  C   UNL     1       5.809  26.225  24.410  1.00  0.00     0.087 A 
ATOM     12  C   UNL     1       6.991  25.526  24.112  1.00  0.00     0.022 A 
ATOM     13  C   UNL     1       7.101  24.164  24.407  1.00  0.00     0.051 A 
ATOM     14  C   UNL     1       6.027  23.478  24.990  1.00  0.00     0.157 A 
ATOM     15  C   UNL     1       4.728  25.528  24.975  1.00  0.00     0.068 A 
ATOM     16  C   UNL     1       4.834  24.165  25.273  1.00  0.00     0.158 A 
BRANCH  14  17
ATOM     17  O   UNL     1       6.140  22.120  25.284  1.00  0.00    -0.504 OA
ATOM     18  H   UNL     1       6.178  21.785  26.240  1.00  0.00     0.293 HD
ENDBRANCH  14  17
BRANCH  16  19
ATOM     19  O   UNL     1       3.745  23.510  25.847  1.00  0.00    -0.504 OA
ATOM     20  H   UNL     1       2.912  24.007  26.140  1.00  0.00     0.293 HD
ENDBRANCH  16  19
ENDBRANCH   1  11
BRANCH  10  21
ATOM     21  O   UNL     1       3.642  27.279  22.771  1.00  0.00    -0.500 OA
ATOM     22  H   UNL     1       3.903  26.529  22.142  1.00  0.00     0.294 HD
ENDBRANCH  10  21
BRANCH   5  23
ATOM     23  O   UNL     1       8.572  32.791  25.127  1.00  0.00    -0.507 OA
ATOM     24  H   UNL     1       8.958  33.571  24.607  1.00  0.00     0.293 HD
ENDBRANCH   5  23
BRANCH   7  25
ATOM     25  O   UNL     1       4.474  32.444  22.621  1.00  0.00    -0.507 OA
ATOM     26  H   UNL     1       3.548  32.637  22.977  1.00  0.00     0.293 HD
ENDBRANCH   7  25
TORSDOF 6
ENDMDL
MODEL 4
REMARK VINA RESULT:    -4.322      2.674      4.846
REMARK INTER + INTRA:          -5.404
REMARK INTER:                  -5.228
REMARK INTRA:                  -0.176
REMARK UNBOUND:                -0.198
REMARK SMILES Oc1cc(O)c2cc(O)c(-c3ccc(O)c(O)c3)[o+]c2c1
REMARK SMILES IDX 10 1 19 2 20 3 21 4 2 5 3 6 4 7 6 8 7 9 8 10 11 11 12 12
REMARK SMILES IDX 13 13 14 14 18 15 16 16 15 17 17 19 9 21 1 23 5 25
REMARK H PARENT 15 18 17 20 9 22 1 24 5 26
REMARK Flexibility Score: inf
ROOT
ATOM      1  C   UNL     1       5.615  33.369  23.244  1.00  0.00     0.402 A 
ATOM      2  O   UNL     1       4.979  33.293  22.078  1.00  0.00    -0.202 OA
ATOM      3  C   UNL     1       4.610  34.361  21.377  1.00  0.00     0.368 A 
ATOM      4  C   UNL     1       3.949  34.179  20.160  1.00  0.00     0.162 A 
ATOM      5  C   UNL     1       3.552  35.281  19.401  1.00  0.00     0.128 A 
ATOM      6  C   UNL     1       3.819  36.575  19.861  1.00  0.00     0.093 A 
ATOM      7  C   UNL     1       4.480  36.784  21.078  1.00  0.00     0.136 A 
ATOM      8  C   UNL     1       4.883  35.665  21.853  1.00  0.00     0.125 A 
ATOM      9  C   UNL     1       5.538  35.779  23.090  1.00  0.00     0.078 A 
ATOM     10  C   UNL     1       5.900  34.630  23.799  1.00  0.00     0.223 A 
ENDROOT
BRANCH   1  11
ATOM     11  C   UNL     1       5.982  32.106  23.925  1.00  0.00     0.087 A 
ATOM     12  C   UNL     1       7.319  31.802  24.233  1.00  0.00     0.022 A 
ATOM     13  C   UNL     1       7.644  30.594  24.855  1.00  0.00     0.051 A 
ATOM     14  C   UNL     1       6.641  29.665  25.165  1.00  0.00     0.157 A 
ATOM     15  C   UNL     1       4.983  31.162  24.218  1.00  0.00     0.068 A 
ATOM     16  C   UNL     1       5.304  29.952  24.841  1.00  0.00     0.158 A 
BRANCH  14  17
ATOM     17  O   UNL     1       6.968  28.461  25.786  1.00  0.00    -0.504 OA
ATOM     18  H   UNL     1       7.862  28.008  25.629  1.00  0.00     0.293 HD
ENDBRANCH  14  17
BRANCH  16  19
ATOM     19  O   UNL     1       4.283  29.046  25.129  1.00  0.00    -0.504 OA
ATOM     20  H   UNL     1       3.428  29.011  24.588  1.00  0.00     0.293 HD
ENDBRANCH  16  19
ENDBRANCH   1  11
BRANCH  10  21
ATOM     21  O   UNL     1       6.507  34.742  25.051  1.00  0.00    -0.500 OA
ATOM     22  H   UNL     1       7.507  34.638  25.169  1.00  0.00     0.294 HD
ENDBRANCH  10  21
BRANCH   5  23
ATOM     23  O   UNL     1       2.894  35.080  18.191  1.00  0.00    -0.507 OA
ATOM     24  H   UNL     1       2.633  35.856  17.593  1.00  0.00     0.293 HD
ENDBRANCH   5  23
BRANCH   7  25
ATOM     25  O   UNL     1       4.713  38.106  21.466  1.00  0.00    -0.507 OA
ATOM     26  H   UNL     1       4.191  38.591  22.182  1.00  0.00     0.293 HD
ENDBRANCH   7  25
TORSDOF 6
ENDMDL
MODEL 5
REMARK VINA RESULT:    -4.310      2.456      8.178
REMARK INTER + INTRA:          -5.390
REMARK INTER:                  -5.042
REMARK INTRA:                  -0.348
REMARK UNBOUND:                -0.198
REMARK SMILES Oc1cc(O)c2cc(O)c(-c3ccc(O)c(O)c3)[o+]c2c1
REMARK SMILES IDX 10 1 19 2 20 3 21 4 2 5 3 6 4 7 6 8 7 9 8 10 11 11 12 12
REMARK SMILES IDX 13 13 14 14 18 15 16 16 15 17 17 19 9 21 1 23 5 25
REMARK H PARENT 15 18 17 20 9 22 1 24 5 26
REMARK Flexibility Score: inf
ROOT
ATOM      1  C   UNL     1       6.909  33.618  23.993  1.00  0.00     0.402 A 
ATOM      2  O   UNL     1       7.646  32.579  24.377  1.00  0.00    -0.202 OA
ATOM      3  C   UNL     1       7.135  31.384  24.653  1.00  0.00     0.368 A 
ATOM      4  C   UNL     1       7.991  30.353  25.047  1.00  0.00     0.162 A 
ATOM      5  C   UNL     1       7.484  29.087  25.340  1.00  0.00     0.128 A 
ATOM      6  C   UNL     1       6.109  28.848  25.238  1.00  0.00     0.093 A 
ATOM      7  C   UNL     1       5.229  29.864  24.846  1.00  0.00     0.136 A 
ATOM      8  C   UNL     1       5.742  31.154  24.550  1.00  0.00     0.125 A 
ATOM      9  C   UNL     1       4.934  32.236  24.162  1.00  0.00     0.078 A 
ATOM     10  C   UNL     1       5.512  33.479  23.890  1.00  0.00     0.223 A 
ENDROOT
BRANCH   1  11
ATOM     11  C   UNL     1       7.597  34.897  23.705  1.00  0.00     0.087 A 
ATOM     12  C   UNL     1       8.126  35.173  22.432  1.00  0.00     0.022 A 
ATOM     13  C   UNL     1       8.792  36.377  22.189  1.00  0.00     0.051 A 
ATOM     14  C   UNL     1       8.953  37.316  23.217  1.00  0.00     0.157 A 
ATOM     15  C   UNL     1       7.780  35.832  24.737  1.00  0.00     0.068 A 
ATOM     16  C   UNL     1       8.446  37.039  24.498  1.00  0.00     0.158 A 
BRANCH  14  17
ATOM     17  O   UNL     1       9.617  38.517  22.972  1.00  0.00    -0.504 OA
ATOM     18  H   UNL     1       9.288  39.173  22.273  1.00  0.00     0.293 HD
ENDBRANCH  14  17
BRANCH  16  19
ATOM     19  O   UNL     1       8.596  37.949  25.544  1.00  0.00    -0.504 OA
ATOM     20  H   UNL     1       8.321  38.920  25.456  1.00  0.00     0.293 HD
ENDBRANCH  16  19
ENDBRANCH   1  11
BRANCH  10  21
ATOM     21  O   UNL     1       4.706  34.567  23.554  1.00  0.00    -0.500 OA
ATOM     22  H   UNL     1       3.952  34.482  22.883  1.00  0.00     0.294 HD
ENDBRANCH  10  21
BRANCH   5  23
ATOM     23  O   UNL     1       8.354  28.072  25.731  1.00  0.00    -0.507 OA
ATOM     24  H   UNL     1       9.211  28.273  26.233  1.00  0.00     0.293 HD
ENDBRANCH   5  23
BRANCH   7  25
ATOM     25  O   UNL     1       3.871  29.544  24.765  1.00  0.00    -0.507 OA
ATOM     26  H   UNL     1       3.148  30.191  24.484  1.00  0.00     0.293 HD
ENDBRANCH   7  25
TORSDOF 6
ENDMDL
MODEL 6
REMARK VINA RESULT:    -4.272      1.324      1.984
REMARK INTER + INTRA:          -5.344
REMARK INTER:                  -5.054
REMARK INTRA:                  -0.290
REMARK UNBOUND:                -0.198
REMARK SMILES Oc1cc(O)c2cc(O)c(-c3ccc(O)c(O)c3)[o+]c2c1
REMARK SMILES IDX 10 1 19 2 20 3 21 4 2 5 3 6 4 7 6 8 7 9 8 10 11 11 12 12
REMARK SMILES IDX 13 13 14 14 18 15 16 16 15 17 17 19 9 21 1 23 5 25
REMARK H PARENT 15 18 17 20 9 22 1 24 5 26
REMARK Flexibility Score: inf
ROOT
ATOM      1  C   UNL     1       5.186  28.279  24.208  1.00  0.00     0.402 A 
ATOM      2  O   UNL     1       4.411  29.030  23.429  1.00  0.00    -0.202 OA
ATOM      3  C   UNL     1       4.594  30.336  23.260  1.00  0.00     0.368 A 
ATOM      4  C   UNL     1       3.728  31.039  22.419  1.00  0.00     0.162 A 
ATOM      5  C   UNL     1       3.896  32.410  22.220  1.00  0.00     0.128 A 
ATOM      6  C   UNL     1       4.939  33.084  22.866  1.00  0.00     0.093 A 
ATOM      7  C   UNL     1       5.820  32.402  23.714  1.00  0.00     0.136 A 
ATOM      8  C   UNL     1       5.650  31.008  23.920  1.00  0.00     0.125 A 
ATOM      9  C   UNL     1       6.476  30.246  24.763  1.00  0.00     0.078 A 
ATOM     10  C   UNL     1       6.243  28.876  24.920  1.00  0.00     0.223 A 
ENDROOT
BRANCH   1  11
ATOM     11  C   UNL     1       4.887  26.832  24.307  1.00  0.00     0.087 A 
ATOM     12  C   UNL     1       3.812  26.359  25.079  1.00  0.00     0.022 A 
ATOM     13  C   UNL     1       3.562  24.987  25.176  1.00  0.00     0.051 A 
ATOM     14  C   UNL     1       4.389  24.069  24.516  1.00  0.00     0.157 A 
ATOM     15  C   UNL     1       5.725  25.906  23.665  1.00  0.00     0.068 A 
ATOM     16  C   UNL     1       5.478  24.533  23.759  1.00  0.00     0.158 A 
BRANCH  14  17
ATOM     17  O   UNL     1       4.137  22.702  24.614  1.00  0.00    -0.504 OA
ATOM     18  H   UNL     1       4.728  22.018  24.155  1.00  0.00     0.293 HD
ENDBRANCH  14  17
BRANCH  16  19
ATOM     19  O   UNL     1       6.325  23.644  23.096  1.00  0.00    -0.504 OA
ATOM     20  H   UNL     1       6.320  22.651  23.290  1.00  0.00     0.293 HD
ENDBRANCH  16  19
ENDBRANCH   1  11
BRANCH  10  21
ATOM     21  O   UNL     1       7.032  28.128  25.795  1.00  0.00    -0.500 OA
ATOM     22  H   UNL     1       7.129  28.380  26.771  1.00  0.00     0.294 HD
ENDBRANCH  10  21
BRANCH   5  23
ATOM     23  O   UNL     1       3.023  33.094  21.378  1.00  0.00    -0.507 OA
ATOM     24  H   UNL     1       3.363  33.671  20.616  1.00  0.00     0.293 HD
ENDBRANCH   5  23
BRANCH   7  25
ATOM     25  O   UNL     1       6.837  33.145  24.318  1.00  0.00    -0.507 OA
ATOM     26  H   UNL     1       7.698  33.413  23.862  1.00  0.00     0.293 HD
ENDBRANCH   7  25
TORSDOF 6
ENDMDL
MODEL 7
REMARK VINA RESULT:    -4.269      3.143      6.579
REMARK INTER + INTRA:          -5.341
REMARK INTER:                  -5.010
REMARK INTRA:                  -0.331
REMARK UNBOUND:                -0.198
REMARK SMILES Oc1cc(O)c2cc(O)c(-c3ccc(O)c(O)c3)[o+]c2c1
REMARK SMILES IDX 10 1 19 2 20 3 21 4 2 5 3 6 4 7 6 8 7 9 8 10 11 11 12 12
REMARK SMILES IDX 13 13 14 14 18 15 16 16 15 17 17 19 9 21 1 23 5 25
REMARK H PARENT 15 18 17 20 9 22 1 24 5 26
REMARK Flexibility Score: inf
ROOT
ATOM      1  C   UNL     1       3.747  31.371  21.969  1.00  0.00     0.402 A 
ATOM      2  O   UNL     1       4.700  32.175  22.432  1.00  0.00    -0.202 OA
ATOM      3  C   UNL     1       5.662  31.769  23.255  1.00  0.00     0.368 A 
ATOM      4  C   UNL     1       6.621  32.688  23.685  1.00  0.00     0.162 A 
ATOM      5  C   UNL     1       7.644  32.290  24.546  1.00  0.00     0.128 A 
ATOM      6  C   UNL     1       7.709  30.962  24.982  1.00  0.00     0.093 A 
ATOM      7  C   UNL     1       6.759  30.021  24.566  1.00  0.00     0.136 A 
ATOM      8  C   UNL     1       5.717  30.423  23.692  1.00  0.00     0.125 A 
ATOM      9  C   UNL     1       4.713  29.553  23.234  1.00  0.00     0.078 A 
ATOM     10  C   UNL     1       3.715  30.025  22.376  1.00  0.00     0.223 A 
ENDROOT
BRANCH   1  11
ATOM     11  C   UNL     1       2.736  31.941  21.049  1.00  0.00     0.087 A 
ATOM     12  C   UNL     1       1.479  32.363  21.514  1.00  0.00     0.022 A 
ATOM     13  C   UNL     1       0.532  32.877  20.624  1.00  0.00     0.051 A 
ATOM     14  C   UNL     1       0.821  32.963  19.255  1.00  0.00     0.157 A 
ATOM     15  C   UNL     1       3.013  32.009  19.673  1.00  0.00     0.068 A 
ATOM     16  C   UNL     1       2.068  32.523  18.779  1.00  0.00     0.158 A 
BRANCH  14  17
ATOM     17  O   UNL     1      -0.125  33.476  18.370  1.00  0.00    -0.504 OA
ATOM     18  H   UNL     1      -0.007  33.403  17.365  1.00  0.00     0.293 HD
ENDBRANCH  14  17
BRANCH  16  19
ATOM     19  O   UNL     1       2.384  32.588  17.422  1.00  0.00    -0.504 OA
ATOM     20  H   UNL     1       2.800  31.807  16.929  1.00  0.00     0.293 HD
ENDBRANCH  16  19
ENDBRANCH   1  11
BRANCH  10  21
ATOM     21  O   UNL     1       2.691  29.173  21.961  1.00  0.00    -0.500 OA
ATOM     22  H   UNL     1       2.705  28.728  21.051  1.00  0.00     0.294 HD
ENDBRANCH  10  21
BRANCH   5  23
ATOM     23  O   UNL     1       8.592  33.221  24.964  1.00  0.00    -0.507 OA
ATOM     24  H   UNL     1       9.303  33.574  24.333  1.00  0.00     0.293 HD
ENDBRANCH   5  23
BRANCH   7  25
ATOM     25  O   UNL     1       6.896  28.715  25.043  1.00  0.00    -0.507 OA
ATOM     26  H   UNL     1       7.635  28.082  24.771  1.00  0.00     0.293 HD
ENDBRANCH   7  25
TORSDOF 6
ENDMDL
