MODEL 1
REMARK VINA RESULT:    -4.491      0.000      0.000
REMARK INTER + INTRA:          -9.467
REMARK INTER:                  -7.642
REMARK INTRA:                  -1.825
REMARK UNBOUND:                -1.825
REMARK SMILES CCCCCCCCCCCCCC(=O)[O-]
REMARK SMILES IDX 8 1 9 2 10 3 11 4 12 5 13 6 14 7 15 8 16 9 7 10 6 11 5 12
REMARK SMILES IDX 4 13 3 14 2 15 1 16
REMARK H PARENT
REMARK Flexibility Score: inf
ROOT
ATOM      1  C   UNL     1      62.120  28.460  24.614  1.00  0.00     0.000 C 
ENDROOT
BRANCH   1   2
ATOM      2  C   UNL     1      62.537  29.895  24.969  1.00  0.00     0.000 C 
BRANCH   2   3
ATOM      3  C   UNL     1      64.060  30.096  24.947  1.00  0.00     0.000 C 
BRANCH   3   4
ATOM      4  C   UNL     1      64.747  28.984  24.141  1.00  0.00     0.000 C 
BRANCH   4   5
ATOM      5  C   UNL     1      65.759  28.178  24.976  1.00  0.00     0.006 C 
BRANCH   5   6
ATOM      6  C   UNL     1      65.308  26.746  25.306  1.00  0.00     0.053 C 
BRANCH   6   7
ATOM      7  C   UNL     1      64.972  25.965  24.072  1.00  0.00     0.041 C 
ATOM      8  O   UNL     1      63.804  25.530  23.894  1.00  0.00    -0.550 OA
ATOM      9  O   UNL     1      65.944  25.747  23.103  1.00  0.00    -0.550 OA
ENDBRANCH   6   7
ENDBRANCH   5   6
ENDBRANCH   4   5
ENDBRANCH   3   4
ENDBRANCH   2   3
ENDBRANCH   1   2
BRANCH   1  10
ATOM     10  C   UNL     1      60.726  28.098  25.153  1.00  0.00     0.000 C 
BRANCH  10  11
ATOM     11  C   UNL     1      60.783  27.172  26.380  1.00  0.00    -0.000 C 
BRANCH  11  12
ATOM     12  C   UNL     1      62.183  26.999  27.000  1.00  0.00    -0.000 C 
BRANCH  12  13
ATOM     13  C   UNL     1      62.310  27.585  28.423  1.00  0.00    -0.000 C 
BRANCH  13  14
ATOM     14  C   UNL     1      61.679  28.984  28.534  1.00  0.00    -0.000 C 
BRANCH  14  15
ATOM     15  C   UNL     1      62.698  30.062  28.933  1.00  0.00    -0.003 C 
ATOM     16  C   UNL     1      64.126  29.709  28.519  1.00  0.00     0.004 C 
ENDBRANCH  14  15
ENDBRANCH  13  14
ENDBRANCH  12  13
ENDBRANCH  11  12
ENDBRANCH  10  11
ENDBRANCH   1  10
TORSDOF 12
ENDMDL
MODEL 2
REMARK VINA RESULT:    -4.490     12.880     14.816
REMARK INTER + INTRA:          -9.465
REMARK INTER:                  -7.776
REMARK INTRA:                  -1.689
REMARK UNBOUND:                -1.825
REMARK SMILES CCCCCCCCCCCCCC(=O)[O-]
REMARK SMILES IDX 8 1 9 2 10 3 11 4 12 5 13 6 14 7 15 8 16 9 7 10 6 11 5 12
REMARK SMILES IDX 4 13 3 14 2 15 1 16
REMARK H PARENT
REMARK Flexibility Score: inf
ROOT
ATOM      1  C   UNL     1      64.017  30.190  10.908  1.00  0.00     0.000 C 
ENDROOT
BRANCH   1   2
ATOM      2  C   UNL     1      64.822  31.487  10.732  1.00  0.00     0.000 C 
BRANCH   2   3
ATOM      3  C   UNL     1      64.487  32.544  11.797  1.00  0.00     0.000 C 
BRANCH   3   4
ATOM      4  C   UNL     1      63.547  31.966  12.865  1.00  0.00     0.000 C 
BRANCH   4   5
ATOM      5  C   UNL     1      62.800  33.055  13.656  1.00  0.00     0.006 C 
BRANCH   5   6
ATOM      6  C   UNL     1      61.273  33.027  13.481  1.00  0.00     0.053 C 
BRANCH   6   7
ATOM      7  C   UNL     1      60.595  32.282  14.590  1.00  0.00     0.041 C 
ATOM      8  O   UNL     1      61.255  31.884  15.585  1.00  0.00    -0.550 OA
ATOM      9  O   UNL     1      59.225  32.055  14.537  1.00  0.00    -0.550 OA
ENDBRANCH   6   7
ENDBRANCH   5   6
ENDBRANCH   4   5
ENDBRANCH   3   4
ENDBRANCH   2   3
ENDBRANCH   1   2
BRANCH   1  10
ATOM     10  C   UNL     1      63.942  29.362   9.614  1.00  0.00     0.000 C 
BRANCH  10  11
ATOM     11  C   UNL     1      62.541  29.376   8.978  1.00  0.00    -0.000 C 
BRANCH  11  12
ATOM     12  C   UNL     1      61.477  28.554   9.731  1.00  0.00    -0.000 C 
BRANCH  12  13
ATOM     13  C   UNL     1      60.216  29.363  10.107  1.00  0.00    -0.000 C 
BRANCH  13  14
ATOM     14  C   UNL     1      60.368  30.077  11.462  1.00  0.00    -0.000 C 
BRANCH  14  15
ATOM     15  C   UNL     1      60.227  29.119  12.654  1.00  0.00    -0.003 C 
ATOM     16  C   UNL     1      61.548  28.885  13.385  1.00  0.00     0.004 C 
ENDBRANCH  14  15
ENDBRANCH  13  14
ENDBRANCH  12  13
ENDBRANCH  11  12
ENDBRANCH  10  11
ENDBRANCH   1  10
TORSDOF 12
ENDMDL
MODEL 3
REMARK VINA RESULT:    -4.445      1.021      3.042
REMARK INTER + INTRA:          -9.389
REMARK INTER:                  -7.677
REMARK INTRA:                  -1.712
REMARK UNBOUND:                -1.825
REMARK SMILES CCCCCCCCCCCCCC(=O)[O-]
REMARK SMILES IDX 8 1 9 2 10 3 11 4 12 5 13 6 14 7 15 8 16 9 7 10 6 11 5 12
REMARK SMILES IDX 4 13 3 14 2 15 1 16
REMARK H PARENT
REMARK Flexibility Score: inf
ROOT
ATOM      1  C   UNL     1      64.296  30.877  28.839  1.00  0.00     0.000 C 
ENDROOT
BRANCH   1   2
ATOM      2  C   UNL     1      65.541  30.283  28.163  1.00  0.00     0.000 C 
BRANCH   2   3
ATOM      3  C   UNL     1      65.368  30.109  26.645  1.00  0.00     0.000 C 
BRANCH   3   4
ATOM      4  C   UNL     1      66.392  29.109  26.090  1.00  0.00     0.000 C 
BRANCH   4   5
ATOM      5  C   UNL     1      65.824  28.238  24.954  1.00  0.00     0.006 C 
BRANCH   5   6
ATOM      6  C   UNL     1      65.125  26.955  25.431  1.00  0.00     0.053 C 
BRANCH   6   7
ATOM      7  C   UNL     1      64.894  25.992  24.307  1.00  0.00     0.041 C 
ATOM      8  O   UNL     1      63.781  25.415  24.184  1.00  0.00    -0.550 OA
ATOM      9  O   UNL     1      65.898  25.757  23.376  1.00  0.00    -0.550 OA
ENDBRANCH   6   7
ENDBRANCH   5   6
ENDBRANCH   4   5
ENDBRANCH   3   4
ENDBRANCH   2   3
ENDBRANCH   1   2
BRANCH   1  10
ATOM     10  C   UNL     1      63.002  30.145  28.443  1.00  0.00     0.000 C 
BRANCH  10  11
ATOM     11  C   UNL     1      62.952  28.699  28.966  1.00  0.00    -0.000 C 
BRANCH  11  12
ATOM     12  C   UNL     1      62.387  27.666  27.971  1.00  0.00    -0.000 C 
BRANCH  12  13
ATOM     13  C   UNL     1      61.314  28.240  27.021  1.00  0.00    -0.000 C 
BRANCH  13  14
ATOM     14  C   UNL     1      61.264  27.490  25.679  1.00  0.00    -0.000 C 
BRANCH  14  15
ATOM     15  C   UNL     1      61.920  28.279  24.536  1.00  0.00    -0.003 C 
ATOM     16  C   UNL     1      62.263  29.715  24.929  1.00  0.00     0.004 C 
ENDBRANCH  14  15
ENDBRANCH  13  14
ENDBRANCH  12  13
ENDBRANCH  11  12
ENDBRANCH  10  11
ENDBRANCH   1  10
TORSDOF 12
ENDMDL
MODEL 4
REMARK VINA RESULT:    -4.431     12.256     13.916
REMARK INTER + INTRA:          -9.364
REMARK INTER:                  -7.809
REMARK INTRA:                  -1.555
REMARK UNBOUND:                -1.825
REMARK SMILES CCCCCCCCCCCCCC(=O)[O-]
REMARK SMILES IDX 8 1 9 2 10 3 11 4 12 5 13 6 14 7 15 8 16 9 7 10 6 11 5 12
REMARK SMILES IDX 4 13 3 14 2 15 1 16
REMARK H PARENT
REMARK Flexibility Score: inf
ROOT
ATOM      1  C   UNL     1      63.956  30.035  12.482  1.00  0.00     0.000 C 
ENDROOT
BRANCH   1   2
ATOM      2  C   UNL     1      64.019  30.491  11.017  1.00  0.00     0.000 C 
BRANCH   2   3
ATOM      3  C   UNL     1      63.610  29.385  10.031  1.00  0.00     0.000 C 
BRANCH   3   4
ATOM      4  C   UNL     1      62.144  29.548   9.603  1.00  0.00     0.000 C 
BRANCH   4   5
ATOM      5  C   UNL     1      61.198  28.571  10.323  1.00  0.00     0.006 C 
BRANCH   5   6
ATOM      6  C   UNL     1      60.087  29.251  11.139  1.00  0.00     0.053 C 
BRANCH   6   7
ATOM      7  C   UNL     1      59.885  28.594  12.470  1.00  0.00     0.041 C 
ATOM      8  O   UNL     1      58.784  28.051  12.750  1.00  0.00    -0.550 OA
ATOM      9  O   UNL     1      60.926  28.554  13.389  1.00  0.00    -0.550 OA
ENDBRANCH   6   7
ENDBRANCH   5   6
ENDBRANCH   4   5
ENDBRANCH   3   4
ENDBRANCH   2   3
ENDBRANCH   1   2
BRANCH   1  10
ATOM     10  C   UNL     1      63.450  31.141  13.424  1.00  0.00     0.000 C 
BRANCH  10  11
ATOM     11  C   UNL     1      62.709  32.265  12.678  1.00  0.00    -0.000 C 
BRANCH  11  12
ATOM     12  C   UNL     1      61.172  32.169  12.716  1.00  0.00    -0.000 C 
BRANCH  12  13
ATOM     13  C   UNL     1      60.578  32.250  14.140  1.00  0.00    -0.000 C 
BRANCH  13  14
ATOM     14  C   UNL     1      60.999  33.536  14.872  1.00  0.00    -0.000 C 
BRANCH  14  15
ATOM     15  C   UNL     1      61.814  33.253  16.143  1.00  0.00    -0.003 C 
ATOM     16  C   UNL     1      63.097  34.079  16.221  1.00  0.00     0.004 C 
ENDBRANCH  14  15
ENDBRANCH  13  14
ENDBRANCH  12  13
ENDBRANCH  11  12
ENDBRANCH  10  11
ENDBRANCH   1  10
TORSDOF 12
ENDMDL
MODEL 5
REMARK VINA RESULT:    -4.401      2.544      5.000
REMARK INTER + INTRA:          -9.314
REMARK INTER:                  -7.574
REMARK INTRA:                  -1.740
REMARK UNBOUND:                -1.825
REMARK SMILES CCCCCCCCCCCCCC(=O)[O-]
REMARK SMILES IDX 8 1 9 2 10 3 11 4 12 5 13 6 14 7 15 8 16 9 7 10 6 11 5 12
REMARK SMILES IDX 4 13 3 14 2 15 1 16
REMARK H PARENT
REMARK Flexibility Score: inf
ROOT
ATOM      1  C   UNL     1      62.524  28.838  24.338  1.00  0.00     0.000 C 
ENDROOT
BRANCH   1   2
ATOM      2  C   UNL     1      62.690  30.076  25.233  1.00  0.00     0.000 C 
BRANCH   2   3
ATOM      3  C   UNL     1      64.163  30.416  25.513  1.00  0.00     0.000 C 
BRANCH   3   4
ATOM      4  C   UNL     1      64.485  30.261  27.007  1.00  0.00     0.000 C 
BRANCH   4   5
ATOM      5  C   UNL     1      63.223  30.166  27.884  1.00  0.00     0.006 C 
BRANCH   5   6
ATOM      6  C   UNL     1      63.260  29.034  28.923  1.00  0.00     0.053 C 
BRANCH   6   7
ATOM      7  C   UNL     1      62.032  28.178  28.864  1.00  0.00     0.041 C 
ATOM      8  O   UNL     1      62.127  26.949  28.610  1.00  0.00    -0.550 OA
ATOM      9  O   UNL     1      60.785  28.733  29.123  1.00  0.00    -0.550 OA
ENDBRANCH   6   7
ENDBRANCH   5   6
ENDBRANCH   4   5
ENDBRANCH   3   4
ENDBRANCH   2   3
ENDBRANCH   1   2
BRANCH   1  10
ATOM     10  C   UNL     1      62.044  27.604  25.120  1.00  0.00     0.000 C 
BRANCH  10  11
ATOM     11  C   UNL     1      63.029  26.425  25.035  1.00  0.00    -0.000 C 
BRANCH  11  12
ATOM     12  C   UNL     1      64.296  26.571  25.900  1.00  0.00    -0.000 C 
BRANCH  12  13
ATOM     13  C   UNL     1      65.562  26.931  25.092  1.00  0.00    -0.000 C 
BRANCH  13  14
ATOM     14  C   UNL     1      65.608  26.213  23.733  1.00  0.00    -0.000 C 
BRANCH  14  15
ATOM     15  C   UNL     1      66.129  27.117  22.604  1.00  0.00    -0.003 C 
ATOM     16  C   UNL     1      66.439  26.344  21.323  1.00  0.00     0.004 C 
ENDBRANCH  14  15
ENDBRANCH  13  14
ENDBRANCH  12  13
ENDBRANCH  11  12
ENDBRANCH  10  11
ENDBRANCH   1  10
TORSDOF 12
ENDMDL
MODEL 6
REMARK VINA RESULT:    -4.344     12.335     13.918
REMARK INTER + INTRA:          -9.217
REMARK INTER:                  -7.697
REMARK INTRA:                  -1.520
REMARK UNBOUND:                -1.825
REMARK SMILES CCCCCCCCCCCCCC(=O)[O-]
REMARK SMILES IDX 8 1 9 2 10 3 11 4 12 5 13 6 14 7 15 8 16 9 7 10 6 11 5 12
REMARK SMILES IDX 4 13 3 14 2 15 1 16
REMARK H PARENT
REMARK Flexibility Score: inf
ROOT
ATOM      1  C   UNL     1      61.825  29.869  14.126  1.00  0.00     0.000 C 
ENDROOT
BRANCH   1   2
ATOM      2  C   UNL     1      61.381  28.746  13.177  1.00  0.00     0.000 C 
BRANCH   2   3
ATOM      3  C   UNL     1      60.026  29.032  12.509  1.00  0.00     0.000 C 
BRANCH   3   4
ATOM      4  C   UNL     1      60.213  29.425  11.037  1.00  0.00     0.000 C 
BRANCH   4   5
ATOM      5  C   UNL     1      61.396  28.698  10.370  1.00  0.00     0.006 C 
BRANCH   5   6
ATOM      6  C   UNL     1      62.026  29.462   9.195  1.00  0.00     0.053 C 
BRANCH   6   7
ATOM      7  C   UNL     1      63.467  29.786   9.445  1.00  0.00     0.041 C 
ATOM      8  O   UNL     1      63.781  30.748  10.195  1.00  0.00    -0.550 OA
ATOM      9  O   UNL     1      64.464  29.004   8.876  1.00  0.00    -0.550 OA
ENDBRANCH   6   7
ENDBRANCH   5   6
ENDBRANCH   4   5
ENDBRANCH   3   4
ENDBRANCH   2   3
ENDBRANCH   1   2
BRANCH   1  10
ATOM     10  C   UNL     1      62.766  30.879  13.448  1.00  0.00     0.000 C 
BRANCH  10  11
ATOM     11  C   UNL     1      62.020  32.096  12.873  1.00  0.00    -0.000 C 
BRANCH  11  12
ATOM     12  C   UNL     1      60.771  32.528  13.666  1.00  0.00    -0.000 C 
BRANCH  12  13
ATOM     13  C   UNL     1      61.061  33.580  14.759  1.00  0.00    -0.000 C 
BRANCH  13  14
ATOM     14  C   UNL     1      61.475  32.935  16.092  1.00  0.00    -0.000 C 
BRANCH  14  15
ATOM     15  C   UNL     1      62.770  33.535  16.662  1.00  0.00    -0.003 C 
ATOM     16  C   UNL     1      63.793  33.874  15.579  1.00  0.00     0.004 C 
ENDBRANCH  14  15
ENDBRANCH  13  14
ENDBRANCH  12  13
ENDBRANCH  11  12
ENDBRANCH  10  11
ENDBRANCH   1  10
TORSDOF 12
ENDMDL
MODEL 7
REMARK VINA RESULT:    -4.308     12.482     14.506
REMARK INTER + INTRA:          -9.155
REMARK INTER:                  -7.718
REMARK INTRA:                  -1.437
REMARK UNBOUND:                -1.825
REMARK SMILES CCCCCCCCCCCCCC(=O)[O-]
REMARK SMILES IDX 8 1 9 2 10 3 11 4 12 5 13 6 14 7 15 8 16 9 7 10 6 11 5 12
REMARK SMILES IDX 4 13 3 14 2 15 1 16
REMARK H PARENT
REMARK Flexibility Score: inf
ROOT
ATOM      1  C   UNL     1      64.197  30.889  11.535  1.00  0.00     0.000 C 
ENDROOT
BRANCH   1   2
ATOM      2  C   UNL     1      64.111  32.375  11.918  1.00  0.00     0.000 C 
BRANCH   2   3
ATOM      3  C   UNL     1      63.105  32.641  13.049  1.00  0.00     0.000 C 
BRANCH   3   4
ATOM      4  C   UNL     1      61.666  32.403  12.568  1.00  0.00     0.000 C 
BRANCH   4   5
ATOM      5  C   UNL     1      60.626  32.569  13.690  1.00  0.00     0.006 C 
BRANCH   5   6
ATOM      6  C   UNL     1      61.061  33.515  14.821  1.00  0.00     0.053 C 
BRANCH   6   7
ATOM      7  C   UNL     1      61.389  32.771  16.080  1.00  0.00     0.041 C 
ATOM      8  O   UNL     1      61.008  31.580  16.231  1.00  0.00    -0.550 OA
ATOM      9  O   UNL     1      62.144  33.384  17.071  1.00  0.00    -0.550 OA
ENDBRANCH   6   7
ENDBRANCH   5   6
ENDBRANCH   4   5
ENDBRANCH   3   4
ENDBRANCH   2   3
ENDBRANCH   1   2
BRANCH   1  10
ATOM     10  C   UNL     1      64.146  30.667  10.014  1.00  0.00     0.000 C 
BRANCH  10  11
ATOM     11  C   UNL     1      63.596  29.281   9.633  1.00  0.00    -0.000 C 
BRANCH  11  12
ATOM     12  C   UNL     1      62.126  29.268   9.170  1.00  0.00    -0.000 C 
BRANCH  12  13
ATOM     13  C   UNL     1      61.197  28.427  10.073  1.00  0.00    -0.000 C 
BRANCH  13  14
ATOM     14  C   UNL     1      60.482  29.285  11.131  1.00  0.00    -0.000 C 
BRANCH  14  15
ATOM     15  C   UNL     1      60.396  28.588  12.497  1.00  0.00    -0.003 C 
ATOM     16  C   UNL     1      61.614  28.861  13.379  1.00  0.00     0.004 C 
ENDBRANCH  14  15
ENDBRANCH  13  14
ENDBRANCH  12  13
ENDBRANCH  11  12
ENDBRANCH  10  11
ENDBRANCH   1  10
TORSDOF 12
ENDMDL
MODEL 8
REMARK VINA RESULT:    -4.246      2.140      5.156
REMARK INTER + INTRA:          -9.050
REMARK INTER:                  -7.685
REMARK INTRA:                  -1.366
REMARK UNBOUND:                -1.825
REMARK SMILES CCCCCCCCCCCCCC(=O)[O-]
REMARK SMILES IDX 8 1 9 2 10 3 11 4 12 5 13 6 14 7 15 8 16 9 7 10 6 11 5 12
REMARK SMILES IDX 4 13 3 14 2 15 1 16
REMARK H PARENT
REMARK Flexibility Score: inf
ROOT
ATOM      1  C   UNL     1      65.485  30.114  27.532  1.00  0.00     0.000 C 
ENDROOT
BRANCH   1   2
ATOM      2  C   UNL     1      64.055  30.496  27.122  1.00  0.00     0.000 C 
BRANCH   2   3
ATOM      3  C   UNL     1      63.039  30.311  28.261  1.00  0.00     0.000 C 
BRANCH   3   4
ATOM      4  C   UNL     1      62.822  28.821  28.563  1.00  0.00     0.000 C 
BRANCH   4   5
ATOM      5  C   UNL     1      61.421  28.328  28.157  1.00  0.00     0.006 C 
BRANCH   5   6
ATOM      6  C   UNL     1      61.427  27.172  27.144  1.00  0.00     0.053 C 
BRANCH   6   7
ATOM      7  C   UNL     1      60.927  27.602  25.799  1.00  0.00     0.041 C 
ATOM      8  O   UNL     1      59.937  27.026  25.275  1.00  0.00    -0.550 OA
ATOM      9  O   UNL     1      61.534  28.663  25.139  1.00  0.00    -0.550 OA
ENDBRANCH   6   7
ENDBRANCH   5   6
ENDBRANCH   4   5
ENDBRANCH   3   4
ENDBRANCH   2   3
ENDBRANCH   1   2
BRANCH   1  10
ATOM     10  C   UNL     1      66.256  29.409  26.403  1.00  0.00     0.000 C 
BRANCH  10  11
ATOM     11  C   UNL     1      65.328  28.700  25.401  1.00  0.00    -0.000 C 
BRANCH  11  12
ATOM     12  C   UNL     1      64.918  27.268  25.796  1.00  0.00    -0.000 C 
BRANCH  12  13
ATOM     13  C   UNL     1      65.308  26.199  24.751  1.00  0.00    -0.000 C 
BRANCH  13  14
ATOM     14  C   UNL     1      64.205  25.983  23.701  1.00  0.00    -0.000 C 
BRANCH  14  15
ATOM     15  C   UNL     1      64.476  26.744  22.394  1.00  0.00    -0.003 C 
ATOM     16  C   UNL     1      65.967  26.911  22.105  1.00  0.00     0.004 C 
ENDBRANCH  14  15
ENDBRANCH  13  14
ENDBRANCH  12  13
ENDBRANCH  11  12
ENDBRANCH  10  11
ENDBRANCH   1  10
TORSDOF 12
ENDMDL
MODEL 9
REMARK VINA RESULT:    -4.226     11.707     13.845
REMARK INTER + INTRA:          -9.015
REMARK INTER:                  -7.519
REMARK INTRA:                  -1.496
REMARK UNBOUND:                -1.825
REMARK SMILES CCCCCCCCCCCCCC(=O)[O-]
REMARK SMILES IDX 8 1 9 2 10 3 11 4 12 5 13 6 14 7 15 8 16 9 7 10 6 11 5 12
REMARK SMILES IDX 4 13 3 14 2 15 1 16
REMARK H PARENT
REMARK Flexibility Score: inf
ROOT
ATOM      1  C   UNL     1      63.326  31.217  13.691  1.00  0.00     0.000 C 
ENDROOT
BRANCH   1   2
ATOM      2  C   UNL     1      62.480  32.346  13.085  1.00  0.00     0.000 C 
BRANCH   2   3
ATOM      3  C   UNL     1      61.107  32.490  13.761  1.00  0.00     0.000 C 
BRANCH   3   4
ATOM      4  C   UNL     1      61.128  33.611  14.810  1.00  0.00     0.000 C 
BRANCH   4   5
ATOM      5  C   UNL     1      61.515  33.110  16.214  1.00  0.00     0.006 C 
BRANCH   5   6
ATOM      6  C   UNL     1      62.925  33.522  16.666  1.00  0.00     0.053 C 
BRANCH   6   7
ATOM      7  C   UNL     1      62.887  34.565  17.740  1.00  0.00     0.041 C 
ATOM      8  O   UNL     1      63.827  35.396  17.852  1.00  0.00    -0.550 OA
ATOM      9  O   UNL     1      61.796  34.641  18.596  1.00  0.00    -0.550 OA
ENDBRANCH   6   7
ENDBRANCH   5   6
ENDBRANCH   4   5
ENDBRANCH   3   4
ENDBRANCH   2   3
ENDBRANCH   1   2
BRANCH   1  10
ATOM     10  C   UNL     1      64.063  30.392  12.621  1.00  0.00     0.000 C 
BRANCH  10  11
ATOM     11  C   UNL     1      63.502  30.616  11.206  1.00  0.00    -0.000 C 
BRANCH  11  12
ATOM     12  C   UNL     1      63.270  29.331  10.387  1.00  0.00    -0.000 C 
BRANCH  12  13
ATOM     13  C   UNL     1      61.799  29.115   9.972  1.00  0.00    -0.000 C 
BRANCH  13  14
ATOM     14  C   UNL     1      60.821  29.892  10.872  1.00  0.00    -0.000 C 
BRANCH  14  15
ATOM     15  C   UNL     1      60.000  28.970  11.786  1.00  0.00    -0.003 C 
ATOM     16  C   UNL     1      60.739  28.600  13.071  1.00  0.00     0.004 C 
ENDBRANCH  14  15
ENDBRANCH  13  14
ENDBRANCH  12  13
ENDBRANCH  11  12
ENDBRANCH  10  11
ENDBRANCH   1  10
TORSDOF 12
ENDMDL
