MODEL 1
REMARK VINA RESULT:    -6.984      0.000      0.000
REMARK INTER + INTRA:          -8.269
REMARK INTER:                  -8.208
REMARK INTRA:                  -0.061
REMARK UNBOUND:                -0.061
REMARK SMILES O=c1c(O)c(-c2ccc(O)cc2)oc2cc(O)cc(O)c12
REMARK SMILES IDX 5 1 3 2 2 3 1 4 21 5 19 6 18 7 16 8 15 9 14 10 13 11 6 12
REMARK SMILES IDX 7 13 8 14 9 15 12 16 11 17 10 18 4 20 20 22 17 24
REMARK H PARENT 10 19 4 21 20 23 17 25
REMARK Flexibility Score: inf
ROOT
ATOM      1  C   UNL     1       5.720  14.831  18.267  1.00  0.00     0.180 A 
ATOM      2  C   UNL     1       5.846  13.532  17.746  1.00  0.00     0.208 A 
ATOM      3  C   UNL     1       5.432  13.285  16.426  1.00  0.00     0.238 A 
ATOM      4  O   UNL     1       5.497  12.109  15.983  1.00  0.00    -0.285 OA
ATOM      5  C   UNL     1       4.914  14.343  15.641  1.00  0.00     0.111 A 
ATOM      6  C   UNL     1       4.503  14.214  14.280  1.00  0.00     0.134 A 
ATOM      7  C   UNL     1       3.883  15.296  13.642  1.00  0.00     0.093 A 
ATOM      8  C   UNL     1       3.720  16.520  14.294  1.00  0.00     0.123 A 
ATOM      9  C   UNL     1       4.173  16.673  15.602  1.00  0.00     0.094 A 
ATOM     10  C   UNL     1       4.762  15.602  16.278  1.00  0.00     0.146 A 
ATOM     11  O   UNL     1       5.169  15.786  17.528  1.00  0.00    -0.452 OA
ENDROOT
BRANCH   1  12
ATOM     12  C   UNL     1       6.156  15.174  19.640  1.00  0.00     0.021 A 
ATOM     13  C   UNL     1       7.169  16.130  19.826  1.00  0.00     0.016 A 
ATOM     14  C   UNL     1       7.612  16.452  21.112  1.00  0.00     0.047 A 
ATOM     15  C   UNL     1       7.061  15.814  22.227  1.00  0.00     0.115 A 
ATOM     16  C   UNL     1       5.620  14.520  20.765  1.00  0.00     0.016 A 
ATOM     17  C   UNL     1       6.065  14.844  22.050  1.00  0.00     0.047 A 
BRANCH  15  18
ATOM     18  O   UNL     1       7.511  16.145  23.503  1.00  0.00    -0.508 OA
ATOM     19  H   UNL     1       7.038  16.842  24.066  1.00  0.00     0.293 HD
ENDBRANCH  15  18
ENDBRANCH   1  12
BRANCH   2  20
ATOM     20  O   UNL     1       6.340  12.498  18.545  1.00  0.00    -0.502 OA
ATOM     21  H   UNL     1       5.734  11.858  19.045  1.00  0.00     0.293 HD
ENDBRANCH   2  20
BRANCH   6  22
ATOM     22  O   UNL     1       4.703  13.066  13.509  1.00  0.00    -0.507 OA
ATOM     23  H   UNL     1       4.020  12.667  12.882  1.00  0.00     0.293 HD
ENDBRANCH   6  22
BRANCH   8  24
ATOM     24  O   UNL     1       3.118  17.597  13.646  1.00  0.00    -0.508 OA
ATOM     25  H   UNL     1       2.980  18.486  14.112  1.00  0.00     0.293 HD
ENDBRANCH   8  24
TORSDOF 5
ENDMDL
MODEL 2
REMARK VINA RESULT:    -6.874      1.893      6.394
REMARK INTER + INTRA:          -8.141
REMARK INTER:                  -8.504
REMARK INTRA:                   0.363
REMARK UNBOUND:                -0.061
REMARK SMILES O=c1c(O)c(-c2ccc(O)cc2)oc2cc(O)cc(O)c12
REMARK SMILES IDX 5 1 3 2 2 3 1 4 21 5 19 6 18 7 16 8 15 9 14 10 13 11 6 12
REMARK SMILES IDX 7 13 8 14 9 15 12 16 11 17 10 18 4 20 20 22 17 24
REMARK H PARENT 10 19 4 21 20 23 17 25
REMARK Flexibility Score: inf
ROOT
ATOM      1  C   UNL     1       4.387  15.588  15.632  1.00  0.00     0.180 A 
ATOM      2  C   UNL     1       4.750  14.275  15.285  1.00  0.00     0.208 A 
ATOM      3  C   UNL     1       4.957  13.334  16.307  1.00  0.00     0.238 A 
ATOM      4  O   UNL     1       5.334  12.174  15.994  1.00  0.00    -0.285 OA
ATOM      5  C   UNL     1       4.785  13.714  17.660  1.00  0.00     0.111 A 
ATOM      6  C   UNL     1       4.930  12.832  18.774  1.00  0.00     0.134 A 
ATOM      7  C   UNL     1       4.864  13.347  20.074  1.00  0.00     0.093 A 
ATOM      8  C   UNL     1       4.594  14.699  20.301  1.00  0.00     0.123 A 
ATOM      9  C   UNL     1       4.391  15.554  19.221  1.00  0.00     0.094 A 
ATOM     10  C   UNL     1       4.487  15.078  17.912  1.00  0.00     0.146 A 
ATOM     11  O   UNL     1       4.298  15.930  16.911  1.00  0.00    -0.452 OA
ENDROOT
BRANCH   1  12
ATOM     12  C   UNL     1       4.128  16.629  14.611  1.00  0.00     0.021 A 
ATOM     13  C   UNL     1       4.177  17.984  14.976  1.00  0.00     0.016 A 
ATOM     14  C   UNL     1       3.912  18.982  14.033  1.00  0.00     0.047 A 
ATOM     15  C   UNL     1       3.581  18.640  12.719  1.00  0.00     0.115 A 
ATOM     16  C   UNL     1       3.774  16.289  13.291  1.00  0.00     0.016 A 
ATOM     17  C   UNL     1       3.510  17.289  12.351  1.00  0.00     0.047 A 
BRANCH  15  18
ATOM     18  O   UNL     1       3.321  19.644  11.790  1.00  0.00    -0.508 OA
ATOM     19  H   UNL     1       2.852  19.446  10.914  1.00  0.00     0.293 HD
ENDBRANCH  15  18
ENDBRANCH   1  12
BRANCH   2  20
ATOM     20  O   UNL     1       4.935  13.927  13.945  1.00  0.00    -0.502 OA
ATOM     21  H   UNL     1       4.917  12.965  13.624  1.00  0.00     0.293 HD
ENDBRANCH   2  20
BRANCH   6  22
ATOM     22  O   UNL     1       5.109  11.451  18.658  1.00  0.00    -0.507 OA
ATOM     23  H   UNL     1       5.950  10.957  18.916  1.00  0.00     0.293 HD
ENDBRANCH   6  22
BRANCH   8  24
ATOM     24  O   UNL     1       4.514  15.200  21.599  1.00  0.00    -0.508 OA
ATOM     25  H   UNL     1       4.497  14.584  22.404  1.00  0.00     0.293 HD
ENDBRANCH   8  24
TORSDOF 5
ENDMDL
MODEL 3
REMARK VINA RESULT:    -6.870      1.615      2.093
REMARK INTER + INTRA:          -8.135
REMARK INTER:                  -7.851
REMARK INTRA:                  -0.285
REMARK UNBOUND:                -0.061
REMARK SMILES O=c1c(O)c(-c2ccc(O)cc2)oc2cc(O)cc(O)c12
REMARK SMILES IDX 5 1 3 2 2 3 1 4 21 5 19 6 18 7 16 8 15 9 14 10 13 11 6 12
REMARK SMILES IDX 7 13 8 14 9 15 12 16 11 17 10 18 4 20 20 22 17 24
REMARK H PARENT 10 19 4 21 20 23 17 25
REMARK Flexibility Score: inf
ROOT
ATOM      1  C   UNL     1       5.475  15.919  18.658  1.00  0.00     0.180 A 
ATOM      2  C   UNL     1       5.453  14.931  17.658  1.00  0.00     0.208 A 
ATOM      3  C   UNL     1       5.001  15.273  16.373  1.00  0.00     0.238 A 
ATOM      4  O   UNL     1       4.933  14.372  15.497  1.00  0.00    -0.285 OA
ATOM      5  C   UNL     1       4.592  16.600  16.101  1.00  0.00     0.111 A 
ATOM      6  C   UNL     1       4.154  17.066  14.824  1.00  0.00     0.134 A 
ATOM      7  C   UNL     1       3.648  18.367  14.701  1.00  0.00     0.093 A 
ATOM      8  C   UNL     1       3.626  19.237  15.794  1.00  0.00     0.123 A 
ATOM      9  C   UNL     1       4.107  18.810  17.028  1.00  0.00     0.094 A 
ATOM     10  C   UNL     1       4.584  17.508  17.191  1.00  0.00     0.146 A 
ATOM     11  O   UNL     1       5.022  17.137  18.388  1.00  0.00    -0.452 OA
ENDROOT
BRANCH   1  12
ATOM     12  C   UNL     1       5.961  15.641  20.029  1.00  0.00     0.021 A 
ATOM     13  C   UNL     1       7.315  15.851  20.339  1.00  0.00     0.016 A 
ATOM     14  C   UNL     1       7.800  15.573  21.620  1.00  0.00     0.047 A 
ATOM     15  C   UNL     1       6.943  15.069  22.604  1.00  0.00     0.115 A 
ATOM     16  C   UNL     1       5.107  15.114  21.017  1.00  0.00     0.016 A 
ATOM     17  C   UNL     1       5.595  14.837  22.297  1.00  0.00     0.047 A 
BRANCH  15  18
ATOM     18  O   UNL     1       7.439  14.798  23.877  1.00  0.00    -0.508 OA
ATOM     19  H   UNL     1       8.435  14.768  24.060  1.00  0.00     0.293 HD
ENDBRANCH  15  18
ENDBRANCH   1  12
BRANCH   2  20
ATOM     20  O   UNL     1       5.842  13.622  17.955  1.00  0.00    -0.502 OA
ATOM     21  H   UNL     1       5.276  13.001  18.521  1.00  0.00     0.293 HD
ENDBRANCH   2  20
BRANCH   6  22
ATOM     22  O   UNL     1       4.220  16.309  13.651  1.00  0.00    -0.507 OA
ATOM     23  H   UNL     1       3.666  16.478  12.825  1.00  0.00     0.293 HD
ENDBRANCH   6  22
BRANCH   8  24
ATOM     24  O   UNL     1       3.136  20.535  15.658  1.00  0.00    -0.508 OA
ATOM     25  H   UNL     1       2.329  20.739  15.079  1.00  0.00     0.293 HD
ENDBRANCH   8  24
TORSDOF 5
ENDMDL
MODEL 4
REMARK VINA RESULT:    -6.761      1.498      3.018
REMARK INTER + INTRA:          -8.008
REMARK INTER:                  -7.731
REMARK INTRA:                  -0.277
REMARK UNBOUND:                -0.061
REMARK SMILES O=c1c(O)c(-c2ccc(O)cc2)oc2cc(O)cc(O)c12
REMARK SMILES IDX 5 1 3 2 2 3 1 4 21 5 19 6 18 7 16 8 15 9 14 10 13 11 6 12
REMARK SMILES IDX 7 13 8 14 9 15 12 16 11 17 10 18 4 20 20 22 17 24
REMARK H PARENT 10 19 4 21 20 23 17 25
REMARK Flexibility Score: inf
ROOT
ATOM      1  C   UNL     1       5.196  15.764  19.039  1.00  0.00     0.180 A 
ATOM      2  C   UNL     1       4.309  16.833  18.825  1.00  0.00     0.208 A 
ATOM      3  C   UNL     1       3.638  16.924  17.594  1.00  0.00     0.238 A 
ATOM      4  O   UNL     1       2.885  17.912  17.388  1.00  0.00    -0.285 OA
ATOM      5  C   UNL     1       3.851  15.938  16.601  1.00  0.00     0.111 A 
ATOM      6  C   UNL     1       3.194  15.911  15.333  1.00  0.00     0.134 A 
ATOM      7  C   UNL     1       3.580  14.962  14.378  1.00  0.00     0.093 A 
ATOM      8  C   UNL     1       4.551  14.001  14.668  1.00  0.00     0.123 A 
ATOM      9  C   UNL     1       5.154  13.984  15.923  1.00  0.00     0.094 A 
ATOM     10  C   UNL     1       4.818  14.939  16.884  1.00  0.00     0.146 A 
ATOM     11  O   UNL     1       5.425  14.893  18.064  1.00  0.00    -0.452 OA
ENDROOT
BRANCH   1  12
ATOM     12  C   UNL     1       5.921  15.587  20.318  1.00  0.00     0.021 A 
ATOM     13  C   UNL     1       7.277  15.944  20.400  1.00  0.00     0.016 A 
ATOM     14  C   UNL     1       7.986  15.763  21.592  1.00  0.00     0.047 A 
ATOM     15  C   UNL     1       7.356  15.211  22.710  1.00  0.00     0.115 A 
ATOM     16  C   UNL     1       5.297  15.012  21.441  1.00  0.00     0.016 A 
ATOM     17  C   UNL     1       6.009  14.832  22.631  1.00  0.00     0.047 A 
BRANCH  15  18
ATOM     18  O   UNL     1       8.074  15.037  23.891  1.00  0.00    -0.508 OA
ATOM     19  H   UNL     1       7.875  15.589  24.717  1.00  0.00     0.293 HD
ENDBRANCH  15  18
ENDBRANCH   1  12
BRANCH   2  20
ATOM     20  O   UNL     1       4.129  17.806  19.811  1.00  0.00    -0.502 OA
ATOM     21  H   UNL     1       3.380  17.760  20.492  1.00  0.00     0.293 HD
ENDBRANCH   2  20
BRANCH   6  22
ATOM     22  O   UNL     1       2.148  16.765  14.978  1.00  0.00    -0.507 OA
ATOM     23  H   UNL     1       2.254  17.745  14.758  1.00  0.00     0.293 HD
ENDBRANCH   6  22
BRANCH   8  24
ATOM     24  O   UNL     1       4.917  13.051  13.716  1.00  0.00    -0.508 OA
ATOM     25  H   UNL     1       5.191  13.319  12.778  1.00  0.00     0.293 HD
ENDBRANCH   8  24
TORSDOF 5
ENDMDL
MODEL 5
REMARK VINA RESULT:    -6.652      2.625      6.874
REMARK INTER + INTRA:          -7.879
REMARK INTER:                  -7.622
REMARK INTRA:                  -0.257
REMARK UNBOUND:                -0.061
REMARK SMILES O=c1c(O)c(-c2ccc(O)cc2)oc2cc(O)cc(O)c12
REMARK SMILES IDX 5 1 3 2 2 3 1 4 21 5 19 6 18 7 16 8 15 9 14 10 13 11 6 12
REMARK SMILES IDX 7 13 8 14 9 15 12 16 11 17 10 18 4 20 20 22 17 24
REMARK H PARENT 10 19 4 21 20 23 17 25
REMARK Flexibility Score: inf
ROOT
ATOM      1  C   UNL     1       4.423  16.640  18.184  1.00  0.00     0.180 A 
ATOM      2  C   UNL     1       3.419  15.857  18.780  1.00  0.00     0.208 A 
ATOM      3  C   UNL     1       3.670  15.263  20.028  1.00  0.00     0.238 A 
ATOM      4  O   UNL     1       2.788  14.520  20.532  1.00  0.00    -0.285 OA
ATOM      5  C   UNL     1       4.914  15.472  20.669  1.00  0.00     0.111 A 
ATOM      6  C   UNL     1       5.260  14.952  21.953  1.00  0.00     0.134 A 
ATOM      7  C   UNL     1       6.566  15.113  22.433  1.00  0.00     0.093 A 
ATOM      8  C   UNL     1       7.518  15.830  21.705  1.00  0.00     0.123 A 
ATOM      9  C   UNL     1       7.171  16.393  20.479  1.00  0.00     0.094 A 
ATOM     10  C   UNL     1       5.888  16.219  19.957  1.00  0.00     0.146 A 
ATOM     11  O   UNL     1       5.602  16.762  18.780  1.00  0.00    -0.452 OA
ENDROOT
BRANCH   1  12
ATOM     12  C   UNL     1       4.224  17.318  16.882  1.00  0.00     0.021 A 
ATOM     13  C   UNL     1       3.870  18.677  16.857  1.00  0.00     0.016 A 
ATOM     14  C   UNL     1       3.654  19.330  15.640  1.00  0.00     0.047 A 
ATOM     15  C   UNL     1       3.775  18.632  14.434  1.00  0.00     0.115 A 
ATOM     16  C   UNL     1       4.324  16.615  15.667  1.00  0.00     0.016 A 
ATOM     17  C   UNL     1       4.108  17.271  14.451  1.00  0.00     0.047 A 
BRANCH  15  18
ATOM     18  O   UNL     1       3.559  19.296  13.229  1.00  0.00    -0.508 OA
ATOM     19  H   UNL     1       2.810  19.970  13.124  1.00  0.00     0.293 HD
ENDBRANCH  15  18
ENDBRANCH   1  12
BRANCH   2  20
ATOM     20  O   UNL     1       2.206  15.647  18.119  1.00  0.00    -0.502 OA
ATOM     21  H   UNL     1       1.309  15.785  18.570  1.00  0.00     0.293 HD
ENDBRANCH   2  20
BRANCH   6  22
ATOM     22  O   UNL     1       4.360  14.300  22.801  1.00  0.00    -0.507 OA
ATOM     23  H   UNL     1       3.356  14.326  22.702  1.00  0.00     0.293 HD
ENDBRANCH   6  22
BRANCH   8  24
ATOM     24  O   UNL     1       8.811  15.999  22.198  1.00  0.00    -0.508 OA
ATOM     25  H   UNL     1       8.983  16.190  23.178  1.00  0.00     0.293 HD
ENDBRANCH   8  24
TORSDOF 5
ENDMDL
MODEL 6
REMARK VINA RESULT:    -6.471      2.697      6.749
REMARK INTER + INTRA:          -7.667
REMARK INTER:                  -7.380
REMARK INTRA:                  -0.288
REMARK UNBOUND:                -0.061
REMARK SMILES O=c1c(O)c(-c2ccc(O)cc2)oc2cc(O)cc(O)c12
REMARK SMILES IDX 5 1 3 2 2 3 1 4 21 5 19 6 18 7 16 8 15 9 14 10 13 11 6 12
REMARK SMILES IDX 7 13 8 14 9 15 12 16 11 17 10 18 4 20 20 22 17 24
REMARK H PARENT 10 19 4 21 20 23 17 25
REMARK Flexibility Score: inf
ROOT
ATOM      1  C   UNL     1       4.831  16.853  17.836  1.00  0.00     0.180 A 
ATOM      2  C   UNL     1       6.131  16.876  18.370  1.00  0.00     0.208 A 
ATOM      3  C   UNL     1       6.369  16.256  19.608  1.00  0.00     0.238 A 
ATOM      4  O   UNL     1       7.522  16.325  20.108  1.00  0.00    -0.285 OA
ATOM      5  C   UNL     1       5.308  15.609  20.287  1.00  0.00     0.111 A 
ATOM      6  C   UNL     1       5.445  14.914  21.527  1.00  0.00     0.134 A 
ATOM      7  C   UNL     1       4.302  14.424  22.172  1.00  0.00     0.093 A 
ATOM      8  C   UNL     1       3.038  14.546  21.591  1.00  0.00     0.123 A 
ATOM      9  C   UNL     1       2.904  15.168  20.352  1.00  0.00     0.094 A 
ATOM     10  C   UNL     1       4.019  15.700  19.701  1.00  0.00     0.146 A 
ATOM     11  O   UNL     1       3.845  16.296  18.528  1.00  0.00    -0.452 OA
ENDROOT
BRANCH   1  12
ATOM     12  C   UNL     1       4.508  17.463  16.526  1.00  0.00     0.021 A 
ATOM     13  C   UNL     1       4.145  18.819  16.465  1.00  0.00     0.016 A 
ATOM     14  C   UNL     1       3.813  19.409  15.241  1.00  0.00     0.047 A 
ATOM     15  C   UNL     1       3.825  18.650  14.067  1.00  0.00     0.115 A 
ATOM     16  C   UNL     1       4.498  16.699  15.344  1.00  0.00     0.016 A 
ATOM     17  C   UNL     1       4.166  17.292  14.122  1.00  0.00     0.047 A 
BRANCH  15  18
ATOM     18  O   UNL     1       3.494  19.251  12.855  1.00  0.00    -0.508 OA
ATOM     19  H   UNL     1       3.634  20.243  12.701  1.00  0.00     0.293 HD
ENDBRANCH  15  18
ENDBRANCH   1  12
BRANCH   2  20
ATOM     20  O   UNL     1       7.158  17.538  17.694  1.00  0.00    -0.502 OA
ATOM     21  H   UNL     1       7.564  18.403  18.033  1.00  0.00     0.293 HD
ENDBRANCH   2  20
BRANCH   6  22
ATOM     22  O   UNL     1       6.670  14.657  22.147  1.00  0.00    -0.507 OA
ATOM     23  H   UNL     1       7.117  13.753  22.186  1.00  0.00     0.293 HD
ENDBRANCH   6  22
BRANCH   8  24
ATOM     24  O   UNL     1       1.909  14.040  22.232  1.00  0.00    -0.508 OA
ATOM     25  H   UNL     1       1.335  14.623  22.831  1.00  0.00     0.293 HD
ENDBRANCH   8  24
TORSDOF 5
ENDMDL
MODEL 7
REMARK VINA RESULT:    -6.393      3.006      6.126
REMARK INTER + INTRA:          -7.575
REMARK INTER:                  -7.454
REMARK INTRA:                  -0.122
REMARK UNBOUND:                -0.061
REMARK SMILES O=c1c(O)c(-c2ccc(O)cc2)oc2cc(O)cc(O)c12
REMARK SMILES IDX 5 1 3 2 2 3 1 4 21 5 19 6 18 7 16 8 15 9 14 10 13 11 6 12
REMARK SMILES IDX 7 13 8 14 9 15 12 16 11 17 10 18 4 20 20 22 17 24
REMARK H PARENT 10 19 4 21 20 23 17 25
REMARK Flexibility Score: inf
ROOT
ATOM      1  C   UNL     1       4.668  13.006  19.186  1.00  0.00     0.180 A 
ATOM      2  C   UNL     1       4.702  13.692  17.959  1.00  0.00     0.208 A 
ATOM      3  C   UNL     1       5.435  14.887  17.867  1.00  0.00     0.238 A 
ATOM      4  O   UNL     1       5.418  15.524  16.782  1.00  0.00    -0.285 OA
ATOM      5  C   UNL     1       6.135  15.371  18.998  1.00  0.00     0.111 A 
ATOM      6  C   UNL     1       6.941  16.550  19.007  1.00  0.00     0.134 A 
ATOM      7  C   UNL     1       7.482  17.006  20.215  1.00  0.00     0.093 A 
ATOM      8  C   UNL     1       7.301  16.291  21.401  1.00  0.00     0.123 A 
ATOM      9  C   UNL     1       6.566  15.109  21.391  1.00  0.00     0.094 A 
ATOM     10  C   UNL     1       5.984  14.647  20.209  1.00  0.00     0.146 A 
ATOM     11  O   UNL     1       5.281  13.521  20.244  1.00  0.00    -0.452 OA
ENDROOT
BRANCH   1  12
ATOM     12  C   UNL     1       3.939  11.728  19.353  1.00  0.00     0.021 A 
ATOM     13  C   UNL     1       2.924  11.632  20.320  1.00  0.00     0.016 A 
ATOM     14  C   UNL     1       2.239  10.429  20.511  1.00  0.00     0.047 A 
ATOM     15  C   UNL     1       2.567   9.303  19.751  1.00  0.00     0.115 A 
ATOM     16  C   UNL     1       4.279  10.586  18.605  1.00  0.00     0.016 A 
ATOM     17  C   UNL     1       3.592   9.384  18.798  1.00  0.00     0.047 A 
BRANCH  15  18
ATOM     18  O   UNL     1       1.875   8.111  19.951  1.00  0.00    -0.508 OA
ATOM     19  H   UNL     1       0.949   8.100  20.363  1.00  0.00     0.293 HD
ENDBRANCH  15  18
ENDBRANCH   1  12
BRANCH   2  20
ATOM     20  O   UNL     1       3.986  13.206  16.862  1.00  0.00    -0.502 OA
ATOM     21  H   UNL     1       3.818  13.763  16.032  1.00  0.00     0.293 HD
ENDBRANCH   2  20
BRANCH   6  22
ATOM     22  O   UNL     1       7.261  17.286  17.863  1.00  0.00    -0.507 OA
ATOM     23  H   UNL     1       6.868  17.126  16.947  1.00  0.00     0.293 HD
ENDBRANCH   6  22
BRANCH   8  24
ATOM     24  O   UNL     1       7.857  16.744  22.597  1.00  0.00    -0.508 OA
ATOM     25  H   UNL     1       8.438  17.574  22.629  1.00  0.00     0.293 HD
ENDBRANCH   8  24
TORSDOF 5
ENDMDL
MODEL 8
REMARK VINA RESULT:    -6.393      2.792      5.612
REMARK INTER + INTRA:          -7.575
REMARK INTER:                  -7.362
REMARK INTRA:                  -0.213
REMARK UNBOUND:                -0.061
REMARK SMILES O=c1c(O)c(-c2ccc(O)cc2)oc2cc(O)cc(O)c12
REMARK SMILES IDX 5 1 3 2 2 3 1 4 21 5 19 6 18 7 16 8 15 9 14 10 13 11 6 12
REMARK SMILES IDX 7 13 8 14 9 15 12 16 11 17 10 18 4 20 20 22 17 24
REMARK H PARENT 10 19 4 21 20 23 17 25
REMARK Flexibility Score: inf
ROOT
ATOM      1  C   UNL     1       3.805  17.573  16.009  1.00  0.00     0.180 A 
ATOM      2  C   UNL     1       3.753  17.221  14.649  1.00  0.00     0.208 A 
ATOM      3  C   UNL     1       4.120  15.920  14.269  1.00  0.00     0.238 A 
ATOM      4  O   UNL     1       4.123  15.626  13.045  1.00  0.00    -0.285 OA
ATOM      5  C   UNL     1       4.519  14.984  15.254  1.00  0.00     0.111 A 
ATOM      6  C   UNL     1       4.874  13.627  14.985  1.00  0.00     0.134 A 
ATOM      7  C   UNL     1       5.378  12.829  16.019  1.00  0.00     0.093 A 
ATOM      8  C   UNL     1       5.480  13.319  17.323  1.00  0.00     0.123 A 
ATOM      9  C   UNL     1       5.080  14.622  17.606  1.00  0.00     0.094 A 
ATOM     10  C   UNL     1       4.606  15.454  16.589  1.00  0.00     0.146 A 
ATOM     11  O   UNL     1       4.246  16.694  16.900  1.00  0.00    -0.452 OA
ENDROOT
BRANCH   1  12
ATOM     12  C   UNL     1       3.410  18.917  16.490  1.00  0.00     0.021 A 
ATOM     13  C   UNL     1       4.272  20.007  16.283  1.00  0.00     0.016 A 
ATOM     14  C   UNL     1       3.930  21.280  16.749  1.00  0.00     0.047 A 
ATOM     15  C   UNL     1       2.731  21.478  17.441  1.00  0.00     0.115 A 
ATOM     16  C   UNL     1       2.215  19.118  17.205  1.00  0.00     0.016 A 
ATOM     17  C   UNL     1       1.875  20.392  17.671  1.00  0.00     0.047 A 
BRANCH  15  18
ATOM     18  O   UNL     1       2.402  22.751  17.899  1.00  0.00    -0.508 OA
ATOM     19  H   UNL     1       2.624  23.580  17.360  1.00  0.00     0.293 HD
ENDBRANCH  15  18
ENDBRANCH   1  12
BRANCH   2  20
ATOM     20  O   UNL     1       3.376  18.167  13.692  1.00  0.00    -0.502 OA
ATOM     21  H   UNL     1       3.570  18.048  12.704  1.00  0.00     0.293 HD
ENDBRANCH   2  20
BRANCH   6  22
ATOM     22  O   UNL     1       4.723  13.014  13.738  1.00  0.00    -0.507 OA
ATOM     23  H   UNL     1       4.304  13.448  12.930  1.00  0.00     0.293 HD
ENDBRANCH   6  22
BRANCH   8  24
ATOM     24  O   UNL     1       5.968  12.511  18.349  1.00  0.00    -0.508 OA
ATOM     25  H   UNL     1       6.340  11.587  18.164  1.00  0.00     0.293 HD
ENDBRANCH   8  24
TORSDOF 5
ENDMDL
MODEL 9
REMARK VINA RESULT:    -6.298      2.783      4.554
REMARK INTER + INTRA:          -7.464
REMARK INTER:                  -7.189
REMARK INTRA:                  -0.275
REMARK UNBOUND:                -0.061
REMARK SMILES O=c1c(O)c(-c2ccc(O)cc2)oc2cc(O)cc(O)c12
REMARK SMILES IDX 5 1 3 2 2 3 1 4 21 5 19 6 18 7 16 8 15 9 14 10 13 11 6 12
REMARK SMILES IDX 7 13 8 14 9 15 12 16 11 17 10 18 4 20 20 22 17 24
REMARK H PARENT 10 19 4 21 20 23 17 25
REMARK Flexibility Score: inf
ROOT
ATOM      1  C   UNL     1       4.587  14.376  16.799  1.00  0.00     0.180 A 
ATOM      2  C   UNL     1       5.314  15.366  17.484  1.00  0.00     0.208 A 
ATOM      3  C   UNL     1       5.416  16.648  16.919  1.00  0.00     0.238 A 
ATOM      4  O   UNL     1       6.113  17.514  17.509  1.00  0.00    -0.285 OA
ATOM      5  C   UNL     1       4.777  16.928  15.687  1.00  0.00     0.111 A 
ATOM      6  C   UNL     1       4.782  18.203  15.044  1.00  0.00     0.134 A 
ATOM      7  C   UNL     1       4.228  18.331  13.764  1.00  0.00     0.093 A 
ATOM      8  C   UNL     1       3.614  17.247  13.133  1.00  0.00     0.123 A 
ATOM      9  C   UNL     1       3.552  16.015  13.778  1.00  0.00     0.094 A 
ATOM     10  C   UNL     1       4.127  15.846  15.039  1.00  0.00     0.146 A 
ATOM     11  O   UNL     1       4.055  14.651  15.615  1.00  0.00    -0.452 OA
ENDROOT
BRANCH   1  12
ATOM     12  C   UNL     1       4.414  13.009  17.342  1.00  0.00     0.021 A 
ATOM     13  C   UNL     1       3.415  12.766  18.299  1.00  0.00     0.016 A 
ATOM     14  C   UNL     1       3.250  11.488  18.842  1.00  0.00     0.047 A 
ATOM     15  C   UNL     1       4.088  10.442  18.448  1.00  0.00     0.115 A 
ATOM     16  C   UNL     1       5.268  11.957  16.964  1.00  0.00     0.016 A 
ATOM     17  C   UNL     1       5.101  10.680  17.509  1.00  0.00     0.047 A 
BRANCH  15  18
ATOM     18  O   UNL     1       3.911   9.174  18.996  1.00  0.00    -0.508 OA
ATOM     19  H   UNL     1       3.198   8.543  18.651  1.00  0.00     0.293 HD
ENDBRANCH  15  18
ENDBRANCH   1  12
BRANCH   2  20
ATOM     20  O   UNL     1       5.954  15.062  18.688  1.00  0.00    -0.502 OA
ATOM     21  H   UNL     1       6.789  14.490  18.731  1.00  0.00     0.293 HD
ENDBRANCH   2  20
BRANCH   6  22
ATOM     22  O   UNL     1       5.287  19.368  15.625  1.00  0.00    -0.507 OA
ATOM     23  H   UNL     1       4.759  20.217  15.764  1.00  0.00     0.293 HD
ENDBRANCH   6  22
BRANCH   8  24
ATOM     24  O   UNL     1       3.051  17.388  11.865  1.00  0.00    -0.508 OA
ATOM     25  H   UNL     1       2.317  18.064  11.684  1.00  0.00     0.293 HD
ENDBRANCH   8  24
TORSDOF 5
ENDMDL
