MODEL 1
REMARK VINA RESULT:    -4.047      0.000      0.000
REMARK INTER + INTRA:          -8.982
REMARK INTER:                  -7.832
REMARK INTRA:                  -1.150
REMARK UNBOUND:                -1.150
REMARK SMILES CCCCCCCCCCCCCCCCCC(=O)[O-]
REMARK SMILES IDX 10 1 11 2 12 3 13 4 14 5 15 6 16 7 17 8 18 9 19 10 20 11
REMARK SMILES IDX 9 12 8 13 7 14 6 15 5 16 4 17 3 18 2 19 1 20
REMARK H PARENT
REMARK Flexibility Score: inf
ROOT
ATOM      1  C   UNL     1       5.268  12.895  33.837  1.00  0.00     0.000 C 
ENDROOT
BRANCH   1   2
ATOM      2  C   UNL     1       5.238  11.399  33.487  1.00  0.00     0.000 C 
BRANCH   2   3
ATOM      3  C   UNL     1       5.219  10.539  34.760  1.00  0.00     0.000 C 
BRANCH   3   4
ATOM      4  C   UNL     1       6.350   9.499  34.790  1.00  0.00     0.000 C 
BRANCH   4   5
ATOM      5  C   UNL     1       6.736   9.000  33.388  1.00  0.00     0.000 C 
BRANCH   5   6
ATOM      6  C   UNL     1       6.501   7.487  33.261  1.00  0.00     0.000 C 
BRANCH   6   7
ATOM      7  C   UNL     1       5.920   6.868  34.542  1.00  0.00     0.006 C 
BRANCH   7   8
ATOM      8  C   UNL     1       6.509   5.485  34.849  1.00  0.00     0.053 C 
BRANCH   8   9
ATOM      9  C   UNL     1       7.489   5.573  35.975  1.00  0.00     0.041 C 
ATOM     10  O   UNL     1       7.742   4.558  36.675  1.00  0.00    -0.550 OA
ATOM     11  O   UNL     1       8.091   6.787  36.281  1.00  0.00    -0.550 OA
ENDBRANCH   8   9
ENDBRANCH   7   8
ENDBRANCH   6   7
ENDBRANCH   5   6
ENDBRANCH   4   5
ENDBRANCH   3   4
ENDBRANCH   2   3
ENDBRANCH   1   2
BRANCH   1  12
ATOM     12  C   UNL     1       5.286  13.150  35.354  1.00  0.00     0.000 C 
BRANCH  12  13
ATOM     13  C   UNL     1       5.670  14.598  35.703  1.00  0.00    -0.000 C 
BRANCH  13  14
ATOM     14  C   UNL     1       6.161  15.390  34.480  1.00  0.00    -0.000 C 
BRANCH  14  15
ATOM     15  C   UNL     1       6.248  16.901  34.746  1.00  0.00    -0.000 C 
BRANCH  15  16
ATOM     16  C   UNL     1       5.089  17.644  34.065  1.00  0.00    -0.000 C 
BRANCH  16  17
ATOM     17  C   UNL     1       5.337  19.157  33.955  1.00  0.00    -0.000 C 
BRANCH  17  18
ATOM     18  C   UNL     1       6.127  19.538  32.694  1.00  0.00    -0.000 C 
BRANCH  18  19
ATOM     19  C   UNL     1       7.405  20.303  33.058  1.00  0.00    -0.003 C 
ATOM     20  C   UNL     1       7.401  20.715  34.527  1.00  0.00     0.004 C 
ENDBRANCH  18  19
ENDBRANCH  17  18
ENDBRANCH  16  17
ENDBRANCH  15  16
ENDBRANCH  14  15
ENDBRANCH  13  14
ENDBRANCH  12  13
ENDBRANCH   1  12
TORSDOF 16
ENDMDL
MODEL 2
REMARK VINA RESULT:    -3.879      1.762      3.974
REMARK INTER + INTRA:          -8.658
REMARK INTER:                  -7.408
REMARK INTRA:                  -1.250
REMARK UNBOUND:                -1.150
REMARK SMILES CCCCCCCCCCCCCCCCCC(=O)[O-]
REMARK SMILES IDX 10 1 11 2 12 3 13 4 14 5 15 6 16 7 17 8 18 9 19 10 20 11
REMARK SMILES IDX 9 12 8 13 7 14 6 15 5 16 4 17 3 18 2 19 1 20
REMARK H PARENT
REMARK Flexibility Score: inf
ROOT
ATOM      1  C   UNL     1       6.722   9.121  34.038  1.00  0.00     0.000 C 
ENDROOT
BRANCH   1   2
ATOM      2  C   UNL     1       6.141   7.738  33.709  1.00  0.00     0.000 C 
BRANCH   2   3
ATOM      3  C   UNL     1       5.557   7.076  34.966  1.00  0.00     0.000 C 
BRANCH   3   4
ATOM      4  C   UNL     1       5.296   5.573  34.778  1.00  0.00     0.000 C 
BRANCH   4   5
ATOM      5  C   UNL     1       6.471   4.703  35.253  1.00  0.00     0.000 C 
BRANCH   5   6
ATOM      6  C   UNL     1       7.291   5.430  36.330  1.00  0.00     0.000 C 
BRANCH   6   7
ATOM      7  C   UNL     1       8.806   5.317  36.097  1.00  0.00     0.006 C 
BRANCH   7   8
ATOM      8  C   UNL     1       9.241   5.898  34.746  1.00  0.00     0.053 C 
BRANCH   8   9
ATOM      9  C   UNL     1      10.549   5.310  34.322  1.00  0.00     0.041 C 
ATOM     10  O   UNL     1      10.927   4.203  34.788  1.00  0.00    -0.550 OA
ATOM     11  O   UNL     1      11.375   6.005  33.446  1.00  0.00    -0.550 OA
ENDBRANCH   8   9
ENDBRANCH   7   8
ENDBRANCH   6   7
ENDBRANCH   5   6
ENDBRANCH   4   5
ENDBRANCH   3   4
ENDBRANCH   2   3
ENDBRANCH   1   2
BRANCH   1  12
ATOM     12  C   UNL     1       6.401  10.173  32.963  1.00  0.00     0.000 C 
BRANCH  12  13
ATOM     13  C   UNL     1       5.410  11.240  33.458  1.00  0.00    -0.000 C 
BRANCH  13  14
ATOM     14  C   UNL     1       5.041  11.060  34.940  1.00  0.00    -0.000 C 
BRANCH  14  15
ATOM     15  C   UNL     1       5.297  12.325  35.774  1.00  0.00    -0.000 C 
BRANCH  15  16
ATOM     16  C   UNL     1       5.341  13.572  34.877  1.00  0.00    -0.000 C 
BRANCH  16  17
ATOM     17  C   UNL     1       5.708  14.847  35.651  1.00  0.00    -0.000 C 
BRANCH  17  18
ATOM     18  C   UNL     1       6.456  15.872  34.785  1.00  0.00    -0.000 C 
BRANCH  18  19
ATOM     19  C   UNL     1       5.695  17.201  34.728  1.00  0.00    -0.003 C 
ATOM     20  C   UNL     1       6.580  18.320  34.187  1.00  0.00     0.004 C 
ENDBRANCH  18  19
ENDBRANCH  17  18
ENDBRANCH  16  17
ENDBRANCH  15  16
ENDBRANCH  14  15
ENDBRANCH  13  14
ENDBRANCH  12  13
ENDBRANCH   1  12
TORSDOF 16
ENDMDL
MODEL 3
REMARK VINA RESULT:    -3.829      4.167     10.350
REMARK INTER + INTRA:          -8.560
REMARK INTER:                  -7.444
REMARK INTRA:                  -1.117
REMARK UNBOUND:                -1.150
REMARK SMILES CCCCCCCCCCCCCCCCCC(=O)[O-]
REMARK SMILES IDX 10 1 11 2 12 3 13 4 14 5 15 6 16 7 17 8 18 9 19 10 20 11
REMARK SMILES IDX 9 12 8 13 7 14 6 15 5 16 4 17 3 18 2 19 1 20
REMARK H PARENT
REMARK Flexibility Score: inf
ROOT
ATOM      1  C   UNL     1       7.533   8.500  33.893  1.00  0.00     0.000 C 
ENDROOT
BRANCH   1   2
ATOM      2  C   UNL     1       6.720   9.503  33.061  1.00  0.00     0.000 C 
BRANCH   2   3
ATOM      3  C   UNL     1       5.957  10.478  33.970  1.00  0.00     0.000 C 
BRANCH   3   4
ATOM      4  C   UNL     1       5.068  11.453  33.182  1.00  0.00     0.000 C 
BRANCH   4   5
ATOM      5  C   UNL     1       5.130  12.887  33.730  1.00  0.00     0.000 C 
BRANCH   5   6
ATOM      6  C   UNL     1       5.338  12.884  35.252  1.00  0.00     0.000 C 
BRANCH   6   7
ATOM      7  C   UNL     1       5.473  14.300  35.835  1.00  0.00     0.006 C 
BRANCH   7   8
ATOM      8  C   UNL     1       6.350  15.214  34.969  1.00  0.00     0.053 C 
BRANCH   8   9
ATOM      9  C   UNL     1       6.011  16.649  35.217  1.00  0.00     0.041 C 
ATOM     10  O   UNL     1       6.561  17.556  34.538  1.00  0.00    -0.550 OA
ATOM     11  O   UNL     1       5.122  16.991  36.229  1.00  0.00    -0.550 OA
ENDBRANCH   8   9
ENDBRANCH   7   8
ENDBRANCH   6   7
ENDBRANCH   5   6
ENDBRANCH   4   5
ENDBRANCH   3   4
ENDBRANCH   2   3
ENDBRANCH   1   2
BRANCH   1  12
ATOM     12  C   UNL     1       7.075   7.046  33.688  1.00  0.00     0.000 C 
BRANCH  12  13
ATOM     13  C   UNL     1       5.620   6.819  34.130  1.00  0.00    -0.000 C 
BRANCH  13  14
ATOM     14  C   UNL     1       5.503   5.794  35.270  1.00  0.00    -0.000 C 
BRANCH  14  15
ATOM     15  C   UNL     1       6.572   4.692  35.192  1.00  0.00    -0.000 C 
BRANCH  15  16
ATOM     16  C   UNL     1       7.282   4.521  36.543  1.00  0.00    -0.000 C 
BRANCH  16  17
ATOM     17  C   UNL     1       8.797   4.314  36.395  1.00  0.00    -0.000 C 
BRANCH  17  18
ATOM     18  C   UNL     1       9.451   5.353  35.472  1.00  0.00    -0.000 C 
BRANCH  18  19
ATOM     19  C   UNL     1      10.695   4.773  34.788  1.00  0.00    -0.003 C 
ATOM     20  C   UNL     1      11.207   5.706  33.695  1.00  0.00     0.004 C 
ENDBRANCH  18  19
ENDBRANCH  17  18
ENDBRANCH  16  17
ENDBRANCH  15  16
ENDBRANCH  14  15
ENDBRANCH  13  14
ENDBRANCH  12  13
ENDBRANCH   1  12
TORSDOF 16
ENDMDL
MODEL 4
REMARK VINA RESULT:    -3.739      4.531     11.039
REMARK INTER + INTRA:          -8.387
REMARK INTER:                  -7.511
REMARK INTRA:                  -0.876
REMARK UNBOUND:                -1.150
REMARK SMILES CCCCCCCCCCCCCCCCCC(=O)[O-]
REMARK SMILES IDX 10 1 11 2 12 3 13 4 14 5 15 6 16 7 17 8 18 9 19 10 20 11
REMARK SMILES IDX 9 12 8 13 7 14 6 15 5 16 4 17 3 18 2 19 1 20
REMARK H PARENT
REMARK Flexibility Score: inf
ROOT
ATOM      1  C   UNL     1       6.340   9.842  33.387  1.00  0.00     0.000 C 
ENDROOT
BRANCH   1   2
ATOM      2  C   UNL     1       5.606  11.137  33.007  1.00  0.00     0.000 C 
BRANCH   2   3
ATOM      3  C   UNL     1       5.175  11.911  34.261  1.00  0.00     0.000 C 
BRANCH   3   4
ATOM      4  C   UNL     1       5.019  13.419  34.005  1.00  0.00     0.000 C 
BRANCH   4   5
ATOM      5  C   UNL     1       5.586  14.276  35.147  1.00  0.00     0.000 C 
BRANCH   5   6
ATOM      6  C   UNL     1       6.370  15.476  34.594  1.00  0.00     0.000 C 
BRANCH   6   7
ATOM      7  C   UNL     1       5.579  16.791  34.677  1.00  0.00     0.006 C 
BRANCH   7   8
ATOM      8  C   UNL     1       6.452  17.981  35.095  1.00  0.00     0.053 C 
BRANCH   8   9
ATOM      9  C   UNL     1       6.392  19.061  34.062  1.00  0.00     0.041 C 
ATOM     10  O   UNL     1       5.696  18.907  33.024  1.00  0.00    -0.550 OA
ATOM     11  O   UNL     1       7.142  20.220  34.221  1.00  0.00    -0.550 OA
ENDBRANCH   8   9
ENDBRANCH   7   8
ENDBRANCH   6   7
ENDBRANCH   5   6
ENDBRANCH   4   5
ENDBRANCH   3   4
ENDBRANCH   2   3
ENDBRANCH   1   2
BRANCH   1  12
ATOM     12  C   UNL     1       6.062   9.404  34.835  1.00  0.00     0.000 C 
BRANCH  12  13
ATOM     13  C   UNL     1       5.177   8.148  34.911  1.00  0.00    -0.000 C 
BRANCH  13  14
ATOM     14  C   UNL     1       5.932   6.869  34.515  1.00  0.00    -0.000 C 
BRANCH  14  15
ATOM     15  C   UNL     1       7.119   6.568  35.443  1.00  0.00    -0.000 C 
BRANCH  15  16
ATOM     16  C   UNL     1       8.410   6.371  34.634  1.00  0.00    -0.000 C 
BRANCH  16  17
ATOM     17  C   UNL     1       9.443   5.501  35.366  1.00  0.00    -0.000 C 
BRANCH  17  18
ATOM     18  C   UNL     1       8.853   4.782  36.589  1.00  0.00    -0.000 C 
BRANCH  18  19
ATOM     19  C   UNL     1       8.943   3.260  36.427  1.00  0.00    -0.003 C 
ATOM     20  C   UNL     1      10.371   2.823  36.111  1.00  0.00     0.004 C 
ENDBRANCH  18  19
ENDBRANCH  17  18
ENDBRANCH  16  17
ENDBRANCH  15  16
ENDBRANCH  14  15
ENDBRANCH  13  14
ENDBRANCH  12  13
ENDBRANCH   1  12
TORSDOF 16
ENDMDL
MODEL 5
REMARK VINA RESULT:    -3.693      1.575      2.741
REMARK INTER + INTRA:          -8.297
REMARK INTER:                  -7.313
REMARK INTRA:                  -0.985
REMARK UNBOUND:                -1.150
REMARK SMILES CCCCCCCCCCCCCCCCCC(=O)[O-]
REMARK SMILES IDX 10 1 11 2 12 3 13 4 14 5 15 6 16 7 17 8 18 9 19 10 20 11
REMARK SMILES IDX 9 12 8 13 7 14 6 15 5 16 4 17 3 18 2 19 1 20
REMARK H PARENT
REMARK Flexibility Score: inf
ROOT
ATOM      1  C   UNL     1       5.261  10.565  34.811  1.00  0.00     0.000 C 
ENDROOT
BRANCH   1   2
ATOM      2  C   UNL     1       5.344   9.031  34.856  1.00  0.00     0.000 C 
BRANCH   2   3
ATOM      3  C   UNL     1       6.264   8.500  33.747  1.00  0.00     0.000 C 
BRANCH   3   4
ATOM      4  C   UNL     1       7.700   8.254  34.234  1.00  0.00     0.000 C 
BRANCH   4   5
ATOM      5  C   UNL     1       8.128   6.784  34.102  1.00  0.00     0.000 C 
BRANCH   5   6
ATOM      6  C   UNL     1       8.367   6.156  35.484  1.00  0.00     0.000 C 
BRANCH   6   7
ATOM      7  C   UNL     1       7.488   4.919  35.732  1.00  0.00     0.006 C 
BRANCH   7   8
ATOM      8  C   UNL     1       6.036   5.126  35.282  1.00  0.00     0.053 C 
BRANCH   8   9
ATOM      9  C   UNL     1       5.450   3.837  34.802  1.00  0.00     0.041 C 
ATOM     10  O   UNL     1       5.342   2.859  35.588  1.00  0.00    -0.550 OA
ATOM     11  O   UNL     1       5.062   3.699  33.475  1.00  0.00    -0.550 OA
ENDBRANCH   8   9
ENDBRANCH   7   8
ENDBRANCH   6   7
ENDBRANCH   5   6
ENDBRANCH   4   5
ENDBRANCH   3   4
ENDBRANCH   2   3
ENDBRANCH   1   2
BRANCH   1  12
ATOM     12  C   UNL     1       5.373  11.125  33.383  1.00  0.00     0.000 C 
BRANCH  12  13
ATOM     13  C   UNL     1       5.068  12.630  33.314  1.00  0.00    -0.000 C 
BRANCH  13  14
ATOM     14  C   UNL     1       5.365  13.354  34.638  1.00  0.00    -0.000 C 
BRANCH  14  15
ATOM     15  C   UNL     1       5.076  14.862  34.569  1.00  0.00    -0.000 C 
BRANCH  15  16
ATOM     16  C   UNL     1       6.165  15.662  35.301  1.00  0.00    -0.000 C 
BRANCH  16  17
ATOM     17  C   UNL     1       6.505  16.983  34.597  1.00  0.00    -0.000 C 
BRANCH  17  18
ATOM     18  C   UNL     1       5.263  17.701  34.049  1.00  0.00    -0.000 C 
BRANCH  18  19
ATOM     19  C   UNL     1       5.526  19.202  33.880  1.00  0.00    -0.003 C 
ATOM     20  C   UNL     1       6.971  19.465  33.467  1.00  0.00     0.004 C 
ENDBRANCH  18  19
ENDBRANCH  17  18
ENDBRANCH  16  17
ENDBRANCH  15  16
ENDBRANCH  14  15
ENDBRANCH  13  14
ENDBRANCH  12  13
ENDBRANCH   1  12
TORSDOF 16
ENDMDL
MODEL 6
REMARK VINA RESULT:    -3.472      5.729      8.465
REMARK INTER + INTRA:          -7.870
REMARK INTER:                  -6.062
REMARK INTRA:                  -1.808
REMARK UNBOUND:                -1.150
REMARK SMILES CCCCCCCCCCCCCCCCCC(=O)[O-]
REMARK SMILES IDX 10 1 11 2 12 3 13 4 14 5 15 6 16 7 17 8 18 9 19 10 20 11
REMARK SMILES IDX 9 12 8 13 7 14 6 15 5 16 4 17 3 18 2 19 1 20
REMARK H PARENT
REMARK Flexibility Score: inf
ROOT
ATOM      1  C   UNL     1       9.508   5.179  35.664  1.00  0.00     0.000 C 
ENDROOT
BRANCH   1   2
ATOM      2  C   UNL     1       9.758   3.694  35.966  1.00  0.00     0.000 C 
BRANCH   2   3
ATOM      3  C   UNL     1       8.549   3.069  36.679  1.00  0.00     0.000 C 
BRANCH   3   4
ATOM      4  C   UNL     1       8.234   1.650  36.179  1.00  0.00     0.000 C 
BRANCH   4   5
ATOM      5  C   UNL     1       6.748   1.458  35.837  1.00  0.00     0.000 C 
BRANCH   5   6
ATOM      6  C   UNL     1       5.999   2.799  35.878  1.00  0.00     0.000 C 
BRANCH   6   7
ATOM      7  C   UNL     1       4.927   2.912  34.783  1.00  0.00     0.006 C 
BRANCH   7   8
ATOM      8  C   UNL     1       5.015   1.780  33.750  1.00  0.00     0.053 C 
BRANCH   8   9
ATOM      9  C   UNL     1       5.078   2.341  32.365  1.00  0.00     0.041 C 
ATOM     10  O   UNL     1       4.891   3.571  32.171  1.00  0.00    -0.550 OA
ATOM     11  O   UNL     1       5.299   1.499  31.282  1.00  0.00    -0.550 OA
ENDBRANCH   8   9
ENDBRANCH   7   8
ENDBRANCH   6   7
ENDBRANCH   5   6
ENDBRANCH   4   5
ENDBRANCH   3   4
ENDBRANCH   2   3
ENDBRANCH   1   2
BRANCH   1  12
ATOM     12  C   UNL     1       8.013   5.539  35.646  1.00  0.00     0.000 C 
BRANCH  12  13
ATOM     13  C   UNL     1       7.599   6.401  36.850  1.00  0.00    -0.000 C 
BRANCH  13  14
ATOM     14  C   UNL     1       6.083   6.657  36.900  1.00  0.00    -0.000 C 
BRANCH  14  15
ATOM     15  C   UNL     1       5.406   6.487  35.532  1.00  0.00    -0.000 C 
BRANCH  15  16
ATOM     16  C   UNL     1       4.875   7.833  35.013  1.00  0.00    -0.000 C 
BRANCH  16  17
ATOM     17  C   UNL     1       5.837   8.998  35.291  1.00  0.00    -0.000 C 
BRANCH  17  18
ATOM     18  C   UNL     1       5.819  10.059  34.181  1.00  0.00    -0.000 C 
BRANCH  18  19
ATOM     19  C   UNL     1       6.707   9.638  33.005  1.00  0.00    -0.003 C 
ATOM     20  C   UNL     1       7.845   8.734  33.469  1.00  0.00     0.004 C 
ENDBRANCH  18  19
ENDBRANCH  17  18
ENDBRANCH  16  17
ENDBRANCH  15  16
ENDBRANCH  14  15
ENDBRANCH  13  14
ENDBRANCH  12  13
ENDBRANCH   1  12
TORSDOF 16
ENDMDL
MODEL 7
REMARK VINA RESULT:    -3.415      4.137     10.240
REMARK INTER + INTRA:          -7.760
REMARK INTER:                  -6.028
REMARK INTRA:                  -1.732
REMARK UNBOUND:                -1.150
REMARK SMILES CCCCCCCCCCCCCCCCCC(=O)[O-]
REMARK SMILES IDX 10 1 11 2 12 3 13 4 14 5 15 6 16 7 17 8 18 9 19 10 20 11
REMARK SMILES IDX 9 12 8 13 7 14 6 15 5 16 4 17 3 18 2 19 1 20
REMARK H PARENT
REMARK Flexibility Score: inf
ROOT
ATOM      1  C   UNL     1       6.640   7.451  33.367  1.00  0.00     0.000 C 
ENDROOT
BRANCH   1   2
ATOM      2  C   UNL     1       6.706   8.898  32.856  1.00  0.00     0.000 C 
BRANCH   2   3
ATOM      3  C   UNL     1       6.553   9.895  34.015  1.00  0.00     0.000 C 
BRANCH   3   4
ATOM      4  C   UNL     1       5.311   9.618  34.877  1.00  0.00     0.000 C 
BRANCH   4   5
ATOM      5  C   UNL     1       5.619   9.631  36.383  1.00  0.00     0.000 C 
BRANCH   5   6
ATOM      6  C   UNL     1       5.976  11.049  36.856  1.00  0.00     0.000 C 
BRANCH   6   7
ATOM      7  C   UNL     1       5.002  12.113  36.327  1.00  0.00     0.006 C 
BRANCH   7   8
ATOM      8  C   UNL     1       5.668  13.482  36.138  1.00  0.00     0.053 C 
BRANCH   8   9
ATOM      9  C   UNL     1       5.394  14.011  34.767  1.00  0.00     0.041 C 
ATOM     10  O   UNL     1       5.358  13.228  33.781  1.00  0.00    -0.550 OA
ATOM     11  O   UNL     1       5.222  15.375  34.567  1.00  0.00    -0.550 OA
ENDBRANCH   8   9
ENDBRANCH   7   8
ENDBRANCH   6   7
ENDBRANCH   5   6
ENDBRANCH   4   5
ENDBRANCH   3   4
ENDBRANCH   2   3
ENDBRANCH   1   2
BRANCH   1  12
ATOM     12  C   UNL     1       7.915   7.025  34.113  1.00  0.00     0.000 C 
BRANCH  12  13
ATOM     13  C   UNL     1       7.627   6.538  35.543  1.00  0.00    -0.000 C 
BRANCH  13  14
ATOM     14  C   UNL     1       6.612   5.383  35.580  1.00  0.00    -0.000 C 
BRANCH  14  15
ATOM     15  C   UNL     1       7.076   4.211  36.458  1.00  0.00    -0.000 C 
BRANCH  15  16
ATOM     16  C   UNL     1       8.593   4.272  36.694  1.00  0.00    -0.000 C 
BRANCH  16  17
ATOM     17  C   UNL     1       9.333   3.057  36.114  1.00  0.00    -0.000 C 
BRANCH  17  18
ATOM     18  C   UNL     1      10.706   3.422  35.531  1.00  0.00    -0.000 C 
BRANCH  18  19
ATOM     19  C   UNL     1      10.705   4.852  34.978  1.00  0.00    -0.003 C 
ATOM     20  C   UNL     1      11.505   4.942  33.682  1.00  0.00     0.004 C 
ENDBRANCH  18  19
ENDBRANCH  17  18
ENDBRANCH  16  17
ENDBRANCH  15  16
ENDBRANCH  14  15
ENDBRANCH  13  14
ENDBRANCH  12  13
ENDBRANCH   1  12
TORSDOF 16
ENDMDL
MODEL 8
REMARK VINA RESULT:    -3.293      4.148     10.261
REMARK INTER + INTRA:          -7.522
REMARK INTER:                  -6.002
REMARK INTRA:                  -1.520
REMARK UNBOUND:                -1.150
REMARK SMILES CCCCCCCCCCCCCCCCCC(=O)[O-]
REMARK SMILES IDX 10 1 11 2 12 3 13 4 14 5 15 6 16 7 17 8 18 9 19 10 20 11
REMARK SMILES IDX 9 12 8 13 7 14 6 15 5 16 4 17 3 18 2 19 1 20
REMARK H PARENT
REMARK Flexibility Score: inf
ROOT
ATOM      1  C   UNL     1       6.805   7.884  32.978  1.00  0.00     0.000 C 
ENDROOT
BRANCH   1   2
ATOM      2  C   UNL     1       7.083   9.189  33.740  1.00  0.00     0.000 C 
BRANCH   2   3
ATOM      3  C   UNL     1       5.975   9.470  34.767  1.00  0.00     0.000 C 
BRANCH   3   4
ATOM      4  C   UNL     1       6.500   9.511  36.211  1.00  0.00     0.000 C 
BRANCH   4   5
ATOM      5  C   UNL     1       5.863  10.635  37.042  1.00  0.00     0.000 C 
BRANCH   5   6
ATOM      6  C   UNL     1       5.473  11.824  36.150  1.00  0.00     0.000 C 
BRANCH   6   7
ATOM      7  C   UNL     1       5.290  13.126  36.945  1.00  0.00     0.006 C 
BRANCH   7   8
ATOM      8  C   UNL     1       6.501  14.061  36.834  1.00  0.00     0.053 C 
BRANCH   8   9
ATOM      9  C   UNL     1       6.233  15.147  35.842  1.00  0.00     0.041 C 
ATOM     10  O   UNL     1       6.006  16.322  36.234  1.00  0.00    -0.550 OA
ATOM     11  O   UNL     1       6.189  14.855  34.484  1.00  0.00    -0.550 OA
ENDBRANCH   8   9
ENDBRANCH   7   8
ENDBRANCH   6   7
ENDBRANCH   5   6
ENDBRANCH   4   5
ENDBRANCH   3   4
ENDBRANCH   2   3
ENDBRANCH   1   2
BRANCH   1  12
ATOM     12  C   UNL     1       6.585   6.684  33.913  1.00  0.00     0.000 C 
BRANCH  12  13
ATOM     13  C   UNL     1       5.211   6.022  33.712  1.00  0.00    -0.000 C 
BRANCH  13  14
ATOM     14  C   UNL     1       5.239   4.509  33.985  1.00  0.00    -0.000 C 
BRANCH  14  15
ATOM     15  C   UNL     1       5.408   4.177  35.475  1.00  0.00    -0.000 C 
BRANCH  15  16
ATOM     16  C   UNL     1       6.426   3.043  35.670  1.00  0.00    -0.000 C 
BRANCH  16  17
ATOM     17  C   UNL     1       7.641   3.472  36.507  1.00  0.00    -0.000 C 
BRANCH  17  18
ATOM     18  C   UNL     1       7.536   4.922  37.004  1.00  0.00    -0.000 C 
BRANCH  18  19
ATOM     19  C   UNL     1       8.830   5.693  36.722  1.00  0.00    -0.003 C 
ATOM     20  C   UNL     1       9.504   5.193  35.448  1.00  0.00     0.004 C 
ENDBRANCH  18  19
ENDBRANCH  17  18
ENDBRANCH  16  17
ENDBRANCH  15  16
ENDBRANCH  14  15
ENDBRANCH  13  14
ENDBRANCH  12  13
ENDBRANCH   1  12
TORSDOF 16
ENDMDL
