MODEL 1
REMARK VINA RESULT:    -4.778      0.000      0.000
REMARK INTER + INTRA:         -17.954
REMARK INTER:                 -12.599
REMARK INTRA:                  -5.355
REMARK UNBOUND:                -5.355
REMARK SMILES CCCCCCCCCCCCCCCCCCCCCCCCCCCCCC(=O)[O-]
REMARK SMILES IDX 16 1 17 2 18 3 19 4 20 5 21 6 22 7 23 8 24 9 25 10 26 11
REMARK SMILES IDX 27 12 28 13 29 14 30 15 31 16 32 17 15 18 14 19 13 20 12 21
REMARK SMILES IDX 11 22 10 23 9 24 8 25 7 26 6 27 5 28 4 29 3 30 2 31 1 32
REMARK H PARENT
REMARK Flexibility Score: inf
ROOT
ATOM      1  C   UNL     1      -3.547   9.998 -10.351  1.00  0.00     0.000 C 
ENDROOT
BRANCH   1   2
ATOM      2  C   UNL     1      -4.397  11.070 -11.058  1.00  0.00     0.000 C 
BRANCH   2   3
ATOM      3  C   UNL     1      -5.922  10.851 -10.989  1.00  0.00     0.000 C 
BRANCH   3   4
ATOM      4  C   UNL     1      -6.605  11.389  -9.720  1.00  0.00     0.000 C 
BRANCH   4   5
ATOM      5  C   UNL     1      -6.178  12.818  -9.364  1.00  0.00     0.000 C 
BRANCH   5   6
ATOM      6  C   UNL     1      -6.427  13.106  -7.875  1.00  0.00     0.000 C 
BRANCH   6   7
ATOM      7  C   UNL     1      -7.080  11.923  -7.143  1.00  0.00     0.000 C 
BRANCH   7   8
ATOM      8  C   UNL     1      -6.666  11.835  -5.664  1.00  0.00     0.000 C 
BRANCH   8   9
ATOM      9  C   UNL     1      -6.654  10.386  -5.147  1.00  0.00     0.000 C 
BRANCH   9  10
ATOM     10  C   UNL     1      -5.502   9.559  -5.740  1.00  0.00     0.000 C 
BRANCH  10  11
ATOM     11  C   UNL     1      -5.995   8.335  -6.530  1.00  0.00     0.000 C 
BRANCH  11  12
ATOM     12  C   UNL     1      -6.143   8.603  -8.044  1.00  0.00     0.000 C 
BRANCH  12  13
ATOM     13  C   UNL     1      -5.741   7.383  -8.889  1.00  0.00     0.006 C 
BRANCH  13  14
ATOM     14  C   UNL     1      -6.593   7.292 -10.161  1.00  0.00     0.053 C 
BRANCH  14  15
ATOM     15  C   UNL     1      -5.916   6.446 -11.193  1.00  0.00     0.041 C 
ATOM     16  O   UNL     1      -4.982   6.924 -11.888  1.00  0.00    -0.550 OA
ATOM     17  O   UNL     1      -6.346   5.146 -11.418  1.00  0.00    -0.550 OA
ENDBRANCH  14  15
ENDBRANCH  13  14
ENDBRANCH  12  13
ENDBRANCH  11  12
ENDBRANCH  10  11
ENDBRANCH   9  10
ENDBRANCH   8   9
ENDBRANCH   7   8
ENDBRANCH   6   7
ENDBRANCH   5   6
ENDBRANCH   4   5
ENDBRANCH   3   4
ENDBRANCH   2   3
ENDBRANCH   1   2
BRANCH   1  18
ATOM     18  C   UNL     1      -2.527  10.593  -9.365  1.00  0.00     0.000 C 
BRANCH  18  19
ATOM     19  C   UNL     1      -3.097  10.704  -7.933  1.00  0.00     0.000 C 
BRANCH  19  20
ATOM     20  C   UNL     1      -3.174  12.144  -7.401  1.00  0.00     0.000 C 
BRANCH  20  21
ATOM     21  C   UNL     1      -2.809  12.249  -5.910  1.00  0.00     0.000 C 
BRANCH  21  22
ATOM     22  C   UNL     1      -2.353  10.903  -5.321  1.00  0.00     0.000 C 
BRANCH  22  23
ATOM     23  C   UNL     1      -1.259  11.077  -4.251  1.00  0.00     0.000 C 
BRANCH  23  24
ATOM     24  C   UNL     1      -0.661  12.499  -4.242  1.00  0.00    -0.000 C 
BRANCH  24  25
ATOM     25  C   UNL     1       0.881  12.530  -4.293  1.00  0.00    -0.000 C 
BRANCH  25  26
ATOM     26  C   UNL     1       1.493  12.651  -5.704  1.00  0.00    -0.000 C 
BRANCH  26  27
ATOM     27  C   UNL     1       0.457  12.859  -6.824  1.00  0.00    -0.000 C 
BRANCH  27  28
ATOM     28  C   UNL     1       0.735  11.978  -8.055  1.00  0.00    -0.000 C 
BRANCH  28  29
ATOM     29  C   UNL     1       0.628  10.475  -7.736  1.00  0.00    -0.000 C 
BRANCH  29  30
ATOM     30  C   UNL     1       1.575   9.577  -8.568  1.00  0.00    -0.000 C 
BRANCH  30  31
ATOM     31  C   UNL     1       2.988  10.150  -8.800  1.00  0.00    -0.003 C 
ATOM     32  C   UNL     1       3.679   9.552 -10.023  1.00  0.00     0.004 C 
ENDBRANCH  30  31
ENDBRANCH  29  30
ENDBRANCH  28  29
ENDBRANCH  27  28
ENDBRANCH  26  27
ENDBRANCH  25  26
ENDBRANCH  24  25
ENDBRANCH  23  24
ENDBRANCH  22  23
ENDBRANCH  21  22
ENDBRANCH  20  21
ENDBRANCH  19  20
ENDBRANCH  18  19
ENDBRANCH   1  18
TORSDOF 28
ENDMDL
MODEL 2
REMARK VINA RESULT:    -4.221      1.429      3.022
REMARK INTER + INTRA:         -16.484
REMARK INTER:                 -12.528
REMARK INTRA:                  -3.956
REMARK UNBOUND:                -5.355
REMARK SMILES CCCCCCCCCCCCCCCCCCCCCCCCCCCCCC(=O)[O-]
REMARK SMILES IDX 16 1 17 2 18 3 19 4 20 5 21 6 22 7 23 8 24 9 25 10 26 11
REMARK SMILES IDX 27 12 28 13 29 14 30 15 31 16 32 17 15 18 14 19 13 20 12 21
REMARK SMILES IDX 11 22 10 23 9 24 8 25 7 26 6 27 5 28 4 29 3 30 2 31 1 32
REMARK H PARENT
REMARK Flexibility Score: inf
ROOT
ATOM      1  C   UNL     1      -2.107  11.143  -8.868  1.00  0.00     0.000 C 
ENDROOT
BRANCH   1   2
ATOM      2  C   UNL     1      -2.184  10.271  -7.602  1.00  0.00     0.000 C 
BRANCH   2   3
ATOM      3  C   UNL     1      -3.607  10.011  -7.068  1.00  0.00     0.000 C 
BRANCH   3   4
ATOM      4  C   UNL     1      -3.918  10.637  -5.697  1.00  0.00     0.000 C 
BRANCH   4   5
ATOM      5  C   UNL     1      -5.182  11.507  -5.704  1.00  0.00     0.000 C 
BRANCH   5   6
ATOM      6  C   UNL     1      -5.757  11.620  -7.124  1.00  0.00     0.000 C 
BRANCH   6   7
ATOM      7  C   UNL     1      -5.351  12.926  -7.826  1.00  0.00     0.000 C 
BRANCH   7   8
ATOM      8  C   UNL     1      -5.631  12.902  -9.339  1.00  0.00     0.000 C 
BRANCH   8   9
ATOM      9  C   UNL     1      -6.522  11.716  -9.748  1.00  0.00     0.000 C 
BRANCH   9  10
ATOM     10  C   UNL     1      -6.118  11.119 -11.106  1.00  0.00     0.000 C 
BRANCH  10  11
ATOM     11  C   UNL     1      -4.651  10.658 -11.139  1.00  0.00     0.000 C 
BRANCH  11  12
ATOM     12  C   UNL     1      -4.480   9.143 -10.890  1.00  0.00     0.000 C 
BRANCH  12  13
ATOM     13  C   UNL     1      -5.788   8.483 -10.421  1.00  0.00     0.006 C 
BRANCH  13  14
ATOM     14  C   UNL     1      -5.550   7.025 -10.013  1.00  0.00     0.053 C 
BRANCH  14  15
ATOM     15  C   UNL     1      -5.871   6.100 -11.144  1.00  0.00     0.041 C 
ATOM     16  O   UNL     1      -5.253   6.198 -12.236  1.00  0.00    -0.550 OA
ATOM     17  O   UNL     1      -6.885   5.160 -11.009  1.00  0.00    -0.550 OA
ENDBRANCH  14  15
ENDBRANCH  13  14
ENDBRANCH  12  13
ENDBRANCH  11  12
ENDBRANCH  10  11
ENDBRANCH   9  10
ENDBRANCH   8   9
ENDBRANCH   7   8
ENDBRANCH   6   7
ENDBRANCH   5   6
ENDBRANCH   4   5
ENDBRANCH   3   4
ENDBRANCH   2   3
ENDBRANCH   1   2
BRANCH   1  18
ATOM     18  C   UNL     1      -1.797  12.619  -8.565  1.00  0.00     0.000 C 
BRANCH  18  19
ATOM     19  C   UNL     1      -1.129  12.803  -7.184  1.00  0.00     0.000 C 
BRANCH  19  20
ATOM     20  C   UNL     1      -1.801  13.865  -6.299  1.00  0.00     0.000 C 
BRANCH  20  21
ATOM     21  C   UNL     1      -1.973  13.405  -4.842  1.00  0.00     0.000 C 
BRANCH  21  22
ATOM     22  C   UNL     1      -0.752  13.747  -3.970  1.00  0.00     0.000 C 
BRANCH  22  23
ATOM     23  C   UNL     1      -0.146  15.116  -4.329  1.00  0.00     0.000 C 
BRANCH  23  24
ATOM     24  C   UNL     1       1.367  15.188  -4.034  1.00  0.00    -0.000 C 
BRANCH  24  25
ATOM     25  C   UNL     1       2.123  13.874  -4.319  1.00  0.00    -0.000 C 
BRANCH  25  26
ATOM     26  C   UNL     1       1.898  13.272  -5.722  1.00  0.00    -0.000 C 
BRANCH  26  27
ATOM     27  C   UNL     1       2.363  11.810  -5.860  1.00  0.00    -0.000 C 
BRANCH  27  28
ATOM     28  C   UNL     1       1.518  11.016  -6.873  1.00  0.00    -0.000 C 
BRANCH  28  29
ATOM     29  C   UNL     1       2.051  11.150  -8.311  1.00  0.00    -0.000 C 
BRANCH  29  30
ATOM     30  C   UNL     1       2.319   9.800  -9.020  1.00  0.00    -0.000 C 
BRANCH  30  31
ATOM     31  C   UNL     1       3.637   9.727  -9.817  1.00  0.00    -0.003 C 
ATOM     32  C   UNL     1       3.505   8.931 -11.114  1.00  0.00     0.004 C 
ENDBRANCH  30  31
ENDBRANCH  29  30
ENDBRANCH  28  29
ENDBRANCH  27  28
ENDBRANCH  26  27
ENDBRANCH  25  26
ENDBRANCH  24  25
ENDBRANCH  23  24
ENDBRANCH  22  23
ENDBRANCH  21  22
ENDBRANCH  20  21
ENDBRANCH  19  20
ENDBRANCH  18  19
ENDBRANCH   1  18
TORSDOF 28
ENDMDL
MODEL 3
REMARK VINA RESULT:    -4.207      6.360     10.062
REMARK INTER + INTRA:         -16.449
REMARK INTER:                 -13.941
REMARK INTRA:                  -2.508
REMARK UNBOUND:                -5.355
REMARK SMILES CCCCCCCCCCCCCCCCCCCCCCCCCCCCCC(=O)[O-]
REMARK SMILES IDX 16 1 17 2 18 3 19 4 20 5 21 6 22 7 23 8 24 9 25 10 26 11
REMARK SMILES IDX 27 12 28 13 29 14 30 15 31 16 32 17 15 18 14 19 13 20 12 21
REMARK SMILES IDX 11 22 10 23 9 24 8 25 7 26 6 27 5 28 4 29 3 30 2 31 1 32
REMARK H PARENT
REMARK Flexibility Score: inf
ROOT
ATOM      1  C   UNL     1      -6.983   4.946 -11.715  1.00  0.00     0.000 C 
ENDROOT
BRANCH   1   2
ATOM      2  C   UNL     1      -6.028   4.670 -12.890  1.00  0.00     0.000 C 
BRANCH   2   3
ATOM      3  C   UNL     1      -6.636   3.865 -14.057  1.00  0.00     0.000 C 
BRANCH   3   4
ATOM      4  C   UNL     1      -5.649   3.483 -15.174  1.00  0.00     0.000 C 
BRANCH   4   5
ATOM      5  C   UNL     1      -4.873   2.193 -14.878  1.00  0.00     0.000 C 
BRANCH   5   6
ATOM      6  C   UNL     1      -5.753   0.959 -15.129  1.00  0.00     0.000 C 
BRANCH   6   7
ATOM      7  C   UNL     1      -5.435   0.265 -16.463  1.00  0.00     0.000 C 
BRANCH   7   8
ATOM      8  C   UNL     1      -6.654   0.181 -17.398  1.00  0.00     0.000 C 
BRANCH   8   9
ATOM      9  C   UNL     1      -6.344   0.707 -18.810  1.00  0.00     0.000 C 
BRANCH   9  10
ATOM     10  C   UNL     1      -7.038   2.047 -19.104  1.00  0.00     0.000 C 
BRANCH  10  11
ATOM     11  C   UNL     1      -6.722   2.581 -20.512  1.00  0.00     0.000 C 
BRANCH  11  12
ATOM     12  C   UNL     1      -5.772   1.664 -21.315  1.00  0.00     0.000 C 
BRANCH  12  13
ATOM     13  C   UNL     1      -4.794   2.468 -22.188  1.00  0.00     0.006 C 
BRANCH  13  14
ATOM     14  C   UNL     1      -5.230   3.934 -22.291  1.00  0.00     0.053 C 
BRANCH  14  15
ATOM     15  C   UNL     1      -4.093   4.849 -21.963  1.00  0.00     0.041 C 
ATOM     16  O   UNL     1      -3.298   5.220 -22.867  1.00  0.00    -0.550 OA
ATOM     17  O   UNL     1      -3.882   5.256 -20.652  1.00  0.00    -0.550 OA
ENDBRANCH  14  15
ENDBRANCH  13  14
ENDBRANCH  12  13
ENDBRANCH  11  12
ENDBRANCH  10  11
ENDBRANCH   9  10
ENDBRANCH   8   9
ENDBRANCH   7   8
ENDBRANCH   6   7
ENDBRANCH   5   6
ENDBRANCH   4   5
ENDBRANCH   3   4
ENDBRANCH   2   3
ENDBRANCH   1   2
BRANCH   1  18
ATOM     18  C   UNL     1      -6.523   6.117 -10.829  1.00  0.00     0.000 C 
BRANCH  18  19
ATOM     19  C   UNL     1      -5.219   6.763 -11.346  1.00  0.00     0.000 C 
BRANCH  19  20
ATOM     20  C   UNL     1      -5.056   8.241 -10.957  1.00  0.00     0.000 C 
BRANCH  20  21
ATOM     21  C   UNL     1      -5.434   8.518  -9.492  1.00  0.00     0.000 C 
BRANCH  21  22
ATOM     22  C   UNL     1      -6.611   9.501  -9.366  1.00  0.00     0.000 C 
BRANCH  22  23
ATOM     23  C   UNL     1      -6.701  10.461 -10.567  1.00  0.00     0.000 C 
BRANCH  23  24
ATOM     24  C   UNL     1      -6.091  11.845 -10.265  1.00  0.00    -0.000 C 
BRANCH  24  25
ATOM     25  C   UNL     1      -5.858  12.112  -8.764  1.00  0.00    -0.000 C 
BRANCH  25  26
ATOM     26  C   UNL     1      -4.382  12.123  -8.314  1.00  0.00    -0.000 C 
BRANCH  26  27
ATOM     27  C   UNL     1      -3.373  12.205  -9.474  1.00  0.00    -0.000 C 
BRANCH  27  28
ATOM     28  C   UNL     1      -2.578  10.900  -9.657  1.00  0.00    -0.000 C 
BRANCH  28  29
ATOM     29  C   UNL     1      -1.623  10.626  -8.480  1.00  0.00    -0.000 C 
BRANCH  29  30
ATOM     30  C   UNL     1      -0.661  11.793  -8.154  1.00  0.00    -0.000 C 
BRANCH  30  31
ATOM     31  C   UNL     1       0.836  11.489  -8.365  1.00  0.00    -0.003 C 
ATOM     32  C   UNL     1       1.198  10.037  -8.060  1.00  0.00     0.004 C 
ENDBRANCH  30  31
ENDBRANCH  29  30
ENDBRANCH  28  29
ENDBRANCH  27  28
ENDBRANCH  26  27
ENDBRANCH  25  26
ENDBRANCH  24  25
ENDBRANCH  23  24
ENDBRANCH  22  23
ENDBRANCH  21  22
ENDBRANCH  20  21
ENDBRANCH  19  20
ENDBRANCH  18  19
ENDBRANCH   1  18
TORSDOF 28
ENDMDL
MODEL 4
REMARK VINA RESULT:    -4.162      2.618      7.412
REMARK INTER + INTRA:         -16.329
REMARK INTER:                 -11.791
REMARK INTRA:                  -4.538
REMARK UNBOUND:                -5.355
REMARK SMILES CCCCCCCCCCCCCCCCCCCCCCCCCCCCCC(=O)[O-]
REMARK SMILES IDX 16 1 17 2 18 3 19 4 20 5 21 6 22 7 23 8 24 9 25 10 26 11
REMARK SMILES IDX 27 12 28 13 29 14 30 15 31 16 32 17 15 18 14 19 13 20 12 21
REMARK SMILES IDX 11 22 10 23 9 24 8 25 7 26 6 27 5 28 4 29 3 30 2 31 1 32
REMARK H PARENT
REMARK Flexibility Score: inf
ROOT
ATOM      1  C   UNL     1      -2.732  10.357  -7.600  1.00  0.00     0.000 C 
ENDROOT
BRANCH   1   2
ATOM      2  C   UNL     1      -2.044  11.136  -6.464  1.00  0.00     0.000 C 
BRANCH   2   3
ATOM      3  C   UNL     1      -2.474  12.610  -6.322  1.00  0.00     0.000 C 
BRANCH   3   4
ATOM      4  C   UNL     1      -1.421  13.645  -6.756  1.00  0.00     0.000 C 
BRANCH   4   5
ATOM      5  C   UNL     1      -1.432  14.914  -5.895  1.00  0.00     0.000 C 
BRANCH   5   6
ATOM      6  C   UNL     1      -1.127  14.578  -4.427  1.00  0.00     0.000 C 
BRANCH   6   7
ATOM      7  C   UNL     1       0.336  14.856  -4.045  1.00  0.00     0.000 C 
BRANCH   7   8
ATOM      8  C   UNL     1       1.191  13.578  -3.993  1.00  0.00     0.000 C 
BRANCH   8   9
ATOM      9  C   UNL     1       1.907  13.301  -5.326  1.00  0.00     0.000 C 
BRANCH   9  10
ATOM     10  C   UNL     1       1.884  11.811  -5.708  1.00  0.00     0.000 C 
BRANCH  10  11
ATOM     11  C   UNL     1       1.600  11.587  -7.203  1.00  0.00     0.000 C 
BRANCH  11  12
ATOM     12  C   UNL     1       1.155  10.145  -7.531  1.00  0.00     0.000 C 
BRANCH  12  13
ATOM     13  C   UNL     1       1.745   9.646  -8.861  1.00  0.00     0.006 C 
BRANCH  13  14
ATOM     14  C   UNL     1       3.220  10.042  -8.988  1.00  0.00     0.053 C 
BRANCH  14  15
ATOM     15  C   UNL     1       3.767   9.626 -10.317  1.00  0.00     0.041 C 
ATOM     16  O   UNL     1       4.814  10.162 -10.765  1.00  0.00    -0.550 OA
ATOM     17  O   UNL     1       3.096   8.682 -11.082  1.00  0.00    -0.550 OA
ENDBRANCH  14  15
ENDBRANCH  13  14
ENDBRANCH  12  13
ENDBRANCH  11  12
ENDBRANCH  10  11
ENDBRANCH   9  10
ENDBRANCH   8   9
ENDBRANCH   7   8
ENDBRANCH   6   7
ENDBRANCH   5   6
ENDBRANCH   4   5
ENDBRANCH   3   4
ENDBRANCH   2   3
ENDBRANCH   1   2
BRANCH   1  18
ATOM     18  C   UNL     1      -2.076  10.590  -8.972  1.00  0.00     0.000 C 
BRANCH  18  19
ATOM     19  C   UNL     1      -2.920  11.520  -9.871  1.00  0.00     0.000 C 
BRANCH  19  20
ATOM     20  C   UNL     1      -4.412  11.559  -9.505  1.00  0.00     0.000 C 
BRANCH  20  21
ATOM     21  C   UNL     1      -4.907  12.976  -9.167  1.00  0.00     0.000 C 
BRANCH  21  22
ATOM     22  C   UNL     1      -5.683  13.025  -7.840  1.00  0.00     0.000 C 
BRANCH  22  23
ATOM     23  C   UNL     1      -6.374  11.686  -7.518  1.00  0.00     0.000 C 
BRANCH  23  24
ATOM     24  C   UNL     1      -7.089  11.703  -6.152  1.00  0.00    -0.000 C 
BRANCH  24  25
ATOM     25  C   UNL     1      -6.536  10.675  -5.143  1.00  0.00    -0.000 C 
BRANCH  25  26
ATOM     26  C   UNL     1      -5.512   9.672  -5.715  1.00  0.00    -0.000 C 
BRANCH  26  27
ATOM     27  C   UNL     1      -6.146   8.424  -6.358  1.00  0.00    -0.000 C 
BRANCH  27  28
ATOM     28  C   UNL     1      -5.600   8.147  -7.770  1.00  0.00    -0.000 C 
BRANCH  28  29
ATOM     29  C   UNL     1      -6.589   8.565  -8.873  1.00  0.00    -0.000 C 
BRANCH  29  30
ATOM     30  C   UNL     1      -6.122   8.227 -10.309  1.00  0.00    -0.000 C 
BRANCH  30  31
ATOM     31  C   UNL     1      -5.293   6.934 -10.444  1.00  0.00    -0.003 C 
ATOM     32  C   UNL     1      -5.929   5.913 -11.384  1.00  0.00     0.004 C 
ENDBRANCH  30  31
ENDBRANCH  29  30
ENDBRANCH  28  29
ENDBRANCH  27  28
ENDBRANCH  26  27
ENDBRANCH  25  26
ENDBRANCH  24  25
ENDBRANCH  23  24
ENDBRANCH  22  23
ENDBRANCH  21  22
ENDBRANCH  20  21
ENDBRANCH  19  20
ENDBRANCH  18  19
ENDBRANCH   1  18
TORSDOF 28
ENDMDL
MODEL 5
REMARK VINA RESULT:    -4.146      1.930      4.353
REMARK INTER + INTRA:         -16.289
REMARK INTER:                 -12.239
REMARK INTRA:                  -4.050
REMARK UNBOUND:                -5.355
REMARK SMILES CCCCCCCCCCCCCCCCCCCCCCCCCCCCCC(=O)[O-]
REMARK SMILES IDX 16 1 17 2 18 3 19 4 20 5 21 6 22 7 23 8 24 9 25 10 26 11
REMARK SMILES IDX 27 12 28 13 29 14 30 15 31 16 32 17 15 18 14 19 13 20 12 21
REMARK SMILES IDX 11 22 10 23 9 24 8 25 7 26 6 27 5 28 4 29 3 30 2 31 1 32
REMARK H PARENT
REMARK Flexibility Score: inf
ROOT
ATOM      1  C   UNL     1      -5.864   8.495  -6.661  1.00  0.00     0.000 C 
ENDROOT
BRANCH   1   2
ATOM      2  C   UNL     1      -6.652   9.700  -7.206  1.00  0.00     0.000 C 
BRANCH   2   3
ATOM      3  C   UNL     1      -6.383  11.039  -6.491  1.00  0.00     0.000 C 
BRANCH   3   4
ATOM      4  C   UNL     1      -6.154  12.244  -7.420  1.00  0.00     0.000 C 
BRANCH   4   5
ATOM      5  C   UNL     1      -6.578  11.977  -8.870  1.00  0.00     0.000 C 
BRANCH   5   6
ATOM      6  C   UNL     1      -5.350  11.896  -9.790  1.00  0.00     0.000 C 
BRANCH   6   7
ATOM      7  C   UNL     1      -5.467  10.780 -10.840  1.00  0.00     0.000 C 
BRANCH   7   8
ATOM      8  C   UNL     1      -6.696   9.881 -10.619  1.00  0.00     0.000 C 
BRANCH   8   9
ATOM      9  C   UNL     1      -6.312   8.402 -10.437  1.00  0.00     0.000 C 
BRANCH   9  10
ATOM     10  C   UNL     1      -4.996   8.045 -11.148  1.00  0.00     0.000 C 
BRANCH  10  11
ATOM     11  C   UNL     1      -4.983   6.600 -11.677  1.00  0.00     0.000 C 
BRANCH  11  12
ATOM     12  C   UNL     1      -6.257   5.805 -11.317  1.00  0.00     0.000 C 
BRANCH  12  13
ATOM     13  C   UNL     1      -6.605   4.756 -12.386  1.00  0.00     0.006 C 
BRANCH  13  14
ATOM     14  C   UNL     1      -5.544   4.727 -13.492  1.00  0.00     0.053 C 
BRANCH  14  15
ATOM     15  C   UNL     1      -5.946   3.791 -14.588  1.00  0.00     0.041 C 
ATOM     16  O   UNL     1      -5.338   2.699 -14.742  1.00  0.00    -0.550 OA
ATOM     17  O   UNL     1      -6.959   4.145 -15.468  1.00  0.00    -0.550 OA
ENDBRANCH  14  15
ENDBRANCH  13  14
ENDBRANCH  12  13
ENDBRANCH  11  12
ENDBRANCH  10  11
ENDBRANCH   9  10
ENDBRANCH   8   9
ENDBRANCH   7   8
ENDBRANCH   6   7
ENDBRANCH   5   6
ENDBRANCH   4   5
ENDBRANCH   3   4
ENDBRANCH   2   3
ENDBRANCH   1   2
BRANCH   1  18
ATOM     18  C   UNL     1      -5.894   8.401  -5.125  1.00  0.00     0.000 C 
BRANCH  18  19
ATOM     19  C   UNL     1      -4.730   7.550  -4.570  1.00  0.00     0.000 C 
BRANCH  19  20
ATOM     20  C   UNL     1      -3.496   8.370  -4.158  1.00  0.00     0.000 C 
BRANCH  20  21
ATOM     21  C   UNL     1      -3.820   9.853  -3.912  1.00  0.00     0.000 C 
BRANCH  21  22
ATOM     22  C   UNL     1      -3.071  10.787  -4.879  1.00  0.00     0.000 C 
BRANCH  22  23
ATOM     23  C   UNL     1      -2.475  10.026  -6.078  1.00  0.00     0.000 C 
BRANCH  23  24
ATOM     24  C   UNL     1      -2.950  10.593  -7.432  1.00  0.00    -0.000 C 
BRANCH  24  25
ATOM     25  C   UNL     1      -2.091  10.147  -8.633  1.00  0.00    -0.000 C 
BRANCH  25  26
ATOM     26  C   UNL     1      -0.781  10.937  -8.839  1.00  0.00    -0.000 C 
BRANCH  26  27
ATOM     27  C   UNL     1       0.472  10.230  -8.289  1.00  0.00    -0.000 C 
BRANCH  27  28
ATOM     28  C   UNL     1       1.717  11.136  -8.313  1.00  0.00    -0.000 C 
BRANCH  28  29
ATOM     29  C   UNL     1       2.572  10.989  -7.041  1.00  0.00    -0.000 C 
BRANCH  29  30
ATOM     30  C   UNL     1       2.287  12.053  -5.954  1.00  0.00    -0.000 C 
BRANCH  30  31
ATOM     31  C   UNL     1       0.813  12.494  -5.837  1.00  0.00    -0.003 C 
ATOM     32  C   UNL     1       0.257  12.341  -4.424  1.00  0.00     0.004 C 
ENDBRANCH  30  31
ENDBRANCH  29  30
ENDBRANCH  28  29
ENDBRANCH  27  28
ENDBRANCH  26  27
ENDBRANCH  25  26
ENDBRANCH  24  25
ENDBRANCH  23  24
ENDBRANCH  22  23
ENDBRANCH  21  22
ENDBRANCH  20  21
ENDBRANCH  19  20
ENDBRANCH  18  19
ENDBRANCH   1  18
TORSDOF 28
ENDMDL
MODEL 6
REMARK VINA RESULT:    -4.136      6.774     10.638
REMARK INTER + INTRA:         -16.262
REMARK INTER:                 -14.718
REMARK INTRA:                  -1.544
REMARK UNBOUND:                -5.355
REMARK SMILES CCCCCCCCCCCCCCCCCCCCCCCCCCCCCC(=O)[O-]
REMARK SMILES IDX 16 1 17 2 18 3 19 4 20 5 21 6 22 7 23 8 24 9 25 10 26 11
REMARK SMILES IDX 27 12 28 13 29 14 30 15 31 16 32 17 15 18 14 19 13 20 12 21
REMARK SMILES IDX 11 22 10 23 9 24 8 25 7 26 6 27 5 28 4 29 3 30 2 31 1 32
REMARK H PARENT
REMARK Flexibility Score: inf
ROOT
ATOM      1  C   UNL     1      -6.797   4.005 -13.922  1.00  0.00     0.000 C 
ENDROOT
BRANCH   1   2
ATOM      2  C   UNL     1      -5.939   3.188 -14.905  1.00  0.00     0.000 C 
BRANCH   2   3
ATOM      3  C   UNL     1      -6.297   1.691 -15.005  1.00  0.00     0.000 C 
BRANCH   3   4
ATOM      4  C   UNL     1      -5.794   0.979 -16.273  1.00  0.00     0.000 C 
BRANCH   4   5
ATOM      5  C   UNL     1      -6.908   0.692 -17.287  1.00  0.00     0.000 C 
BRANCH   5   6
ATOM      6  C   UNL     1      -6.357   0.711 -18.721  1.00  0.00     0.000 C 
BRANCH   6   7
ATOM      7  C   UNL     1      -6.917   1.873 -19.557  1.00  0.00     0.000 C 
BRANCH   7   8
ATOM      8  C   UNL     1      -6.308   1.939 -20.968  1.00  0.00     0.000 C 
BRANCH   8   9
ATOM      9  C   UNL     1      -6.254   3.377 -21.513  1.00  0.00     0.000 C 
BRANCH   9  10
ATOM     10  C   UNL     1      -4.817   3.844 -21.799  1.00  0.00     0.000 C 
BRANCH  10  11
ATOM     11  C   UNL     1      -4.587   5.317 -21.422  1.00  0.00     0.000 C 
BRANCH  11  12
ATOM     12  C   UNL     1      -3.435   5.978 -22.212  1.00  0.00     0.000 C 
BRANCH  12  13
ATOM     13  C   UNL     1      -2.572   6.888 -21.322  1.00  0.00     0.006 C 
BRANCH  13  14
ATOM     14  C   UNL     1      -2.450   6.315 -19.906  1.00  0.00     0.053 C 
BRANCH  14  15
ATOM     15  C   UNL     1      -1.159   5.577 -19.743  1.00  0.00     0.041 C 
ATOM     16  O   UNL     1      -0.687   4.909 -20.700  1.00  0.00    -0.550 OA
ATOM     17  O   UNL     1      -0.501   5.587 -18.520  1.00  0.00    -0.550 OA
ENDBRANCH  14  15
ENDBRANCH  13  14
ENDBRANCH  12  13
ENDBRANCH  11  12
ENDBRANCH  10  11
ENDBRANCH   9  10
ENDBRANCH   8   9
ENDBRANCH   7   8
ENDBRANCH   6   7
ENDBRANCH   5   6
ENDBRANCH   4   5
ENDBRANCH   3   4
ENDBRANCH   2   3
ENDBRANCH   1   2
BRANCH   1  18
ATOM     18  C   UNL     1      -5.959   4.757 -12.873  1.00  0.00     0.000 C 
BRANCH  18  19
ATOM     19  C   UNL     1      -6.731   4.969 -11.553  1.00  0.00     0.000 C 
BRANCH  19  20
ATOM     20  C   UNL     1      -6.627   6.396 -10.989  1.00  0.00     0.000 C 
BRANCH  20  21
ATOM     21  C   UNL     1      -5.315   6.642 -10.226  1.00  0.00     0.000 C 
BRANCH  21  22
ATOM     22  C   UNL     1      -4.575   7.898 -10.719  1.00  0.00     0.000 C 
BRANCH  22  23
ATOM     23  C   UNL     1      -5.502   9.125 -10.799  1.00  0.00     0.000 C 
BRANCH  23  24
ATOM     24  C   UNL     1      -5.544   9.922  -9.479  1.00  0.00    -0.000 C 
BRANCH  24  25
ATOM     25  C   UNL     1      -4.866  11.305  -9.562  1.00  0.00    -0.000 C 
BRANCH  25  26
ATOM     26  C   UNL     1      -3.492  11.329 -10.264  1.00  0.00    -0.000 C 
BRANCH  26  27
ATOM     27  C   UNL     1      -2.298  11.484  -9.304  1.00  0.00    -0.000 C 
BRANCH  27  28
ATOM     28  C   UNL     1      -1.935  10.165  -8.599  1.00  0.00    -0.000 C 
BRANCH  28  29
ATOM     29  C   UNL     1      -0.426  10.049  -8.314  1.00  0.00    -0.000 C 
BRANCH  29  30
ATOM     30  C   UNL     1       0.338  11.393  -8.364  1.00  0.00    -0.000 C 
BRANCH  30  31
ATOM     31  C   UNL     1       1.873  11.281  -8.272  1.00  0.00    -0.003 C 
ATOM     32  C   UNL     1       2.393   9.898  -8.658  1.00  0.00     0.004 C 
ENDBRANCH  30  31
ENDBRANCH  29  30
ENDBRANCH  28  29
ENDBRANCH  27  28
ENDBRANCH  26  27
ENDBRANCH  25  26
ENDBRANCH  24  25
ENDBRANCH  23  24
ENDBRANCH  22  23
ENDBRANCH  21  22
ENDBRANCH  20  21
ENDBRANCH  19  20
ENDBRANCH  18  19
ENDBRANCH   1  18
TORSDOF 28
ENDMDL
MODEL 7
REMARK VINA RESULT:    -4.128      3.507      8.398
REMARK INTER + INTRA:         -16.241
REMARK INTER:                 -12.744
REMARK INTRA:                  -3.497
REMARK UNBOUND:                -5.355
REMARK SMILES CCCCCCCCCCCCCCCCCCCCCCCCCCCCCC(=O)[O-]
REMARK SMILES IDX 16 1 17 2 18 3 19 4 20 5 21 6 22 7 23 8 24 9 25 10 26 11
REMARK SMILES IDX 27 12 28 13 29 14 30 15 31 16 32 17 15 18 14 19 13 20 12 21
REMARK SMILES IDX 11 22 10 23 9 24 8 25 7 26 6 27 5 28 4 29 3 30 2 31 1 32
REMARK H PARENT
REMARK Flexibility Score: inf
ROOT
ATOM      1  C   UNL     1      -6.115  12.637  -9.020  1.00  0.00     0.000 C 
ENDROOT
BRANCH   1   2
ATOM      2  C   UNL     1      -7.067  11.908  -8.054  1.00  0.00     0.000 C 
BRANCH   2   3
ATOM      3  C   UNL     1      -6.747  10.419  -7.814  1.00  0.00     0.000 C 
BRANCH   3   4
ATOM      4  C   UNL     1      -6.084  10.100  -6.463  1.00  0.00     0.000 C 
BRANCH   4   5
ATOM      5  C   UNL     1      -5.250   8.812  -6.489  1.00  0.00     0.000 C 
BRANCH   5   6
ATOM      6  C   UNL     1      -4.473   8.640  -5.175  1.00  0.00     0.000 C 
BRANCH   6   7
ATOM      7  C   UNL     1      -3.941   9.972  -4.621  1.00  0.00     0.000 C 
BRANCH   7   8
ATOM      8  C   UNL     1      -2.441  10.175  -4.896  1.00  0.00     0.000 C 
BRANCH   8   9
ATOM      9  C   UNL     1      -2.046  11.662  -4.906  1.00  0.00     0.000 C 
BRANCH   9  10
ATOM     10  C   UNL     1      -1.632  12.151  -6.303  1.00  0.00     0.000 C 
BRANCH  10  11
ATOM     11  C   UNL     1      -0.147  11.891  -6.607  1.00  0.00     0.000 C 
BRANCH  11  12
ATOM     12  C   UNL     1       0.170  11.842  -8.118  1.00  0.00     0.000 C 
BRANCH  12  13
ATOM     13  C   UNL     1       0.316  10.400  -8.632  1.00  0.00     0.006 C 
BRANCH  13  14
ATOM     14  C   UNL     1       1.408   9.651  -7.859  1.00  0.00     0.053 C 
BRANCH  14  15
ATOM     15  C   UNL     1       2.763  10.181  -8.207  1.00  0.00     0.041 C 
ATOM     16  O   UNL     1       3.497  10.675  -7.312  1.00  0.00    -0.550 OA
ATOM     17  O   UNL     1       3.195  10.173  -9.526  1.00  0.00    -0.550 OA
ENDBRANCH  14  15
ENDBRANCH  13  14
ENDBRANCH  12  13
ENDBRANCH  11  12
ENDBRANCH  10  11
ENDBRANCH   9  10
ENDBRANCH   8   9
ENDBRANCH   7   8
ENDBRANCH   6   7
ENDBRANCH   5   6
ENDBRANCH   4   5
ENDBRANCH   3   4
ENDBRANCH   2   3
ENDBRANCH   1   2
BRANCH   1  18
ATOM     18  C   UNL     1      -4.697  12.815  -8.448  1.00  0.00     0.000 C 
BRANCH  18  19
ATOM     19  C   UNL     1      -3.621  12.168  -9.347  1.00  0.00     0.000 C 
BRANCH  19  20
ATOM     20  C   UNL     1      -3.388  10.674  -9.070  1.00  0.00     0.000 C 
BRANCH  20  21
ATOM     21  C   UNL     1      -3.417   9.819 -10.348  1.00  0.00     0.000 C 
BRANCH  21  22
ATOM     22  C   UNL     1      -4.813   9.238 -10.635  1.00  0.00     0.000 C 
BRANCH  22  23
ATOM     23  C   UNL     1      -4.744   7.914 -11.418  1.00  0.00     0.000 C 
BRANCH  23  24
ATOM     24  C   UNL     1      -5.181   6.702 -10.570  1.00  0.00    -0.000 C 
BRANCH  24  25
ATOM     25  C   UNL     1      -6.655   6.296 -10.774  1.00  0.00    -0.000 C 
BRANCH  25  26
ATOM     26  C   UNL     1      -6.877   4.937 -11.471  1.00  0.00    -0.000 C 
BRANCH  26  27
ATOM     27  C   UNL     1      -5.996   4.717 -12.715  1.00  0.00    -0.000 C 
BRANCH  27  28
ATOM     28  C   UNL     1      -6.780   4.106 -13.890  1.00  0.00    -0.000 C 
BRANCH  28  29
ATOM     29  C   UNL     1      -5.853   3.605 -15.014  1.00  0.00    -0.000 C 
BRANCH  29  30
ATOM     30  C   UNL     1      -4.880   2.482 -14.585  1.00  0.00    -0.000 C 
BRANCH  30  31
ATOM     31  C   UNL     1      -5.059   1.139 -15.323  1.00  0.00    -0.003 C 
ATOM     32  C   UNL     1      -6.497   0.627 -15.287  1.00  0.00     0.004 C 
ENDBRANCH  30  31
ENDBRANCH  29  30
ENDBRANCH  28  29
ENDBRANCH  27  28
ENDBRANCH  26  27
ENDBRANCH  25  26
ENDBRANCH  24  25
ENDBRANCH  23  24
ENDBRANCH  22  23
ENDBRANCH  21  22
ENDBRANCH  20  21
ENDBRANCH  19  20
ENDBRANCH  18  19
ENDBRANCH   1  18
TORSDOF 28
ENDMDL
MODEL 8
REMARK VINA RESULT:    -4.069      3.334      6.301
REMARK INTER + INTRA:         -16.083
REMARK INTER:                 -11.329
REMARK INTRA:                  -4.754
REMARK UNBOUND:                -5.355
REMARK SMILES CCCCCCCCCCCCCCCCCCCCCCCCCCCCCC(=O)[O-]
REMARK SMILES IDX 16 1 17 2 18 3 19 4 20 5 21 6 22 7 23 8 24 9 25 10 26 11
REMARK SMILES IDX 27 12 28 13 29 14 30 15 31 16 32 17 15 18 14 19 13 20 12 21
REMARK SMILES IDX 11 22 10 23 9 24 8 25 7 26 6 27 5 28 4 29 3 30 2 31 1 32
REMARK H PARENT
REMARK Flexibility Score: inf
ROOT
ATOM      1  C   UNL     1      -3.113  12.216  -9.130  1.00  0.00     0.000 C 
ENDROOT
BRANCH   1   2
ATOM      2  C   UNL     1      -4.213  12.705  -8.170  1.00  0.00     0.000 C 
BRANCH   2   3
ATOM      3  C   UNL     1      -5.615  12.848  -8.794  1.00  0.00     0.000 C 
BRANCH   3   4
ATOM      4  C   UNL     1      -6.786  12.801  -7.796  1.00  0.00     0.000 C 
BRANCH   4   5
ATOM      5  C   UNL     1      -6.458  12.020  -6.518  1.00  0.00     0.000 C 
BRANCH   5   6
ATOM      6  C   UNL     1      -6.427  12.956  -5.300  1.00  0.00     0.000 C 
BRANCH   6   7
ATOM      7  C   UNL     1      -5.363  12.552  -4.267  1.00  0.00     0.000 C 
BRANCH   7   8
ATOM      8  C   UNL     1      -4.874  11.105  -4.451  1.00  0.00     0.000 C 
BRANCH   8   9
ATOM      9  C   UNL     1      -3.369  10.957  -4.165  1.00  0.00     0.000 C 
BRANCH   9  10
ATOM     10  C   UNL     1      -2.508  11.170  -5.420  1.00  0.00     0.000 C 
BRANCH  10  11
ATOM     11  C   UNL     1      -1.335  12.136  -5.177  1.00  0.00     0.000 C 
BRANCH  11  12
ATOM     12  C   UNL     1      -0.746  12.721  -6.480  1.00  0.00     0.000 C 
BRANCH  12  13
ATOM     13  C   UNL     1       0.633  12.126  -6.809  1.00  0.00     0.006 C 
BRANCH  13  14
ATOM     14  C   UNL     1       0.593  11.348  -8.130  1.00  0.00     0.053 C 
BRANCH  14  15
ATOM     15  C   UNL     1       1.842  10.545  -8.310  1.00  0.00     0.041 C 
ATOM     16  O   UNL     1       1.881   9.621  -9.164  1.00  0.00    -0.550 OA
ATOM     17  O   UNL     1       2.946  10.784  -7.504  1.00  0.00    -0.550 OA
ENDBRANCH  14  15
ENDBRANCH  13  14
ENDBRANCH  12  13
ENDBRANCH  11  12
ENDBRANCH  10  11
ENDBRANCH   9  10
ENDBRANCH   8   9
ENDBRANCH   7   8
ENDBRANCH   6   7
ENDBRANCH   5   6
ENDBRANCH   4   5
ENDBRANCH   3   4
ENDBRANCH   2   3
ENDBRANCH   1   2
BRANCH   1  18
ATOM     18  C   UNL     1      -3.168  10.699  -9.384  1.00  0.00     0.000 C 
BRANCH  18  19
ATOM     19  C   UNL     1      -3.739  10.363 -10.780  1.00  0.00     0.000 C 
BRANCH  19  20
ATOM     20  C   UNL     1      -4.810   9.261 -10.768  1.00  0.00     0.000 C 
BRANCH  20  21
ATOM     21  C   UNL     1      -6.210   9.793 -10.417  1.00  0.00     0.000 C 
BRANCH  21  22
ATOM     22  C   UNL     1      -6.769   9.167  -9.128  1.00  0.00     0.000 C 
BRANCH  22  23
ATOM     23  C   UNL     1      -5.790   8.159  -8.497  1.00  0.00     0.000 C 
BRANCH  23  24
ATOM     24  C   UNL     1      -5.221   8.651  -7.150  1.00  0.00    -0.000 C 
BRANCH  24  25
ATOM     25  C   UNL     1      -6.033   8.191  -5.922  1.00  0.00    -0.000 C 
BRANCH  25  26
ATOM     26  C   UNL     1      -5.377   7.082  -5.073  1.00  0.00    -0.000 C 
BRANCH  26  27
ATOM     27  C   UNL     1      -4.031   7.486  -4.444  1.00  0.00    -0.000 C 
BRANCH  27  28
ATOM     28  C   UNL     1      -3.230   6.272  -3.937  1.00  0.00    -0.000 C 
BRANCH  28  29
ATOM     29  C   UNL     1      -2.912   5.269  -5.061  1.00  0.00    -0.000 C 
BRANCH  29  30
ATOM     30  C   UNL     1      -1.604   4.470  -4.851  1.00  0.00    -0.000 C 
BRANCH  30  31
ATOM     31  C   UNL     1      -0.340   5.324  -4.629  1.00  0.00    -0.003 C 
ATOM     32  C   UNL     1       0.947   4.503  -4.659  1.00  0.00     0.004 C 
ENDBRANCH  30  31
ENDBRANCH  29  30
ENDBRANCH  28  29
ENDBRANCH  27  28
ENDBRANCH  26  27
ENDBRANCH  25  26
ENDBRANCH  24  25
ENDBRANCH  23  24
ENDBRANCH  22  23
ENDBRANCH  21  22
ENDBRANCH  20  21
ENDBRANCH  19  20
ENDBRANCH  18  19
ENDBRANCH   1  18
TORSDOF 28
ENDMDL
MODEL 9
REMARK VINA RESULT:    -3.986     13.963     18.495
REMARK INTER + INTRA:         -15.866
REMARK INTER:                 -13.562
REMARK INTRA:                  -2.304
REMARK UNBOUND:                -5.355
REMARK SMILES CCCCCCCCCCCCCCCCCCCCCCCCCCCCCC(=O)[O-]
REMARK SMILES IDX 16 1 17 2 18 3 19 4 20 5 21 6 22 7 23 8 24 9 25 10 26 11
REMARK SMILES IDX 27 12 28 13 29 14 30 15 31 16 32 17 15 18 14 19 13 20 12 21
REMARK SMILES IDX 11 22 10 23 9 24 8 25 7 26 6 27 5 28 4 29 3 30 2 31 1 32
REMARK H PARENT
REMARK Flexibility Score: inf
ROOT
ATOM      1  C   UNL     1       3.168   4.559 -21.895  1.00  0.00     0.000 C 
ENDROOT
BRANCH   1   2
ATOM      2  C   UNL     1       3.399   6.031 -22.282  1.00  0.00     0.000 C 
BRANCH   2   3
ATOM      3  C   UNL     1       4.094   6.253 -23.640  1.00  0.00     0.000 C 
BRANCH   3   4
ATOM      4  C   UNL     1       4.234   7.723 -24.074  1.00  0.00     0.000 C 
BRANCH   4   5
ATOM      5  C   UNL     1       5.691   8.203 -24.118  1.00  0.00     0.000 C 
BRANCH   5   6
ATOM      6  C   UNL     1       5.758   9.738 -24.112  1.00  0.00     0.000 C 
BRANCH   6   7
ATOM      7  C   UNL     1       6.713  10.285 -23.038  1.00  0.00     0.000 C 
BRANCH   7   8
ATOM      8  C   UNL     1       6.687  11.821 -22.945  1.00  0.00     0.000 C 
BRANCH   8   9
ATOM      9  C   UNL     1       6.669  12.316 -21.489  1.00  0.00     0.000 C 
BRANCH   9  10
ATOM     10  C   UNL     1       7.527  11.442 -20.560  1.00  0.00     0.000 C 
BRANCH  10  11
ATOM     11  C   UNL     1       8.446  12.272 -19.647  1.00  0.00     0.000 C 
BRANCH  11  12
ATOM     12  C   UNL     1       9.548  11.433 -18.963  1.00  0.00     0.000 C 
BRANCH  12  13
ATOM     13  C   UNL     1      10.959  11.919 -19.336  1.00  0.00     0.006 C 
BRANCH  13  14
ATOM     14  C   UNL     1      11.524  11.112 -20.510  1.00  0.00     0.053 C 
BRANCH  14  15
ATOM     15  C   UNL     1      11.395  11.876 -21.790  1.00  0.00     0.041 C 
ATOM     16  O   UNL     1      12.337  12.613 -22.183  1.00  0.00    -0.550 OA
ATOM     17  O   UNL     1      10.219  11.811 -22.524  1.00  0.00    -0.550 OA
ENDBRANCH  14  15
ENDBRANCH  13  14
ENDBRANCH  12  13
ENDBRANCH  11  12
ENDBRANCH  10  11
ENDBRANCH   9  10
ENDBRANCH   8   9
ENDBRANCH   7   8
ENDBRANCH   6   7
ENDBRANCH   5   6
ENDBRANCH   4   5
ENDBRANCH   3   4
ENDBRANCH   2   3
ENDBRANCH   1   2
BRANCH   1  18
ATOM     18  C   UNL     1       4.470   3.743 -21.830  1.00  0.00     0.000 C 
BRANCH  18  19
ATOM     19  C   UNL     1       4.218   2.273 -21.428  1.00  0.00     0.000 C 
BRANCH  19  20
ATOM     20  C   UNL     1       2.824   1.750 -21.811  1.00  0.00     0.000 C 
BRANCH  20  21
ATOM     21  C   UNL     1       1.981   1.348 -20.589  1.00  0.00     0.000 C 
BRANCH  21  22
ATOM     22  C   UNL     1       0.505   1.759 -20.732  1.00  0.00     0.000 C 
BRANCH  22  23
ATOM     23  C   UNL     1      -0.161   1.119 -21.964  1.00  0.00     0.000 C 
BRANCH  23  24
ATOM     24  C   UNL     1      -1.555   1.712 -22.258  1.00  0.00    -0.000 C 
BRANCH  24  25
ATOM     25  C   UNL     1      -1.612   3.251 -22.162  1.00  0.00    -0.000 C 
BRANCH  25  26
ATOM     26  C   UNL     1      -2.875   3.904 -22.762  1.00  0.00    -0.000 C 
BRANCH  26  27
ATOM     27  C   UNL     1      -3.857   4.455 -21.711  1.00  0.00    -0.000 C 
BRANCH  27  28
ATOM     28  C   UNL     1      -3.604   5.939 -21.389  1.00  0.00    -0.000 C 
BRANCH  28  29
ATOM     29  C   UNL     1      -3.026   6.142 -19.977  1.00  0.00    -0.000 C 
BRANCH  29  30
ATOM     30  C   UNL     1      -1.485   6.284 -19.933  1.00  0.00    -0.000 C 
BRANCH  30  31
ATOM     31  C   UNL     1      -0.728   5.061 -19.377  1.00  0.00    -0.003 C 
ATOM     32  C   UNL     1       0.786   5.262 -19.349  1.00  0.00     0.004 C 
ENDBRANCH  30  31
ENDBRANCH  29  30
ENDBRANCH  28  29
ENDBRANCH  27  28
ENDBRANCH  26  27
ENDBRANCH  25  26
ENDBRANCH  24  25
ENDBRANCH  23  24
ENDBRANCH  22  23
ENDBRANCH  21  22
ENDBRANCH  20  21
ENDBRANCH  19  20
ENDBRANCH  18  19
ENDBRANCH   1  18
TORSDOF 28
ENDMDL
