MODEL 1
REMARK VINA RESULT:    -5.019      0.000      0.000
REMARK INTER + INTRA:         -12.251
REMARK INTER:                  -9.420
REMARK INTRA:                  -2.831
REMARK UNBOUND:                -2.831
REMARK SMILES CCCCCCCCC=CCCCCCCCC(=O)[O-]
REMARK SMILES IDX 10 1 9 2 11 3 12 4 13 5 14 6 15 7 16 8 17 9 18 10 19 11
REMARK SMILES IDX 20 12 8 13 7 14 6 15 5 16 4 17 3 18 2 19 1 20
REMARK H PARENT
REMARK Flexibility Score: inf
ROOT
ATOM      1  C   UNL     1      58.428  60.234  33.025  1.00  0.00    -0.031 C 
ATOM      2  C   UNL     1      59.735  60.155  33.333  1.00  0.00    -0.031 C 
ENDROOT
BRANCH   1   3
ATOM      3  C   UNL     1      57.302  60.170  34.028  1.00  0.00     0.027 C 
BRANCH   3   4
ATOM      4  C   UNL     1      56.459  61.457  34.039  1.00  0.00     0.004 C 
BRANCH   4   5
ATOM      5  C   UNL     1      56.859  62.463  35.134  1.00  0.00     0.000 C 
BRANCH   5   6
ATOM      6  C   UNL     1      57.194  63.854  34.570  1.00  0.00     0.000 C 
BRANCH   6   7
ATOM      7  C   UNL     1      58.705  64.135  34.554  1.00  0.00     0.000 C 
BRANCH   7   8
ATOM      8  C   UNL     1      59.351  63.819  33.194  1.00  0.00     0.006 C 
BRANCH   8   9
ATOM      9  C   UNL     1      58.372  64.016  32.029  1.00  0.00     0.053 C 
BRANCH   9  10
ATOM     10  C   UNL     1      58.850  65.065  31.073  1.00  0.00     0.041 C 
ATOM     11  O   UNL     1      58.114  65.435  30.120  1.00  0.00    -0.550 OA
ATOM     12  O   UNL     1      60.121  65.606  31.212  1.00  0.00    -0.550 OA
ENDBRANCH   9  10
ENDBRANCH   8   9
ENDBRANCH   7   8
ENDBRANCH   6   7
ENDBRANCH   5   6
ENDBRANCH   4   5
ENDBRANCH   3   4
ENDBRANCH   1   3
BRANCH   2  13
ATOM     13  C   UNL     1      60.276  59.891  34.715  1.00  0.00     0.027 C 
BRANCH  13  14
ATOM     14  C   UNL     1      60.653  61.205  35.410  1.00  0.00     0.004 C 
BRANCH  14  15
ATOM     15  C   UNL     1      62.035  61.103  36.067  1.00  0.00     0.000 C 
BRANCH  15  16
ATOM     16  C   UNL     1      62.791  59.862  35.568  1.00  0.00     0.000 C 
BRANCH  16  17
ATOM     17  C   UNL     1      63.927  60.205  34.588  1.00  0.00    -0.000 C 
BRANCH  17  18
ATOM     18  C   UNL     1      63.571  60.047  33.098  1.00  0.00    -0.000 C 
BRANCH  18  19
ATOM     19  C   UNL     1      63.847  61.317  32.280  1.00  0.00    -0.003 C 
ATOM     20  C   UNL     1      62.827  62.408  32.597  1.00  0.00     0.004 C 
ENDBRANCH  18  19
ENDBRANCH  17  18
ENDBRANCH  16  17
ENDBRANCH  15  16
ENDBRANCH  14  15
ENDBRANCH  13  14
ENDBRANCH   2  13
TORSDOF 15
ENDMDL
MODEL 2
REMARK VINA RESULT:    -4.937      3.366      6.180
REMARK INTER + INTRA:         -12.098
REMARK INTER:                  -9.845
REMARK INTRA:                  -2.253
REMARK UNBOUND:                -2.831
REMARK SMILES CCCCCCCCC=CCCCCCCCC(=O)[O-]
REMARK SMILES IDX 10 1 9 2 11 3 12 4 13 5 14 6 15 7 16 8 17 9 18 10 19 11
REMARK SMILES IDX 20 12 8 13 7 14 6 15 5 16 4 17 3 18 2 19 1 20
REMARK H PARENT
REMARK Flexibility Score: inf
ROOT
ATOM      1  C   UNL     1      62.662  63.742  34.467  1.00  0.00    -0.031 C 
ATOM      2  C   UNL     1      61.457  64.313  34.649  1.00  0.00    -0.031 C 
ENDROOT
BRANCH   1   3
ATOM      3  C   UNL     1      63.319  62.790  35.437  1.00  0.00     0.027 C 
BRANCH   3   4
ATOM      4  C   UNL     1      64.128  61.696  34.720  1.00  0.00     0.004 C 
BRANCH   4   5
ATOM      5  C   UNL     1      63.643  60.263  35.007  1.00  0.00     0.000 C 
BRANCH   5   6
ATOM      6  C   UNL     1      62.681  59.732  33.930  1.00  0.00     0.000 C 
BRANCH   6   7
ATOM      7  C   UNL     1      61.309  59.348  34.504  1.00  0.00     0.000 C 
BRANCH   7   8
ATOM      8  C   UNL     1      60.343  60.543  34.576  1.00  0.00     0.006 C 
BRANCH   8   9
ATOM      9  C   UNL     1      60.078  61.158  33.195  1.00  0.00     0.053 C 
BRANCH   9  10
ATOM     10  C   UNL     1      58.651  60.987  32.776  1.00  0.00     0.041 C 
ATOM     11  O   UNL     1      58.043  59.912  33.023  1.00  0.00    -0.550 OA
ATOM     12  O   UNL     1      58.004  62.000  32.081  1.00  0.00    -0.550 OA
ENDBRANCH   9  10
ENDBRANCH   8   9
ENDBRANCH   7   8
ENDBRANCH   6   7
ENDBRANCH   5   6
ENDBRANCH   4   5
ENDBRANCH   3   4
ENDBRANCH   1   3
BRANCH   2  13
ATOM     13  C   UNL     1      60.619  64.167  35.894  1.00  0.00     0.027 C 
BRANCH  13  14
ATOM     14  C   UNL     1      59.387  65.077  35.828  1.00  0.00     0.004 C 
BRANCH  14  15
ATOM     15  C   UNL     1      59.226  65.879  37.125  1.00  0.00     0.000 C 
BRANCH  15  16
ATOM     16  C   UNL     1      59.367  67.385  36.862  1.00  0.00     0.000 C 
BRANCH  16  17
ATOM     17  C   UNL     1      60.806  67.897  37.056  1.00  0.00    -0.000 C 
BRANCH  17  18
ATOM     18  C   UNL     1      61.539  68.283  35.758  1.00  0.00    -0.000 C 
BRANCH  18  19
ATOM     19  C   UNL     1      62.955  67.694  35.673  1.00  0.00    -0.003 C 
ATOM     20  C   UNL     1      63.388  67.510  34.221  1.00  0.00     0.004 C 
ENDBRANCH  18  19
ENDBRANCH  17  18
ENDBRANCH  16  17
ENDBRANCH  15  16
ENDBRANCH  14  15
ENDBRANCH  13  14
ENDBRANCH   2  13
TORSDOF 15
ENDMDL
MODEL 3
REMARK VINA RESULT:    -4.936      1.962      5.448
REMARK INTER + INTRA:         -12.096
REMARK INTER:                  -9.709
REMARK INTRA:                  -2.388
REMARK UNBOUND:                -2.831
REMARK SMILES CCCCCCCCC=CCCCCCCCC(=O)[O-]
REMARK SMILES IDX 10 1 9 2 11 3 12 4 13 5 14 6 15 7 16 8 17 9 18 10 19 11
REMARK SMILES IDX 20 12 8 13 7 14 6 15 5 16 4 17 3 18 2 19 1 20
REMARK H PARENT
REMARK Flexibility Score: inf
ROOT
ATOM      1  C   UNL     1      60.599  59.871  33.352  1.00  0.00    -0.031 C 
ATOM      2  C   UNL     1      59.454  60.383  33.838  1.00  0.00    -0.031 C 
ENDROOT
BRANCH   1   3
ATOM      3  C   UNL     1      61.548  58.993  34.132  1.00  0.00     0.027 C 
BRANCH   3   4
ATOM      4  C   UNL     1      63.019  59.381  33.904  1.00  0.00     0.004 C 
BRANCH   4   5
ATOM      5  C   UNL     1      63.673  60.105  35.096  1.00  0.00     0.000 C 
BRANCH   5   6
ATOM      6  C   UNL     1      62.661  60.484  36.190  1.00  0.00     0.000 C 
BRANCH   6   7
ATOM      7  C   UNL     1      62.371  61.993  36.226  1.00  0.00     0.000 C 
BRANCH   7   8
ATOM      8  C   UNL     1      63.394  62.811  35.417  1.00  0.00     0.006 C 
BRANCH   8   9
ATOM      9  C   UNL     1      62.750  64.018  34.723  1.00  0.00     0.053 C 
BRANCH   9  10
ATOM     10  C   UNL     1      62.600  63.797  33.249  1.00  0.00     0.041 C 
ATOM     11  O   UNL     1      62.812  62.657  32.756  1.00  0.00    -0.550 OA
ATOM     12  O   UNL     1      62.262  64.855  32.417  1.00  0.00    -0.550 OA
ENDBRANCH   9  10
ENDBRANCH   8   9
ENDBRANCH   7   8
ENDBRANCH   6   7
ENDBRANCH   5   6
ENDBRANCH   4   5
ENDBRANCH   3   4
ENDBRANCH   1   3
BRANCH   2  13
ATOM     13  C   UNL     1      58.987  60.240  35.264  1.00  0.00     0.027 C 
BRANCH  13  14
ATOM     14  C   UNL     1      57.463  60.380  35.353  1.00  0.00     0.004 C 
BRANCH  14  15
ATOM     15  C   UNL     1      56.901  61.073  34.106  1.00  0.00     0.000 C 
BRANCH  15  16
ATOM     16  C   UNL     1      55.990  62.247  34.492  1.00  0.00     0.000 C 
BRANCH  16  17
ATOM     17  C   UNL     1      56.586  63.617  34.120  1.00  0.00    -0.000 C 
BRANCH  17  18
ATOM     18  C   UNL     1      58.066  63.807  34.500  1.00  0.00    -0.000 C 
BRANCH  18  19
ATOM     19  C   UNL     1      58.274  64.016  36.007  1.00  0.00    -0.003 C 
ATOM     20  C   UNL     1      59.427  64.980  36.275  1.00  0.00     0.004 C 
ENDBRANCH  18  19
ENDBRANCH  17  18
ENDBRANCH  16  17
ENDBRANCH  15  16
ENDBRANCH  14  15
ENDBRANCH  13  14
ENDBRANCH   2  13
TORSDOF 15
ENDMDL
MODEL 4
REMARK VINA RESULT:    -4.919      1.828      3.525
REMARK INTER + INTRA:         -12.064
REMARK INTER:                  -9.186
REMARK INTRA:                  -2.878
REMARK UNBOUND:                -2.831
REMARK SMILES CCCCCCCCC=CCCCCCCCC(=O)[O-]
REMARK SMILES IDX 10 1 9 2 11 3 12 4 13 5 14 6 15 7 16 8 17 9 18 10 19 11
REMARK SMILES IDX 20 12 8 13 7 14 6 15 5 16 4 17 3 18 2 19 1 20
REMARK H PARENT
REMARK Flexibility Score: inf
ROOT
ATOM      1  C   UNL     1      61.241  59.328  34.178  1.00  0.00    -0.031 C 
ATOM      2  C   UNL     1      62.583  59.259  34.134  1.00  0.00    -0.031 C 
ENDROOT
BRANCH   1   3
ATOM      3  C   UNL     1      60.376  59.958  33.112  1.00  0.00     0.027 C 
BRANCH   3   4
ATOM      4  C   UNL     1      58.965  60.288  33.628  1.00  0.00     0.004 C 
BRANCH   4   5
ATOM      5  C   UNL     1      58.795  60.123  35.149  1.00  0.00     0.000 C 
BRANCH   5   6
ATOM      6  C   UNL     1      57.354  60.389  35.619  1.00  0.00     0.000 C 
BRANCH   6   7
ATOM      7  C   UNL     1      57.229  61.693  36.422  1.00  0.00     0.000 C 
BRANCH   7   8
ATOM      8  C   UNL     1      56.337  62.734  35.723  1.00  0.00     0.006 C 
BRANCH   8   9
ATOM      9  C   UNL     1      57.141  63.661  34.802  1.00  0.00     0.053 C 
BRANCH   9  10
ATOM     10  C   UNL     1      56.880  63.371  33.356  1.00  0.00     0.041 C 
ATOM     11  O   UNL     1      55.764  62.912  32.995  1.00  0.00    -0.550 OA
ATOM     12  O   UNL     1      57.880  63.573  32.414  1.00  0.00    -0.550 OA
ENDBRANCH   9  10
ENDBRANCH   8   9
ENDBRANCH   7   8
ENDBRANCH   6   7
ENDBRANCH   5   6
ENDBRANCH   4   5
ENDBRANCH   3   4
ENDBRANCH   1   3
BRANCH   2  13
ATOM     13  C   UNL     1      63.440  59.885  33.063  1.00  0.00     0.027 C 
BRANCH  13  14
ATOM     14  C   UNL     1      63.799  61.329  33.430  1.00  0.00     0.004 C 
BRANCH  14  15
ATOM     15  C   UNL     1      64.273  61.424  34.885  1.00  0.00     0.000 C 
BRANCH  15  16
ATOM     16  C   UNL     1      63.547  62.556  35.627  1.00  0.00     0.000 C 
BRANCH  16  17
ATOM     17  C   UNL     1      62.423  62.047  36.548  1.00  0.00    -0.000 C 
BRANCH  17  18
ATOM     18  C   UNL     1      61.024  62.611  36.237  1.00  0.00    -0.000 C 
BRANCH  18  19
ATOM     19  C   UNL     1      60.940  63.274  34.855  1.00  0.00    -0.003 C 
ATOM     20  C   UNL     1      60.694  64.776  34.979  1.00  0.00     0.004 C 
ENDBRANCH  18  19
ENDBRANCH  17  18
ENDBRANCH  16  17
ENDBRANCH  15  16
ENDBRANCH  14  15
ENDBRANCH  13  14
ENDBRANCH   2  13
TORSDOF 15
ENDMDL
MODEL 5
REMARK VINA RESULT:    -4.912      3.206      4.689
REMARK INTER + INTRA:         -12.052
REMARK INTER:                 -10.048
REMARK INTRA:                  -2.003
REMARK UNBOUND:                -2.831
REMARK SMILES CCCCCCCCC=CCCCCCCCC(=O)[O-]
REMARK SMILES IDX 10 1 9 2 11 3 12 4 13 5 14 6 15 7 16 8 17 9 18 10 19 11
REMARK SMILES IDX 20 12 8 13 7 14 6 15 5 16 4 17 3 18 2 19 1 20
REMARK H PARENT
REMARK Flexibility Score: inf
ROOT
ATOM      1  C   UNL     1      61.107  62.834  36.360  1.00  0.00    -0.031 C 
ATOM      2  C   UNL     1      62.317  62.248  36.296  1.00  0.00    -0.031 C 
ENDROOT
BRANCH   1   3
ATOM      3  C   UNL     1      60.710  64.072  35.593  1.00  0.00     0.027 C 
BRANCH   3   4
ATOM      4  C   UNL     1      59.530  64.809  36.250  1.00  0.00     0.004 C 
BRANCH   4   5
ATOM      5  C   UNL     1      59.790  66.303  36.519  1.00  0.00     0.000 C 
BRANCH   5   6
ATOM      6  C   UNL     1      60.791  66.921  35.528  1.00  0.00     0.000 C 
BRANCH   6   7
ATOM      7  C   UNL     1      61.780  67.878  36.210  1.00  0.00     0.000 C 
BRANCH   7   8
ATOM      8  C   UNL     1      63.208  67.749  35.650  1.00  0.00     0.006 C 
BRANCH   8   9
ATOM      9  C   UNL     1      63.279  66.780  34.463  1.00  0.00     0.053 C 
BRANCH   9  10
ATOM     10  C   UNL     1      63.634  67.486  33.190  1.00  0.00     0.041 C 
ATOM     11  O   UNL     1      64.725  67.240  32.612  1.00  0.00    -0.550 OA
ATOM     12  O   UNL     1      62.776  68.442  32.663  1.00  0.00    -0.550 OA
ENDBRANCH   9  10
ENDBRANCH   8   9
ENDBRANCH   7   8
ENDBRANCH   6   7
ENDBRANCH   5   6
ENDBRANCH   4   5
ENDBRANCH   3   4
ENDBRANCH   1   3
BRANCH   2  13
ATOM     13  C   UNL     1      63.493  62.790  35.524  1.00  0.00     0.027 C 
BRANCH  13  14
ATOM     14  C   UNL     1      64.019  61.747  34.532  1.00  0.00     0.004 C 
BRANCH  14  15
ATOM     15  C   UNL     1      63.649  60.328  34.980  1.00  0.00     0.000 C 
BRANCH  15  16
ATOM     16  C   UNL     1      63.093  59.508  33.807  1.00  0.00     0.000 C 
BRANCH  16  17
ATOM     17  C   UNL     1      61.791  58.764  34.157  1.00  0.00    -0.000 C 
BRANCH  17  18
ATOM     18  C   UNL     1      60.566  59.670  34.379  1.00  0.00    -0.000 C 
BRANCH  18  19
ATOM     19  C   UNL     1      60.379  60.707  33.262  1.00  0.00    -0.003 C 
ATOM     20  C   UNL     1      59.290  60.273  32.285  1.00  0.00     0.004 C 
ENDBRANCH  18  19
ENDBRANCH  17  18
ENDBRANCH  16  17
ENDBRANCH  15  16
ENDBRANCH  14  15
ENDBRANCH  13  14
ENDBRANCH   2  13
TORSDOF 15
ENDMDL
MODEL 6
REMARK VINA RESULT:    -4.907      2.769      5.691
REMARK INTER + INTRA:         -12.040
REMARK INTER:                  -9.167
REMARK INTRA:                  -2.874
REMARK UNBOUND:                -2.831
REMARK SMILES CCCCCCCCC=CCCCCCCCC(=O)[O-]
REMARK SMILES IDX 10 1 9 2 11 3 12 4 13 5 14 6 15 7 16 8 17 9 18 10 19 11
REMARK SMILES IDX 20 12 8 13 7 14 6 15 5 16 4 17 3 18 2 19 1 20
REMARK H PARENT
REMARK Flexibility Score: inf
ROOT
ATOM      1  C   UNL     1      63.121  62.188  32.266  1.00  0.00    -0.031 C 
ATOM      2  C   UNL     1      62.558  63.085  33.096  1.00  0.00    -0.031 C 
ENDROOT
BRANCH   1   3
ATOM      3  C   UNL     1      64.305  61.318  32.613  1.00  0.00     0.027 C 
BRANCH   3   4
ATOM      4  C   UNL     1      63.877  59.974  33.227  1.00  0.00     0.004 C 
BRANCH   4   5
ATOM      5  C   UNL     1      63.961  59.927  34.764  1.00  0.00     0.000 C 
BRANCH   5   6
ATOM      6  C   UNL     1      62.577  59.856  35.433  1.00  0.00     0.000 C 
BRANCH   6   7
ATOM      7  C   UNL     1      61.530  59.163  34.549  1.00  0.00     0.000 C 
BRANCH   7   8
ATOM      8  C   UNL     1      60.301  60.050  34.282  1.00  0.00     0.006 C 
BRANCH   8   9
ATOM      9  C   UNL     1      59.862  60.004  32.812  1.00  0.00     0.053 C 
BRANCH   9  10
ATOM     10  C   UNL     1      58.490  60.574  32.624  1.00  0.00     0.041 C 
ATOM     11  O   UNL     1      58.287  61.459  31.751  1.00  0.00    -0.550 OA
ATOM     12  O   UNL     1      57.445  60.155  33.436  1.00  0.00    -0.550 OA
ENDBRANCH   9  10
ENDBRANCH   8   9
ENDBRANCH   7   8
ENDBRANCH   6   7
ENDBRANCH   5   6
ENDBRANCH   4   5
ENDBRANCH   3   4
ENDBRANCH   1   3
BRANCH   2  13
ATOM     13  C   UNL     1      63.082  63.430  34.468  1.00  0.00     0.027 C 
BRANCH  13  14
ATOM     14  C   UNL     1      61.973  63.303  35.519  1.00  0.00     0.004 C 
BRANCH  14  15
ATOM     15  C   UNL     1      60.658  63.901  35.005  1.00  0.00     0.000 C 
BRANCH  15  16
ATOM     16  C   UNL     1      60.143  64.994  35.953  1.00  0.00     0.000 C 
BRANCH  16  17
ATOM     17  C   UNL     1      60.692  66.391  35.614  1.00  0.00    -0.000 C 
BRANCH  17  18
ATOM     18  C   UNL     1      60.989  66.628  34.122  1.00  0.00    -0.000 C 
BRANCH  18  19
ATOM     19  C   UNL     1      62.384  67.220  33.877  1.00  0.00    -0.003 C 
ATOM     20  C   UNL     1      63.227  67.186  35.150  1.00  0.00     0.004 C 
ENDBRANCH  18  19
ENDBRANCH  17  18
ENDBRANCH  16  17
ENDBRANCH  15  16
ENDBRANCH  14  15
ENDBRANCH  13  14
ENDBRANCH   2  13
TORSDOF 15
ENDMDL
MODEL 7
REMARK VINA RESULT:    -4.888      2.067      5.204
REMARK INTER + INTRA:         -12.007
REMARK INTER:                  -9.011
REMARK INTRA:                  -2.996
REMARK UNBOUND:                -2.831
REMARK SMILES CCCCCCCCC=CCCCCCCCC(=O)[O-]
REMARK SMILES IDX 10 1 9 2 11 3 12 4 13 5 14 6 15 7 16 8 17 9 18 10 19 11
REMARK SMILES IDX 20 12 8 13 7 14 6 15 5 16 4 17 3 18 2 19 1 20
REMARK H PARENT
REMARK Flexibility Score: inf
ROOT
ATOM      1  C   UNL     1      59.561  60.369  32.673  1.00  0.00    -0.031 C 
ATOM      2  C   UNL     1      58.228  60.543  32.638  1.00  0.00    -0.031 C 
ENDROOT
BRANCH   1   3
ATOM      3  C   UNL     1      60.310  59.683  33.790  1.00  0.00     0.027 C 
BRANCH   3   4
ATOM      4  C   UNL     1      60.395  60.555  35.054  1.00  0.00     0.004 C 
BRANCH   4   5
ATOM      5  C   UNL     1      61.073  59.865  36.253  1.00  0.00     0.000 C 
BRANCH   5   6
ATOM      6  C   UNL     1      62.316  60.623  36.751  1.00  0.00     0.000 C 
BRANCH   6   7
ATOM      7  C   UNL     1      62.287  62.113  36.376  1.00  0.00     0.000 C 
BRANCH   7   8
ATOM      8  C   UNL     1      63.545  62.552  35.605  1.00  0.00     0.006 C 
BRANCH   8   9
ATOM      9  C   UNL     1      64.155  61.404  34.790  1.00  0.00     0.053 C 
BRANCH   9  10
ATOM     10  C   UNL     1      63.640  61.387  33.384  1.00  0.00     0.041 C 
ATOM     11  O   UNL     1      63.063  62.402  32.909  1.00  0.00    -0.550 OA
ATOM     12  O   UNL     1      63.764  60.241  32.610  1.00  0.00    -0.550 OA
ENDBRANCH   9  10
ENDBRANCH   8   9
ENDBRANCH   7   8
ENDBRANCH   6   7
ENDBRANCH   5   6
ENDBRANCH   4   5
ENDBRANCH   3   4
ENDBRANCH   1   3
BRANCH   2  13
ATOM     13  C   UNL     1      57.284  60.168  33.752  1.00  0.00     0.027 C 
BRANCH  13  14
ATOM     14  C   UNL     1      56.639  61.419  34.361  1.00  0.00     0.004 C 
BRANCH  14  15
ATOM     15  C   UNL     1      56.838  61.455  35.881  1.00  0.00     0.000 C 
BRANCH  15  16
ATOM     16  C   UNL     1      57.565  62.738  36.310  1.00  0.00     0.000 C 
BRANCH  16  17
ATOM     17  C   UNL     1      57.851  63.688  35.134  1.00  0.00    -0.000 C 
BRANCH  17  18
ATOM     18  C   UNL     1      59.334  64.054  34.940  1.00  0.00    -0.000 C 
BRANCH  18  19
ATOM     19  C   UNL     1      59.787  63.955  33.476  1.00  0.00    -0.003 C 
ATOM     20  C   UNL     1      58.626  64.221  32.521  1.00  0.00     0.004 C 
ENDBRANCH  18  19
ENDBRANCH  17  18
ENDBRANCH  16  17
ENDBRANCH  15  16
ENDBRANCH  14  15
ENDBRANCH  13  14
ENDBRANCH   2  13
TORSDOF 15
ENDMDL
MODEL 8
REMARK VINA RESULT:    -4.824      2.328      5.145
REMARK INTER + INTRA:         -11.886
REMARK INTER:                  -9.040
REMARK INTRA:                  -2.847
REMARK UNBOUND:                -2.831
REMARK SMILES CCCCCCCCC=CCCCCCCCC(=O)[O-]
REMARK SMILES IDX 10 1 9 2 11 3 12 4 13 5 14 6 15 7 16 8 17 9 18 10 19 11
REMARK SMILES IDX 20 12 8 13 7 14 6 15 5 16 4 17 3 18 2 19 1 20
REMARK H PARENT
REMARK Flexibility Score: inf
ROOT
ATOM      1  C   UNL     1      63.702  61.211  33.477  1.00  0.00    -0.031 C 
ATOM      2  C   UNL     1      62.873  60.201  33.158  1.00  0.00    -0.031 C 
ENDROOT
BRANCH   1   3
ATOM      3  C   UNL     1      64.285  61.445  34.850  1.00  0.00     0.027 C 
BRANCH   3   4
ATOM      4  C   UNL     1      63.533  62.544  35.621  1.00  0.00     0.004 C 
BRANCH   4   5
ATOM      5  C   UNL     1      62.307  62.040  36.403  1.00  0.00     0.000 C 
BRANCH   5   6
ATOM      6  C   UNL     1      61.046  62.883  36.141  1.00  0.00     0.000 C 
BRANCH   6   7
ATOM      7  C   UNL     1      60.847  63.197  34.651  1.00  0.00     0.000 C 
BRANCH   7   8
ATOM      8  C   UNL     1      60.297  64.615  34.414  1.00  0.00     0.006 C 
BRANCH   8   9
ATOM      9  C   UNL     1      60.334  65.470  35.688  1.00  0.00     0.053 C 
BRANCH   9  10
ATOM     10  C   UNL     1      61.017  66.783  35.455  1.00  0.00     0.041 C 
ATOM     11  O   UNL     1      60.342  67.845  35.395  1.00  0.00    -0.550 OA
ATOM     12  O   UNL     1      62.392  66.829  35.269  1.00  0.00    -0.550 OA
ENDBRANCH   9  10
ENDBRANCH   8   9
ENDBRANCH   7   8
ENDBRANCH   6   7
ENDBRANCH   5   6
ENDBRANCH   4   5
ENDBRANCH   3   4
ENDBRANCH   1   3
BRANCH   2  13
ATOM     13  C   UNL     1      62.320  59.202  34.143  1.00  0.00     0.027 C 
BRANCH  13  14
ATOM     14  C   UNL     1      60.807  59.385  34.310  1.00  0.00     0.004 C 
BRANCH  14  15
ATOM     15  C   UNL     1      60.184  59.987  33.045  1.00  0.00     0.000 C 
BRANCH  15  16
ATOM     16  C   UNL     1      58.709  60.347  33.277  1.00  0.00     0.000 C 
BRANCH  16  17
ATOM     17  C   UNL     1      58.316  60.342  34.766  1.00  0.00    -0.000 C 
BRANCH  17  18
ATOM     18  C   UNL     1      57.190  61.322  35.144  1.00  0.00    -0.000 C 
BRANCH  18  19
ATOM     19  C   UNL     1      56.804  62.261  33.992  1.00  0.00    -0.003 C 
ATOM     20  C   UNL     1      56.703  63.707  34.471  1.00  0.00     0.004 C 
ENDBRANCH  18  19
ENDBRANCH  17  18
ENDBRANCH  16  17
ENDBRANCH  15  16
ENDBRANCH  14  15
ENDBRANCH  13  14
ENDBRANCH   2  13
TORSDOF 15
ENDMDL
MODEL 9
REMARK VINA RESULT:    -4.817      1.887      5.250
REMARK INTER + INTRA:         -11.872
REMARK INTER:                  -9.132
REMARK INTRA:                  -2.739
REMARK UNBOUND:                -2.831
REMARK SMILES CCCCCCCCC=CCCCCCCCC(=O)[O-]
REMARK SMILES IDX 10 1 9 2 11 3 12 4 13 5 14 6 15 7 16 8 17 9 18 10 19 11
REMARK SMILES IDX 20 12 8 13 7 14 6 15 5 16 4 17 3 18 2 19 1 20
REMARK H PARENT
REMARK Flexibility Score: inf
ROOT
ATOM      1  C   UNL     1      61.873  60.640  32.962  1.00  0.00    -0.031 C 
ATOM      2  C   UNL     1      60.544  60.803  32.834  1.00  0.00    -0.031 C 
ENDROOT
BRANCH   1   3
ATOM      3  C   UNL     1      62.533  59.518  33.725  1.00  0.00     0.027 C 
BRANCH   3   4
ATOM      4  C   UNL     1      63.345  60.031  34.927  1.00  0.00     0.004 C 
BRANCH   4   5
ATOM      5  C   UNL     1      62.497  60.345  36.174  1.00  0.00     0.000 C 
BRANCH   5   6
ATOM      6  C   UNL     1      62.292  61.854  36.389  1.00  0.00     0.000 C 
BRANCH   6   7
ATOM      7  C   UNL     1      63.350  62.702  35.667  1.00  0.00     0.000 C 
BRANCH   7   8
ATOM      8  C   UNL     1      62.731  63.841  34.838  1.00  0.00     0.006 C 
BRANCH   8   9
ATOM      9  C   UNL     1      61.198  63.844  34.913  1.00  0.00     0.053 C 
BRANCH   9  10
ATOM     10  C   UNL     1      60.648  65.236  34.977  1.00  0.00     0.041 C 
ATOM     11  O   UNL     1      60.434  65.781  36.092  1.00  0.00    -0.550 OA
ATOM     12  O   UNL     1      60.338  65.916  33.807  1.00  0.00    -0.550 OA
ENDBRANCH   9  10
ENDBRANCH   8   9
ENDBRANCH   7   8
ENDBRANCH   6   7
ENDBRANCH   5   6
ENDBRANCH   4   5
ENDBRANCH   3   4
ENDBRANCH   1   3
BRANCH   2  13
ATOM     13  C   UNL     1      59.505  59.947  33.514  1.00  0.00     0.027 C 
BRANCH  13  14
ATOM     14  C   UNL     1      59.077  60.570  34.847  1.00  0.00     0.004 C 
BRANCH  14  15
ATOM     15  C   UNL     1      57.568  60.412  35.069  1.00  0.00     0.000 C 
BRANCH  15  16
ATOM     16  C   UNL     1      57.036  61.491  36.023  1.00  0.00     0.000 C 
BRANCH  16  17
ATOM     17  C   UNL     1      56.118  62.511  35.324  1.00  0.00    -0.000 C 
BRANCH  17  18
ATOM     18  C   UNL     1      56.849  63.575  34.485  1.00  0.00    -0.000 C 
BRANCH  18  19
ATOM     19  C   UNL     1      56.780  63.297  32.976  1.00  0.00    -0.003 C 
ATOM     20  C   UNL     1      58.110  63.615  32.296  1.00  0.00     0.004 C 
ENDBRANCH  18  19
ENDBRANCH  17  18
ENDBRANCH  16  17
ENDBRANCH  15  16
ENDBRANCH  14  15
ENDBRANCH  13  14
ENDBRANCH   2  13
TORSDOF 15
ENDMDL
