MODEL 1
REMARK VINA RESULT:     3.189      0.000      0.000
REMARK INTER + INTRA:           8.144
REMARK INTER:                   8.035
REMARK INTRA:                   0.109
REMARK UNBOUND:                 0.109
REMARK SMILES CCCCCCCCCCCCCCCCCCCCCCCCCCCC(=O)[O-]
REMARK SMILES IDX 15 1 16 2 17 3 18 4 19 5 20 6 21 7 22 8 23 9 24 10 25 11
REMARK SMILES IDX 26 12 27 13 28 14 29 15 30 16 14 17 13 18 12 19 11 20 10 21
REMARK SMILES IDX 9 22 8 23 7 24 6 25 5 26 4 27 3 28 2 29 1 30
REMARK H PARENT
REMARK Flexibility Score: inf
ROOT
ATOM      1  C   UNL     1      -5.339  34.436  24.014  1.00  0.00     0.000 C 
ENDROOT
BRANCH   1   2
ATOM      2  C   UNL     1      -6.125  34.341  25.334  1.00  0.00     0.000 C 
BRANCH   2   3
ATOM      3  C   UNL     1      -5.881  35.553  26.250  1.00  0.00     0.000 C 
BRANCH   3   4
ATOM      4  C   UNL     1      -5.800  36.874  25.468  1.00  0.00     0.000 C 
BRANCH   4   5
ATOM      5  C   UNL     1      -4.489  37.613  25.769  1.00  0.00     0.000 C 
BRANCH   5   6
ATOM      6  C   UNL     1      -4.353  38.931  24.985  1.00  0.00     0.000 C 
BRANCH   6   7
ATOM      7  C   UNL     1      -5.547  39.274  24.070  1.00  0.00     0.000 C 
BRANCH   7   8
ATOM      8  C   UNL     1      -5.722  38.347  22.855  1.00  0.00     0.000 C 
BRANCH   8   9
ATOM      9  C   UNL     1      -5.463  39.061  21.519  1.00  0.00     0.000 C 
BRANCH   9  10
ATOM     10  C   UNL     1      -5.667  38.103  20.336  1.00  0.00     0.000 C 
BRANCH  10  11
ATOM     11  C   UNL     1      -4.592  38.259  19.245  1.00  0.00     0.000 C 
BRANCH  11  12
ATOM     12  C   UNL     1      -3.288  37.475  19.495  1.00  0.00     0.006 C 
BRANCH  12  13
ATOM     13  C   UNL     1      -2.026  38.136  18.920  1.00  0.00     0.053 C 
BRANCH  13  14
ATOM     14  C   UNL     1      -0.779  37.407  19.318  1.00  0.00     0.041 C 
ATOM     15  O   UNL     1       0.081  37.104  18.449  1.00  0.00    -0.550 OA
ATOM     16  O   UNL     1      -0.552  37.089  20.651  1.00  0.00    -0.550 OA
ENDBRANCH  13  14
ENDBRANCH  12  13
ENDBRANCH  11  12
ENDBRANCH  10  11
ENDBRANCH   9  10
ENDBRANCH   8   9
ENDBRANCH   7   8
ENDBRANCH   6   7
ENDBRANCH   5   6
ENDBRANCH   4   5
ENDBRANCH   3   4
ENDBRANCH   2   3
ENDBRANCH   1   2
BRANCH   1  17
ATOM     17  C   UNL     1      -6.095  35.237  22.932  1.00  0.00     0.000 C 
BRANCH  17  18
ATOM     18  C   UNL     1      -5.595  34.976  21.498  1.00  0.00     0.000 C 
BRANCH  18  19
ATOM     19  C   UNL     1      -4.101  35.269  21.265  1.00  0.00     0.000 C 
BRANCH  19  20
ATOM     20  C   UNL     1      -3.580  34.925  19.857  1.00  0.00     0.000 C 
BRANCH  20  21
ATOM     21  C   UNL     1      -4.458  33.902  19.122  1.00  0.00     0.000 C 
BRANCH  21  22
ATOM     22  C   UNL     1      -5.412  34.599  18.139  1.00  0.00    -0.000 C 
BRANCH  22  23
ATOM     23  C   UNL     1      -4.690  35.597  17.219  1.00  0.00    -0.000 C 
BRANCH  23  24
ATOM     24  C   UNL     1      -3.533  34.953  16.437  1.00  0.00    -0.000 C 
BRANCH  24  25
ATOM     25  C   UNL     1      -2.279  35.842  16.400  1.00  0.00    -0.000 C 
BRANCH  25  26
ATOM     26  C   UNL     1      -2.007  36.432  15.005  1.00  0.00    -0.000 C 
BRANCH  26  27
ATOM     27  C   UNL     1      -3.110  36.069  13.991  1.00  0.00    -0.000 C 
BRANCH  27  28
ATOM     28  C   UNL     1      -4.340  36.996  14.039  1.00  0.00    -0.000 C 
BRANCH  28  29
ATOM     29  C   UNL     1      -4.024  38.438  14.483  1.00  0.00    -0.003 C 
ATOM     30  C   UNL     1      -5.081  39.441  14.023  1.00  0.00     0.004 C 
ENDBRANCH  28  29
ENDBRANCH  27  28
ENDBRANCH  26  27
ENDBRANCH  25  26
ENDBRANCH  24  25
ENDBRANCH  23  24
ENDBRANCH  22  23
ENDBRANCH  21  22
ENDBRANCH  20  21
ENDBRANCH  19  20
ENDBRANCH  18  19
ENDBRANCH  17  18
ENDBRANCH   1  17
TORSDOF 26
ENDMDL
MODEL 2
REMARK VINA RESULT:     3.909      1.274      2.745
REMARK INTER + INTRA:           9.959
REMARK INTER:                   9.828
REMARK INTRA:                   0.131
REMARK UNBOUND:                 0.109
REMARK SMILES CCCCCCCCCCCCCCCCCCCCCCCCCCCC(=O)[O-]
REMARK SMILES IDX 15 1 16 2 17 3 18 4 19 5 20 6 21 7 22 8 23 9 24 10 25 11
REMARK SMILES IDX 26 12 27 13 28 14 29 15 30 16 14 17 13 18 12 19 11 20 10 21
REMARK SMILES IDX 9 22 8 23 7 24 6 25 5 26 4 27 3 28 2 29 1 30
REMARK H PARENT
REMARK Flexibility Score: inf
ROOT
ATOM      1  C   UNL     1      -4.651  37.249  25.991  1.00  0.00     0.000 C 
ENDROOT
BRANCH   1   2
ATOM      2  C   UNL     1      -4.931  38.763  26.010  1.00  0.00     0.000 C 
BRANCH   2   3
ATOM      3  C   UNL     1      -5.576  39.256  24.704  1.00  0.00     0.000 C 
BRANCH   3   4
ATOM      4  C   UNL     1      -5.006  40.607  24.241  1.00  0.00     0.000 C 
BRANCH   4   5
ATOM      5  C   UNL     1      -6.123  41.536  23.747  1.00  0.00     0.000 C 
BRANCH   5   6
ATOM      6  C   UNL     1      -6.102  41.736  22.220  1.00  0.00     0.000 C 
BRANCH   6   7
ATOM      7  C   UNL     1      -5.348  40.647  21.428  1.00  0.00     0.000 C 
BRANCH   7   8
ATOM      8  C   UNL     1      -6.125  40.051  20.241  1.00  0.00     0.000 C 
BRANCH   8   9
ATOM      9  C   UNL     1      -6.124  38.515  20.239  1.00  0.00     0.000 C 
BRANCH   9  10
ATOM     10  C   UNL     1      -5.531  37.965  21.544  1.00  0.00     0.000 C 
BRANCH  10  11
ATOM     11  C   UNL     1      -4.049  37.569  21.410  1.00  0.00     0.000 C 
BRANCH  11  12
ATOM     12  C   UNL     1      -3.440  37.781  20.008  1.00  0.00     0.006 C 
BRANCH  12  13
ATOM     13  C   UNL     1      -2.037  37.180  19.825  1.00  0.00     0.053 C 
BRANCH  13  14
ATOM     14  C   UNL     1      -1.287  37.838  18.707  1.00  0.00     0.041 C 
ATOM     15  O   UNL     1      -1.901  38.238  17.684  1.00  0.00    -0.550 OA
ATOM     16  O   UNL     1       0.084  38.035  18.809  1.00  0.00    -0.550 OA
ENDBRANCH  13  14
ENDBRANCH  12  13
ENDBRANCH  11  12
ENDBRANCH  10  11
ENDBRANCH   9  10
ENDBRANCH   8   9
ENDBRANCH   7   8
ENDBRANCH   6   7
ENDBRANCH   5   6
ENDBRANCH   4   5
ENDBRANCH   3   4
ENDBRANCH   2   3
ENDBRANCH   1   2
BRANCH   1  17
ATOM     17  C   UNL     1      -5.714  36.462  25.196  1.00  0.00     0.000 C 
BRANCH  17  18
ATOM     18  C   UNL     1      -5.338  34.991  24.937  1.00  0.00     0.000 C 
BRANCH  18  19
ATOM     19  C   UNL     1      -6.050  34.336  23.739  1.00  0.00     0.000 C 
BRANCH  19  20
ATOM     20  C   UNL     1      -6.114  35.200  22.465  1.00  0.00     0.000 C 
BRANCH  20  21
ATOM     21  C   UNL     1      -6.105  34.370  21.172  1.00  0.00     0.000 C 
BRANCH  21  22
ATOM     22  C   UNL     1      -5.988  35.275  19.937  1.00  0.00    -0.000 C 
BRANCH  22  23
ATOM     23  C   UNL     1      -4.594  35.219  19.290  1.00  0.00    -0.000 C 
BRANCH  23  24
ATOM     24  C   UNL     1      -4.565  34.355  18.018  1.00  0.00    -0.000 C 
BRANCH  24  25
ATOM     25  C   UNL     1      -4.260  35.176  16.755  1.00  0.00    -0.000 C 
BRANCH  25  26
ATOM     26  C   UNL     1      -2.772  35.545  16.626  1.00  0.00    -0.000 C 
BRANCH  26  27
ATOM     27  C   UNL     1      -2.431  36.120  15.236  1.00  0.00    -0.000 C 
BRANCH  27  28
ATOM     28  C   UNL     1      -3.606  36.099  14.241  1.00  0.00    -0.000 C 
BRANCH  28  29
ATOM     29  C   UNL     1      -4.731  37.099  14.573  1.00  0.00    -0.003 C 
ATOM     30  C   UNL     1      -4.388  38.530  14.162  1.00  0.00     0.004 C 
ENDBRANCH  28  29
ENDBRANCH  27  28
ENDBRANCH  26  27
ENDBRANCH  25  26
ENDBRANCH  24  25
ENDBRANCH  23  24
ENDBRANCH  22  23
ENDBRANCH  21  22
ENDBRANCH  20  21
ENDBRANCH  19  20
ENDBRANCH  18  19
ENDBRANCH  17  18
ENDBRANCH   1  17
TORSDOF 26
ENDMDL
MODEL 3
REMARK VINA RESULT:     5.088      3.149      5.594
REMARK INTER + INTRA:          12.931
REMARK INTER:                  13.208
REMARK INTRA:                  -0.277
REMARK UNBOUND:                 0.109
REMARK SMILES CCCCCCCCCCCCCCCCCCCCCCCCCCCC(=O)[O-]
REMARK SMILES IDX 15 1 16 2 17 3 18 4 19 5 20 6 21 7 22 8 23 9 24 10 25 11
REMARK SMILES IDX 26 12 27 13 28 14 29 15 30 16 14 17 13 18 12 19 11 20 10 21
REMARK SMILES IDX 9 22 8 23 7 24 6 25 5 26 4 27 3 28 2 29 1 30
REMARK H PARENT
REMARK Flexibility Score: inf
ROOT
ATOM      1  C   UNL     1      -5.254  38.155  22.034  1.00  0.00     0.000 C 
ENDROOT
BRANCH   1   2
ATOM      2  C   UNL     1      -5.927  36.936  22.688  1.00  0.00     0.000 C 
BRANCH   2   3
ATOM      3  C   UNL     1      -6.068  35.752  21.716  1.00  0.00     0.000 C 
BRANCH   3   4
ATOM      4  C   UNL     1      -5.121  34.592  22.062  1.00  0.00     0.000 C 
BRANCH   4   5
ATOM      5  C   UNL     1      -4.880  34.511  23.576  1.00  0.00     0.000 C 
BRANCH   5   6
ATOM      6  C   UNL     1      -6.125  34.887  24.400  1.00  0.00     0.000 C 
BRANCH   6   7
ATOM      7  C   UNL     1      -5.884  35.933  25.508  1.00  0.00     0.000 C 
BRANCH   7   8
ATOM      8  C   UNL     1      -4.409  36.149  25.889  1.00  0.00     0.000 C 
BRANCH   8   9
ATOM      9  C   UNL     1      -4.137  37.555  26.447  1.00  0.00     0.000 C 
BRANCH   9  10
ATOM     10  C   UNL     1      -2.649  37.914  26.330  1.00  0.00     0.000 C 
BRANCH  10  11
ATOM     11  C   UNL     1      -1.794  37.307  27.457  1.00  0.00     0.000 C 
BRANCH  11  12
ATOM     12  C   UNL     1      -2.448  36.132  28.214  1.00  0.00     0.006 C 
BRANCH  12  13
ATOM     13  C   UNL     1      -1.723  34.787  28.052  1.00  0.00     0.053 C 
BRANCH  13  14
ATOM     14  C   UNL     1      -1.294  34.218  29.370  1.00  0.00     0.041 C 
ATOM     15  O   UNL     1      -2.065  34.279  30.365  1.00  0.00    -0.550 OA
ATOM     16  O   UNL     1      -0.059  33.595  29.493  1.00  0.00    -0.550 OA
ENDBRANCH  13  14
ENDBRANCH  12  13
ENDBRANCH  11  12
ENDBRANCH  10  11
ENDBRANCH   9  10
ENDBRANCH   8   9
ENDBRANCH   7   8
ENDBRANCH   6   7
ENDBRANCH   5   6
ENDBRANCH   4   5
ENDBRANCH   3   4
ENDBRANCH   2   3
ENDBRANCH   1   2
BRANCH   1  17
ATOM     17  C   UNL     1      -5.557  38.258  20.523  1.00  0.00     0.000 C 
BRANCH  17  18
ATOM     18  C   UNL     1      -4.356  37.918  19.621  1.00  0.00     0.000 C 
BRANCH  18  19
ATOM     19  C   UNL     1      -3.217  37.147  20.314  1.00  0.00     0.000 C 
BRANCH  19  20
ATOM     20  C   UNL     1      -1.795  37.584  19.916  1.00  0.00     0.000 C 
BRANCH  20  21
ATOM     21  C   UNL     1      -1.649  37.863  18.412  1.00  0.00     0.000 C 
BRANCH  21  22
ATOM     22  C   UNL     1      -0.623  36.916  17.772  1.00  0.00    -0.000 C 
BRANCH  22  23
ATOM     23  C   UNL     1      -0.916  36.639  16.288  1.00  0.00    -0.000 C 
BRANCH  23  24
ATOM     24  C   UNL     1      -1.871  35.451  16.084  1.00  0.00    -0.000 C 
BRANCH  24  25
ATOM     25  C   UNL     1      -3.171  35.594  16.890  1.00  0.00    -0.000 C 
BRANCH  25  26
ATOM     26  C   UNL     1      -4.351  36.092  16.037  1.00  0.00    -0.000 C 
BRANCH  26  27
ATOM     27  C   UNL     1      -3.930  36.417  14.589  1.00  0.00    -0.000 C 
BRANCH  27  28
ATOM     28  C   UNL     1      -4.739  37.555  13.938  1.00  0.00    -0.000 C 
BRANCH  28  29
ATOM     29  C   UNL     1      -4.245  38.968  14.304  1.00  0.00    -0.003 C 
ATOM     30  C   UNL     1      -5.259  40.056  13.950  1.00  0.00     0.004 C 
ENDBRANCH  28  29
ENDBRANCH  27  28
ENDBRANCH  26  27
ENDBRANCH  25  26
ENDBRANCH  24  25
ENDBRANCH  23  24
ENDBRANCH  22  23
ENDBRANCH  21  22
ENDBRANCH  20  21
ENDBRANCH  19  20
ENDBRANCH  18  19
ENDBRANCH  17  18
ENDBRANCH   1  17
TORSDOF 26
ENDMDL
MODEL 4
REMARK VINA RESULT:     5.249      1.925      4.440
REMARK INTER + INTRA:          13.336
REMARK INTER:                  10.439
REMARK INTRA:                   2.896
REMARK UNBOUND:                 0.109
REMARK SMILES CCCCCCCCCCCCCCCCCCCCCCCCCCCC(=O)[O-]
REMARK SMILES IDX 15 1 16 2 17 3 18 4 19 5 20 6 21 7 22 8 23 9 24 10 25 11
REMARK SMILES IDX 26 12 27 13 28 14 29 15 30 16 14 17 13 18 12 19 11 20 10 21
REMARK SMILES IDX 9 22 8 23 7 24 6 25 5 26 4 27 3 28 2 29 1 30
REMARK H PARENT
REMARK Flexibility Score: inf
ROOT
ATOM      1  C   UNL     1      -1.582  37.397  19.594  1.00  0.00     0.000 C 
ENDROOT
BRANCH   1   2
ATOM      2  C   UNL     1      -1.599  36.442  20.801  1.00  0.00     0.000 C 
BRANCH   2   3
ATOM      3  C   UNL     1      -2.708  35.381  20.695  1.00  0.00     0.000 C 
BRANCH   3   4
ATOM      4  C   UNL     1      -3.159  34.864  22.071  1.00  0.00     0.000 C 
BRANCH   4   5
ATOM      5  C   UNL     1      -4.682  34.680  22.118  1.00  0.00     0.000 C 
BRANCH   5   6
ATOM      6  C   UNL     1      -5.213  34.459  23.546  1.00  0.00     0.000 C 
BRANCH   6   7
ATOM      7  C   UNL     1      -6.043  35.624  24.123  1.00  0.00     0.000 C 
BRANCH   7   8
ATOM      8  C   UNL     1      -5.828  35.897  25.622  1.00  0.00     0.000 C 
BRANCH   8   9
ATOM      9  C   UNL     1      -5.711  37.394  25.945  1.00  0.00     0.000 C 
BRANCH   9  10
ATOM     10  C   UNL     1      -5.491  38.216  24.666  1.00  0.00     0.000 C 
BRANCH  10  11
ATOM     11  C   UNL     1      -4.788  39.560  24.930  1.00  0.00     0.000 C 
BRANCH  11  12
ATOM     12  C   UNL     1      -5.614  40.812  24.571  1.00  0.00     0.006 C 
BRANCH  12  13
ATOM     13  C   UNL     1      -5.440  41.297  23.124  1.00  0.00     0.053 C 
BRANCH  13  14
ATOM     14  C   UNL     1      -5.702  40.207  22.131  1.00  0.00     0.041 C 
ATOM     15  O   UNL     1      -6.122  40.490  20.978  1.00  0.00    -0.550 OA
ATOM     16  O   UNL     1      -5.454  38.882  22.468  1.00  0.00    -0.550 OA
ENDBRANCH  13  14
ENDBRANCH  12  13
ENDBRANCH  11  12
ENDBRANCH  10  11
ENDBRANCH   9  10
ENDBRANCH   8   9
ENDBRANCH   7   8
ENDBRANCH   6   7
ENDBRANCH   5   6
ENDBRANCH   4   5
ENDBRANCH   3   4
ENDBRANCH   2   3
ENDBRANCH   1   2
BRANCH   1  17
ATOM     17  C   UNL     1      -2.984  37.592  18.976  1.00  0.00     0.000 C 
BRANCH  17  18
ATOM     18  C   UNL     1      -4.071  37.965  20.001  1.00  0.00     0.000 C 
BRANCH  18  19
ATOM     19  C   UNL     1      -5.498  37.518  19.631  1.00  0.00     0.000 C 
BRANCH  19  20
ATOM     20  C   UNL     1      -6.112  36.457  20.563  1.00  0.00     0.000 C 
BRANCH  20  21
ATOM     21  C   UNL     1      -5.833  35.018  20.105  1.00  0.00     0.000 C 
BRANCH  21  22
ATOM     22  C   UNL     1      -6.072  34.863  18.595  1.00  0.00    -0.000 C 
BRANCH  22  23
ATOM     23  C   UNL     1      -5.407  33.603  18.016  1.00  0.00    -0.000 C 
BRANCH  23  24
ATOM     24  C   UNL     1      -4.023  33.889  17.409  1.00  0.00    -0.000 C 
BRANCH  24  25
ATOM     25  C   UNL     1      -3.978  35.221  16.644  1.00  0.00    -0.000 C 
BRANCH  25  26
ATOM     26  C   UNL     1      -2.583  35.538  16.077  1.00  0.00    -0.000 C 
BRANCH  26  27
ATOM     27  C   UNL     1      -2.590  36.789  15.175  1.00  0.00    -0.000 C 
BRANCH  27  28
ATOM     28  C   UNL     1      -3.973  37.137  14.591  1.00  0.00    -0.000 C 
BRANCH  28  29
ATOM     29  C   UNL     1      -4.037  38.515  13.904  1.00  0.00    -0.003 C 
ATOM     30  C   UNL     1      -5.369  39.228  14.137  1.00  0.00     0.004 C 
ENDBRANCH  28  29
ENDBRANCH  27  28
ENDBRANCH  26  27
ENDBRANCH  25  26
ENDBRANCH  24  25
ENDBRANCH  23  24
ENDBRANCH  22  23
ENDBRANCH  21  22
ENDBRANCH  20  21
ENDBRANCH  19  20
ENDBRANCH  18  19
ENDBRANCH  17  18
ENDBRANCH   1  17
TORSDOF 26
ENDMDL
MODEL 5
REMARK VINA RESULT:     5.342      2.181      4.790
REMARK INTER + INTRA:          13.571
REMARK INTER:                  12.761
REMARK INTRA:                   0.809
REMARK UNBOUND:                 0.109
REMARK SMILES CCCCCCCCCCCCCCCCCCCCCCCCCCCC(=O)[O-]
REMARK SMILES IDX 15 1 16 2 17 3 18 4 19 5 20 6 21 7 22 8 23 9 24 10 25 11
REMARK SMILES IDX 26 12 27 13 28 14 29 15 30 16 14 17 13 18 12 19 11 20 10 21
REMARK SMILES IDX 9 22 8 23 7 24 6 25 5 26 4 27 3 28 2 29 1 30
REMARK H PARENT
REMARK Flexibility Score: inf
ROOT
ATOM      1  C   UNL     1      -1.066  36.523  21.321  1.00  0.00     0.000 C 
ENDROOT
BRANCH   1   2
ATOM      2  C   UNL     1      -1.363  36.912  19.862  1.00  0.00     0.000 C 
BRANCH   2   3
ATOM      3  C   UNL     1      -2.470  37.975  19.751  1.00  0.00     0.000 C 
BRANCH   3   4
ATOM      4  C   UNL     1      -3.866  37.401  20.040  1.00  0.00     0.000 C 
BRANCH   4   5
ATOM      5  C   UNL     1      -4.946  38.157  19.254  1.00  0.00     0.000 C 
BRANCH   5   6
ATOM      6  C   UNL     1      -6.107  38.636  20.144  1.00  0.00     0.000 C 
BRANCH   6   7
ATOM      7  C   UNL     1      -5.887  40.001  20.828  1.00  0.00     0.000 C 
BRANCH   7   8
ATOM      8  C   UNL     1      -5.881  39.964  22.367  1.00  0.00     0.000 C 
BRANCH   8   9
ATOM      9  C   UNL     1      -5.350  38.636  22.929  1.00  0.00     0.000 C 
BRANCH   9  10
ATOM     10  C   UNL     1      -5.295  38.673  24.463  1.00  0.00     0.000 C 
BRANCH  10  11
ATOM     11  C   UNL     1      -5.643  37.320  25.109  1.00  0.00     0.000 C 
BRANCH  11  12
ATOM     12  C   UNL     1      -4.507  36.676  25.931  1.00  0.00     0.006 C 
BRANCH  12  13
ATOM     13  C   UNL     1      -3.787  37.639  26.887  1.00  0.00     0.053 C 
BRANCH  13  14
ATOM     14  C   UNL     1      -2.352  37.261  27.090  1.00  0.00     0.041 C 
ATOM     15  O   UNL     1      -1.434  38.027  26.695  1.00  0.00    -0.550 OA
ATOM     16  O   UNL     1      -2.028  36.077  27.741  1.00  0.00    -0.550 OA
ENDBRANCH  13  14
ENDBRANCH  12  13
ENDBRANCH  11  12
ENDBRANCH  10  11
ENDBRANCH   9  10
ENDBRANCH   8   9
ENDBRANCH   7   8
ENDBRANCH   6   7
ENDBRANCH   5   6
ENDBRANCH   4   5
ENDBRANCH   3   4
ENDBRANCH   2   3
ENDBRANCH   1   2
BRANCH   1  17
ATOM     17  C   UNL     1      -1.791  35.227  21.746  1.00  0.00     0.000 C 
BRANCH  17  18
ATOM     18  C   UNL     1      -3.271  35.172  21.323  1.00  0.00     0.000 C 
BRANCH  18  19
ATOM     19  C   UNL     1      -4.245  34.695  22.417  1.00  0.00     0.000 C 
BRANCH  19  20
ATOM     20  C   UNL     1      -5.723  35.060  22.181  1.00  0.00     0.000 C 
BRANCH  20  21
ATOM     21  C   UNL     1      -6.125  35.016  20.699  1.00  0.00     0.000 C 
BRANCH  21  22
ATOM     22  C   UNL     1      -4.897  34.803  19.800  1.00  0.00    -0.000 C 
BRANCH  22  23
ATOM     23  C   UNL     1      -5.256  34.162  18.449  1.00  0.00    -0.000 C 
BRANCH  23  24
ATOM     24  C   UNL     1      -4.165  34.372  17.385  1.00  0.00    -0.000 C 
BRANCH  24  25
ATOM     25  C   UNL     1      -4.195  35.784  16.780  1.00  0.00    -0.000 C 
BRANCH  25  26
ATOM     26  C   UNL     1      -2.790  36.381  16.587  1.00  0.00    -0.000 C 
BRANCH  26  27
ATOM     27  C   UNL     1      -2.129  35.906  15.277  1.00  0.00    -0.000 C 
BRANCH  27  28
ATOM     28  C   UNL     1      -2.636  36.633  14.016  1.00  0.00    -0.000 C 
BRANCH  28  29
ATOM     29  C   UNL     1      -4.130  37.009  14.065  1.00  0.00    -0.003 C 
ATOM     30  C   UNL     1      -4.354  38.506  14.275  1.00  0.00     0.004 C 
ENDBRANCH  28  29
ENDBRANCH  27  28
ENDBRANCH  26  27
ENDBRANCH  25  26
ENDBRANCH  24  25
ENDBRANCH  23  24
ENDBRANCH  22  23
ENDBRANCH  21  22
ENDBRANCH  20  21
ENDBRANCH  19  20
ENDBRANCH  18  19
ENDBRANCH  17  18
ENDBRANCH   1  17
TORSDOF 26
ENDMDL
MODEL 6
REMARK VINA RESULT:     5.379      3.096      6.811
REMARK INTER + INTRA:          13.663
REMARK INTER:                  14.703
REMARK INTRA:                  -1.039
REMARK UNBOUND:                 0.109
REMARK SMILES CCCCCCCCCCCCCCCCCCCCCCCCCCCC(=O)[O-]
REMARK SMILES IDX 15 1 16 2 17 3 18 4 19 5 20 6 21 7 22 8 23 9 24 10 25 11
REMARK SMILES IDX 26 12 27 13 28 14 29 15 30 16 14 17 13 18 12 19 11 20 10 21
REMARK SMILES IDX 9 22 8 23 7 24 6 25 5 26 4 27 3 28 2 29 1 30
REMARK H PARENT
REMARK Flexibility Score: inf
ROOT
ATOM      1  C   UNL     1      -4.308  34.590  18.534  1.00  0.00     0.000 C 
ENDROOT
BRANCH   1   2
ATOM      2  C   UNL     1      -5.704  34.228  19.072  1.00  0.00     0.000 C 
BRANCH   2   3
ATOM      3  C   UNL     1      -6.046  34.979  20.370  1.00  0.00     0.000 C 
BRANCH   3   4
ATOM      4  C   UNL     1      -4.812  35.210  21.257  1.00  0.00     0.000 C 
BRANCH   4   5
ATOM      5  C   UNL     1      -4.971  34.510  22.614  1.00  0.00     0.000 C 
BRANCH   5   6
ATOM      6  C   UNL     1      -6.125  35.089  23.453  1.00  0.00     0.000 C 
BRANCH   6   7
ATOM      7  C   UNL     1      -5.756  36.315  24.314  1.00  0.00     0.000 C 
BRANCH   7   8
ATOM      8  C   UNL     1      -5.475  36.009  25.796  1.00  0.00     0.000 C 
BRANCH   8   9
ATOM      9  C   UNL     1      -5.100  37.262  26.602  1.00  0.00     0.000 C 
BRANCH   9  10
ATOM     10  C   UNL     1      -3.781  37.865  26.096  1.00  0.00     0.000 C 
BRANCH  10  11
ATOM     11  C   UNL     1      -2.572  37.481  26.968  1.00  0.00     0.000 C 
BRANCH  11  12
ATOM     12  C   UNL     1      -2.610  36.052  27.547  1.00  0.00     0.006 C 
BRANCH  12  13
ATOM     13  C   UNL     1      -1.297  35.593  28.200  1.00  0.00     0.053 C 
BRANCH  13  14
ATOM     14  C   UNL     1      -1.504  34.422  29.113  1.00  0.00     0.041 C 
ATOM     15  O   UNL     1      -2.663  33.969  29.307  1.00  0.00    -0.550 OA
ATOM     16  O   UNL     1      -0.415  33.814  29.724  1.00  0.00    -0.550 OA
ENDBRANCH  13  14
ENDBRANCH  12  13
ENDBRANCH  11  12
ENDBRANCH  10  11
ENDBRANCH   9  10
ENDBRANCH   8   9
ENDBRANCH   7   8
ENDBRANCH   6   7
ENDBRANCH   5   6
ENDBRANCH   4   5
ENDBRANCH   3   4
ENDBRANCH   2   3
ENDBRANCH   1   2
BRANCH   1  17
ATOM     17  C   UNL     1      -4.097  34.123  17.077  1.00  0.00     0.000 C 
BRANCH  17  18
ATOM     18  C   UNL     1      -4.034  35.274  16.055  1.00  0.00     0.000 C 
BRANCH  18  19
ATOM     19  C   UNL     1      -2.618  35.792  15.742  1.00  0.00     0.000 C 
BRANCH  19  20
ATOM     20  C   UNL     1      -2.357  37.259  16.133  1.00  0.00     0.000 C 
BRANCH  20  21
ATOM     21  C   UNL     1      -1.231  37.416  17.165  1.00  0.00     0.000 C 
BRANCH  21  22
ATOM     22  C   UNL     1      -1.597  36.732  18.491  1.00  0.00    -0.000 C 
BRANCH  22  23
ATOM     23  C   UNL     1      -1.389  37.647  19.708  1.00  0.00    -0.000 C 
BRANCH  23  24
ATOM     24  C   UNL     1      -2.698  38.288  20.198  1.00  0.00    -0.000 C 
BRANCH  24  25
ATOM     25  C   UNL     1      -3.910  37.359  20.026  1.00  0.00    -0.000 C 
BRANCH  25  26
ATOM     26  C   UNL     1      -5.217  38.125  19.754  1.00  0.00    -0.000 C 
BRANCH  26  27
ATOM     27  C   UNL     1      -5.972  38.471  21.054  1.00  0.00    -0.000 C 
BRANCH  27  28
ATOM     28  C   UNL     1      -5.794  39.930  21.516  1.00  0.00    -0.000 C 
BRANCH  28  29
ATOM     29  C   UNL     1      -5.483  40.081  23.017  1.00  0.00    -0.003 C 
ATOM     30  C   UNL     1      -6.082  41.353  23.618  1.00  0.00     0.004 C 
ENDBRANCH  28  29
ENDBRANCH  27  28
ENDBRANCH  26  27
ENDBRANCH  25  26
ENDBRANCH  24  25
ENDBRANCH  23  24
ENDBRANCH  22  23
ENDBRANCH  21  22
ENDBRANCH  20  21
ENDBRANCH  19  20
ENDBRANCH  18  19
ENDBRANCH  17  18
ENDBRANCH   1  17
TORSDOF 26
ENDMDL
MODEL 7
REMARK VINA RESULT:     6.139      3.167      5.687
REMARK INTER + INTRA:          15.578
REMARK INTER:                  17.460
REMARK INTRA:                  -1.882
REMARK UNBOUND:                 0.109
REMARK SMILES CCCCCCCCCCCCCCCCCCCCCCCCCCCC(=O)[O-]
REMARK SMILES IDX 15 1 16 2 17 3 18 4 19 5 20 6 21 7 22 8 23 9 24 10 25 11
REMARK SMILES IDX 26 12 27 13 28 14 29 15 30 16 14 17 13 18 12 19 11 20 10 21
REMARK SMILES IDX 9 22 8 23 7 24 6 25 5 26 4 27 3 28 2 29 1 30
REMARK H PARENT
REMARK Flexibility Score: inf
ROOT
ATOM      1  C   UNL     1      -4.847  36.276  22.092  1.00  0.00     0.000 C 
ENDROOT
BRANCH   1   2
ATOM      2  C   UNL     1      -6.086  37.183  21.990  1.00  0.00     0.000 C 
BRANCH   2   3
ATOM      3  C   UNL     1      -5.916  38.293  20.938  1.00  0.00     0.000 C 
BRANCH   3   4
ATOM      4  C   UNL     1      -5.283  39.565  21.525  1.00  0.00     0.000 C 
BRANCH   4   5
ATOM      5  C   UNL     1      -5.718  39.774  22.982  1.00  0.00     0.000 C 
BRANCH   5   6
ATOM      6  C   UNL     1      -4.668  39.281  23.995  1.00  0.00     0.000 C 
BRANCH   6   7
ATOM      7  C   UNL     1      -5.242  38.750  25.325  1.00  0.00     0.000 C 
BRANCH   7   8
ATOM      8  C   UNL     1      -5.361  37.219  25.418  1.00  0.00     0.000 C 
BRANCH   8   9
ATOM      9  C   UNL     1      -4.182  36.574  26.162  1.00  0.00     0.000 C 
BRANCH   9  10
ATOM     10  C   UNL     1      -3.126  37.625  26.533  1.00  0.00     0.000 C 
BRANCH  10  11
ATOM     11  C   UNL     1      -2.248  37.199  27.724  1.00  0.00     0.000 C 
BRANCH  11  12
ATOM     12  C   UNL     1      -1.657  35.777  27.626  1.00  0.00     0.006 C 
BRANCH  12  13
ATOM     13  C   UNL     1      -2.353  34.735  28.515  1.00  0.00     0.053 C 
BRANCH  13  14
ATOM     14  C   UNL     1      -1.427  34.171  29.549  1.00  0.00     0.041 C 
ATOM     15  O   UNL     1      -1.853  33.914  30.705  1.00  0.00    -0.550 OA
ATOM     16  O   UNL     1      -0.103  33.901  29.226  1.00  0.00    -0.550 OA
ENDBRANCH  13  14
ENDBRANCH  12  13
ENDBRANCH  11  12
ENDBRANCH  10  11
ENDBRANCH   9  10
ENDBRANCH   8   9
ENDBRANCH   7   8
ENDBRANCH   6   7
ENDBRANCH   5   6
ENDBRANCH   4   5
ENDBRANCH   3   4
ENDBRANCH   2   3
ENDBRANCH   1   2
BRANCH   1  17
ATOM     17  C   UNL     1      -4.787  35.226  20.961  1.00  0.00     0.000 C 
BRANCH  17  18
ATOM     18  C   UNL     1      -6.124  35.029  20.222  1.00  0.00     0.000 C 
BRANCH  18  19
ATOM     19  C   UNL     1      -5.999  34.568  18.758  1.00  0.00     0.000 C 
BRANCH  19  20
ATOM     20  C   UNL     1      -4.708  33.797  18.424  1.00  0.00     0.000 C 
BRANCH  20  21
ATOM     21  C   UNL     1      -3.863  34.478  17.336  1.00  0.00     0.000 C 
BRANCH  21  22
ATOM     22  C   UNL     1      -4.398  35.884  17.022  1.00  0.00    -0.000 C 
BRANCH  22  23
ATOM     23  C   UNL     1      -4.299  36.235  15.528  1.00  0.00    -0.000 C 
BRANCH  23  24
ATOM     24  C   UNL     1      -3.079  37.113  15.205  1.00  0.00    -0.000 C 
BRANCH  24  25
ATOM     25  C   UNL     1      -1.784  36.297  15.070  1.00  0.00    -0.000 C 
BRANCH  25  26
ATOM     26  C   UNL     1      -0.989  36.215  16.385  1.00  0.00    -0.000 C 
BRANCH  26  27
ATOM     27  C   UNL     1      -1.280  37.407  17.319  1.00  0.00    -0.000 C 
BRANCH  27  28
ATOM     28  C   UNL     1      -0.701  37.251  18.738  1.00  0.00    -0.000 C 
BRANCH  28  29
ATOM     29  C   UNL     1      -1.766  37.198  19.851  1.00  0.00    -0.003 C 
ATOM     30  C   UNL     1      -3.134  37.691  19.379  1.00  0.00     0.004 C 
ENDBRANCH  28  29
ENDBRANCH  27  28
ENDBRANCH  26  27
ENDBRANCH  25  26
ENDBRANCH  24  25
ENDBRANCH  23  24
ENDBRANCH  22  23
ENDBRANCH  21  22
ENDBRANCH  20  21
ENDBRANCH  19  20
ENDBRANCH  18  19
ENDBRANCH  17  18
ENDBRANCH   1  17
TORSDOF 26
ENDMDL
