MODEL 1
REMARK VINA RESULT:    -7.186      0.000      0.000
REMARK INTER + INTRA:          -8.917
REMARK INTER:                  -8.656
REMARK INTRA:                  -0.262
REMARK UNBOUND:                -0.262
REMARK SMILES Oc1cc(O)c2cc(O)c(-c3ccc(O)c(O)c3)[o+]c2c1
REMARK SMILES IDX 10 1 19 2 20 3 21 4 2 5 3 6 4 7 6 8 7 9 8 10 11 11 12 12
REMARK SMILES IDX 13 13 14 14 18 15 16 16 15 17 17 19 9 21 1 23 5 25
REMARK H PARENT 15 18 17 20 9 22 1 24 5 26
REMARK Flexibility Score: inf
ROOT
ATOM      1  C   UNL     1      37.710  29.117   8.929  1.00  0.00     0.402 A 
ATOM      2  O   UNL     1      38.267  29.391  10.106  1.00  0.00    -0.202 OA
ATOM      3  C   UNL     1      38.840  28.470  10.874  1.00  0.00     0.368 A 
ATOM      4  C   UNL     1      39.396  28.855  12.097  1.00  0.00     0.162 A 
ATOM      5  C   UNL     1      40.001  27.909  12.926  1.00  0.00     0.128 A 
ATOM      6  C   UNL     1      40.049  26.568  12.532  1.00  0.00     0.093 A 
ATOM      7  C   UNL     1      39.498  26.155  11.312  1.00  0.00     0.136 A 
ATOM      8  C   UNL     1      38.885  27.115  10.465  1.00  0.00     0.125 A 
ATOM      9  C   UNL     1      38.319  26.797   9.220  1.00  0.00     0.078 A 
ATOM     10  C   UNL     1      37.736  27.799   8.438  1.00  0.00     0.223 A 
ENDROOT
BRANCH   1  11
ATOM     11  C   UNL     1      37.094  30.229   8.170  1.00  0.00     0.087 A 
ATOM     12  C   UNL     1      35.701  30.279   8.027  1.00  0.00     0.022 A 
ATOM     13  C   UNL     1      35.101  31.308   7.298  1.00  0.00     0.051 A 
ATOM     14  C   UNL     1      35.878  32.298   6.687  1.00  0.00     0.157 A 
ATOM     15  C   UNL     1      37.880  31.208   7.539  1.00  0.00     0.068 A 
ATOM     16  C   UNL     1      37.288  32.243   6.803  1.00  0.00     0.158 A 
BRANCH  14  17
ATOM     17  O   UNL     1      35.217  33.304   5.980  1.00  0.00    -0.504 OA
ATOM     18  H   UNL     1      34.620  33.136   5.184  1.00  0.00     0.293 HD
ENDBRANCH  14  17
BRANCH  16  19
ATOM     19  O   UNL     1      38.130  33.183   6.204  1.00  0.00    -0.504 OA
ATOM     20  H   UNL     1      38.955  33.563   6.645  1.00  0.00     0.293 HD
ENDBRANCH  16  19
ENDBRANCH   1  11
BRANCH  10  21
ATOM     21  O   UNL     1      37.218  27.492   7.179  1.00  0.00    -0.500 OA
ATOM     22  H   UNL     1      36.810  26.587   6.977  1.00  0.00     0.294 HD
ENDBRANCH  10  21
BRANCH   5  23
ATOM     23  O   UNL     1      40.550  28.313  14.140  1.00  0.00    -0.507 OA
ATOM     24  H   UNL     1      39.965  28.574  14.926  1.00  0.00     0.293 HD
ENDBRANCH   5  23
BRANCH   7  25
ATOM     25  O   UNL     1      39.584  24.798  10.992  1.00  0.00    -0.507 OA
ATOM     26  H   UNL     1      39.696  24.439  10.056  1.00  0.00     0.293 HD
ENDBRANCH   7  25
TORSDOF 6
ENDMDL
MODEL 2
REMARK VINA RESULT:    -7.171      2.074      6.887
REMARK INTER + INTRA:          -8.899
REMARK INTER:                  -8.556
REMARK INTRA:                  -0.344
REMARK UNBOUND:                -0.262
REMARK SMILES Oc1cc(O)c2cc(O)c(-c3ccc(O)c(O)c3)[o+]c2c1
REMARK SMILES IDX 10 1 19 2 20 3 21 4 2 5 3 6 4 7 6 8 7 9 8 10 11 11 12 12
REMARK SMILES IDX 13 13 14 14 18 15 16 16 15 17 17 19 9 21 1 23 5 25
REMARK H PARENT 15 18 17 20 9 22 1 24 5 26
REMARK Flexibility Score: inf
ROOT
ATOM      1  C   UNL     1      37.509  28.482   8.533  1.00  0.00     0.402 A 
ATOM      2  O   UNL     1      37.894  29.517   7.791  1.00  0.00    -0.202 OA
ATOM      3  C   UNL     1      37.302  29.857   6.651  1.00  0.00     0.368 A 
ATOM      4  C   UNL     1      37.781  30.961   5.940  1.00  0.00     0.162 A 
ATOM      5  C   UNL     1      37.182  31.339   4.737  1.00  0.00     0.128 A 
ATOM      6  C   UNL     1      36.097  30.609   4.240  1.00  0.00     0.093 A 
ATOM      7  C   UNL     1      35.598  29.498   4.933  1.00  0.00     0.136 A 
ATOM      8  C   UNL     1      36.203  29.113   6.158  1.00  0.00     0.125 A 
ATOM      9  C   UNL     1      35.763  28.024   6.927  1.00  0.00     0.078 A 
ATOM     10  C   UNL     1      36.408  27.707   8.127  1.00  0.00     0.223 A 
ENDROOT
BRANCH   1  11
ATOM     11  C   UNL     1      38.255  28.199   9.781  1.00  0.00     0.087 A 
ATOM     12  C   UNL     1      39.374  27.356   9.738  1.00  0.00     0.022 A 
ATOM     13  C   UNL     1      40.081  27.060  10.906  1.00  0.00     0.051 A 
ATOM     14  C   UNL     1      39.678  27.585  12.138  1.00  0.00     0.157 A 
ATOM     15  C   UNL     1      37.833  28.711  11.020  1.00  0.00     0.068 A 
ATOM     16  C   UNL     1      38.534  28.417  12.197  1.00  0.00     0.158 A 
BRANCH  14  17
ATOM     17  O   UNL     1      40.431  27.258  13.267  1.00  0.00    -0.504 OA
ATOM     18  H   UNL     1      40.684  26.315  13.523  1.00  0.00     0.293 HD
ENDBRANCH  14  17
BRANCH  16  19
ATOM     19  O   UNL     1      38.059  28.962  13.391  1.00  0.00    -0.504 OA
ATOM     20  H   UNL     1      37.965  28.442  14.252  1.00  0.00     0.293 HD
ENDBRANCH  16  19
ENDBRANCH   1  11
BRANCH  10  21
ATOM     21  O   UNL     1      35.939  26.656   8.916  1.00  0.00    -0.500 OA
ATOM     22  H   UNL     1      36.277  25.708   8.797  1.00  0.00     0.294 HD
ENDBRANCH  10  21
BRANCH   5  23
ATOM     23  O   UNL     1      37.673  32.442   4.043  1.00  0.00    -0.507 OA
ATOM     24  H   UNL     1      37.862  33.321   4.512  1.00  0.00     0.293 HD
ENDBRANCH   5  23
BRANCH   7  25
ATOM     25  O   UNL     1      34.514  28.821   4.370  1.00  0.00    -0.507 OA
ATOM     26  H   UNL     1      34.304  27.847   4.529  1.00  0.00     0.293 HD
ENDBRANCH   7  25
TORSDOF 6
ENDMDL
MODEL 3
REMARK VINA RESULT:    -7.155      1.499      6.904
REMARK INTER + INTRA:          -8.881
REMARK INTER:                  -8.563
REMARK INTRA:                  -0.318
REMARK UNBOUND:                -0.262
REMARK SMILES Oc1cc(O)c2cc(O)c(-c3ccc(O)c(O)c3)[o+]c2c1
REMARK SMILES IDX 10 1 19 2 20 3 21 4 2 5 3 6 4 7 6 8 7 9 8 10 11 11 12 12
REMARK SMILES IDX 13 13 14 14 18 15 16 16 15 17 17 19 9 21 1 23 5 25
REMARK H PARENT 15 18 17 20 9 22 1 24 5 26
REMARK Flexibility Score: inf
ROOT
ATOM      1  C   UNL     1      37.399  28.990   8.965  1.00  0.00     0.402 A 
ATOM      2  O   UNL     1      37.548  30.271   8.636  1.00  0.00    -0.202 OA
ATOM      3  C   UNL     1      36.821  30.873   7.701  1.00  0.00     0.368 A 
ATOM      4  C   UNL     1      37.054  32.223   7.424  1.00  0.00     0.162 A 
ATOM      5  C   UNL     1      36.308  32.880   6.444  1.00  0.00     0.128 A 
ATOM      6  C   UNL     1      35.324  32.185   5.734  1.00  0.00     0.093 A 
ATOM      7  C   UNL     1      35.072  30.831   5.992  1.00  0.00     0.136 A 
ATOM      8  C   UNL     1      35.826  30.160   6.990  1.00  0.00     0.125 A 
ATOM      9  C   UNL     1      35.634  28.811   7.325  1.00  0.00     0.078 A 
ATOM     10  C   UNL     1      36.414  28.218   8.324  1.00  0.00     0.223 A 
ENDROOT
BRANCH   1  11
ATOM     11  C   UNL     1      38.277  28.431  10.019  1.00  0.00     0.087 A 
ATOM     12  C   UNL     1      39.368  27.631   9.654  1.00  0.00     0.022 A 
ATOM     13  C   UNL     1      40.197  27.077  10.632  1.00  0.00     0.051 A 
ATOM     14  C   UNL     1      39.947  27.299  11.990  1.00  0.00     0.157 A 
ATOM     15  C   UNL     1      38.008  28.638  11.382  1.00  0.00     0.068 A 
ATOM     16  C   UNL     1      38.832  28.084  12.371  1.00  0.00     0.158 A 
BRANCH  14  17
ATOM     17  O   UNL     1      40.817  26.724  12.918  1.00  0.00    -0.504 OA
ATOM     18  H   UNL     1      41.817  26.660  12.790  1.00  0.00     0.293 HD
ENDBRANCH  14  17
BRANCH  16  19
ATOM     19  O   UNL     1      38.507  28.333  13.706  1.00  0.00    -0.504 OA
ATOM     20  H   UNL     1      38.110  29.200  14.038  1.00  0.00     0.293 HD
ENDBRANCH  16  19
ENDBRANCH   1  11
BRANCH  10  21
ATOM     21  O   UNL     1      36.189  26.891   8.692  1.00  0.00    -0.500 OA
ATOM     22  H   UNL     1      36.352  26.565   9.637  1.00  0.00     0.294 HD
ENDBRANCH  10  21
BRANCH   5  23
ATOM     23  O   UNL     1      36.555  34.226   6.184  1.00  0.00    -0.507 OA
ATOM     24  H   UNL     1      35.956  34.956   6.554  1.00  0.00     0.293 HD
ENDBRANCH   5  23
BRANCH   7  25
ATOM     25  O   UNL     1      34.074  30.207   5.238  1.00  0.00    -0.507 OA
ATOM     26  H   UNL     1      33.123  30.535   5.170  1.00  0.00     0.293 HD
ENDBRANCH   7  25
TORSDOF 6
ENDMDL
MODEL 4
REMARK VINA RESULT:    -7.066      3.973      5.375
REMARK INTER + INTRA:          -8.773
REMARK INTER:                  -8.786
REMARK INTRA:                   0.013
REMARK UNBOUND:                -0.262
REMARK SMILES Oc1cc(O)c2cc(O)c(-c3ccc(O)c(O)c3)[o+]c2c1
REMARK SMILES IDX 10 1 19 2 20 3 21 4 2 5 3 6 4 7 6 8 7 9 8 10 11 11 12 12
REMARK SMILES IDX 13 13 14 14 18 15 16 16 15 17 17 19 9 21 1 23 5 25
REMARK H PARENT 15 18 17 20 9 22 1 24 5 26
REMARK Flexibility Score: inf
ROOT
ATOM      1  C   UNL     1      40.243  28.218   7.483  1.00  0.00     0.402 A 
ATOM      2  O   UNL     1      40.522  27.798   8.715  1.00  0.00    -0.202 OA
ATOM      3  C   UNL     1      39.694  27.952   9.743  1.00  0.00     0.368 A 
ATOM      4  C   UNL     1      40.079  27.480  11.000  1.00  0.00     0.162 A 
ATOM      5  C   UNL     1      39.231  27.632  12.099  1.00  0.00     0.128 A 
ATOM      6  C   UNL     1      37.992  28.261  11.941  1.00  0.00     0.093 A 
ATOM      7  C   UNL     1      37.584  28.744  10.692  1.00  0.00     0.136 A 
ATOM      8  C   UNL     1      38.441  28.588   9.571  1.00  0.00     0.125 A 
ATOM      9  C   UNL     1      38.111  29.028   8.280  1.00  0.00     0.078 A 
ATOM     10  C   UNL     1      39.007  28.837   7.223  1.00  0.00     0.223 A 
ENDROOT
BRANCH   1  11
ATOM     11  C   UNL     1      41.252  27.996   6.422  1.00  0.00     0.087 A 
ATOM     12  C   UNL     1      42.577  28.397   6.636  1.00  0.00     0.022 A 
ATOM     13  C   UNL     1      43.540  28.215   5.641  1.00  0.00     0.051 A 
ATOM     14  C   UNL     1      43.198  27.643   4.411  1.00  0.00     0.157 A 
ATOM     15  C   UNL     1      40.899  27.441   5.179  1.00  0.00     0.068 A 
ATOM     16  C   UNL     1      41.857  27.258   4.174  1.00  0.00     0.158 A 
BRANCH  14  17
ATOM     17  O   UNL     1      44.209  27.481   3.462  1.00  0.00    -0.504 OA
ATOM     18  H   UNL     1      44.175  26.810   2.709  1.00  0.00     0.293 HD
ENDBRANCH  14  17
BRANCH  16  19
ATOM     19  O   UNL     1      41.436  26.699   2.966  1.00  0.00    -0.504 OA
ATOM     20  H   UNL     1      41.612  25.742   2.694  1.00  0.00     0.293 HD
ENDBRANCH  16  19
ENDBRANCH   1  11
BRANCH  10  21
ATOM     21  O   UNL     1      38.657  29.229   5.930  1.00  0.00    -0.500 OA
ATOM     22  H   UNL     1      38.140  30.082   5.753  1.00  0.00     0.294 HD
ENDBRANCH  10  21
BRANCH   5  23
ATOM     23  O   UNL     1      39.632  27.153  13.344  1.00  0.00    -0.507 OA
ATOM     24  H   UNL     1      39.000  27.145  14.138  1.00  0.00     0.293 HD
ENDBRANCH   5  23
BRANCH   7  25
ATOM     25  O   UNL     1      36.333  29.362  10.617  1.00  0.00    -0.507 OA
ATOM     26  H   UNL     1      36.088  30.074   9.946  1.00  0.00     0.293 HD
ENDBRANCH   7  25
TORSDOF 6
ENDMDL
MODEL 5
REMARK VINA RESULT:    -6.955      4.070      6.714
REMARK INTER + INTRA:          -8.639
REMARK INTER:                  -8.415
REMARK INTRA:                  -0.224
REMARK UNBOUND:                -0.262
REMARK SMILES Oc1cc(O)c2cc(O)c(-c3ccc(O)c(O)c3)[o+]c2c1
REMARK SMILES IDX 10 1 19 2 20 3 21 4 2 5 3 6 4 7 6 8 7 9 8 10 11 11 12 12
REMARK SMILES IDX 13 13 14 14 18 15 16 16 15 17 17 19 9 21 1 23 5 25
REMARK H PARENT 15 18 17 20 9 22 1 24 5 26
REMARK Flexibility Score: inf
ROOT
ATOM      1  C   UNL     1      39.833  28.671   6.672  1.00  0.00     0.402 A 
ATOM      2  O   UNL     1      38.979  29.549   6.153  1.00  0.00    -0.202 OA
ATOM      3  C   UNL     1      37.893  29.974   6.789  1.00  0.00     0.368 A 
ATOM      4  C   UNL     1      37.054  30.897   6.159  1.00  0.00     0.162 A 
ATOM      5  C   UNL     1      35.905  31.359   6.802  1.00  0.00     0.128 A 
ATOM      6  C   UNL     1      35.590  30.895   8.083  1.00  0.00     0.093 A 
ATOM      7  C   UNL     1      36.414  29.970   8.737  1.00  0.00     0.136 A 
ATOM      8  C   UNL     1      37.585  29.500   8.087  1.00  0.00     0.125 A 
ATOM      9  C   UNL     1      38.476  28.585   8.669  1.00  0.00     0.078 A 
ATOM     10  C   UNL     1      39.613  28.170   7.968  1.00  0.00     0.223 A 
ENDROOT
BRANCH   1  11
ATOM     11  C   UNL     1      41.003  28.266   5.860  1.00  0.00     0.087 A 
ATOM     12  C   UNL     1      42.285  28.690   6.238  1.00  0.00     0.022 A 
ATOM     13  C   UNL     1      43.400  28.337   5.475  1.00  0.00     0.051 A 
ATOM     14  C   UNL     1      43.258  27.569   4.315  1.00  0.00     0.157 A 
ATOM     15  C   UNL     1      40.853  27.513   4.683  1.00  0.00     0.068 A 
ATOM     16  C   UNL     1      41.966  27.157   3.909  1.00  0.00     0.158 A 
BRANCH  14  17
ATOM     17  O   UNL     1      44.413  27.243   3.601  1.00  0.00    -0.504 OA
ATOM     18  H   UNL     1      44.433  26.599   2.823  1.00  0.00     0.293 HD
ENDBRANCH  14  17
BRANCH  16  19
ATOM     19  O   UNL     1      41.743  26.406   2.753  1.00  0.00    -0.504 OA
ATOM     20  H   UNL     1      41.386  25.461   2.754  1.00  0.00     0.293 HD
ENDBRANCH  16  19
ENDBRANCH   1  11
BRANCH  10  21
ATOM     21  O   UNL     1      40.524  27.299   8.566  1.00  0.00    -0.500 OA
ATOM     22  H   UNL     1      41.485  27.570   8.742  1.00  0.00     0.294 HD
ENDBRANCH  10  21
BRANCH   5  23
ATOM     23  O   UNL     1      35.081  32.279   6.157  1.00  0.00    -0.507 OA
ATOM     24  H   UNL     1      34.130  32.046   5.895  1.00  0.00     0.293 HD
ENDBRANCH   5  23
BRANCH   7  25
ATOM     25  O   UNL     1      36.029  29.554  10.014  1.00  0.00    -0.507 OA
ATOM     26  H   UNL     1      35.207  29.884  10.498  1.00  0.00     0.293 HD
ENDBRANCH   7  25
TORSDOF 6
ENDMDL
MODEL 6
REMARK VINA RESULT:    -6.876     12.562     13.284
REMARK INTER + INTRA:          -8.544
REMARK INTER:                  -8.317
REMARK INTRA:                  -0.227
REMARK UNBOUND:                -0.262
REMARK SMILES Oc1cc(O)c2cc(O)c(-c3ccc(O)c(O)c3)[o+]c2c1
REMARK SMILES IDX 10 1 19 2 20 3 21 4 2 5 3 6 4 7 6 8 7 9 8 10 11 11 12 12
REMARK SMILES IDX 13 13 14 14 18 15 16 16 15 17 17 19 9 21 1 23 5 25
REMARK H PARENT 15 18 17 20 9 22 1 24 5 26
REMARK Flexibility Score: inf
ROOT
ATOM      1  C   UNL     1      46.872  38.562   8.813  1.00  0.00     0.402 A 
ATOM      2  O   UNL     1      47.881  37.699   8.905  1.00  0.00    -0.202 OA
ATOM      3  C   UNL     1      48.393  37.297  10.063  1.00  0.00     0.368 A 
ATOM      4  C   UNL     1      49.455  36.389  10.057  1.00  0.00     0.162 A 
ATOM      5  C   UNL     1      50.016  35.952  11.258  1.00  0.00     0.128 A 
ATOM      6  C   UNL     1      49.513  36.426  12.474  1.00  0.00     0.093 A 
ATOM      7  C   UNL     1      48.450  37.337  12.508  1.00  0.00     0.136 A 
ATOM      8  C   UNL     1      47.875  37.781  11.288  1.00  0.00     0.125 A 
ATOM      9  C   UNL     1      46.800  38.681  11.225  1.00  0.00     0.078 A 
ATOM     10  C   UNL     1      46.283  39.070   9.985  1.00  0.00     0.223 A 
ENDROOT
BRANCH   1  11
ATOM     11  C   UNL     1      46.395  38.940   7.463  1.00  0.00     0.087 A 
ATOM     12  C   UNL     1      45.144  38.488   7.022  1.00  0.00     0.022 A 
ATOM     13  C   UNL     1      44.683  38.816   5.745  1.00  0.00     0.051 A 
ATOM     14  C   UNL     1      45.465  39.588   4.880  1.00  0.00     0.157 A 
ATOM     15  C   UNL     1      47.194  39.697   6.589  1.00  0.00     0.068 A 
ATOM     16  C   UNL     1      46.741  40.028   5.305  1.00  0.00     0.158 A 
BRANCH  14  17
ATOM     17  O   UNL     1      44.943  39.889   3.620  1.00  0.00    -0.504 OA
ATOM     18  H   UNL     1      45.152  39.365   2.783  1.00  0.00     0.293 HD
ENDBRANCH  14  17
BRANCH  16  19
ATOM     19  O   UNL     1      47.587  40.785   4.491  1.00  0.00    -0.504 OA
ATOM     20  H   UNL     1      47.320  41.158   3.591  1.00  0.00     0.293 HD
ENDBRANCH  16  19
ENDBRANCH   1  11
BRANCH  10  21
ATOM     21  O   UNL     1      45.182  39.925   9.923  1.00  0.00    -0.500 OA
ATOM     22  H   UNL     1      45.150  40.792  10.445  1.00  0.00     0.294 HD
ENDBRANCH  10  21
BRANCH   5  23
ATOM     23  O   UNL     1      51.074  35.046  11.231  1.00  0.00    -0.507 OA
ATOM     24  H   UNL     1      50.914  34.046  11.167  1.00  0.00     0.293 HD
ENDBRANCH   5  23
BRANCH   7  25
ATOM     25  O   UNL     1      48.007  37.764  13.762  1.00  0.00    -0.507 OA
ATOM     26  H   UNL     1      47.116  38.206  13.932  1.00  0.00     0.293 HD
ENDBRANCH   7  25
TORSDOF 6
ENDMDL
MODEL 7
REMARK VINA RESULT:    -6.844      3.284      6.879
REMARK INTER + INTRA:          -8.506
REMARK INTER:                  -8.212
REMARK INTRA:                  -0.294
REMARK UNBOUND:                -0.262
REMARK SMILES Oc1cc(O)c2cc(O)c(-c3ccc(O)c(O)c3)[o+]c2c1
REMARK SMILES IDX 10 1 19 2 20 3 21 4 2 5 3 6 4 7 6 8 7 9 8 10 11 11 12 12
REMARK SMILES IDX 13 13 14 14 18 15 16 16 15 17 17 19 9 21 1 23 5 25
REMARK H PARENT 15 18 17 20 9 22 1 24 5 26
REMARK Flexibility Score: inf
ROOT
ATOM      1  C   UNL     1      38.202  29.079   6.923  1.00  0.00     0.402 A 
ATOM      2  O   UNL     1      37.732  30.151   6.289  1.00  0.00    -0.202 OA
ATOM      3  C   UNL     1      36.458  30.524   6.332  1.00  0.00     0.368 A 
ATOM      4  C   UNL     1      36.060  31.665   5.630  1.00  0.00     0.162 A 
ATOM      5  C   UNL     1      34.727  32.078   5.653  1.00  0.00     0.128 A 
ATOM      6  C   UNL     1      33.784  31.346   6.382  1.00  0.00     0.093 A 
ATOM      7  C   UNL     1      34.157  30.199   7.094  1.00  0.00     0.136 A 
ATOM      8  C   UNL     1      35.512  29.778   7.075  1.00  0.00     0.125 A 
ATOM      9  C   UNL     1      35.980  28.650   7.768  1.00  0.00     0.078 A 
ATOM     10  C   UNL     1      37.332  28.298   7.705  1.00  0.00     0.223 A 
ENDROOT
BRANCH   1  11
ATOM     11  C   UNL     1      39.642  28.762   6.790  1.00  0.00     0.087 A 
ATOM     12  C   UNL     1      40.517  29.075   7.840  1.00  0.00     0.022 A 
ATOM     13  C   UNL     1      41.882  28.803   7.728  1.00  0.00     0.051 A 
ATOM     14  C   UNL     1      42.402  28.227   6.565  1.00  0.00     0.157 A 
ATOM     15  C   UNL     1      40.164  28.204   5.611  1.00  0.00     0.068 A 
ATOM     16  C   UNL     1      41.533  27.930   5.488  1.00  0.00     0.158 A 
BRANCH  14  17
ATOM     17  O   UNL     1      43.774  27.972   6.519  1.00  0.00    -0.504 OA
ATOM     18  H   UNL     1      44.330  28.021   5.678  1.00  0.00     0.293 HD
ENDBRANCH  14  17
BRANCH  16  19
ATOM     19  O   UNL     1      41.981  27.373   4.289  1.00  0.00    -0.504 OA
ATOM     20  H   UNL     1      42.408  26.461   4.214  1.00  0.00     0.293 HD
ENDBRANCH  16  19
ENDBRANCH   1  11
BRANCH  10  21
ATOM     21  O   UNL     1      37.806  27.207   8.434  1.00  0.00    -0.500 OA
ATOM     22  H   UNL     1      38.599  26.660   8.120  1.00  0.00     0.294 HD
ENDBRANCH  10  21
BRANCH   5  23
ATOM     23  O   UNL     1      34.350  33.218   4.947  1.00  0.00    -0.507 OA
ATOM     24  H   UNL     1      33.375  33.475   4.836  1.00  0.00     0.293 HD
ENDBRANCH   5  23
BRANCH   7  25
ATOM     25  O   UNL     1      33.156  29.522   7.796  1.00  0.00    -0.507 OA
ATOM     26  H   UNL     1      32.444  29.973   8.351  1.00  0.00     0.293 HD
ENDBRANCH   7  25
TORSDOF 6
ENDMDL
MODEL 8
REMARK VINA RESULT:    -6.763      1.751      7.124
REMARK INTER + INTRA:          -8.409
REMARK INTER:                  -8.077
REMARK INTRA:                  -0.331
REMARK UNBOUND:                -0.262
REMARK SMILES Oc1cc(O)c2cc(O)c(-c3ccc(O)c(O)c3)[o+]c2c1
REMARK SMILES IDX 10 1 19 2 20 3 21 4 2 5 3 6 4 7 6 8 7 9 8 10 11 11 12 12
REMARK SMILES IDX 13 13 14 14 18 15 16 16 15 17 17 19 9 21 1 23 5 25
REMARK H PARENT 15 18 17 20 9 22 1 24 5 26
REMARK Flexibility Score: inf
ROOT
ATOM      1  C   UNL     1      38.184  28.964   8.566  1.00  0.00     0.402 A 
ATOM      2  O   UNL     1      36.866  29.116   8.465  1.00  0.00    -0.202 OA
ATOM      3  C   UNL     1      36.282  29.771   7.468  1.00  0.00     0.368 A 
ATOM      4  C   UNL     1      34.889  29.880   7.451  1.00  0.00     0.162 A 
ATOM      5  C   UNL     1      34.248  30.566   6.419  1.00  0.00     0.128 A 
ATOM      6  C   UNL     1      35.004  31.149   5.396  1.00  0.00     0.093 A 
ATOM      7  C   UNL     1      36.401  31.055   5.390  1.00  0.00     0.136 A 
ATOM      8  C   UNL     1      37.056  30.355   6.437  1.00  0.00     0.125 A 
ATOM      9  C   UNL     1      38.449  30.198   6.507  1.00  0.00     0.078 A 
ATOM     10  C   UNL     1      39.023  29.491   7.568  1.00  0.00     0.223 A 
ENDROOT
BRANCH   1  11
ATOM     11  C   UNL     1      38.717  28.219   9.731  1.00  0.00     0.087 A 
ATOM     12  C   UNL     1      39.225  28.928  10.828  1.00  0.00     0.022 A 
ATOM     13  C   UNL     1      39.749  28.246  11.928  1.00  0.00     0.051 A 
ATOM     14  C   UNL     1      39.791  26.849  11.949  1.00  0.00     0.157 A 
ATOM     15  C   UNL     1      38.777  26.815   9.738  1.00  0.00     0.068 A 
ATOM     16  C   UNL     1      39.304  26.123  10.836  1.00  0.00     0.158 A 
BRANCH  14  17
ATOM     17  O   UNL     1      40.320  26.227  13.082  1.00  0.00    -0.504 OA
ATOM     18  H   UNL     1      39.778  25.669  13.726  1.00  0.00     0.293 HD
ENDBRANCH  14  17
BRANCH  16  19
ATOM     19  O   UNL     1      39.331  24.728  10.775  1.00  0.00    -0.504 OA
ATOM     20  H   UNL     1      39.803  24.142  11.449  1.00  0.00     0.293 HD
ENDBRANCH  16  19
ENDBRANCH   1  11
BRANCH  10  21
ATOM     21  O   UNL     1      40.404  29.293   7.611  1.00  0.00    -0.500 OA
ATOM     22  H   UNL     1      40.983  29.722   8.322  1.00  0.00     0.294 HD
ENDBRANCH  10  21
BRANCH   5  23
ATOM     23  O   UNL     1      32.859  30.663   6.419  1.00  0.00    -0.507 OA
ATOM     24  H   UNL     1      32.377  31.373   6.960  1.00  0.00     0.293 HD
ENDBRANCH   5  23
BRANCH   7  25
ATOM     25  O   UNL     1      37.083  31.666   4.334  1.00  0.00    -0.507 OA
ATOM     26  H   UNL     1      37.739  32.425   4.443  1.00  0.00     0.293 HD
ENDBRANCH   7  25
TORSDOF 6
ENDMDL
MODEL 9
REMARK VINA RESULT:    -6.717      4.383      6.052
REMARK INTER + INTRA:          -8.353
REMARK INTER:                  -8.162
REMARK INTRA:                  -0.191
REMARK UNBOUND:                -0.262
REMARK SMILES Oc1cc(O)c2cc(O)c(-c3ccc(O)c(O)c3)[o+]c2c1
REMARK SMILES IDX 10 1 19 2 20 3 21 4 2 5 3 6 4 7 6 8 7 9 8 10 11 11 12 12
REMARK SMILES IDX 13 13 14 14 18 15 16 16 15 17 17 19 9 21 1 23 5 25
REMARK H PARENT 15 18 17 20 9 22 1 24 5 26
REMARK Flexibility Score: inf
ROOT
ATOM      1  C   UNL     1      39.196  28.969   6.506  1.00  0.00     0.402 A 
ATOM      2  O   UNL     1      39.591  28.220   5.480  1.00  0.00    -0.202 OA
ATOM      3  C   UNL     1      40.868  28.038   5.159  1.00  0.00     0.368 A 
ATOM      4  C   UNL     1      41.183  27.234   4.060  1.00  0.00     0.162 A 
ATOM      5  C   UNL     1      42.515  27.028   3.697  1.00  0.00     0.128 A 
ATOM      6  C   UNL     1      43.539  27.630   4.436  1.00  0.00     0.093 A 
ATOM      7  C   UNL     1      43.250  28.440   5.541  1.00  0.00     0.136 A 
ATOM      8  C   UNL     1      41.896  28.649   5.915  1.00  0.00     0.125 A 
ATOM      9  C   UNL     1      41.512  29.434   7.014  1.00  0.00     0.078 A 
ATOM     10  C   UNL     1      40.157  29.591   7.324  1.00  0.00     0.223 A 
ENDROOT
BRANCH   1  11
ATOM     11  C   UNL     1      37.743  29.103   6.757  1.00  0.00     0.087 A 
ATOM     12  C   UNL     1      37.141  30.366   6.670  1.00  0.00     0.022 A 
ATOM     13  C   UNL     1      35.776  30.518   6.922  1.00  0.00     0.051 A 
ATOM     14  C   UNL     1      34.989  29.419   7.279  1.00  0.00     0.157 A 
ATOM     15  C   UNL     1      36.960  27.999   7.138  1.00  0.00     0.068 A 
ATOM     16  C   UNL     1      35.590  28.143   7.396  1.00  0.00     0.158 A 
BRANCH  14  17
ATOM     17  O   UNL     1      33.629  29.636   7.510  1.00  0.00    -0.504 OA
ATOM     18  H   UNL     1      32.891  29.084   7.097  1.00  0.00     0.293 HD
ENDBRANCH  14  17
BRANCH  16  19
ATOM     19  O   UNL     1      34.874  27.003   7.767  1.00  0.00    -0.504 OA
ATOM     20  H   UNL     1      34.789  26.177   7.192  1.00  0.00     0.293 HD
ENDBRANCH  16  19
ENDBRANCH   1  11
BRANCH  10  21
ATOM     21  O   UNL     1      39.777  30.329   8.445  1.00  0.00    -0.500 OA
ATOM     22  H   UNL     1      39.241  29.915   9.199  1.00  0.00     0.294 HD
ENDBRANCH  10  21
BRANCH   5  23
ATOM     23  O   UNL     1      42.810  26.223   2.599  1.00  0.00    -0.507 OA
ATOM     24  H   UNL     1      42.323  25.348   2.438  1.00  0.00     0.293 HD
ENDBRANCH   5  23
BRANCH   7  25
ATOM     25  O   UNL     1      44.328  29.006   6.225  1.00  0.00    -0.507 OA
ATOM     26  H   UNL     1      44.427  29.012   7.229  1.00  0.00     0.293 HD
ENDBRANCH   7  25
TORSDOF 6
ENDMDL
