MODEL 1
REMARK VINA RESULT:    -1.808      0.000      0.000
REMARK INTER + INTRA:          -3.543
REMARK INTER:                  -3.288
REMARK INTRA:                  -0.255
REMARK UNBOUND:                -0.255
REMARK SMILES CCCCCCCCCCCCCCCC(=O)[O-]
REMARK SMILES IDX 9 1 10 2 11 3 12 4 13 5 14 6 15 7 16 8 17 9 18 10 8 11 7 12
REMARK SMILES IDX 6 13 5 14 4 15 3 16 2 17 1 18
REMARK H PARENT
REMARK Flexibility Score: inf
ROOT
ATOM      1  C   UNL     1       2.408  60.909  -5.513  1.00  0.00     0.000 C 
ENDROOT
BRANCH   1   2
ATOM      2  C   UNL     1       1.391  60.018  -4.787  1.00  0.00     0.000 C 
BRANCH   2   3
ATOM      3  C   UNL     1      -0.042  60.337  -5.239  1.00  0.00     0.000 C 
BRANCH   3   4
ATOM      4  C   UNL     1      -1.104  59.667  -4.354  1.00  0.00     0.000 C 
BRANCH   4   5
ATOM      5  C   UNL     1      -2.336  60.556  -4.129  1.00  0.00     0.000 C 
BRANCH   5   6
ATOM      6  C   UNL     1      -3.631  59.751  -4.292  1.00  0.00     0.006 C 
BRANCH   6   7
ATOM      7  C   UNL     1      -3.645  58.996  -5.625  1.00  0.00     0.053 C 
BRANCH   7   8
ATOM      8  C   UNL     1      -4.393  59.776  -6.659  1.00  0.00     0.041 C 
ATOM      9  O   UNL     1      -4.892  59.191  -7.656  1.00  0.00    -0.550 OA
ATOM     10  O   UNL     1      -4.582  61.142  -6.496  1.00  0.00    -0.550 OA
ENDBRANCH   7   8
ENDBRANCH   6   7
ENDBRANCH   5   6
ENDBRANCH   4   5
ENDBRANCH   3   4
ENDBRANCH   2   3
ENDBRANCH   1   2
BRANCH   1  11
ATOM     11  C   UNL     1       2.144  60.923  -7.026  1.00  0.00     0.000 C 
BRANCH  11  12
ATOM     12  C   UNL     1       1.917  59.516  -7.602  1.00  0.00    -0.000 C 
BRANCH  12  13
ATOM     13  C   UNL     1       3.215  58.877  -8.124  1.00  0.00    -0.000 C 
BRANCH  13  14
ATOM     14  C   UNL     1       4.444  59.785  -7.940  1.00  0.00    -0.000 C 
BRANCH  14  15
ATOM     15  C   UNL     1       5.807  59.088  -8.125  1.00  0.00    -0.000 C 
BRANCH  15  16
ATOM     16  C   UNL     1       7.003  59.796  -7.456  1.00  0.00    -0.000 C 
BRANCH  16  17
ATOM     17  C   UNL     1       8.245  58.911  -7.252  1.00  0.00    -0.003 C 
ATOM     18  C   UNL     1       9.435  59.349  -8.105  1.00  0.00     0.004 C 
ENDBRANCH  16  17
ENDBRANCH  15  16
ENDBRANCH  14  15
ENDBRANCH  13  14
ENDBRANCH  12  13
ENDBRANCH  11  12
ENDBRANCH   1  11
TORSDOF 14
ENDMDL
MODEL 2
REMARK VINA RESULT:     0.572      3.516      8.410
REMARK INTER + INTRA:           0.786
REMARK INTER:                  -0.775
REMARK INTRA:                   1.561
REMARK UNBOUND:                -0.255
REMARK SMILES CCCCCCCCCCCCCCCC(=O)[O-]
REMARK SMILES IDX 9 1 10 2 11 3 12 4 13 5 14 6 15 7 16 8 17 9 18 10 8 11 7 12
REMARK SMILES IDX 6 13 5 14 4 15 3 16 2 17 1 18
REMARK H PARENT
REMARK Flexibility Score: inf
ROOT
ATOM      1  C   UNL     1      -1.663  58.878  -4.353  1.00  0.00     0.000 C 
ENDROOT
BRANCH   1   2
ATOM      2  C   UNL     1      -1.284  60.141  -5.136  1.00  0.00     0.000 C 
BRANCH   2   3
ATOM      3  C   UNL     1      -0.054  59.892  -6.021  1.00  0.00     0.000 C 
BRANCH   3   4
ATOM      4  C   UNL     1       1.242  59.752  -5.207  1.00  0.00     0.000 C 
BRANCH   4   5
ATOM      5  C   UNL     1       2.429  60.486  -5.849  1.00  0.00     0.000 C 
BRANCH   5   6
ATOM      6  C   UNL     1       2.114  60.876  -7.298  1.00  0.00     0.006 C 
BRANCH   6   7
ATOM      7  C   UNL     1       3.400  61.043  -8.114  1.00  0.00     0.053 C 
BRANCH   7   8
ATOM      8  C   UNL     1       4.396  59.992  -7.738  1.00  0.00     0.041 C 
ATOM      9  O   UNL     1       4.008  58.877  -7.302  1.00  0.00    -0.550 OA
ATOM     10  O   UNL     1       5.754  60.227  -7.916  1.00  0.00    -0.550 OA
ENDBRANCH   7   8
ENDBRANCH   6   7
ENDBRANCH   5   6
ENDBRANCH   4   5
ENDBRANCH   3   4
ENDBRANCH   2   3
ENDBRANCH   1   2
BRANCH   1  11
ATOM     11  C   UNL     1      -2.912  59.120  -3.491  1.00  0.00     0.000 C 
BRANCH  11  12
ATOM     12  C   UNL     1      -3.612  60.448  -3.821  1.00  0.00    -0.000 C 
BRANCH  12  13
ATOM     13  C   UNL     1      -4.553  60.332  -5.032  1.00  0.00    -0.000 C 
BRANCH  13  14
ATOM     14  C   UNL     1      -4.521  58.936  -5.683  1.00  0.00    -0.000 C 
BRANCH  14  15
ATOM     15  C   UNL     1      -4.602  58.930  -7.223  1.00  0.00    -0.000 C 
BRANCH  15  16
ATOM     16  C   UNL     1      -3.566  59.820  -7.939  1.00  0.00    -0.000 C 
BRANCH  16  17
ATOM     17  C   UNL     1      -3.991  61.287  -8.122  1.00  0.00    -0.003 C 
ATOM     18  C   UNL     1      -5.099  61.711  -7.159  1.00  0.00     0.004 C 
ENDBRANCH  16  17
ENDBRANCH  15  16
ENDBRANCH  14  15
ENDBRANCH  13  14
ENDBRANCH  12  13
ENDBRANCH  11  12
ENDBRANCH   1  11
TORSDOF 14
ENDMDL
MODEL 3
REMARK VINA RESULT:     0.746      3.419      6.127
REMARK INTER + INTRA:           1.101
REMARK INTER:                   1.410
REMARK INTRA:                  -0.309
REMARK UNBOUND:                -0.255
REMARK SMILES CCCCCCCCCCCCCCCC(=O)[O-]
REMARK SMILES IDX 9 1 10 2 11 3 12 4 13 5 14 6 15 7 16 8 17 9 18 10 8 11 7 12
REMARK SMILES IDX 6 13 5 14 4 15 3 16 2 17 1 18
REMARK H PARENT
REMARK Flexibility Score: inf
ROOT
ATOM      1  C   UNL     1       1.711  60.770  -6.276  1.00  0.00     0.000 C 
ENDROOT
BRANCH   1   2
ATOM      2  C   UNL     1       2.383  60.904  -4.904  1.00  0.00     0.000 C 
BRANCH   2   3
ATOM      3  C   UNL     1       1.735  59.961  -3.879  1.00  0.00     0.000 C 
BRANCH   3   4
ATOM      4  C   UNL     1       0.207  59.883  -4.030  1.00  0.00     0.000 C 
BRANCH   4   5
ATOM      5  C   UNL     1      -0.538  60.611  -2.902  1.00  0.00     0.000 C 
BRANCH   5   6
ATOM      6  C   UNL     1      -1.544  59.678  -2.216  1.00  0.00     0.006 C 
BRANCH   6   7
ATOM      7  C   UNL     1      -2.437  58.981  -3.247  1.00  0.00     0.053 C 
BRANCH   7   8
ATOM      8  C   UNL     1      -3.681  59.777  -3.483  1.00  0.00     0.041 C 
ATOM      9  O   UNL     1      -3.612  60.926  -3.991  1.00  0.00    -0.550 OA
ATOM     10  O   UNL     1      -4.923  59.228  -3.188  1.00  0.00    -0.550 OA
ENDBRANCH   7   8
ENDBRANCH   6   7
ENDBRANCH   5   6
ENDBRANCH   4   5
ENDBRANCH   3   4
ENDBRANCH   2   3
ENDBRANCH   1   2
BRANCH   1  11
ATOM     11  C   UNL     1       1.547  59.294  -6.666  1.00  0.00     0.000 C 
BRANCH  11  12
ATOM     12  C   UNL     1       1.008  59.114  -8.094  1.00  0.00    -0.000 C 
BRANCH  12  13
ATOM     13  C   UNL     1      -0.512  58.880  -8.125  1.00  0.00    -0.000 C 
BRANCH  13  14
ATOM     14  C   UNL     1      -1.156  58.952  -6.728  1.00  0.00    -0.000 C 
BRANCH  14  15
ATOM     15  C   UNL     1      -2.696  59.037  -6.721  1.00  0.00    -0.000 C 
BRANCH  15  16
ATOM     16  C   UNL     1      -3.337  59.439  -8.065  1.00  0.00    -0.000 C 
BRANCH  16  17
ATOM     17  C   UNL     1      -4.055  60.799  -8.056  1.00  0.00    -0.003 C 
ATOM     18  C   UNL     1      -5.017  60.958  -6.880  1.00  0.00     0.004 C 
ENDBRANCH  16  17
ENDBRANCH  15  16
ENDBRANCH  14  15
ENDBRANCH  13  14
ENDBRANCH  12  13
ENDBRANCH  11  12
ENDBRANCH   1  11
TORSDOF 14
ENDMDL
MODEL 4
REMARK VINA RESULT:     0.845      4.107      6.836
REMARK INTER + INTRA:           1.283
REMARK INTER:                   1.633
REMARK INTRA:                  -0.351
REMARK UNBOUND:                -0.255
REMARK SMILES CCCCCCCCCCCCCCCC(=O)[O-]
REMARK SMILES IDX 9 1 10 2 11 3 12 4 13 5 14 6 15 7 16 8 17 9 18 10 8 11 7 12
REMARK SMILES IDX 6 13 5 14 4 15 3 16 2 17 1 18
REMARK H PARENT
REMARK Flexibility Score: inf
ROOT
ATOM      1  C   UNL     1      -3.122  60.718  -4.297  1.00  0.00     0.000 C 
ENDROOT
BRANCH   1   2
ATOM      2  C   UNL     1      -1.701  60.175  -4.491  1.00  0.00     0.000 C 
BRANCH   2   3
ATOM      3  C   UNL     1      -0.727  60.810  -3.486  1.00  0.00     0.000 C 
BRANCH   3   4
ATOM      4  C   UNL     1       0.720  60.332  -3.683  1.00  0.00     0.000 C 
BRANCH   4   5
ATOM      5  C   UNL     1       1.510  60.273  -2.367  1.00  0.00     0.000 C 
BRANCH   5   6
ATOM      6  C   UNL     1       0.566  60.285  -1.159  1.00  0.00     0.006 C 
BRANCH   6   7
ATOM      7  C   UNL     1       1.315  60.674   0.119  1.00  0.00     0.053 C 
BRANCH   7   8
ATOM      8  C   UNL     1       1.573  62.147   0.145  1.00  0.00     0.041 C 
ATOM      9  O   UNL     1       2.134  62.676   1.141  1.00  0.00    -0.550 OA
ATOM     10  O   UNL     1       1.238  62.931  -0.952  1.00  0.00    -0.550 OA
ENDBRANCH   7   8
ENDBRANCH   6   7
ENDBRANCH   5   6
ENDBRANCH   4   5
ENDBRANCH   3   4
ENDBRANCH   2   3
ENDBRANCH   1   2
BRANCH   1  11
ATOM     11  C   UNL     1      -4.159  59.783  -4.937  1.00  0.00     0.000 C 
BRANCH  11  12
ATOM     12  C   UNL     1      -4.621  60.268  -6.321  1.00  0.00    -0.000 C 
BRANCH  12  13
ATOM     13  C   UNL     1      -3.510  60.168  -7.380  1.00  0.00    -0.000 C 
BRANCH  13  14
ATOM     14  C   UNL     1      -2.655  58.897  -7.231  1.00  0.00    -0.000 C 
BRANCH  14  15
ATOM     15  C   UNL     1      -1.362  58.875  -8.071  1.00  0.00    -0.000 C 
BRANCH  15  16
ATOM     16  C   UNL     1      -0.051  58.875  -7.259  1.00  0.00    -0.000 C 
BRANCH  16  17
ATOM     17  C   UNL     1       1.213  59.202  -8.072  1.00  0.00    -0.003 C 
ATOM     18  C   UNL     1       2.472  59.280  -7.211  1.00  0.00     0.004 C 
ENDBRANCH  16  17
ENDBRANCH  15  16
ENDBRANCH  14  15
ENDBRANCH  13  14
ENDBRANCH  12  13
ENDBRANCH  11  12
ENDBRANCH   1  11
TORSDOF 14
ENDMDL
MODEL 5
REMARK VINA RESULT:     0.923      2.884      5.190
REMARK INTER + INTRA:           1.424
REMARK INTER:                   1.722
REMARK INTRA:                  -0.298
REMARK UNBOUND:                -0.255
REMARK SMILES CCCCCCCCCCCCCCCC(=O)[O-]
REMARK SMILES IDX 9 1 10 2 11 3 12 4 13 5 14 6 15 7 16 8 17 9 18 10 8 11 7 12
REMARK SMILES IDX 6 13 5 14 4 15 3 16 2 17 1 18
REMARK H PARENT
REMARK Flexibility Score: inf
ROOT
ATOM      1  C   UNL     1       1.284  60.684  -7.346  1.00  0.00     0.000 C 
ENDROOT
BRANCH   1   2
ATOM      2  C   UNL     1       1.018  59.208  -7.669  1.00  0.00     0.000 C 
BRANCH   2   3
ATOM      3  C   UNL     1      -0.469  58.970  -7.970  1.00  0.00     0.000 C 
BRANCH   3   4
ATOM      4  C   UNL     1      -1.322  58.875  -6.696  1.00  0.00     0.000 C 
BRANCH   4   5
ATOM      5  C   UNL     1      -2.830  58.885  -6.989  1.00  0.00     0.000 C 
BRANCH   5   6
ATOM      6  C   UNL     1      -3.476  60.189  -6.503  1.00  0.00     0.006 C 
BRANCH   6   7
ATOM      7  C   UNL     1      -2.967  60.566  -5.108  1.00  0.00     0.053 C 
BRANCH   7   8
ATOM      8  C   UNL     1      -3.529  59.638  -4.079  1.00  0.00     0.041 C 
ATOM      9  O   UNL     1      -4.685  59.160  -4.219  1.00  0.00    -0.550 OA
ATOM     10  O   UNL     1      -2.756  59.261  -2.988  1.00  0.00    -0.550 OA
ENDBRANCH   7   8
ENDBRANCH   6   7
ENDBRANCH   5   6
ENDBRANCH   4   5
ENDBRANCH   3   4
ENDBRANCH   2   3
ENDBRANCH   1   2
BRANCH   1  11
ATOM     11  C   UNL     1       2.670  60.865  -6.708  1.00  0.00     0.000 C 
BRANCH  11  12
ATOM     12  C   UNL     1       3.122  59.631  -5.911  1.00  0.00    -0.000 C 
BRANCH  12  13
ATOM     13  C   UNL     1       2.329  59.449  -4.606  1.00  0.00    -0.000 C 
BRANCH  13  14
ATOM     14  C   UNL     1       1.127  60.406  -4.499  1.00  0.00    -0.000 C 
BRANCH  14  15
ATOM     15  C   UNL     1       0.960  61.097  -3.131  1.00  0.00    -0.000 C 
BRANCH  15  16
ATOM     16  C   UNL     1       0.472  60.183  -1.989  1.00  0.00    -0.000 C 
BRANCH  16  17
ATOM     17  C   UNL     1       1.154  60.425  -0.631  1.00  0.00    -0.003 C 
ATOM     18  C   UNL     1       1.273  61.907  -0.280  1.00  0.00     0.004 C 
ENDBRANCH  16  17
ENDBRANCH  15  16
ENDBRANCH  14  15
ENDBRANCH  13  14
ENDBRANCH  12  13
ENDBRANCH  11  12
ENDBRANCH   1  11
TORSDOF 14
ENDMDL
MODEL 6
REMARK VINA RESULT:     1.099      2.713      4.984
REMARK INTER + INTRA:           1.744
REMARK INTER:                   2.536
REMARK INTRA:                  -0.792
REMARK UNBOUND:                -0.255
REMARK SMILES CCCCCCCCCCCCCCCC(=O)[O-]
REMARK SMILES IDX 9 1 10 2 11 3 12 4 13 5 14 6 15 7 16 8 17 9 18 10 8 11 7 12
REMARK SMILES IDX 6 13 5 14 4 15 3 16 2 17 1 18
REMARK H PARENT
REMARK Flexibility Score: inf
ROOT
ATOM      1  C   UNL     1       1.265  60.485  -6.560  1.00  0.00     0.000 C 
ENDROOT
BRANCH   1   2
ATOM      2  C   UNL     1       0.569  59.255  -7.156  1.00  0.00     0.000 C 
BRANCH   2   3
ATOM      3  C   UNL     1      -0.674  58.875  -6.337  1.00  0.00     0.000 C 
BRANCH   3   4
ATOM      4  C   UNL     1      -1.238  60.058  -5.535  1.00  0.00     0.000 C 
BRANCH   4   5
ATOM      5  C   UNL     1      -2.016  59.613  -4.288  1.00  0.00     0.000 C 
BRANCH   5   6
ATOM      6  C   UNL     1      -3.509  59.931  -4.429  1.00  0.00     0.006 C 
BRANCH   6   7
ATOM      7  C   UNL     1      -3.744  61.000  -5.500  1.00  0.00     0.053 C 
BRANCH   7   8
ATOM      8  C   UNL     1      -4.328  60.385  -6.732  1.00  0.00     0.041 C 
ATOM      9  O   UNL     1      -4.875  59.253  -6.678  1.00  0.00    -0.550 OA
ATOM     10  O   UNL     1      -4.314  61.086  -7.932  1.00  0.00    -0.550 OA
ENDBRANCH   7   8
ENDBRANCH   6   7
ENDBRANCH   5   6
ENDBRANCH   4   5
ENDBRANCH   3   4
ENDBRANCH   2   3
ENDBRANCH   1   2
BRANCH   1  11
ATOM     11  C   UNL     1       2.778  60.254  -6.436  1.00  0.00     0.000 C 
BRANCH  11  12
ATOM     12  C   UNL     1       3.120  58.943  -5.709  1.00  0.00    -0.000 C 
BRANCH  12  13
ATOM     13  C   UNL     1       3.057  59.085  -4.179  1.00  0.00    -0.000 C 
BRANCH  13  14
ATOM     14  C   UNL     1       1.622  59.275  -3.654  1.00  0.00    -0.000 C 
BRANCH  14  15
ATOM     15  C   UNL     1       1.248  60.723  -3.278  1.00  0.00    -0.000 C 
BRANCH  15  16
ATOM     16  C   UNL     1       0.611  60.896  -1.885  1.00  0.00    -0.000 C 
BRANCH  16  17
ATOM     17  C   UNL     1       0.949  59.784  -0.877  1.00  0.00    -0.003 C 
ATOM     18  C   UNL     1      -0.049  59.702   0.277  1.00  0.00     0.004 C 
ENDBRANCH  16  17
ENDBRANCH  15  16
ENDBRANCH  14  15
ENDBRANCH  13  14
ENDBRANCH  12  13
ENDBRANCH  11  12
ENDBRANCH   1  11
TORSDOF 14
ENDMDL
