MODEL 1
REMARK VINA RESULT:    -7.347      0.000      0.000
REMARK INTER + INTRA:         -18.433
REMARK INTER:                 -16.796
REMARK INTRA:                  -1.637
REMARK UNBOUND:                -1.637
REMARK SMILES CCCCCCCCCCCCCCCCCCCCCCCC(=O)[O-]
REMARK SMILES IDX 13 1 14 2 15 3 16 4 17 5 18 6 19 7 20 8 21 9 22 10 23 11
REMARK SMILES IDX 24 12 25 13 26 14 12 15 11 16 10 17 9 18 8 19 7 20 6 21 5 22
REMARK SMILES IDX 4 23 3 24 2 25 1 26
REMARK H PARENT
REMARK Flexibility Score: inf
ROOT
ATOM      1  C   UNL     1       5.965  -0.024  19.828  1.00  0.00     0.000 C 
ENDROOT
BRANCH   1   2
ATOM      2  C   UNL     1       6.133  -0.906  21.083  1.00  0.00     0.000 C 
BRANCH   2   3
ATOM      3  C   UNL     1       4.837  -1.561  21.598  1.00  0.00     0.000 C 
BRANCH   3   4
ATOM      4  C   UNL     1       4.998  -2.996  22.140  1.00  0.00     0.000 C 
BRANCH   4   5
ATOM      5  C   UNL     1       4.789  -4.111  21.097  1.00  0.00     0.000 C 
BRANCH   5   6
ATOM      6  C   UNL     1       5.322  -3.731  19.704  1.00  0.00     0.000 C 
BRANCH   6   7
ATOM      7  C   UNL     1       6.668  -4.421  19.384  1.00  0.00     0.000 C 
BRANCH   7   8
ATOM      8  C   UNL     1       7.751  -4.201  20.457  1.00  0.00     0.000 C 
BRANCH   8   9
ATOM      9  C   UNL     1       8.272  -5.484  21.125  1.00  0.00     0.000 C 
BRANCH   9  10
ATOM     10  C   UNL     1       7.142  -6.411  21.597  1.00  0.00     0.006 C 
BRANCH  10  11
ATOM     11  C   UNL     1       7.527  -7.881  21.403  1.00  0.00     0.053 C 
BRANCH  11  12
ATOM     12  C   UNL     1       7.057  -8.703  22.561  1.00  0.00     0.041 C 
ATOM     13  O   UNL     1       7.537  -8.512  23.709  1.00  0.00    -0.550 OA
ATOM     14  O   UNL     1       6.129  -9.720  22.363  1.00  0.00    -0.550 OA
ENDBRANCH  11  12
ENDBRANCH  10  11
ENDBRANCH   9  10
ENDBRANCH   8   9
ENDBRANCH   7   8
ENDBRANCH   6   7
ENDBRANCH   5   6
ENDBRANCH   4   5
ENDBRANCH   3   4
ENDBRANCH   2   3
ENDBRANCH   1   2
BRANCH   1  15
ATOM     15  C   UNL     1       4.569   0.607  19.663  1.00  0.00     0.000 C 
BRANCH  15  16
ATOM     16  C   UNL     1       3.701  -0.008  18.547  1.00  0.00     0.000 C 
BRANCH  16  17
ATOM     17  C   UNL     1       2.470  -0.781  19.065  1.00  0.00     0.000 C 
BRANCH  17  18
ATOM     18  C   UNL     1       1.142  -0.103  18.684  1.00  0.00    -0.000 C 
BRANCH  18  19
ATOM     19  C   UNL     1       1.326   0.980  17.607  1.00  0.00    -0.000 C 
BRANCH  19  20
ATOM     20  C   UNL     1       0.876   2.371  18.089  1.00  0.00    -0.000 C 
BRANCH  20  21
ATOM     21  C   UNL     1       1.541   3.517  17.304  1.00  0.00    -0.000 C 
BRANCH  21  22
ATOM     22  C   UNL     1       1.161   4.931  17.782  1.00  0.00    -0.000 C 
BRANCH  22  23
ATOM     23  C   UNL     1       2.281   5.959  17.556  1.00  0.00    -0.000 C 
BRANCH  23  24
ATOM     24  C   UNL     1       2.614   6.089  16.061  1.00  0.00    -0.000 C 
BRANCH  24  25
ATOM     25  C   UNL     1       2.273   7.479  15.501  1.00  0.00    -0.003 C 
ATOM     26  C   UNL     1       1.693   8.416  16.559  1.00  0.00     0.004 C 
ENDBRANCH  24  25
ENDBRANCH  23  24
ENDBRANCH  22  23
ENDBRANCH  21  22
ENDBRANCH  20  21
ENDBRANCH  19  20
ENDBRANCH  18  19
ENDBRANCH  17  18
ENDBRANCH  16  17
ENDBRANCH  15  16
ENDBRANCH   1  15
TORSDOF 22
ENDMDL
MODEL 2
REMARK VINA RESULT:    -6.896      5.757     12.547
REMARK INTER + INTRA:         -17.401
REMARK INTER:                 -16.374
REMARK INTRA:                  -1.027
REMARK UNBOUND:                -1.637
REMARK SMILES CCCCCCCCCCCCCCCCCCCCCCCC(=O)[O-]
REMARK SMILES IDX 13 1 14 2 15 3 16 4 17 5 18 6 19 7 20 8 21 9 22 10 23 11
REMARK SMILES IDX 24 12 25 13 26 14 12 15 11 16 10 17 9 18 8 19 7 20 6 21 5 22
REMARK SMILES IDX 4 23 3 24 2 25 1 26
REMARK H PARENT
REMARK Flexibility Score: inf
ROOT
ATOM      1  C   UNL     1       2.509  -2.105  19.635  1.00  0.00     0.000 C 
ENDROOT
BRANCH   1   2
ATOM      2  C   UNL     1       1.297  -1.483  18.910  1.00  0.00     0.000 C 
BRANCH   2   3
ATOM      3  C   UNL     1       1.149   0.042  19.078  1.00  0.00     0.000 C 
BRANCH   3   4
ATOM      4  C   UNL     1       1.903   0.892  18.035  1.00  0.00     0.000 C 
BRANCH   4   5
ATOM      5  C   UNL     1       1.035   1.922  17.287  1.00  0.00     0.000 C 
BRANCH   5   6
ATOM      6  C   UNL     1       0.875   3.242  18.063  1.00  0.00     0.000 C 
BRANCH   6   7
ATOM      7  C   UNL     1       1.183   4.477  17.187  1.00  0.00     0.000 C 
BRANCH   7   8
ATOM      8  C   UNL     1       1.716   5.686  17.980  1.00  0.00     0.000 C 
BRANCH   8   9
ATOM      9  C   UNL     1       2.917   6.402  17.341  1.00  0.00     0.000 C 
BRANCH   9  10
ATOM     10  C   UNL     1       2.871   6.390  15.806  1.00  0.00     0.006 C 
BRANCH  10  11
ATOM     11  C   UNL     1       1.700   7.233  15.290  1.00  0.00     0.053 C 
BRANCH  11  12
ATOM     12  C   UNL     1       2.048   8.688  15.323  1.00  0.00     0.041 C 
ATOM     13  O   UNL     1       1.694   9.401  16.298  1.00  0.00    -0.550 OA
ATOM     14  O   UNL     1       2.713   9.270  14.250  1.00  0.00    -0.550 OA
ENDBRANCH  11  12
ENDBRANCH  10  11
ENDBRANCH   9  10
ENDBRANCH   8   9
ENDBRANCH   7   8
ENDBRANCH   6   7
ENDBRANCH   5   6
ENDBRANCH   4   5
ENDBRANCH   3   4
ENDBRANCH   2   3
ENDBRANCH   1   2
BRANCH   1  15
ATOM     15  C   UNL     1       3.415  -1.096  20.364  1.00  0.00     0.000 C 
BRANCH  15  16
ATOM     16  C   UNL     1       4.826  -0.931  19.765  1.00  0.00     0.000 C 
BRANCH  16  17
ATOM     17  C   UNL     1       5.941  -1.604  20.592  1.00  0.00     0.000 C 
BRANCH  17  18
ATOM     18  C   UNL     1       5.405  -2.285  21.865  1.00  0.00    -0.000 C 
BRANCH  18  19
ATOM     19  C   UNL     1       5.227  -3.802  21.686  1.00  0.00    -0.000 C 
BRANCH  19  20
ATOM     20  C   UNL     1       6.175  -4.383  20.621  1.00  0.00    -0.000 C 
BRANCH  20  21
ATOM     21  C   UNL     1       7.607  -4.589  21.146  1.00  0.00    -0.000 C 
BRANCH  21  22
ATOM     22  C   UNL     1       8.067  -6.058  21.211  1.00  0.00    -0.000 C 
BRANCH  22  23
ATOM     23  C   UNL     1       6.895  -7.052  21.215  1.00  0.00    -0.000 C 
BRANCH  23  24
ATOM     24  C   UNL     1       7.403  -8.500  21.139  1.00  0.00    -0.000 C 
BRANCH  24  25
ATOM     25  C   UNL     1       6.882  -9.368  22.294  1.00  0.00    -0.003 C 
ATOM     26  C   UNL     1       6.577  -8.555  23.552  1.00  0.00     0.004 C 
ENDBRANCH  24  25
ENDBRANCH  23  24
ENDBRANCH  22  23
ENDBRANCH  21  22
ENDBRANCH  20  21
ENDBRANCH  19  20
ENDBRANCH  18  19
ENDBRANCH  17  18
ENDBRANCH  16  17
ENDBRANCH  15  16
ENDBRANCH   1  15
TORSDOF 22
ENDMDL
MODEL 3
REMARK VINA RESULT:    -5.684      5.403     11.989
REMARK INTER + INTRA:         -14.632
REMARK INTER:                 -13.730
REMARK INTRA:                  -0.902
REMARK UNBOUND:                -1.637
REMARK SMILES CCCCCCCCCCCCCCCCCCCCCCCC(=O)[O-]
REMARK SMILES IDX 13 1 14 2 15 3 16 4 17 5 18 6 19 7 20 8 21 9 22 10 23 11
REMARK SMILES IDX 24 12 25 13 26 14 12 15 11 16 10 17 9 18 8 19 7 20 6 21 5 22
REMARK SMILES IDX 4 23 3 24 2 25 1 26
REMARK H PARENT
REMARK Flexibility Score: inf
ROOT
ATOM      1  C   UNL     1       4.000  -2.237  19.209  1.00  0.00     0.000 C 
ENDROOT
BRANCH   1   2
ATOM      2  C   UNL     1       2.696  -2.821  19.791  1.00  0.00     0.000 C 
BRANCH   2   3
ATOM      3  C   UNL     1       1.399  -2.186  19.254  1.00  0.00     0.000 C 
BRANCH   3   4
ATOM      4  C   UNL     1       1.287  -0.660  19.447  1.00  0.00     0.000 C 
BRANCH   4   5
ATOM      5  C   UNL     1       0.876   0.126  18.188  1.00  0.00     0.000 C 
BRANCH   5   6
ATOM      6  C   UNL     1       2.063   0.844  17.520  1.00  0.00     0.000 C 
BRANCH   6   7
ATOM      7  C   UNL     1       2.180   2.319  17.964  1.00  0.00     0.000 C 
BRANCH   7   8
ATOM      8  C   UNL     1       0.875   3.123  17.805  1.00  0.00     0.000 C 
BRANCH   8   9
ATOM      9  C   UNL     1       1.007   4.418  16.986  1.00  0.00     0.000 C 
BRANCH   9  10
ATOM     10  C   UNL     1       1.256   5.655  17.861  1.00  0.00     0.006 C 
BRANCH  10  11
ATOM     11  C   UNL     1       2.512   6.402  17.404  1.00  0.00     0.053 C 
BRANCH  11  12
ATOM     12  C   UNL     1       2.158   7.472  16.420  1.00  0.00     0.041 C 
ATOM     13  O   UNL     1       2.470   7.344  15.207  1.00  0.00    -0.550 OA
ATOM     14  O   UNL     1       1.534   8.636  16.852  1.00  0.00    -0.550 OA
ENDBRANCH  11  12
ENDBRANCH  10  11
ENDBRANCH   9  10
ENDBRANCH   8   9
ENDBRANCH   7   8
ENDBRANCH   6   7
ENDBRANCH   5   6
ENDBRANCH   4   5
ENDBRANCH   3   4
ENDBRANCH   2   3
ENDBRANCH   1   2
BRANCH   1  15
ATOM     15  C   UNL     1       4.556  -1.017  19.967  1.00  0.00     0.000 C 
BRANCH  15  16
ATOM     16  C   UNL     1       6.056  -1.092  20.318  1.00  0.00     0.000 C 
BRANCH  16  17
ATOM     17  C   UNL     1       6.339  -1.518  21.773  1.00  0.00     0.000 C 
BRANCH  17  18
ATOM     18  C   UNL     1       5.326  -2.553  22.295  1.00  0.00    -0.000 C 
BRANCH  18  19
ATOM     19  C   UNL     1       5.542  -3.945  21.677  1.00  0.00    -0.000 C 
BRANCH  19  20
ATOM     20  C   UNL     1       7.014  -4.203  21.309  1.00  0.00    -0.000 C 
BRANCH  20  21
ATOM     21  C   UNL     1       7.212  -5.515  20.528  1.00  0.00    -0.000 C 
BRANCH  21  22
ATOM     22  C   UNL     1       7.826  -6.667  21.346  1.00  0.00    -0.000 C 
BRANCH  22  23
ATOM     23  C   UNL     1       7.279  -8.044  20.944  1.00  0.00    -0.000 C 
BRANCH  23  24
ATOM     24  C   UNL     1       7.629  -9.104  22.000  1.00  0.00    -0.000 C 
BRANCH  24  25
ATOM     25  C   UNL     1       6.664  -9.085  23.196  1.00  0.00    -0.003 C 
ATOM     26  C   UNL     1       5.465  -8.164  22.972  1.00  0.00     0.004 C 
ENDBRANCH  24  25
ENDBRANCH  23  24
ENDBRANCH  22  23
ENDBRANCH  21  22
ENDBRANCH  20  21
ENDBRANCH  19  20
ENDBRANCH  18  19
ENDBRANCH  17  18
ENDBRANCH  16  17
ENDBRANCH  15  16
ENDBRANCH   1  15
TORSDOF 22
ENDMDL
MODEL 4
REMARK VINA RESULT:    -5.466      1.124      1.851
REMARK INTER + INTRA:         -14.132
REMARK INTER:                 -13.228
REMARK INTRA:                  -0.904
REMARK UNBOUND:                -1.637
REMARK SMILES CCCCCCCCCCCCCCCCCCCCCCCC(=O)[O-]
REMARK SMILES IDX 13 1 14 2 15 3 16 4 17 5 18 6 19 7 20 8 21 9 22 10 23 11
REMARK SMILES IDX 24 12 25 13 26 14 12 15 11 16 10 17 9 18 8 19 7 20 6 21 5 22
REMARK SMILES IDX 4 23 3 24 2 25 1 26
REMARK H PARENT
REMARK Flexibility Score: inf
ROOT
ATOM      1  C   UNL     1       4.999   0.526  19.550  1.00  0.00     0.000 C 
ENDROOT
BRANCH   1   2
ATOM      2  C   UNL     1       6.130  -0.425  19.997  1.00  0.00     0.000 C 
BRANCH   2   3
ATOM      3  C   UNL     1       6.151  -0.750  21.503  1.00  0.00     0.000 C 
BRANCH   3   4
ATOM      4  C   UNL     1       5.634  -2.155  21.877  1.00  0.00     0.000 C 
BRANCH   4   5
ATOM      5  C   UNL     1       4.106  -2.263  22.036  1.00  0.00     0.000 C 
BRANCH   5   6
ATOM      6  C   UNL     1       3.368  -2.305  20.685  1.00  0.00     0.000 C 
BRANCH   6   7
ATOM      7  C   UNL     1       4.057  -3.245  19.670  1.00  0.00     0.000 C 
BRANCH   7   8
ATOM      8  C   UNL     1       5.096  -4.191  20.303  1.00  0.00     0.000 C 
BRANCH   8   9
ATOM      9  C   UNL     1       6.354  -4.432  19.454  1.00  0.00     0.000 C 
BRANCH   9  10
ATOM     10  C   UNL     1       7.546  -4.934  20.282  1.00  0.00     0.006 C 
BRANCH  10  11
ATOM     11  C   UNL     1       7.066  -5.632  21.559  1.00  0.00     0.053 C 
BRANCH  11  12
ATOM     12  C   UNL     1       7.243  -7.113  21.444  1.00  0.00     0.041 C 
ATOM     13  O   UNL     1       7.301  -7.657  20.310  1.00  0.00    -0.550 OA
ATOM     14  O   UNL     1       7.285  -7.900  22.589  1.00  0.00    -0.550 OA
ENDBRANCH  11  12
ENDBRANCH  10  11
ENDBRANCH   9  10
ENDBRANCH   8   9
ENDBRANCH   7   8
ENDBRANCH   6   7
ENDBRANCH   5   6
ENDBRANCH   4   5
ENDBRANCH   3   4
ENDBRANCH   2   3
ENDBRANCH   1   2
BRANCH   1  15
ATOM     15  C   UNL     1       4.482   0.288  18.119  1.00  0.00     0.000 C 
BRANCH  15  16
ATOM     16  C   UNL     1       2.989  -0.079  18.015  1.00  0.00     0.000 C 
BRANCH  16  17
ATOM     17  C   UNL     1       2.144   0.385  19.220  1.00  0.00     0.000 C 
BRANCH  17  18
ATOM     18  C   UNL     1       0.913   1.208  18.798  1.00  0.00    -0.000 C 
BRANCH  18  19
ATOM     19  C   UNL     1       0.993   1.670  17.334  1.00  0.00    -0.000 C 
BRANCH  19  20
ATOM     20  C   UNL     1       1.751   3.001  17.178  1.00  0.00    -0.000 C 
BRANCH  20  21
ATOM     21  C   UNL     1       0.917   4.218  17.620  1.00  0.00    -0.000 C 
BRANCH  21  22
ATOM     22  C   UNL     1       1.675   5.240  18.487  1.00  0.00    -0.000 C 
BRANCH  22  23
ATOM     23  C   UNL     1       1.765   6.628  17.833  1.00  0.00    -0.000 C 
BRANCH  23  24
ATOM     24  C   UNL     1       2.760   6.619  16.662  1.00  0.00    -0.000 C 
BRANCH  24  25
ATOM     25  C   UNL     1       2.068   6.794  15.301  1.00  0.00    -0.003 C 
ATOM     26  C   UNL     1       2.564   8.023  14.540  1.00  0.00     0.004 C 
ENDBRANCH  24  25
ENDBRANCH  23  24
ENDBRANCH  22  23
ENDBRANCH  21  22
ENDBRANCH  20  21
ENDBRANCH  19  20
ENDBRANCH  18  19
ENDBRANCH  17  18
ENDBRANCH  16  17
ENDBRANCH  15  16
ENDBRANCH   1  15
TORSDOF 22
ENDMDL
MODEL 5
REMARK VINA RESULT:    -5.082      1.178      3.540
REMARK INTER + INTRA:         -13.254
REMARK INTER:                 -12.228
REMARK INTRA:                  -1.027
REMARK UNBOUND:                -1.637
REMARK SMILES CCCCCCCCCCCCCCCCCCCCCCCC(=O)[O-]
REMARK SMILES IDX 13 1 14 2 15 3 16 4 17 5 18 6 19 7 20 8 21 9 22 10 23 11
REMARK SMILES IDX 24 12 25 13 26 14 12 15 11 16 10 17 9 18 8 19 7 20 6 21 5 22
REMARK SMILES IDX 4 23 3 24 2 25 1 26
REMARK H PARENT
REMARK Flexibility Score: inf
ROOT
ATOM      1  C   UNL     1       1.462   0.761  18.699  1.00  0.00     0.000 C 
ENDROOT
BRANCH   1   2
ATOM      2  C   UNL     1       2.086  -0.650  18.760  1.00  0.00     0.000 C 
BRANCH   2   3
ATOM      3  C   UNL     1       2.259  -1.226  20.178  1.00  0.00     0.000 C 
BRANCH   3   4
ATOM      4  C   UNL     1       3.463  -2.174  20.358  1.00  0.00     0.000 C 
BRANCH   4   5
ATOM      5  C   UNL     1       4.832  -1.559  20.010  1.00  0.00     0.000 C 
BRANCH   5   6
ATOM      6  C   UNL     1       5.781  -1.493  21.220  1.00  0.00     0.000 C 
BRANCH   6   7
ATOM      7  C   UNL     1       5.995  -2.878  21.872  1.00  0.00     0.000 C 
BRANCH   7   8
ATOM      8  C   UNL     1       6.082  -4.036  20.860  1.00  0.00     0.000 C 
BRANCH   8   9
ATOM      9  C   UNL     1       5.984  -5.442  21.475  1.00  0.00     0.000 C 
BRANCH   9  10
ATOM     10  C   UNL     1       7.355  -6.106  21.667  1.00  0.00     0.006 C 
BRANCH  10  11
ATOM     11  C   UNL     1       7.351  -7.534  21.114  1.00  0.00     0.053 C 
BRANCH  11  12
ATOM     12  C   UNL     1       7.042  -8.516  22.200  1.00  0.00     0.041 C 
ATOM     13  O   UNL     1       6.241  -9.464  21.987  1.00  0.00    -0.550 OA
ATOM     14  O   UNL     1       7.593  -8.353  23.465  1.00  0.00    -0.550 OA
ENDBRANCH  11  12
ENDBRANCH  10  11
ENDBRANCH   9  10
ENDBRANCH   8   9
ENDBRANCH   7   8
ENDBRANCH   6   7
ENDBRANCH   5   6
ENDBRANCH   4   5
ENDBRANCH   3   4
ENDBRANCH   2   3
ENDBRANCH   1   2
BRANCH   1  15
ATOM     15  C   UNL     1       1.731   1.532  17.393  1.00  0.00     0.000 C 
BRANCH  15  16
ATOM     16  C   UNL     1       0.875   2.798  17.193  1.00  0.00     0.000 C 
BRANCH  16  17
ATOM     17  C   UNL     1       1.315   3.996  18.060  1.00  0.00     0.000 C 
BRANCH  17  18
ATOM     18  C   UNL     1       2.027   5.089  17.242  1.00  0.00    -0.000 C 
BRANCH  18  19
ATOM     19  C   UNL     1       2.341   6.337  18.083  1.00  0.00    -0.000 C 
BRANCH  19  20
ATOM     20  C   UNL     1       1.080   7.157  18.412  1.00  0.00    -0.000 C 
BRANCH  20  21
ATOM     21  C   UNL     1       0.926   8.399  17.514  1.00  0.00    -0.000 C 
BRANCH  21  22
ATOM     22  C   UNL     1       2.215   8.843  16.799  1.00  0.00    -0.000 C 
BRANCH  22  23
ATOM     23  C   UNL     1       1.943   9.690  15.546  1.00  0.00    -0.000 C 
BRANCH  23  24
ATOM     24  C   UNL     1       2.341   8.929  14.272  1.00  0.00    -0.000 C 
BRANCH  24  25
ATOM     25  C   UNL     1       2.549   7.427  14.523  1.00  0.00    -0.003 C 
ATOM     26  C   UNL     1       4.025   7.041  14.600  1.00  0.00     0.004 C 
ENDBRANCH  24  25
ENDBRANCH  23  24
ENDBRANCH  22  23
ENDBRANCH  21  22
ENDBRANCH  20  21
ENDBRANCH  19  20
ENDBRANCH  18  19
ENDBRANCH  17  18
ENDBRANCH  16  17
ENDBRANCH  15  16
ENDBRANCH   1  15
TORSDOF 22
ENDMDL
MODEL 6
REMARK VINA RESULT:    -4.686      6.039     12.027
REMARK INTER + INTRA:         -12.350
REMARK INTER:                 -11.518
REMARK INTRA:                  -0.832
REMARK UNBOUND:                -1.637
REMARK SMILES CCCCCCCCCCCCCCCCCCCCCCCC(=O)[O-]
REMARK SMILES IDX 13 1 14 2 15 3 16 4 17 5 18 6 19 7 20 8 21 9 22 10 23 11
REMARK SMILES IDX 24 12 25 13 26 14 12 15 11 16 10 17 9 18 8 19 7 20 6 21 5 22
REMARK SMILES IDX 4 23 3 24 2 25 1 26
REMARK H PARENT
REMARK Flexibility Score: inf
ROOT
ATOM      1  C   UNL     1       1.717   2.092  17.712  1.00  0.00     0.000 C 
ENDROOT
BRANCH   1   2
ATOM      2  C   UNL     1       0.875   3.339  17.367  1.00  0.00     0.000 C 
BRANCH   2   3
ATOM      3  C   UNL     1       1.540   4.688  17.701  1.00  0.00     0.000 C 
BRANCH   3   4
ATOM      4  C   UNL     1       1.395   5.777  16.618  1.00  0.00     0.000 C 
BRANCH   4   5
ATOM      5  C   UNL     1       2.626   6.687  16.443  1.00  0.00     0.000 C 
BRANCH   5   6
ATOM      6  C   UNL     1       3.101   6.771  14.981  1.00  0.00     0.000 C 
BRANCH   6   7
ATOM      7  C   UNL     1       4.286   5.821  14.694  1.00  0.00     0.000 C 
BRANCH   7   8
ATOM      8  C   UNL     1       5.371   6.434  13.789  1.00  0.00     0.000 C 
BRANCH   8   9
ATOM      9  C   UNL     1       6.509   5.475  13.402  1.00  0.00     0.000 C 
BRANCH   9  10
ATOM     10  C   UNL     1       7.032   5.714  11.977  1.00  0.00     0.006 C 
BRANCH  10  11
ATOM     11  C   UNL     1       8.205   4.780  11.665  1.00  0.00     0.053 C 
BRANCH  11  12
ATOM     12  C   UNL     1       8.274   4.499  10.197  1.00  0.00     0.041 C 
ATOM     13  O   UNL     1       7.242   4.138   9.573  1.00  0.00    -0.550 OA
ATOM     14  O   UNL     1       9.490   4.581   9.528  1.00  0.00    -0.550 OA
ENDBRANCH  11  12
ENDBRANCH  10  11
ENDBRANCH   9  10
ENDBRANCH   8   9
ENDBRANCH   7   8
ENDBRANCH   6   7
ENDBRANCH   5   6
ENDBRANCH   4   5
ENDBRANCH   3   4
ENDBRANCH   2   3
ENDBRANCH   1   2
BRANCH   1  15
ATOM     15  C   UNL     1       0.966   0.753  17.597  1.00  0.00     0.000 C 
BRANCH  15  16
ATOM     16  C   UNL     1       1.033  -0.144  18.849  1.00  0.00     0.000 C 
BRANCH  16  17
ATOM     17  C   UNL     1       2.332  -0.969  18.961  1.00  0.00     0.000 C 
BRANCH  17  18
ATOM     18  C   UNL     1       2.847  -1.067  20.408  1.00  0.00    -0.000 C 
BRANCH  18  19
ATOM     19  C   UNL     1       3.784  -2.269  20.614  1.00  0.00    -0.000 C 
BRANCH  19  20
ATOM     20  C   UNL     1       4.484  -2.241  21.986  1.00  0.00    -0.000 C 
BRANCH  20  21
ATOM     21  C   UNL     1       5.988  -2.556  21.894  1.00  0.00    -0.000 C 
BRANCH  21  22
ATOM     22  C   UNL     1       6.485  -2.933  20.486  1.00  0.00    -0.000 C 
BRANCH  22  23
ATOM     23  C   UNL     1       7.549  -4.040  20.504  1.00  0.00    -0.000 C 
BRANCH  23  24
ATOM     24  C   UNL     1       6.897  -5.428  20.601  1.00  0.00    -0.000 C 
BRANCH  24  25
ATOM     25  C   UNL     1       7.694  -6.393  21.493  1.00  0.00    -0.003 C 
ATOM     26  C   UNL     1       7.196  -7.835  21.395  1.00  0.00     0.004 C 
ENDBRANCH  24  25
ENDBRANCH  23  24
ENDBRANCH  22  23
ENDBRANCH  21  22
ENDBRANCH  20  21
ENDBRANCH  19  20
ENDBRANCH  18  19
ENDBRANCH  17  18
ENDBRANCH  16  17
ENDBRANCH  15  16
ENDBRANCH   1  15
TORSDOF 22
ENDMDL
