MODEL 1
REMARK VINA RESULT:    -0.673      0.000      0.000
REMARK INTER + INTRA:          -1.897
REMARK INTER:                  -1.459
REMARK INTRA:                  -0.437
REMARK UNBOUND:                -0.437
REMARK SMILES CCCCCCCCCCCCCCCCCCCCCC(=O)[O-]
REMARK SMILES IDX 12 1 11 2 10 3 9 4 8 5 7 6 6 7 5 8 4 9 3 10 2 11 1 12 13 13
REMARK SMILES IDX 14 14 15 15 16 16 17 17 18 18 19 19 20 20 21 21 22 22 23 23
REMARK SMILES IDX 24 24
REMARK H PARENT
REMARK Flexibility Score: inf
ROOT
ATOM      1  C   UNL     1      34.892 105.292 267.483  1.00  0.00     0.000 C 
ENDROOT
BRANCH   1   2
ATOM      2  C   UNL     1      36.009 104.478 266.802  1.00  0.00     0.000 C 
BRANCH   2   3
ATOM      3  C   UNL     1      35.856 104.267 265.280  1.00  0.00     0.000 C 
BRANCH   3   4
ATOM      4  C   UNL     1      34.876 105.224 264.568  1.00  0.00    -0.000 C 
BRANCH   4   5
ATOM      5  C   UNL     1      35.088 105.334 263.048  1.00  0.00    -0.000 C 
BRANCH   5   6
ATOM      6  C   UNL     1      35.167 103.969 262.342  1.00  0.00    -0.000 C 
BRANCH   6   7
ATOM      7  C   UNL     1      36.117 103.982 261.135  1.00  0.00    -0.000 C 
BRANCH   7   8
ATOM      8  C   UNL     1      36.768 105.355 260.912  1.00  0.00    -0.000 C 
BRANCH   8   9
ATOM      9  C   UNL     1      37.905 105.263 259.884  1.00  0.00    -0.000 C 
BRANCH   9  10
ATOM     10  C   UNL     1      37.761 106.281 258.737  1.00  0.00    -0.000 C 
BRANCH  10  11
ATOM     11  C   UNL     1      36.741 107.405 258.994  1.00  0.00    -0.003 C 
ATOM     12  C   UNL     1      35.624 107.451 257.952  1.00  0.00     0.004 C 
ENDBRANCH  10  11
ENDBRANCH   9  10
ENDBRANCH   8   9
ENDBRANCH   7   8
ENDBRANCH   6   7
ENDBRANCH   5   6
ENDBRANCH   4   5
ENDBRANCH   3   4
ENDBRANCH   2   3
ENDBRANCH   1   2
BRANCH   1  13
ATOM     13  C   UNL     1      35.138 105.528 268.980  1.00  0.00     0.000 C 
BRANCH  13  14
ATOM     14  C   UNL     1      35.144 107.028 269.303  1.00  0.00     0.000 C 
BRANCH  14  15
ATOM     15  C   UNL     1      35.823 107.831 268.184  1.00  0.00     0.000 C 
BRANCH  15  16
ATOM     16  C   UNL     1      35.172 109.208 267.967  1.00  0.00     0.000 C 
BRANCH  16  17
ATOM     17  C   UNL     1      34.887 109.497 266.482  1.00  0.00     0.000 C 
BRANCH  17  18
ATOM     18  C   UNL     1      35.120 108.269 265.587  1.00  0.00     0.000 C 
BRANCH  18  19
ATOM     19  C   UNL     1      36.607 107.988 265.334  1.00  0.00     0.000 C 
BRANCH  19  20
ATOM     20  C   UNL     1      36.822 107.379 263.940  1.00  0.00     0.006 C 
BRANCH  20  21
ATOM     21  C   UNL     1      38.150 106.620 263.836  1.00  0.00     0.053 C 
BRANCH  21  22
ATOM     22  C   UNL     1      39.087 107.267 262.862  1.00  0.00     0.041 C 
ATOM     23  O   UNL     1      38.853 108.429 262.435  1.00  0.00    -0.550 OA
ATOM     24  O   UNL     1      40.232 106.599 262.446  1.00  0.00    -0.550 OA
ENDBRANCH  21  22
ENDBRANCH  20  21
ENDBRANCH  19  20
ENDBRANCH  18  19
ENDBRANCH  17  18
ENDBRANCH  16  17
ENDBRANCH  15  16
ENDBRANCH  14  15
ENDBRANCH  13  14
ENDBRANCH   1  13
TORSDOF 20
ENDMDL
MODEL 2
REMARK VINA RESULT:     1.512      2.042      3.974
REMARK INTER + INTRA:           2.842
REMARK INTER:                   1.840
REMARK INTRA:                   1.002
REMARK UNBOUND:                -0.437
REMARK SMILES CCCCCCCCCCCCCCCCCCCCCC(=O)[O-]
REMARK SMILES IDX 12 1 11 2 10 3 9 4 8 5 7 6 6 7 5 8 4 9 3 10 2 11 1 12 13 13
REMARK SMILES IDX 14 14 15 15 16 16 17 17 18 18 19 19 20 20 21 21 22 22 23 23
REMARK SMILES IDX 24 24
REMARK H PARENT
REMARK Flexibility Score: inf
ROOT
ATOM      1  C   UNL     1      36.002 106.572 263.550  1.00  0.00     0.000 C 
ENDROOT
BRANCH   1   2
ATOM      2  C   UNL     1      37.328 106.780 264.305  1.00  0.00     0.000 C 
BRANCH   2   3
ATOM      3  C   UNL     1      38.508 107.309 263.460  1.00  0.00     0.000 C 
BRANCH   3   4
ATOM      4  C   UNL     1      38.481 106.930 261.963  1.00  0.00    -0.000 C 
BRANCH   4   5
ATOM      5  C   UNL     1      38.015 105.491 261.681  1.00  0.00    -0.000 C 
BRANCH   5   6
ATOM      6  C   UNL     1      38.047 105.122 260.187  1.00  0.00    -0.000 C 
BRANCH   6   7
ATOM      7  C   UNL     1      38.237 106.348 259.280  1.00  0.00    -0.000 C 
BRANCH   7   8
ATOM      8  C   UNL     1      37.650 106.138 257.876  1.00  0.00    -0.000 C 
BRANCH   8   9
ATOM      9  C   UNL     1      36.138 105.876 257.947  1.00  0.00    -0.000 C 
BRANCH   9  10
ATOM     10  C   UNL     1      35.304 107.171 257.932  1.00  0.00    -0.000 C 
BRANCH  10  11
ATOM     11  C   UNL     1      36.110 108.463 258.156  1.00  0.00    -0.003 C 
ATOM     12  C   UNL     1      35.245 109.722 258.125  1.00  0.00     0.004 C 
ENDBRANCH  10  11
ENDBRANCH   9  10
ENDBRANCH   8   9
ENDBRANCH   7   8
ENDBRANCH   6   7
ENDBRANCH   5   6
ENDBRANCH   4   5
ENDBRANCH   3   4
ENDBRANCH   2   3
ENDBRANCH   1   2
BRANCH   1  13
ATOM     13  C   UNL     1      34.890 107.532 263.997  1.00  0.00     0.000 C 
BRANCH  13  14
ATOM     14  C   UNL     1      34.875 107.679 265.524  1.00  0.00     0.000 C 
BRANCH  14  15
ATOM     15  C   UNL     1      35.075 109.144 265.940  1.00  0.00     0.000 C 
BRANCH  15  16
ATOM     16  C   UNL     1      35.666 109.281 267.353  1.00  0.00     0.000 C 
BRANCH  16  17
ATOM     17  C   UNL     1      35.141 108.204 268.319  1.00  0.00     0.000 C 
BRANCH  17  18
ATOM     18  C   UNL     1      34.897 106.856 267.622  1.00  0.00     0.000 C 
BRANCH  18  19
ATOM     19  C   UNL     1      35.074 105.656 268.564  1.00  0.00     0.000 C 
BRANCH  19  20
ATOM     20  C   UNL     1      34.961 104.332 267.793  1.00  0.00     0.006 C 
BRANCH  20  21
ATOM     21  C   UNL     1      35.164 104.519 266.284  1.00  0.00     0.053 C 
BRANCH  21  22
ATOM     22  C   UNL     1      36.278 103.664 265.761  1.00  0.00     0.041 C 
ATOM     23  O   UNL     1      37.037 103.056 266.560  1.00  0.00    -0.550 OA
ATOM     24  O   UNL     1      36.460 103.518 264.392  1.00  0.00    -0.550 OA
ENDBRANCH  21  22
ENDBRANCH  20  21
ENDBRANCH  19  20
ENDBRANCH  18  19
ENDBRANCH  17  18
ENDBRANCH  16  17
ENDBRANCH  15  16
ENDBRANCH  14  15
ENDBRANCH  13  14
ENDBRANCH   1  13
TORSDOF 20
ENDMDL
MODEL 3
REMARK VINA RESULT:     2.297      1.318      5.995
REMARK INTER + INTRA:           4.546
REMARK INTER:                   5.512
REMARK INTRA:                  -0.966
REMARK UNBOUND:                -0.437
REMARK SMILES CCCCCCCCCCCCCCCCCCCCCC(=O)[O-]
REMARK SMILES IDX 12 1 11 2 10 3 9 4 8 5 7 6 6 7 5 8 4 9 3 10 2 11 1 12 13 13
REMARK SMILES IDX 14 14 15 15 16 16 17 17 18 18 19 19 20 20 21 21 22 22 23 23
REMARK SMILES IDX 24 24
REMARK H PARENT
REMARK Flexibility Score: inf
ROOT
ATOM      1  C   UNL     1      35.237 107.591 265.673  1.00  0.00     0.000 C 
ENDROOT
BRANCH   1   2
ATOM      2  C   UNL     1      35.083 108.981 266.317  1.00  0.00     0.000 C 
BRANCH   2   3
ATOM      3  C   UNL     1      35.054 109.008 267.861  1.00  0.00     0.000 C 
BRANCH   3   4
ATOM      4  C   UNL     1      36.127 108.149 268.565  1.00  0.00    -0.000 C 
BRANCH   4   5
ATOM      5  C   UNL     1      35.616 107.377 269.794  1.00  0.00    -0.000 C 
BRANCH   5   6
ATOM      6  C   UNL     1      35.547 105.855 269.573  1.00  0.00    -0.000 C 
BRANCH   6   7
ATOM      7  C   UNL     1      34.876 105.482 268.242  1.00  0.00    -0.000 C 
BRANCH   7   8
ATOM      8  C   UNL     1      35.371 104.136 267.690  1.00  0.00    -0.000 C 
BRANCH   8   9
ATOM      9  C   UNL     1      35.656 104.232 266.184  1.00  0.00    -0.000 C 
BRANCH   9  10
ATOM     10  C   UNL     1      37.129 103.953 265.833  1.00  0.00    -0.000 C 
BRANCH  10  11
ATOM     11  C   UNL     1      37.612 102.527 266.156  1.00  0.00    -0.003 C 
ATOM     12  C   UNL     1      37.717 101.635 264.919  1.00  0.00     0.004 C 
ENDBRANCH  10  11
ENDBRANCH   9  10
ENDBRANCH   8   9
ENDBRANCH   7   8
ENDBRANCH   6   7
ENDBRANCH   5   6
ENDBRANCH   4   5
ENDBRANCH   3   4
ENDBRANCH   2   3
ENDBRANCH   1   2
BRANCH   1  13
ATOM     13  C   UNL     1      34.914 107.576 264.172  1.00  0.00     0.000 C 
BRANCH  13  14
ATOM     14  C   UNL     1      35.709 106.481 263.451  1.00  0.00     0.000 C 
BRANCH  14  15
ATOM     15  C   UNL     1      34.901 105.177 263.366  1.00  0.00     0.000 C 
BRANCH  15  16
ATOM     16  C   UNL     1      35.578 104.121 262.476  1.00  0.00     0.000 C 
BRANCH  16  17
ATOM     17  C   UNL     1      35.629 104.542 260.996  1.00  0.00     0.000 C 
BRANCH  17  18
ATOM     18  C   UNL     1      36.284 105.918 260.797  1.00  0.00     0.000 C 
BRANCH  18  19
ATOM     19  C   UNL     1      37.308 105.932 259.653  1.00  0.00     0.000 C 
BRANCH  19  20
ATOM     20  C   UNL     1      38.652 106.504 260.126  1.00  0.00     0.006 C 
BRANCH  20  21
ATOM     21  C   UNL     1      39.010 106.050 261.547  1.00  0.00     0.053 C 
BRANCH  21  22
ATOM     22  C   UNL     1      39.407 107.203 262.418  1.00  0.00     0.041 C 
ATOM     23  O   UNL     1      39.011 107.260 263.612  1.00  0.00    -0.550 OA
ATOM     24  O   UNL     1      40.235 108.201 261.920  1.00  0.00    -0.550 OA
ENDBRANCH  21  22
ENDBRANCH  20  21
ENDBRANCH  19  20
ENDBRANCH  18  19
ENDBRANCH  17  18
ENDBRANCH  16  17
ENDBRANCH  15  16
ENDBRANCH  14  15
ENDBRANCH  13  14
ENDBRANCH   1  13
TORSDOF 20
ENDMDL
