MODEL 1
REMARK VINA RESULT:    -6.475      0.000      0.000
REMARK INTER + INTRA:         -16.704
REMARK INTER:                 -14.047
REMARK INTRA:                  -2.657
REMARK UNBOUND:                -2.657
REMARK SMILES CCCCCCCCCCCCCCCCCCCCCC(=O)[O-]
REMARK SMILES IDX 12 1 11 2 10 3 9 4 8 5 7 6 6 7 5 8 4 9 3 10 2 11 1 12 13 13
REMARK SMILES IDX 14 14 15 15 16 16 17 17 18 18 19 19 20 20 21 21 22 22 23 23
REMARK SMILES IDX 24 24
REMARK H PARENT
REMARK Flexibility Score: inf
ROOT
ATOM      1  C   UNL     1      93.064  -4.085   9.123  1.00  0.00     0.000 C 
ENDROOT
BRANCH   1   2
ATOM      2  C   UNL     1      93.327  -3.457   7.742  1.00  0.00     0.000 C 
BRANCH   2   3
ATOM      3  C   UNL     1      92.359  -2.327   7.344  1.00  0.00     0.000 C 
BRANCH   3   4
ATOM      4  C   UNL     1      93.033  -1.230   6.503  1.00  0.00    -0.000 C 
BRANCH   4   5
ATOM      5  C   UNL     1      92.250  -0.895   5.222  1.00  0.00    -0.000 C 
BRANCH   5   6
ATOM      6  C   UNL     1      90.847  -0.309   5.493  1.00  0.00    -0.000 C 
BRANCH   6   7
ATOM      7  C   UNL     1      89.733  -1.133   4.832  1.00  0.00    -0.000 C 
BRANCH   7   8
ATOM      8  C   UNL     1      88.896  -1.875   5.887  1.00  0.00    -0.000 C 
BRANCH   8   9
ATOM      9  C   UNL     1      88.836  -3.391   5.640  1.00  0.00    -0.000 C 
BRANCH   9  10
ATOM     10  C   UNL     1      90.054  -3.917   4.866  1.00  0.00    -0.000 C 
BRANCH  10  11
ATOM     11  C   UNL     1      90.669  -5.131   5.573  1.00  0.00    -0.003 C 
ATOM     12  C   UNL     1      90.078  -5.316   6.967  1.00  0.00     0.004 C 
ENDBRANCH  10  11
ENDBRANCH   9  10
ENDBRANCH   8   9
ENDBRANCH   7   8
ENDBRANCH   6   7
ENDBRANCH   5   6
ENDBRANCH   4   5
ENDBRANCH   3   4
ENDBRANCH   2   3
ENDBRANCH   1   2
BRANCH   1  13
ATOM     13  C   UNL     1      94.065  -3.618  10.193  1.00  0.00     0.000 C 
BRANCH  13  14
ATOM     14  C   UNL     1      94.948  -4.761  10.730  1.00  0.00     0.000 C 
BRANCH  14  15
ATOM     15  C   UNL     1      96.426  -4.396  10.958  1.00  0.00     0.000 C 
BRANCH  15  16
ATOM     16  C   UNL     1      96.939  -3.324   9.986  1.00  0.00     0.000 C 
BRANCH  16  17
ATOM     17  C   UNL     1      97.317  -3.944   8.635  1.00  0.00     0.000 C 
BRANCH  17  18
ATOM     18  C   UNL     1      96.988  -2.988   7.478  1.00  0.00     0.000 C 
BRANCH  18  19
ATOM     19  C   UNL     1      98.244  -2.497   6.742  1.00  0.00     0.000 C 
BRANCH  19  20
ATOM     20  C   UNL     1      99.388  -3.525   6.773  1.00  0.00     0.006 C 
BRANCH  20  21
ATOM     21  C   UNL     1      99.331  -4.490   5.581  1.00  0.00     0.053 C 
BRANCH  21  22
ATOM     22  C   UNL     1      98.978  -5.881   6.012  1.00  0.00     0.041 C 
ATOM     23  O   UNL     1      99.869  -6.653   6.454  1.00  0.00    -0.550 OA
ATOM     24  O   UNL     1      97.671  -6.338   5.888  1.00  0.00    -0.550 OA
ENDBRANCH  21  22
ENDBRANCH  20  21
ENDBRANCH  19  20
ENDBRANCH  18  19
ENDBRANCH  17  18
ENDBRANCH  16  17
ENDBRANCH  15  16
ENDBRANCH  14  15
ENDBRANCH  13  14
ENDBRANCH   1  13
TORSDOF 20
ENDMDL
MODEL 2
REMARK VINA RESULT:    -6.257      2.492      7.183
REMARK INTER + INTRA:         -16.231
REMARK INTER:                 -13.704
REMARK INTRA:                  -2.527
REMARK UNBOUND:                -2.657
REMARK SMILES CCCCCCCCCCCCCCCCCCCCCC(=O)[O-]
REMARK SMILES IDX 12 1 11 2 10 3 9 4 8 5 7 6 6 7 5 8 4 9 3 10 2 11 1 12 13 13
REMARK SMILES IDX 14 14 15 15 16 16 17 17 18 18 19 19 20 20 21 21 22 22 23 23
REMARK SMILES IDX 24 24
REMARK H PARENT
REMARK Flexibility Score: inf
ROOT
ATOM      1  C   UNL     1      96.613  -4.493  11.011  1.00  0.00     0.000 C 
ENDROOT
BRANCH   1   2
ATOM      2  C   UNL     1      96.657  -2.971  10.777  1.00  0.00     0.000 C 
BRANCH   2   3
ATOM      3  C   UNL     1      97.304  -2.534   9.450  1.00  0.00     0.000 C 
BRANCH   3   4
ATOM      4  C   UNL     1      97.394  -3.674   8.422  1.00  0.00    -0.000 C 
BRANCH   4   5
ATOM      5  C   UNL     1      97.567  -3.166   6.981  1.00  0.00    -0.000 C 
BRANCH   5   6
ATOM      6  C   UNL     1      99.032  -3.178   6.495  1.00  0.00    -0.000 C 
BRANCH   6   7
ATOM      7  C   UNL     1      99.345  -4.396   5.613  1.00  0.00    -0.000 C 
BRANCH   7   8
ATOM      8  C   UNL     1      99.791  -5.594   6.466  1.00  0.00    -0.000 C 
BRANCH   8   9
ATOM      9  C   UNL     1      99.101  -6.905   6.057  1.00  0.00    -0.000 C 
BRANCH   9  10
ATOM     10  C   UNL     1      97.842  -6.676   5.208  1.00  0.00    -0.000 C 
BRANCH  10  11
ATOM     11  C   UNL     1      97.111  -7.998   4.943  1.00  0.00    -0.003 C 
ATOM     12  C   UNL     1      97.434  -9.031   6.018  1.00  0.00     0.004 C 
ENDBRANCH  10  11
ENDBRANCH   9  10
ENDBRANCH   8   9
ENDBRANCH   7   8
ENDBRANCH   6   7
ENDBRANCH   5   6
ENDBRANCH   4   5
ENDBRANCH   3   4
ENDBRANCH   2   3
ENDBRANCH   1   2
BRANCH   1  13
ATOM     13  C   UNL     1      95.198  -5.079  10.872  1.00  0.00     0.000 C 
BRANCH  13  14
ATOM     14  C   UNL     1      94.150  -4.031  10.451  1.00  0.00     0.000 C 
BRANCH  14  15
ATOM     15  C   UNL     1      93.163  -4.489   9.362  1.00  0.00     0.000 C 
BRANCH  15  16
ATOM     16  C   UNL     1      93.600  -4.088   7.946  1.00  0.00     0.000 C 
BRANCH  16  17
ATOM     17  C   UNL     1      93.900  -2.586   7.869  1.00  0.00     0.000 C 
BRANCH  17  18
ATOM     18  C   UNL     1      93.020  -1.901   6.812  1.00  0.00     0.000 C 
BRANCH  18  19
ATOM     19  C   UNL     1      91.531  -2.244   6.970  1.00  0.00     0.000 C 
BRANCH  19  20
ATOM     20  C   UNL     1      90.857  -2.590   5.631  1.00  0.00     0.006 C 
BRANCH  20  21
ATOM     21  C   UNL     1      89.789  -3.681   5.786  1.00  0.00     0.053 C 
BRANCH  21  22
ATOM     22  C   UNL     1      90.403  -5.024   6.042  1.00  0.00     0.041 C 
ATOM     23  O   UNL     1      90.250  -5.589   7.157  1.00  0.00    -0.550 OA
ATOM     24  O   UNL     1      91.177  -5.634   5.062  1.00  0.00    -0.550 OA
ENDBRANCH  21  22
ENDBRANCH  20  21
ENDBRANCH  19  20
ENDBRANCH  18  19
ENDBRANCH  17  18
ENDBRANCH  16  17
ENDBRANCH  15  16
ENDBRANCH  14  15
ENDBRANCH  13  14
ENDBRANCH   1  13
TORSDOF 20
ENDMDL
MODEL 3
REMARK VINA RESULT:    -6.230      2.349      7.577
REMARK INTER + INTRA:         -16.172
REMARK INTER:                 -13.926
REMARK INTRA:                  -2.246
REMARK UNBOUND:                -2.657
REMARK SMILES CCCCCCCCCCCCCCCCCCCCCC(=O)[O-]
REMARK SMILES IDX 12 1 11 2 10 3 9 4 8 5 7 6 6 7 5 8 4 9 3 10 2 11 1 12 13 13
REMARK SMILES IDX 14 14 15 15 16 16 17 17 18 18 19 19 20 20 21 21 22 22 23 23
REMARK SMILES IDX 24 24
REMARK H PARENT
REMARK Flexibility Score: inf
ROOT
ATOM      1  C   UNL     1      94.090  -3.774  10.312  1.00  0.00     0.000 C 
ENDROOT
BRANCH   1   2
ATOM      2  C   UNL     1      95.239  -4.740  10.657  1.00  0.00     0.000 C 
BRANCH   2   3
ATOM      3  C   UNL     1      96.604  -4.071  10.898  1.00  0.00     0.000 C 
BRANCH   3   4
ATOM      4  C   UNL     1      97.067  -3.209   9.712  1.00  0.00    -0.000 C 
BRANCH   4   5
ATOM      5  C   UNL     1      97.245  -4.021   8.418  1.00  0.00    -0.000 C 
BRANCH   5   6
ATOM      6  C   UNL     1      97.065  -3.183   7.134  1.00  0.00    -0.000 C 
BRANCH   6   7
ATOM      7  C   UNL     1      98.404  -2.693   6.564  1.00  0.00    -0.000 C 
BRANCH   7   8
ATOM      8  C   UNL     1      99.496  -3.762   6.725  1.00  0.00    -0.000 C 
BRANCH   8   9
ATOM      9  C   UNL     1      99.356  -4.914   5.717  1.00  0.00    -0.000 C 
BRANCH   9  10
ATOM     10  C   UNL     1      99.528  -6.296   6.365  1.00  0.00    -0.000 C 
BRANCH  10  11
ATOM     11  C   UNL     1      98.573  -7.319   5.736  1.00  0.00    -0.003 C 
ATOM     12  C   UNL     1      97.158  -6.758   5.631  1.00  0.00     0.004 C 
ENDBRANCH  10  11
ENDBRANCH   9  10
ENDBRANCH   8   9
ENDBRANCH   7   8
ENDBRANCH   6   7
ENDBRANCH   5   6
ENDBRANCH   4   5
ENDBRANCH   3   4
ENDBRANCH   2   3
ENDBRANCH   1   2
BRANCH   1  13
ATOM     13  C   UNL     1      93.400  -4.115   8.981  1.00  0.00     0.000 C 
BRANCH  13  14
ATOM     14  C   UNL     1      93.665  -3.072   7.880  1.00  0.00     0.000 C 
BRANCH  14  15
ATOM     15  C   UNL     1      92.427  -2.291   7.402  1.00  0.00     0.000 C 
BRANCH  15  16
ATOM     16  C   UNL     1      92.741  -1.294   6.277  1.00  0.00     0.000 C 
BRANCH  16  17
ATOM     17  C   UNL     1      91.522  -0.417   5.965  1.00  0.00     0.000 C 
BRANCH  17  18
ATOM     18  C   UNL     1      90.590  -1.106   4.957  1.00  0.00     0.000 C 
BRANCH  18  19
ATOM     19  C   UNL     1      89.240  -1.501   5.574  1.00  0.00     0.000 C 
BRANCH  19  20
ATOM     20  C   UNL     1      89.062  -3.025   5.683  1.00  0.00     0.006 C 
BRANCH  20  21
ATOM     21  C   UNL     1      89.918  -3.782   4.658  1.00  0.00     0.053 C 
BRANCH  21  22
ATOM     22  C   UNL     1      90.568  -4.989   5.262  1.00  0.00     0.041 C 
ATOM     23  O   UNL     1      90.565  -5.152   6.511  1.00  0.00    -0.550 OA
ATOM     24  O   UNL     1      91.209  -5.915   4.448  1.00  0.00    -0.550 OA
ENDBRANCH  21  22
ENDBRANCH  20  21
ENDBRANCH  19  20
ENDBRANCH  18  19
ENDBRANCH  17  18
ENDBRANCH  16  17
ENDBRANCH  15  16
ENDBRANCH  14  15
ENDBRANCH  13  14
ENDBRANCH   1  13
TORSDOF 20
ENDMDL
MODEL 4
REMARK VINA RESULT:    -6.216     10.415     15.291
REMARK INTER + INTRA:         -16.140
REMARK INTER:                 -13.882
REMARK INTRA:                  -2.258
REMARK UNBOUND:                -2.657
REMARK SMILES CCCCCCCCCCCCCCCCCCCCCC(=O)[O-]
REMARK SMILES IDX 12 1 11 2 10 3 9 4 8 5 7 6 6 7 5 8 4 9 3 10 2 11 1 12 13 13
REMARK SMILES IDX 14 14 15 15 16 16 17 17 18 18 19 19 20 20 21 21 22 22 23 23
REMARK SMILES IDX 24 24
REMARK H PARENT
REMARK Flexibility Score: inf
ROOT
ATOM      1  C   UNL     1      83.244  -0.161   0.463  1.00  0.00     0.000 C 
ENDROOT
BRANCH   1   2
ATOM      2  C   UNL     1      81.954  -0.996   0.553  1.00  0.00     0.000 C 
BRANCH   2   3
ATOM      3  C   UNL     1      81.935  -2.264  -0.321  1.00  0.00     0.000 C 
BRANCH   3   4
ATOM      4  C   UNL     1      81.436  -3.506   0.436  1.00  0.00    -0.000 C 
BRANCH   4   5
ATOM      5  C   UNL     1      80.648  -3.152   1.709  1.00  0.00    -0.000 C 
BRANCH   5   6
ATOM      6  C   UNL     1      81.456  -3.349   3.009  1.00  0.00    -0.000 C 
BRANCH   6   7
ATOM      7  C   UNL     1      82.868  -3.891   2.743  1.00  0.00    -0.000 C 
BRANCH   7   8
ATOM      8  C   UNL     1      83.935  -2.984   3.376  1.00  0.00    -0.000 C 
BRANCH   8   9
ATOM      9  C   UNL     1      85.056  -2.609   2.394  1.00  0.00    -0.000 C 
BRANCH   9  10
ATOM     10  C   UNL     1      86.459  -2.823   2.981  1.00  0.00    -0.000 C 
BRANCH  10  11
ATOM     11  C   UNL     1      87.536  -2.256   2.049  1.00  0.00    -0.003 C 
ATOM     12  C   UNL     1      86.954  -1.202   1.111  1.00  0.00     0.004 C 
ENDBRANCH  10  11
ENDBRANCH   9  10
ENDBRANCH   8   9
ENDBRANCH   7   8
ENDBRANCH   6   7
ENDBRANCH   5   6
ENDBRANCH   4   5
ENDBRANCH   3   4
ENDBRANCH   2   3
ENDBRANCH   1   2
BRANCH   1  13
ATOM     13  C   UNL     1      83.215   0.865  -0.683  1.00  0.00     0.000 C 
BRANCH  13  14
ATOM     14  C   UNL     1      81.804   1.418  -0.960  1.00  0.00     0.000 C 
BRANCH  14  15
ATOM     15  C   UNL     1      81.376   2.602  -0.074  1.00  0.00     0.000 C 
BRANCH  15  16
ATOM     16  C   UNL     1      80.072   2.339   0.692  1.00  0.00     0.000 C 
BRANCH  16  17
ATOM     17  C   UNL     1      80.156   2.886   2.123  1.00  0.00     0.000 C 
BRANCH  17  18
ATOM     18  C   UNL     1      81.551   2.652   2.722  1.00  0.00     0.000 C 
BRANCH  18  19
ATOM     19  C   UNL     1      81.507   2.376   4.233  1.00  0.00     0.000 C 
BRANCH  19  20
ATOM     20  C   UNL     1      80.457   3.232   4.961  1.00  0.00     0.006 C 
BRANCH  20  21
ATOM     21  C   UNL     1      80.929   3.663   6.356  1.00  0.00     0.053 C 
BRANCH  21  22
ATOM     22  C   UNL     1      82.003   4.705   6.280  1.00  0.00     0.041 C 
ATOM     23  O   UNL     1      83.203   4.397   6.509  1.00  0.00    -0.550 OA
ATOM     24  O   UNL     1      81.674   6.025   5.993  1.00  0.00    -0.550 OA
ENDBRANCH  21  22
ENDBRANCH  20  21
ENDBRANCH  19  20
ENDBRANCH  18  19
ENDBRANCH  17  18
ENDBRANCH  16  17
ENDBRANCH  15  16
ENDBRANCH  14  15
ENDBRANCH  13  14
ENDBRANCH   1  13
TORSDOF 20
ENDMDL
MODEL 5
REMARK VINA RESULT:    -6.175      8.491     13.907
REMARK INTER + INTRA:         -16.051
REMARK INTER:                 -13.711
REMARK INTRA:                  -2.341
REMARK UNBOUND:                -2.657
REMARK SMILES CCCCCCCCCCCCCCCCCCCCCC(=O)[O-]
REMARK SMILES IDX 12 1 11 2 10 3 9 4 8 5 7 6 6 7 5 8 4 9 3 10 2 11 1 12 13 13
REMARK SMILES IDX 14 14 15 15 16 16 17 17 18 18 19 19 20 20 21 21 22 22 23 23
REMARK SMILES IDX 24 24
REMARK H PARENT
REMARK Flexibility Score: inf
ROOT
ATOM      1  C   UNL     1      82.599  -3.777   2.684  1.00  0.00     0.000 C 
ENDROOT
BRANCH   1   2
ATOM      2  C   UNL     1      83.699  -2.888   3.293  1.00  0.00     0.000 C 
BRANCH   2   3
ATOM      3  C   UNL     1      84.773  -2.406   2.300  1.00  0.00     0.000 C 
BRANCH   3   4
ATOM      4  C   UNL     1      86.198  -2.800   2.720  1.00  0.00    -0.000 C 
BRANCH   4   5
ATOM      5  C   UNL     1      87.282  -2.034   1.944  1.00  0.00    -0.000 C 
BRANCH   5   6
ATOM      6  C   UNL     1      88.692  -2.649   2.085  1.00  0.00    -0.000 C 
BRANCH   6   7
ATOM      7  C   UNL     1      89.384  -2.230   3.389  1.00  0.00    -0.000 C 
BRANCH   7   8
ATOM      8  C   UNL     1      89.487  -3.414   4.364  1.00  0.00    -0.000 C 
BRANCH   8   9
ATOM      9  C   UNL     1      88.705  -3.181   5.667  1.00  0.00    -0.000 C 
BRANCH   9  10
ATOM     10  C   UNL     1      88.249  -1.725   5.836  1.00  0.00    -0.000 C 
BRANCH  10  11
ATOM     11  C   UNL     1      86.761  -1.655   6.202  1.00  0.00    -0.003 C 
ATOM     12  C   UNL     1      86.192  -3.047   6.462  1.00  0.00     0.004 C 
ENDBRANCH  10  11
ENDBRANCH   9  10
ENDBRANCH   8   9
ENDBRANCH   7   8
ENDBRANCH   6   7
ENDBRANCH   5   6
ENDBRANCH   4   5
ENDBRANCH   3   4
ENDBRANCH   2   3
ENDBRANCH   1   2
BRANCH   1  13
ATOM     13  C   UNL     1      81.332  -2.989   2.311  1.00  0.00     0.000 C 
BRANCH  13  14
ATOM     14  C   UNL     1      81.038  -3.002   0.799  1.00  0.00     0.000 C 
BRANCH  14  15
ATOM     15  C   UNL     1      81.778  -1.931  -0.023  1.00  0.00     0.000 C 
BRANCH  15  16
ATOM     16  C   UNL     1      81.963  -0.610   0.738  1.00  0.00     0.000 C 
BRANCH  16  17
ATOM     17  C   UNL     1      82.733   0.410  -0.111  1.00  0.00     0.000 C 
BRANCH  17  18
ATOM     18  C   UNL     1      82.257   1.841   0.180  1.00  0.00     0.000 C 
BRANCH  18  19
ATOM     19  C   UNL     1      80.802   1.892   0.672  1.00  0.00     0.000 C 
BRANCH  19  20
ATOM     20  C   UNL     1      80.647   2.688   1.980  1.00  0.00     0.006 C 
BRANCH  20  21
ATOM     21  C   UNL     1      81.873   2.548   2.891  1.00  0.00     0.053 C 
BRANCH  21  22
ATOM     22  C   UNL     1      81.724   3.351   4.147  1.00  0.00     0.041 C 
ATOM     23  O   UNL     1      80.619   3.387   4.749  1.00  0.00    -0.550 OA
ATOM     24  O   UNL     1      82.797   4.090   4.632  1.00  0.00    -0.550 OA
ENDBRANCH  21  22
ENDBRANCH  20  21
ENDBRANCH  19  20
ENDBRANCH  18  19
ENDBRANCH  17  18
ENDBRANCH  16  17
ENDBRANCH  15  16
ENDBRANCH  14  15
ENDBRANCH  13  14
ENDBRANCH   1  13
TORSDOF 20
ENDMDL
MODEL 6
REMARK VINA RESULT:    -6.174      0.874      1.851
REMARK INTER + INTRA:         -16.049
REMARK INTER:                 -13.689
REMARK INTRA:                  -2.360
REMARK UNBOUND:                -2.657
REMARK SMILES CCCCCCCCCCCCCCCCCCCCCC(=O)[O-]
REMARK SMILES IDX 12 1 11 2 10 3 9 4 8 5 7 6 6 7 5 8 4 9 3 10 2 11 1 12 13 13
REMARK SMILES IDX 14 14 15 15 16 16 17 17 18 18 19 19 20 20 21 21 22 22 23 23
REMARK SMILES IDX 24 24
REMARK H PARENT
REMARK Flexibility Score: inf
ROOT
ATOM      1  C   UNL     1      94.658  -5.244  10.263  1.00  0.00     0.000 C 
ENDROOT
BRANCH   1   2
ATOM      2  C   UNL     1      93.747  -4.079   9.834  1.00  0.00     0.000 C 
BRANCH   2   3
ATOM      3  C   UNL     1      93.475  -3.986   8.321  1.00  0.00     0.000 C 
BRANCH   3   4
ATOM      4  C   UNL     1      93.665  -2.565   7.764  1.00  0.00    -0.000 C 
BRANCH   4   5
ATOM      5  C   UNL     1      92.390  -2.005   7.112  1.00  0.00    -0.000 C 
BRANCH   5   6
ATOM      6  C   UNL     1      92.670  -0.987   5.986  1.00  0.00    -0.000 C 
BRANCH   6   7
ATOM      7  C   UNL     1      91.393  -0.577   5.238  1.00  0.00    -0.000 C 
BRANCH   7   8
ATOM      8  C   UNL     1      90.576  -1.811   4.824  1.00  0.00    -0.000 C 
BRANCH   8   9
ATOM      9  C   UNL     1      89.229  -1.906   5.558  1.00  0.00    -0.000 C 
BRANCH   9  10
ATOM     10  C   UNL     1      88.775  -3.356   5.782  1.00  0.00    -0.000 C 
BRANCH  10  11
ATOM     11  C   UNL     1      89.910  -4.340   5.477  1.00  0.00    -0.003 C 
ATOM     12  C   UNL     1      90.295  -5.139   6.718  1.00  0.00     0.004 C 
ENDBRANCH  10  11
ENDBRANCH   9  10
ENDBRANCH   8   9
ENDBRANCH   7   8
ENDBRANCH   6   7
ENDBRANCH   5   6
ENDBRANCH   4   5
ENDBRANCH   3   4
ENDBRANCH   2   3
ENDBRANCH   1   2
BRANCH   1  13
ATOM     13  C   UNL     1      95.979  -4.770  10.892  1.00  0.00     0.000 C 
BRANCH  13  14
ATOM     14  C   UNL     1      96.056  -3.240  11.051  1.00  0.00     0.000 C 
BRANCH  14  15
ATOM     15  C   UNL     1      97.010  -2.525  10.076  1.00  0.00     0.000 C 
BRANCH  15  16
ATOM     16  C   UNL     1      97.483  -3.427   8.927  1.00  0.00     0.000 C 
BRANCH  16  17
ATOM     17  C   UNL     1      97.070  -2.848   7.568  1.00  0.00     0.000 C 
BRANCH  17  18
ATOM     18  C   UNL     1      98.303  -2.479   6.728  1.00  0.00     0.000 C 
BRANCH  18  19
ATOM     19  C   UNL     1      99.415  -3.536   6.815  1.00  0.00     0.000 C 
BRANCH  19  20
ATOM     20  C   UNL     1      99.428  -4.483   5.603  1.00  0.00     0.006 C 
BRANCH  20  21
ATOM     21  C   UNL     1      99.245  -5.950   6.012  1.00  0.00     0.053 C 
BRANCH  21  22
ATOM     22  C   UNL     1      97.874  -6.452   5.676  1.00  0.00     0.041 C 
ATOM     23  O   UNL     1      96.869  -6.017   6.298  1.00  0.00    -0.550 OA
ATOM     24  O   UNL     1      97.710  -7.429   4.700  1.00  0.00    -0.550 OA
ENDBRANCH  21  22
ENDBRANCH  20  21
ENDBRANCH  19  20
ENDBRANCH  18  19
ENDBRANCH  17  18
ENDBRANCH  16  17
ENDBRANCH  15  16
ENDBRANCH  14  15
ENDBRANCH  13  14
ENDBRANCH   1  13
TORSDOF 20
ENDMDL
MODEL 7
REMARK VINA RESULT:    -6.093      7.332     11.596
REMARK INTER + INTRA:         -15.873
REMARK INTER:                 -13.819
REMARK INTRA:                  -2.054
REMARK UNBOUND:                -2.657
REMARK SMILES CCCCCCCCCCCCCCCCCCCCCC(=O)[O-]
REMARK SMILES IDX 12 1 11 2 10 3 9 4 8 5 7 6 6 7 5 8 4 9 3 10 2 11 1 12 13 13
REMARK SMILES IDX 14 14 15 15 16 16 17 17 18 18 19 19 20 20 21 21 22 22 23 23
REMARK SMILES IDX 24 24
REMARK H PARENT
REMARK Flexibility Score: inf
ROOT
ATOM      1  C   UNL     1      81.089  -3.279   2.346  1.00  0.00     0.000 C 
ENDROOT
BRANCH   1   2
ATOM      2  C   UNL     1      81.399  -3.755   0.915  1.00  0.00     0.000 C 
BRANCH   2   3
ATOM      3  C   UNL     1      81.566  -2.631  -0.125  1.00  0.00     0.000 C 
BRANCH   3   4
ATOM      4  C   UNL     1      81.705  -1.239   0.514  1.00  0.00    -0.000 C 
BRANCH   4   5
ATOM      5  C   UNL     1      83.150  -0.715   0.494  1.00  0.00    -0.000 C 
BRANCH   5   6
ATOM      6  C   UNL     1      83.299   0.657  -0.198  1.00  0.00    -0.000 C 
BRANCH   6   7
ATOM      7  C   UNL     1      81.970   1.167  -0.776  1.00  0.00    -0.000 C 
BRANCH   7   8
ATOM      8  C   UNL     1      81.499   2.432  -0.041  1.00  0.00    -0.000 C 
BRANCH   8   9
ATOM      9  C   UNL     1      80.136   2.248   0.646  1.00  0.00    -0.000 C 
BRANCH   9  10
ATOM     10  C   UNL     1      80.091   2.860   2.054  1.00  0.00    -0.000 C 
BRANCH  10  11
ATOM     11  C   UNL     1      81.428   2.666   2.779  1.00  0.00    -0.003 C 
ATOM     12  C   UNL     1      81.235   2.628   4.292  1.00  0.00     0.004 C 
ENDBRANCH  10  11
ENDBRANCH   9  10
ENDBRANCH   8   9
ENDBRANCH   7   8
ENDBRANCH   6   7
ENDBRANCH   5   6
ENDBRANCH   4   5
ENDBRANCH   3   4
ENDBRANCH   2   3
ENDBRANCH   1   2
BRANCH   1  13
ATOM     13  C   UNL     1      82.172  -3.686   3.360  1.00  0.00     0.000 C 
BRANCH  13  14
ATOM     14  C   UNL     1      83.586  -3.715   2.752  1.00  0.00     0.000 C 
BRANCH  14  15
ATOM     15  C   UNL     1      84.563  -2.662   3.308  1.00  0.00     0.000 C 
BRANCH  15  16
ATOM     16  C   UNL     1      85.813  -2.480   2.435  1.00  0.00     0.000 C 
BRANCH  16  17
ATOM     17  C   UNL     1      87.090  -2.589   3.276  1.00  0.00     0.000 C 
BRANCH  17  18
ATOM     18  C   UNL     1      86.765  -2.569   4.778  1.00  0.00     0.000 C 
BRANCH  18  19
ATOM     19  C   UNL     1      87.910  -1.988   5.623  1.00  0.00     0.000 C 
BRANCH  19  20
ATOM     20  C   UNL     1      89.236  -2.741   5.421  1.00  0.00     0.006 C 
BRANCH  20  21
ATOM     21  C   UNL     1      89.335  -3.988   6.310  1.00  0.00     0.053 C 
BRANCH  21  22
ATOM     22  C   UNL     1      90.665  -4.663   6.171  1.00  0.00     0.041 C 
ATOM     23  O   UNL     1      90.886  -5.436   5.202  1.00  0.00    -0.550 OA
ATOM     24  O   UNL     1      91.648  -4.468   7.134  1.00  0.00    -0.550 OA
ENDBRANCH  21  22
ENDBRANCH  20  21
ENDBRANCH  19  20
ENDBRANCH  18  19
ENDBRANCH  17  18
ENDBRANCH  16  17
ENDBRANCH  15  16
ENDBRANCH  14  15
ENDBRANCH  13  14
ENDBRANCH   1  13
TORSDOF 20
ENDMDL
MODEL 8
REMARK VINA RESULT:    -6.067      2.936      7.838
REMARK INTER + INTRA:         -15.817
REMARK INTER:                 -13.879
REMARK INTRA:                  -1.938
REMARK UNBOUND:                -2.657
REMARK SMILES CCCCCCCCCCCCCCCCCCCCCC(=O)[O-]
REMARK SMILES IDX 12 1 11 2 10 3 9 4 8 5 7 6 6 7 5 8 4 9 3 10 2 11 1 12 13 13
REMARK SMILES IDX 14 14 15 15 16 16 17 17 18 18 19 19 20 20 21 21 22 22 23 23
REMARK SMILES IDX 24 24
REMARK H PARENT
REMARK Flexibility Score: inf
ROOT
ATOM      1  C   UNL     1      95.101  -4.883  10.686  1.00  0.00     0.000 C 
ENDROOT
BRANCH   1   2
ATOM      2  C   UNL     1      96.525  -4.354  10.939  1.00  0.00     0.000 C 
BRANCH   2   3
ATOM      3  C   UNL     1      97.062  -3.388   9.868  1.00  0.00     0.000 C 
BRANCH   3   4
ATOM      4  C   UNL     1      97.131  -4.023   8.469  1.00  0.00    -0.000 C 
BRANCH   4   5
ATOM      5  C   UNL     1      96.949  -2.996   7.339  1.00  0.00    -0.000 C 
BRANCH   5   6
ATOM      6  C   UNL     1      98.272  -2.596   6.650  1.00  0.00    -0.000 C 
BRANCH   6   7
ATOM      7  C   UNL     1      99.336  -3.699   6.743  1.00  0.00    -0.000 C 
BRANCH   7   8
ATOM      8  C   UNL     1      99.221  -4.677   5.564  1.00  0.00    -0.000 C 
BRANCH   8   9
ATOM      9  C   UNL     1      99.034  -6.134   6.015  1.00  0.00    -0.000 C 
BRANCH   9  10
ATOM     10  C   UNL     1      97.638  -6.685   5.686  1.00  0.00    -0.000 C 
BRANCH  10  11
ATOM     11  C   UNL     1      97.684  -8.203   5.474  1.00  0.00    -0.003 C 
ATOM     12  C   UNL     1      98.957  -8.803   6.062  1.00  0.00     0.004 C 
ENDBRANCH  10  11
ENDBRANCH   9  10
ENDBRANCH   8   9
ENDBRANCH   7   8
ENDBRANCH   6   7
ENDBRANCH   5   6
ENDBRANCH   4   5
ENDBRANCH   3   4
ENDBRANCH   2   3
ENDBRANCH   1   2
BRANCH   1  13
ATOM     13  C   UNL     1      94.116  -3.776  10.276  1.00  0.00     0.000 C 
BRANCH  13  14
ATOM     14  C   UNL     1      93.396  -4.074   8.947  1.00  0.00     0.000 C 
BRANCH  14  15
ATOM     15  C   UNL     1      93.406  -2.924   7.922  1.00  0.00     0.000 C 
BRANCH  15  16
ATOM     16  C   UNL     1      92.117  -2.846   7.092  1.00  0.00     0.000 C 
BRANCH  16  17
ATOM     17  C   UNL     1      91.521  -4.242   6.871  1.00  0.00     0.000 C 
BRANCH  17  18
ATOM     18  C   UNL     1      90.651  -4.276   5.606  1.00  0.00     0.000 C 
BRANCH  18  19
ATOM     19  C   UNL     1      89.249  -3.690   5.836  1.00  0.00     0.000 C 
BRANCH  19  20
ATOM     20  C   UNL     1      88.994  -2.421   5.005  1.00  0.00     0.006 C 
BRANCH  20  21
ATOM     21  C   UNL     1      89.844  -2.386   3.727  1.00  0.00     0.053 C 
BRANCH  21  22
ATOM     22  C   UNL     1      90.569  -1.083   3.581  1.00  0.00     0.041 C 
ATOM     23  O   UNL     1      90.419  -0.387   2.542  1.00  0.00    -0.550 OA
ATOM     24  O   UNL     1      91.442  -0.656   4.575  1.00  0.00    -0.550 OA
ENDBRANCH  21  22
ENDBRANCH  20  21
ENDBRANCH  19  20
ENDBRANCH  18  19
ENDBRANCH  17  18
ENDBRANCH  16  17
ENDBRANCH  15  16
ENDBRANCH  14  15
ENDBRANCH  13  14
ENDBRANCH   1  13
TORSDOF 20
ENDMDL
MODEL 9
REMARK VINA RESULT:    -6.064      6.731     11.773
REMARK INTER + INTRA:         -15.812
REMARK INTER:                 -13.108
REMARK INTRA:                  -2.704
REMARK UNBOUND:                -2.657
REMARK SMILES CCCCCCCCCCCCCCCCCCCCCC(=O)[O-]
REMARK SMILES IDX 12 1 11 2 10 3 9 4 8 5 7 6 6 7 5 8 4 9 3 10 2 11 1 12 13 13
REMARK SMILES IDX 14 14 15 15 16 16 17 17 18 18 19 19 20 20 21 21 22 22 23 23
REMARK SMILES IDX 24 24
REMARK H PARENT
REMARK Flexibility Score: inf
ROOT
ATOM      1  C   UNL     1      89.587  -2.326   2.494  1.00  0.00     0.000 C 
ENDROOT
BRANCH   1   2
ATOM      2  C   UNL     1      89.985  -0.890   2.884  1.00  0.00     0.000 C 
BRANCH   2   3
ATOM      3  C   UNL     1      91.334  -0.763   3.615  1.00  0.00     0.000 C 
BRANCH   3   4
ATOM      4  C   UNL     1      91.177  -0.511   5.124  1.00  0.00    -0.000 C 
BRANCH   4   5
ATOM      5  C   UNL     1      92.144  -1.353   5.973  1.00  0.00    -0.000 C 
BRANCH   5   6
ATOM      6  C   UNL     1      91.451  -2.500   6.741  1.00  0.00    -0.000 C 
BRANCH   6   7
ATOM      7  C   UNL     1      91.137  -3.701   5.837  1.00  0.00    -0.000 C 
BRANCH   7   8
ATOM      8  C   UNL     1      89.694  -4.187   6.048  1.00  0.00    -0.000 C 
BRANCH   8   9
ATOM      9  C   UNL     1      88.668  -3.044   5.994  1.00  0.00    -0.000 C 
BRANCH   9  10
ATOM     10  C   UNL     1      87.282  -3.464   6.507  1.00  0.00    -0.000 C 
BRANCH  10  11
ATOM     11  C   UNL     1      86.275  -2.316   6.367  1.00  0.00    -0.003 C 
ATOM     12  C   UNL     1      86.975  -0.960   6.417  1.00  0.00     0.004 C 
ENDBRANCH  10  11
ENDBRANCH   9  10
ENDBRANCH   8   9
ENDBRANCH   7   8
ENDBRANCH   6   7
ENDBRANCH   5   6
ENDBRANCH   4   5
ENDBRANCH   3   4
ENDBRANCH   2   3
ENDBRANCH   1   2
BRANCH   1  13
ATOM     13  C   UNL     1      88.208  -2.402   1.817  1.00  0.00     0.000 C 
BRANCH  13  14
ATOM     14  C   UNL     1      87.059  -2.640   2.815  1.00  0.00     0.000 C 
BRANCH  14  15
ATOM     15  C   UNL     1      85.645  -2.621   2.207  1.00  0.00     0.000 C 
BRANCH  15  16
ATOM     16  C   UNL     1      84.557  -2.244   3.223  1.00  0.00     0.000 C 
BRANCH  16  17
ATOM     17  C   UNL     1      83.615  -3.426   3.482  1.00  0.00     0.000 C 
BRANCH  17  18
ATOM     18  C   UNL     1      82.850  -3.811   2.207  1.00  0.00     0.000 C 
BRANCH  18  19
ATOM     19  C   UNL     1      81.338  -3.568   2.328  1.00  0.00     0.000 C 
BRANCH  19  20
ATOM     20  C   UNL     1      80.827  -2.508   1.337  1.00  0.00     0.006 C 
BRANCH  20  21
ATOM     21  C   UNL     1      81.911  -2.080   0.339  1.00  0.00     0.053 C 
BRANCH  21  22
ATOM     22  C   UNL     1      82.304  -0.646   0.529  1.00  0.00     0.041 C 
ATOM     23  O   UNL     1      81.421   0.239   0.672  1.00  0.00    -0.550 OA
ATOM     24  O   UNL     1      83.645  -0.284   0.509  1.00  0.00    -0.550 OA
ENDBRANCH  21  22
ENDBRANCH  20  21
ENDBRANCH  19  20
ENDBRANCH  18  19
ENDBRANCH  17  18
ENDBRANCH  16  17
ENDBRANCH  15  16
ENDBRANCH  14  15
ENDBRANCH  13  14
ENDBRANCH   1  13
TORSDOF 20
ENDMDL
