MODEL 1
REMARK VINA RESULT:    -5.093      0.000      0.000
REMARK INTER + INTRA:         -15.420
REMARK INTER:                 -13.429
REMARK INTRA:                  -1.991
REMARK UNBOUND:                -1.991
REMARK SMILES CCCCCCCCCCCCCCCCCCCCCCCCCCCCCC(=O)[O-]
REMARK SMILES IDX 16 1 17 2 18 3 19 4 20 5 21 6 22 7 23 8 24 9 25 10 26 11
REMARK SMILES IDX 27 12 28 13 29 14 30 15 31 16 32 17 15 18 14 19 13 20 12 21
REMARK SMILES IDX 11 22 10 23 9 24 8 25 7 26 6 27 5 28 4 29 3 30 2 31 1 32
REMARK H PARENT
REMARK Flexibility Score: inf
ROOT
ATOM      1  C   UNL     1       0.048  -4.577  -3.751  1.00  0.00     0.000 C 
ENDROOT
BRANCH   1   2
ATOM      2  C   UNL     1       1.178  -3.868  -2.978  1.00  0.00     0.000 C 
BRANCH   2   3
ATOM      3  C   UNL     1       0.727  -2.975  -1.807  1.00  0.00     0.000 C 
BRANCH   3   4
ATOM      4  C   UNL     1       0.831  -3.609  -0.405  1.00  0.00     0.000 C 
BRANCH   4   5
ATOM      5  C   UNL     1       1.145  -2.608   0.725  1.00  0.00     0.000 C 
BRANCH   5   6
ATOM      6  C   UNL     1       0.237  -1.369   0.702  1.00  0.00     0.000 C 
BRANCH   6   7
ATOM      7  C   UNL     1       0.902  -0.185   1.415  1.00  0.00     0.000 C 
BRANCH   7   8
ATOM      8  C   UNL     1       0.301   1.151   0.951  1.00  0.00     0.000 C 
BRANCH   8   9
ATOM      9  C   UNL     1      -0.777   0.969  -0.138  1.00  0.00     0.000 C 
BRANCH   9  10
ATOM     10  C   UNL     1      -2.008   1.879   0.037  1.00  0.00     0.000 C 
BRANCH  10  11
ATOM     11  C   UNL     1      -2.261   2.785  -1.178  1.00  0.00     0.000 C 
BRANCH  11  12
ATOM     12  C   UNL     1      -1.417   4.074  -1.165  1.00  0.00     0.000 C 
BRANCH  12  13
ATOM     13  C   UNL     1      -0.148   4.049  -2.041  1.00  0.00     0.006 C 
BRANCH  13  14
ATOM     14  C   UNL     1      -0.132   2.950  -3.117  1.00  0.00     0.053 C 
BRANCH  14  15
ATOM     15  C   UNL     1       1.120   2.990  -3.940  1.00  0.00     0.041 C 
ATOM     16  O   UNL     1       1.606   4.094  -4.305  1.00  0.00    -0.550 OA
ATOM     17  O   UNL     1       1.760   1.808  -4.289  1.00  0.00    -0.550 OA
ENDBRANCH  14  15
ENDBRANCH  13  14
ENDBRANCH  12  13
ENDBRANCH  11  12
ENDBRANCH  10  11
ENDBRANCH   9  10
ENDBRANCH   8   9
ENDBRANCH   7   8
ENDBRANCH   6   7
ENDBRANCH   5   6
ENDBRANCH   4   5
ENDBRANCH   3   4
ENDBRANCH   2   3
ENDBRANCH   1   2
BRANCH   1  18
ATOM     18  C   UNL     1      -0.150  -4.065  -5.193  1.00  0.00     0.000 C 
BRANCH  18  19
ATOM     19  C   UNL     1       0.480  -4.991  -6.249  1.00  0.00     0.000 C 
BRANCH  19  20
ATOM     20  C   UNL     1       1.979  -5.227  -5.997  1.00  0.00     0.000 C 
BRANCH  20  21
ATOM     21  C   UNL     1       2.289  -6.692  -5.653  1.00  0.00     0.000 C 
BRANCH  21  22
ATOM     22  C   UNL     1       2.806  -7.450  -6.883  1.00  0.00     0.000 C 
BRANCH  22  23
ATOM     23  C   UNL     1       3.720  -8.634  -6.519  1.00  0.00     0.000 C 
BRANCH  23  24
ATOM     24  C   UNL     1       4.669  -8.385  -5.333  1.00  0.00    -0.000 C 
BRANCH  24  25
ATOM     25  C   UNL     1       4.584  -9.483  -4.258  1.00  0.00    -0.000 C 
BRANCH  25  26
ATOM     26  C   UNL     1       3.136  -9.832  -3.867  1.00  0.00    -0.000 C 
BRANCH  26  27
ATOM     27  C   UNL     1       2.678  -9.293  -2.499  1.00  0.00    -0.000 C 
BRANCH  27  28
ATOM     28  C   UNL     1       1.448 -10.033  -1.944  1.00  0.00    -0.000 C 
BRANCH  28  29
ATOM     29  C   UNL     1       0.351  -9.082  -1.435  1.00  0.00    -0.000 C 
BRANCH  29  30
ATOM     30  C   UNL     1      -0.334  -9.526  -0.129  1.00  0.00    -0.000 C 
BRANCH  30  31
ATOM     31  C   UNL     1      -1.825  -9.160  -0.079  1.00  0.00    -0.003 C 
ATOM     32  C   UNL     1      -2.429  -9.499   1.280  1.00  0.00     0.004 C 
ENDBRANCH  30  31
ENDBRANCH  29  30
ENDBRANCH  28  29
ENDBRANCH  27  28
ENDBRANCH  26  27
ENDBRANCH  25  26
ENDBRANCH  24  25
ENDBRANCH  23  24
ENDBRANCH  22  23
ENDBRANCH  21  22
ENDBRANCH  20  21
ENDBRANCH  19  20
ENDBRANCH  18  19
ENDBRANCH   1  18
TORSDOF 28
ENDMDL
MODEL 2
REMARK VINA RESULT:    -4.914      1.211      4.451
REMARK INTER + INTRA:         -14.949
REMARK INTER:                 -12.162
REMARK INTRA:                  -2.786
REMARK UNBOUND:                -1.991
REMARK SMILES CCCCCCCCCCCCCCCCCCCCCCCCCCCCCC(=O)[O-]
REMARK SMILES IDX 16 1 17 2 18 3 19 4 20 5 21 6 22 7 23 8 24 9 25 10 26 11
REMARK SMILES IDX 27 12 28 13 29 14 30 15 31 16 32 17 15 18 14 19 13 20 12 21
REMARK SMILES IDX 11 22 10 23 9 24 8 25 7 26 6 27 5 28 4 29 3 30 2 31 1 32
REMARK H PARENT
REMARK Flexibility Score: inf
ROOT
ATOM      1  C   UNL     1      -1.580  -8.363  -0.460  1.00  0.00     0.000 C 
ENDROOT
BRANCH   1   2
ATOM      2  C   UNL     1      -1.269  -7.229  -1.457  1.00  0.00     0.000 C 
BRANCH   2   3
ATOM      3  C   UNL     1       0.016  -6.428  -1.177  1.00  0.00     0.000 C 
BRANCH   3   4
ATOM      4  C   UNL     1      -0.021  -4.941  -1.589  1.00  0.00     0.000 C 
BRANCH   4   5
ATOM      5  C   UNL     1       1.019  -4.056  -0.875  1.00  0.00     0.000 C 
BRANCH   5   6
ATOM      6  C   UNL     1       0.386  -2.906  -0.078  1.00  0.00     0.000 C 
BRANCH   6   7
ATOM      7  C   UNL     1       1.390  -2.304   0.914  1.00  0.00     0.000 C 
BRANCH   7   8
ATOM      8  C   UNL     1       0.975  -0.884   1.330  1.00  0.00     0.000 C 
BRANCH   8   9
ATOM      9  C   UNL     1      -0.017  -0.242   0.337  1.00  0.00     0.000 C 
BRANCH   9  10
ATOM     10  C   UNL     1      -0.172   1.283   0.499  1.00  0.00     0.000 C 
BRANCH  10  11
ATOM     11  C   UNL     1      -1.485   1.818  -0.092  1.00  0.00     0.000 C 
BRANCH  11  12
ATOM     12  C   UNL     1      -1.715   1.393  -1.556  1.00  0.00     0.000 C 
BRANCH  12  13
ATOM     13  C   UNL     1      -1.576   2.516  -2.605  1.00  0.00     0.006 C 
BRANCH  13  14
ATOM     14  C   UNL     1      -0.300   2.441  -3.461  1.00  0.00     0.053 C 
BRANCH  14  15
ATOM     15  C   UNL     1       0.629   3.584  -3.184  1.00  0.00     0.041 C 
ATOM     16  O   UNL     1       1.536   3.878  -4.007  1.00  0.00    -0.550 OA
ATOM     17  O   UNL     1       0.480   4.335  -2.026  1.00  0.00    -0.550 OA
ENDBRANCH  14  15
ENDBRANCH  13  14
ENDBRANCH  12  13
ENDBRANCH  11  12
ENDBRANCH  10  11
ENDBRANCH   9  10
ENDBRANCH   8   9
ENDBRANCH   7   8
ENDBRANCH   6   7
ENDBRANCH   5   6
ENDBRANCH   4   5
ENDBRANCH   3   4
ENDBRANCH   2   3
ENDBRANCH   1   2
BRANCH   1  18
ATOM     18  C   UNL     1      -1.019  -9.740  -0.872  1.00  0.00     0.000 C 
BRANCH  18  19
ATOM     19  C   UNL     1       0.373 -10.020  -0.278  1.00  0.00     0.000 C 
BRANCH  19  20
ATOM     20  C   UNL     1       1.504  -9.727  -1.279  1.00  0.00     0.000 C 
BRANCH  20  21
ATOM     21  C   UNL     1       1.046  -9.877  -2.738  1.00  0.00     0.000 C 
BRANCH  21  22
ATOM     22  C   UNL     1       2.188  -9.554  -3.711  1.00  0.00     0.000 C 
BRANCH  22  23
ATOM     23  C   UNL     1       3.411  -8.932  -3.013  1.00  0.00     0.000 C 
BRANCH  23  24
ATOM     24  C   UNL     1       4.615  -8.654  -3.931  1.00  0.00    -0.000 C 
BRANCH  24  25
ATOM     25  C   UNL     1       4.828  -9.752  -4.987  1.00  0.00    -0.000 C 
BRANCH  25  26
ATOM     26  C   UNL     1       4.923  -9.198  -6.422  1.00  0.00    -0.000 C 
BRANCH  26  27
ATOM     27  C   UNL     1       3.573  -8.944  -7.118  1.00  0.00    -0.000 C 
BRANCH  27  28
ATOM     28  C   UNL     1       3.273  -7.448  -7.316  1.00  0.00    -0.000 C 
BRANCH  28  29
ATOM     29  C   UNL     1       2.307  -6.881  -6.262  1.00  0.00    -0.000 C 
BRANCH  29  30
ATOM     30  C   UNL     1       2.366  -5.353  -6.085  1.00  0.00    -0.000 C 
BRANCH  30  31
ATOM     31  C   UNL     1       1.104  -4.774  -5.429  1.00  0.00    -0.003 C 
ATOM     32  C   UNL     1       0.026  -4.484  -6.469  1.00  0.00     0.004 C 
ENDBRANCH  30  31
ENDBRANCH  29  30
ENDBRANCH  28  29
ENDBRANCH  27  28
ENDBRANCH  26  27
ENDBRANCH  25  26
ENDBRANCH  24  25
ENDBRANCH  23  24
ENDBRANCH  22  23
ENDBRANCH  21  22
ENDBRANCH  20  21
ENDBRANCH  19  20
ENDBRANCH  18  19
ENDBRANCH   1  18
TORSDOF 28
ENDMDL
MODEL 3
REMARK VINA RESULT:    -4.859      1.127      4.386
REMARK INTER + INTRA:         -14.803
REMARK INTER:                 -12.862
REMARK INTRA:                  -1.941
REMARK UNBOUND:                -1.991
REMARK SMILES CCCCCCCCCCCCCCCCCCCCCCCCCCCCCC(=O)[O-]
REMARK SMILES IDX 16 1 17 2 18 3 19 4 20 5 21 6 22 7 23 8 24 9 25 10 26 11
REMARK SMILES IDX 27 12 28 13 29 14 30 15 31 16 32 17 15 18 14 19 13 20 12 21
REMARK SMILES IDX 11 22 10 23 9 24 8 25 7 26 6 27 5 28 4 29 3 30 2 31 1 32
REMARK H PARENT
REMARK Flexibility Score: inf
ROOT
ATOM      1  C   UNL     1      -0.126  -6.712  -0.963  1.00  0.00     0.000 C 
ENDROOT
BRANCH   1   2
ATOM      2  C   UNL     1       0.291  -5.894  -2.200  1.00  0.00     0.000 C 
BRANCH   2   3
ATOM      3  C   UNL     1       0.409  -4.374  -1.988  1.00  0.00     0.000 C 
BRANCH   3   4
ATOM      4  C   UNL     1       0.768  -3.925  -0.556  1.00  0.00     0.000 C 
BRANCH   4   5
ATOM      5  C   UNL     1       0.387  -2.468  -0.230  1.00  0.00     0.000 C 
BRANCH   5   6
ATOM      6  C   UNL     1       1.071  -1.935   1.038  1.00  0.00     0.000 C 
BRANCH   6   7
ATOM      7  C   UNL     1       0.859  -0.423   1.186  1.00  0.00     0.000 C 
BRANCH   7   8
ATOM      8  C   UNL     1      -0.186   0.091   0.184  1.00  0.00     0.000 C 
BRANCH   8   9
ATOM      9  C   UNL     1      -0.685   1.511   0.524  1.00  0.00     0.000 C 
BRANCH   9  10
ATOM     10  C   UNL     1      -1.929   1.949  -0.272  1.00  0.00     0.000 C 
BRANCH  10  11
ATOM     11  C   UNL     1      -2.141   3.471  -0.261  1.00  0.00     0.000 C 
BRANCH  11  12
ATOM     12  C   UNL     1      -1.354   4.206  -1.363  1.00  0.00     0.000 C 
BRANCH  12  13
ATOM     13  C   UNL     1       0.092   3.718  -1.587  1.00  0.00     0.006 C 
BRANCH  13  14
ATOM     14  C   UNL     1       0.565   3.757  -3.050  1.00  0.00     0.053 C 
BRANCH  14  15
ATOM     15  C   UNL     1       0.622   2.388  -3.658  1.00  0.00     0.041 C 
ATOM     16  O   UNL     1      -0.310   1.564  -3.457  1.00  0.00    -0.550 OA
ATOM     17  O   UNL     1       1.696   2.029  -4.462  1.00  0.00    -0.550 OA
ENDBRANCH  14  15
ENDBRANCH  13  14
ENDBRANCH  12  13
ENDBRANCH  11  12
ENDBRANCH  10  11
ENDBRANCH   9  10
ENDBRANCH   8   9
ENDBRANCH   7   8
ENDBRANCH   6   7
ENDBRANCH   5   6
ENDBRANCH   4   5
ENDBRANCH   3   4
ENDBRANCH   2   3
ENDBRANCH   1   2
BRANCH   1  18
ATOM     18  C   UNL     1      -1.649  -6.921  -0.826  1.00  0.00     0.000 C 
BRANCH  18  19
ATOM     19  C   UNL     1      -2.011  -8.237  -0.115  1.00  0.00     0.000 C 
BRANCH  19  20
ATOM     20  C   UNL     1      -1.153  -9.417  -0.600  1.00  0.00     0.000 C 
BRANCH  20  21
ATOM     21  C   UNL     1      -0.223  -9.953   0.500  1.00  0.00     0.000 C 
BRANCH  21  22
ATOM     22  C   UNL     1       1.232 -10.006   0.014  1.00  0.00     0.000 C 
BRANCH  22  23
ATOM     23  C   UNL     1       1.349 -10.124  -1.516  1.00  0.00     0.000 C 
BRANCH  23  24
ATOM     24  C   UNL     1       2.343  -9.149  -2.172  1.00  0.00    -0.000 C 
BRANCH  24  25
ATOM     25  C   UNL     1       3.108  -9.777  -3.350  1.00  0.00    -0.000 C 
BRANCH  25  26
ATOM     26  C   UNL     1       4.358  -8.974  -3.755  1.00  0.00    -0.000 C 
BRANCH  26  27
ATOM     27  C   UNL     1       4.836  -9.189  -5.203  1.00  0.00    -0.000 C 
BRANCH  27  28
ATOM     28  C   UNL     1       4.099  -8.296  -6.216  1.00  0.00    -0.000 C 
BRANCH  28  29
ATOM     29  C   UNL     1       2.891  -7.562  -5.607  1.00  0.00    -0.000 C 
BRANCH  29  30
ATOM     30  C   UNL     1       2.229  -6.526  -6.533  1.00  0.00    -0.000 C 
BRANCH  30  31
ATOM     31  C   UNL     1       2.180  -5.118  -5.921  1.00  0.00    -0.003 C 
ATOM     32  C   UNL     1       0.748  -4.716  -5.580  1.00  0.00     0.004 C 
ENDBRANCH  30  31
ENDBRANCH  29  30
ENDBRANCH  28  29
ENDBRANCH  27  28
ENDBRANCH  26  27
ENDBRANCH  25  26
ENDBRANCH  24  25
ENDBRANCH  23  24
ENDBRANCH  22  23
ENDBRANCH  21  22
ENDBRANCH  20  21
ENDBRANCH  19  20
ENDBRANCH  18  19
ENDBRANCH   1  18
TORSDOF 28
ENDMDL
MODEL 4
REMARK VINA RESULT:    -4.755      2.183     10.089
REMARK INTER + INTRA:         -14.529
REMARK INTER:                 -11.854
REMARK INTRA:                  -2.675
REMARK UNBOUND:                -1.991
REMARK SMILES CCCCCCCCCCCCCCCCCCCCCCCCCCCCCC(=O)[O-]
REMARK SMILES IDX 16 1 17 2 18 3 19 4 20 5 21 6 22 7 23 8 24 9 25 10 26 11
REMARK SMILES IDX 27 12 28 13 29 14 30 15 31 16 32 17 15 18 14 19 13 20 12 21
REMARK SMILES IDX 11 22 10 23 9 24 8 25 7 26 6 27 5 28 4 29 3 30 2 31 1 32
REMARK H PARENT
REMARK Flexibility Score: inf
ROOT
ATOM      1  C   UNL     1      -1.657  -9.418  -0.102  1.00  0.00     0.000 C 
ENDROOT
BRANCH   1   2
ATOM      2  C   UNL     1      -0.547 -10.108   0.716  1.00  0.00     0.000 C 
BRANCH   2   3
ATOM      3  C   UNL     1       0.897  -9.768   0.303  1.00  0.00     0.000 C 
BRANCH   3   4
ATOM      4  C   UNL     1       1.274 -10.115  -1.153  1.00  0.00     0.000 C 
BRANCH   4   5
ATOM      5  C   UNL     1       2.237  -9.111  -1.817  1.00  0.00     0.000 C 
BRANCH   5   6
ATOM      6  C   UNL     1       2.787  -9.606  -3.163  1.00  0.00     0.000 C 
BRANCH   6   7
ATOM      7  C   UNL     1       4.080  -8.868  -3.535  1.00  0.00     0.000 C 
BRANCH   7   8
ATOM      8  C   UNL     1       4.791  -9.552  -4.713  1.00  0.00     0.000 C 
BRANCH   8   9
ATOM      9  C   UNL     1       3.861  -9.756  -5.928  1.00  0.00     0.000 C 
BRANCH   9  10
ATOM     10  C   UNL     1       4.282  -8.966  -7.182  1.00  0.00     0.000 C 
BRANCH  10  11
ATOM     11  C   UNL     1       3.167  -8.054  -7.718  1.00  0.00     0.000 C 
BRANCH  11  12
ATOM     12  C   UNL     1       2.298  -7.433  -6.607  1.00  0.00     0.000 C 
BRANCH  12  13
ATOM     13  C   UNL     1       2.897  -6.198  -5.903  1.00  0.00     0.006 C 
BRANCH  13  14
ATOM     14  C   UNL     1       2.283  -4.855  -6.330  1.00  0.00     0.053 C 
BRANCH  14  15
ATOM     15  C   UNL     1       0.883  -4.691  -5.822  1.00  0.00     0.041 C 
ATOM     16  O   UNL     1       0.663  -4.595  -4.585  1.00  0.00    -0.550 OA
ATOM     17  O   UNL     1      -0.178  -4.626  -6.716  1.00  0.00    -0.550 OA
ENDBRANCH  14  15
ENDBRANCH  13  14
ENDBRANCH  12  13
ENDBRANCH  11  12
ENDBRANCH  10  11
ENDBRANCH   9  10
ENDBRANCH   8   9
ENDBRANCH   7   8
ENDBRANCH   6   7
ENDBRANCH   5   6
ENDBRANCH   4   5
ENDBRANCH   3   4
ENDBRANCH   2   3
ENDBRANCH   1   2
BRANCH   1  18
ATOM     18  C   UNL     1      -1.497  -7.887  -0.220  1.00  0.00     0.000 C 
BRANCH  18  19
ATOM     19  C   UNL     1      -1.364  -7.411  -1.677  1.00  0.00     0.000 C 
BRANCH  19  20
ATOM     20  C   UNL     1      -0.056  -6.639  -1.922  1.00  0.00     0.000 C 
BRANCH  20  21
ATOM     21  C   UNL     1       0.323  -5.742  -0.733  1.00  0.00     0.000 C 
BRANCH  21  22
ATOM     22  C   UNL     1       0.394  -4.268  -1.156  1.00  0.00     0.000 C 
BRANCH  22  23
ATOM     23  C   UNL     1       0.963  -3.355  -0.055  1.00  0.00     0.000 C 
BRANCH  23  24
ATOM     24  C   UNL     1       0.289  -1.976   0.063  1.00  0.00    -0.000 C 
BRANCH  24  25
ATOM     25  C   UNL     1       0.792  -1.167   1.270  1.00  0.00    -0.000 C 
BRANCH  25  26
ATOM     26  C   UNL     1       0.582   0.351   1.109  1.00  0.00    -0.000 C 
BRANCH  26  27
ATOM     27  C   UNL     1      -0.327   0.766  -0.063  1.00  0.00    -0.000 C 
BRANCH  27  28
ATOM     28  C   UNL     1      -1.046   2.104   0.181  1.00  0.00    -0.000 C 
BRANCH  28  29
ATOM     29  C   UNL     1      -1.252   2.922  -1.106  1.00  0.00    -0.000 C 
BRANCH  29  30
ATOM     30  C   UNL     1       0.033   3.204  -1.906  1.00  0.00    -0.000 C 
BRANCH  30  31
ATOM     31  C   UNL     1      -0.111   2.897  -3.403  1.00  0.00    -0.003 C 
ATOM     32  C   UNL     1       1.146   2.230  -3.952  1.00  0.00     0.004 C 
ENDBRANCH  30  31
ENDBRANCH  29  30
ENDBRANCH  28  29
ENDBRANCH  27  28
ENDBRANCH  26  27
ENDBRANCH  25  26
ENDBRANCH  24  25
ENDBRANCH  23  24
ENDBRANCH  22  23
ENDBRANCH  21  22
ENDBRANCH  20  21
ENDBRANCH  19  20
ENDBRANCH  18  19
ENDBRANCH   1  18
TORSDOF 28
ENDMDL
MODEL 5
REMARK VINA RESULT:    -4.718      2.108     10.485
REMARK INTER + INTRA:         -14.433
REMARK INTER:                 -12.151
REMARK INTRA:                  -2.282
REMARK UNBOUND:                -1.991
REMARK SMILES CCCCCCCCCCCCCCCCCCCCCCCCCCCCCC(=O)[O-]
REMARK SMILES IDX 16 1 17 2 18 3 19 4 20 5 21 6 22 7 23 8 24 9 25 10 26 11
REMARK SMILES IDX 27 12 28 13 29 14 30 15 31 16 32 17 15 18 14 19 13 20 12 21
REMARK SMILES IDX 11 22 10 23 9 24 8 25 7 26 6 27 5 28 4 29 3 30 2 31 1 32
REMARK H PARENT
REMARK Flexibility Score: inf
ROOT
ATOM      1  C   UNL     1      -0.519  -7.062  -1.002  1.00  0.00     0.000 C 
ENDROOT
BRANCH   1   2
ATOM      2  C   UNL     1      -1.904  -7.726  -1.136  1.00  0.00     0.000 C 
BRANCH   2   3
ATOM      3  C   UNL     1      -2.274  -8.730  -0.028  1.00  0.00     0.000 C 
BRANCH   3   4
ATOM      4  C   UNL     1      -1.446 -10.032  -0.003  1.00  0.00     0.000 C 
BRANCH   4   5
ATOM      5  C   UNL     1      -0.290 -10.032   1.016  1.00  0.00     0.000 C 
BRANCH   5   6
ATOM      6  C   UNL     1       1.096 -10.062   0.353  1.00  0.00     0.000 C 
BRANCH   6   7
ATOM      7  C   UNL     1       0.976 -10.125  -1.175  1.00  0.00     0.000 C 
BRANCH   7   8
ATOM      8  C   UNL     1       2.262  -9.629  -1.854  1.00  0.00     0.000 C 
BRANCH   8   9
ATOM      9  C   UNL     1       2.338 -10.030  -3.342  1.00  0.00     0.000 C 
BRANCH   9  10
ATOM     10  C   UNL     1       3.618  -9.557  -4.057  1.00  0.00     0.000 C 
BRANCH  10  11
ATOM     11  C   UNL     1       3.538  -9.699  -5.585  1.00  0.00     0.000 C 
BRANCH  11  12
ATOM     12  C   UNL     1       3.503  -8.348  -6.324  1.00  0.00     0.000 C 
BRANCH  12  13
ATOM     13  C   UNL     1       2.798  -7.197  -5.577  1.00  0.00     0.006 C 
BRANCH  13  14
ATOM     14  C   UNL     1       2.111  -6.166  -6.487  1.00  0.00     0.053 C 
BRANCH  14  15
ATOM     15  C   UNL     1       1.818  -4.886  -5.763  1.00  0.00     0.041 C 
ATOM     16  O   UNL     1       2.752  -4.094  -5.470  1.00  0.00    -0.550 OA
ATOM     17  O   UNL     1       0.510  -4.561  -5.430  1.00  0.00    -0.550 OA
ENDBRANCH  14  15
ENDBRANCH  13  14
ENDBRANCH  12  13
ENDBRANCH  11  12
ENDBRANCH  10  11
ENDBRANCH   9  10
ENDBRANCH   8   9
ENDBRANCH   7   8
ENDBRANCH   6   7
ENDBRANCH   5   6
ENDBRANCH   4   5
ENDBRANCH   3   4
ENDBRANCH   2   3
ENDBRANCH   1   2
BRANCH   1  18
ATOM     18  C   UNL     1       0.006  -6.425  -2.306  1.00  0.00     0.000 C 
BRANCH  18  19
ATOM     19  C   UNL     1       0.287  -4.919  -2.164  1.00  0.00     0.000 C 
BRANCH  19  20
ATOM     20  C   UNL     1       0.288  -4.461  -0.696  1.00  0.00     0.000 C 
BRANCH  20  21
ATOM     21  C   UNL     1       1.264  -3.300  -0.447  1.00  0.00     0.000 C 
BRANCH  21  22
ATOM     22  C   UNL     1       0.808  -2.443   0.742  1.00  0.00     0.000 C 
BRANCH  22  23
ATOM     23  C   UNL     1       0.282  -1.060   0.316  1.00  0.00     0.000 C 
BRANCH  23  24
ATOM     24  C   UNL     1       0.684   0.104   1.241  1.00  0.00    -0.000 C 
BRANCH  24  25
ATOM     25  C   UNL     1       0.199   1.471   0.726  1.00  0.00    -0.000 C 
BRANCH  25  26
ATOM     26  C   UNL     1      -1.336   1.598   0.707  1.00  0.00    -0.000 C 
BRANCH  26  27
ATOM     27  C   UNL     1      -1.925   2.238  -0.563  1.00  0.00    -0.000 C 
BRANCH  27  28
ATOM     28  C   UNL     1      -1.421   3.672  -0.802  1.00  0.00    -0.000 C 
BRANCH  28  29
ATOM     29  C   UNL     1      -0.895   3.897  -2.230  1.00  0.00    -0.000 C 
BRANCH  29  30
ATOM     30  C   UNL     1       0.638   3.971  -2.351  1.00  0.00    -0.000 C 
BRANCH  30  31
ATOM     31  C   UNL     1       1.139   3.769  -3.788  1.00  0.00    -0.003 C 
ATOM     32  C   UNL     1       1.029   2.307  -4.209  1.00  0.00     0.004 C 
ENDBRANCH  30  31
ENDBRANCH  29  30
ENDBRANCH  28  29
ENDBRANCH  27  28
ENDBRANCH  26  27
ENDBRANCH  25  26
ENDBRANCH  24  25
ENDBRANCH  23  24
ENDBRANCH  22  23
ENDBRANCH  21  22
ENDBRANCH  20  21
ENDBRANCH  19  20
ENDBRANCH  18  19
ENDBRANCH   1  18
TORSDOF 28
ENDMDL
MODEL 6
REMARK VINA RESULT:    -4.700      2.153     10.884
REMARK INTER + INTRA:         -14.384
REMARK INTER:                 -12.032
REMARK INTRA:                  -2.352
REMARK UNBOUND:                -1.991
REMARK SMILES CCCCCCCCCCCCCCCCCCCCCCCCCCCCCC(=O)[O-]
REMARK SMILES IDX 16 1 17 2 18 3 19 4 20 5 21 6 22 7 23 8 24 9 25 10 26 11
REMARK SMILES IDX 27 12 28 13 29 14 30 15 31 16 32 17 15 18 14 19 13 20 12 21
REMARK SMILES IDX 11 22 10 23 9 24 8 25 7 26 6 27 5 28 4 29 3 30 2 31 1 32
REMARK H PARENT
REMARK Flexibility Score: inf
ROOT
ATOM      1  C   UNL     1       0.182  -5.217  -2.428  1.00  0.00     0.000 C 
ENDROOT
BRANCH   1   2
ATOM      2  C   UNL     1       0.017  -6.212  -1.262  1.00  0.00     0.000 C 
BRANCH   2   3
ATOM      3  C   UNL     1      -1.149  -7.209  -1.394  1.00  0.00     0.000 C 
BRANCH   3   4
ATOM      4  C   UNL     1      -1.227  -8.295  -0.302  1.00  0.00     0.000 C 
BRANCH   4   5
ATOM      5  C   UNL     1      -1.441  -9.724  -0.838  1.00  0.00     0.000 C 
BRANCH   5   6
ATOM      6  C   UNL     1      -0.631 -10.018  -2.110  1.00  0.00     0.000 C 
BRANCH   6   7
ATOM      7  C   UNL     1       0.876  -9.956  -1.831  1.00  0.00     0.000 C 
BRANCH   7   8
ATOM      8  C   UNL     1       1.673  -9.747  -3.128  1.00  0.00     0.000 C 
BRANCH   8   9
ATOM      9  C   UNL     1       3.071  -9.146  -2.873  1.00  0.00     0.000 C 
BRANCH   9  10
ATOM     10  C   UNL     1       4.004  -9.180  -4.100  1.00  0.00     0.000 C 
BRANCH  10  11
ATOM     11  C   UNL     1       3.267  -9.526  -5.403  1.00  0.00     0.000 C 
BRANCH  11  12
ATOM     12  C   UNL     1       3.816  -8.779  -6.633  1.00  0.00     0.000 C 
BRANCH  12  13
ATOM     13  C   UNL     1       3.188  -7.397  -6.909  1.00  0.00     0.006 C 
BRANCH  13  14
ATOM     14  C   UNL     1       2.367  -6.821  -5.743  1.00  0.00     0.053 C 
BRANCH  14  15
ATOM     15  C   UNL     1       1.901  -5.423  -6.022  1.00  0.00     0.041 C 
ATOM     16  O   UNL     1       0.886  -5.224  -6.742  1.00  0.00    -0.550 OA
ATOM     17  O   UNL     1       2.577  -4.343  -5.471  1.00  0.00    -0.550 OA
ENDBRANCH  14  15
ENDBRANCH  13  14
ENDBRANCH  12  13
ENDBRANCH  11  12
ENDBRANCH  10  11
ENDBRANCH   9  10
ENDBRANCH   8   9
ENDBRANCH   7   8
ENDBRANCH   6   7
ENDBRANCH   5   6
ENDBRANCH   4   5
ENDBRANCH   3   4
ENDBRANCH   2   3
ENDBRANCH   1   2
BRANCH   1  18
ATOM     18  C   UNL     1       0.738  -3.839  -2.009  1.00  0.00     0.000 C 
BRANCH  18  19
ATOM     19  C   UNL     1       0.738  -3.633  -0.484  1.00  0.00     0.000 C 
BRANCH  19  20
ATOM     20  C   UNL     1       0.351  -2.197  -0.090  1.00  0.00     0.000 C 
BRANCH  20  21
ATOM     21  C   UNL     1       1.094  -1.717   1.166  1.00  0.00     0.000 C 
BRANCH  21  22
ATOM     22  C   UNL     1       0.766  -0.249   1.473  1.00  0.00     0.000 C 
BRANCH  22  23
ATOM     23  C   UNL     1       0.215   0.510   0.252  1.00  0.00     0.000 C 
BRANCH  23  24
ATOM     24  C   UNL     1      -0.918   1.506   0.559  1.00  0.00    -0.000 C 
BRANCH  24  25
ATOM     25  C   UNL     1      -1.950   1.607  -0.578  1.00  0.00    -0.000 C 
BRANCH  25  26
ATOM     26  C   UNL     1      -2.761   2.916  -0.542  1.00  0.00    -0.000 C 
BRANCH  26  27
ATOM     27  C   UNL     1      -1.929   4.198  -0.354  1.00  0.00    -0.000 C 
BRANCH  27  28
ATOM     28  C   UNL     1      -1.191   4.627  -1.634  1.00  0.00    -0.000 C 
BRANCH  28  29
ATOM     29  C   UNL     1       0.296   4.232  -1.635  1.00  0.00    -0.000 C 
BRANCH  29  30
ATOM     30  C   UNL     1       0.902   3.997  -3.031  1.00  0.00    -0.000 C 
BRANCH  30  31
ATOM     31  C   UNL     1       0.294   2.788  -3.755  1.00  0.00    -0.003 C 
ATOM     32  C   UNL     1       1.130   2.395  -4.969  1.00  0.00     0.004 C 
ENDBRANCH  30  31
ENDBRANCH  29  30
ENDBRANCH  28  29
ENDBRANCH  27  28
ENDBRANCH  26  27
ENDBRANCH  25  26
ENDBRANCH  24  25
ENDBRANCH  23  24
ENDBRANCH  22  23
ENDBRANCH  21  22
ENDBRANCH  20  21
ENDBRANCH  19  20
ENDBRANCH  18  19
ENDBRANCH   1  18
TORSDOF 28
ENDMDL
MODEL 7
REMARK VINA RESULT:    -4.600      3.390     10.919
REMARK INTER + INTRA:         -14.121
REMARK INTER:                 -12.065
REMARK INTRA:                  -2.056
REMARK UNBOUND:                -1.991
REMARK SMILES CCCCCCCCCCCCCCCCCCCCCCCCCCCCCC(=O)[O-]
REMARK SMILES IDX 16 1 17 2 18 3 19 4 20 5 21 6 22 7 23 8 24 9 25 10 26 11
REMARK SMILES IDX 27 12 28 13 29 14 30 15 31 16 32 17 15 18 14 19 13 20 12 21
REMARK SMILES IDX 11 22 10 23 9 24 8 25 7 26 6 27 5 28 4 29 3 30 2 31 1 32
REMARK H PARENT
REMARK Flexibility Score: inf
ROOT
ATOM      1  C   UNL     1      -0.242  -4.159  -4.457  1.00  0.00     0.000 C 
ENDROOT
BRANCH   1   2
ATOM      2  C   UNL     1       0.399  -4.555  -5.802  1.00  0.00     0.000 C 
BRANCH   2   3
ATOM      3  C   UNL     1       1.887  -4.945  -5.744  1.00  0.00     0.000 C 
BRANCH   3   4
ATOM      4  C   UNL     1       2.271  -6.232  -6.503  1.00  0.00     0.000 C 
BRANCH   4   5
ATOM      5  C   UNL     1       2.718  -7.397  -5.598  1.00  0.00     0.000 C 
BRANCH   5   6
ATOM      6  C   UNL     1       3.062  -8.672  -6.383  1.00  0.00     0.000 C 
BRANCH   6   7
ATOM      7  C   UNL     1       4.575  -8.789  -6.608  1.00  0.00     0.000 C 
BRANCH   7   8
ATOM      8  C   UNL     1       5.316  -9.030  -5.284  1.00  0.00     0.000 C 
BRANCH   8   9
ATOM      9  C   UNL     1       4.542  -9.967  -4.334  1.00  0.00     0.000 C 
BRANCH   9  10
ATOM     10  C   UNL     1       3.845  -9.244  -3.166  1.00  0.00     0.000 C 
BRANCH  10  11
ATOM     11  C   UNL     1       2.459  -9.824  -2.842  1.00  0.00     0.000 C 
BRANCH  11  12
ATOM     12  C   UNL     1       1.762  -9.122  -1.662  1.00  0.00     0.000 C 
BRANCH  12  13
ATOM     13  C   UNL     1       0.765  -8.008  -2.043  1.00  0.00     0.006 C 
BRANCH  13  14
ATOM     14  C   UNL     1      -0.241  -7.640  -0.940  1.00  0.00     0.053 C 
BRANCH  14  15
ATOM     15  C   UNL     1      -1.378  -8.614  -0.871  1.00  0.00     0.041 C 
ATOM     16  O   UNL     1      -1.761  -9.219  -1.908  1.00  0.00    -0.550 OA
ATOM     17  O   UNL     1      -2.003  -8.868   0.343  1.00  0.00    -0.550 OA
ENDBRANCH  14  15
ENDBRANCH  13  14
ENDBRANCH  12  13
ENDBRANCH  11  12
ENDBRANCH  10  11
ENDBRANCH   9  10
ENDBRANCH   8   9
ENDBRANCH   7   8
ENDBRANCH   6   7
ENDBRANCH   5   6
ENDBRANCH   4   5
ENDBRANCH   3   4
ENDBRANCH   2   3
ENDBRANCH   1   2
BRANCH   1  18
ATOM     18  C   UNL     1       0.616  -4.505  -3.221  1.00  0.00     0.000 C 
BRANCH  18  19
ATOM     19  C   UNL     1       0.775  -3.319  -2.254  1.00  0.00     0.000 C 
BRANCH  19  20
ATOM     20  C   UNL     1       0.600  -3.737  -0.784  1.00  0.00     0.000 C 
BRANCH  20  21
ATOM     21  C   UNL     1       1.539  -2.967   0.158  1.00  0.00     0.000 C 
BRANCH  21  22
ATOM     22  C   UNL     1       0.753  -1.978   1.031  1.00  0.00     0.000 C 
BRANCH  22  23
ATOM     23  C   UNL     1       0.114  -0.838   0.218  1.00  0.00     0.000 C 
BRANCH  23  24
ATOM     24  C   UNL     1       0.479   0.582   0.685  1.00  0.00    -0.000 C 
BRANCH  24  25
ATOM     25  C   UNL     1      -0.753   1.481   0.886  1.00  0.00    -0.000 C 
BRANCH  25  26
ATOM     26  C   UNL     1      -0.929   2.523  -0.235  1.00  0.00    -0.000 C 
BRANCH  26  27
ATOM     27  C   UNL     1      -2.063   2.228  -1.233  1.00  0.00    -0.000 C 
BRANCH  27  28
ATOM     28  C   UNL     1      -1.593   1.406  -2.447  1.00  0.00    -0.000 C 
BRANCH  28  29
ATOM     29  C   UNL     1      -0.103   1.609  -2.773  1.00  0.00    -0.000 C 
BRANCH  29  30
ATOM     30  C   UNL     1       0.175   2.440  -4.039  1.00  0.00    -0.000 C 
BRANCH  30  31
ATOM     31  C   UNL     1       1.001   3.704  -3.759  1.00  0.00    -0.003 C 
ATOM     32  C   UNL     1       0.704   4.259  -2.369  1.00  0.00     0.004 C 
ENDBRANCH  30  31
ENDBRANCH  29  30
ENDBRANCH  28  29
ENDBRANCH  27  28
ENDBRANCH  26  27
ENDBRANCH  25  26
ENDBRANCH  24  25
ENDBRANCH  23  24
ENDBRANCH  22  23
ENDBRANCH  21  22
ENDBRANCH  20  21
ENDBRANCH  19  20
ENDBRANCH  18  19
ENDBRANCH   1  18
TORSDOF 28
ENDMDL
MODEL 8
REMARK VINA RESULT:    -4.325      2.177     10.618
REMARK INTER + INTRA:         -13.395
REMARK INTER:                 -11.707
REMARK INTRA:                  -1.688
REMARK UNBOUND:                -1.991
REMARK SMILES CCCCCCCCCCCCCCCCCCCCCCCCCCCCCC(=O)[O-]
REMARK SMILES IDX 16 1 17 2 18 3 19 4 20 5 21 6 22 7 23 8 24 9 25 10 26 11
REMARK SMILES IDX 27 12 28 13 29 14 30 15 31 16 32 17 15 18 14 19 13 20 12 21
REMARK SMILES IDX 11 22 10 23 9 24 8 25 7 26 6 27 5 28 4 29 3 30 2 31 1 32
REMARK H PARENT
REMARK Flexibility Score: inf
ROOT
ATOM      1  C   UNL     1       0.281  -6.436  -1.530  1.00  0.00     0.000 C 
ENDROOT
BRANCH   1   2
ATOM      2  C   UNL     1      -0.462  -7.676  -0.993  1.00  0.00     0.000 C 
BRANCH   2   3
ATOM      3  C   UNL     1       0.424  -8.767  -0.366  1.00  0.00     0.000 C 
BRANCH   3   4
ATOM      4  C   UNL     1       1.569  -9.291  -1.258  1.00  0.00     0.000 C 
BRANCH   4   5
ATOM      5  C   UNL     1       1.101  -9.989  -2.551  1.00  0.00     0.000 C 
BRANCH   5   6
ATOM      6  C   UNL     1       2.153  -9.950  -3.670  1.00  0.00     0.000 C 
BRANCH   6   7
ATOM      7  C   UNL     1       3.390  -9.154  -3.237  1.00  0.00     0.000 C 
BRANCH   7   8
ATOM      8  C   UNL     1       4.481  -9.193  -4.318  1.00  0.00     0.000 C 
BRANCH   8   9
ATOM      9  C   UNL     1       3.959  -9.725  -5.668  1.00  0.00     0.000 C 
BRANCH   9  10
ATOM     10  C   UNL     1       4.533  -8.995  -6.898  1.00  0.00     0.000 C 
BRANCH  10  11
ATOM     11  C   UNL     1       3.600  -7.897  -7.432  1.00  0.00     0.000 C 
BRANCH  11  12
ATOM     12  C   UNL     1       2.587  -7.392  -6.386  1.00  0.00     0.000 C 
BRANCH  12  13
ATOM     13  C   UNL     1       1.932  -6.030  -6.695  1.00  0.00     0.006 C 
BRANCH  13  14
ATOM     14  C   UNL     1       1.801  -5.091  -5.484  1.00  0.00     0.053 C 
BRANCH  14  15
ATOM     15  C   UNL     1       0.419  -4.521  -5.364  1.00  0.00     0.041 C 
ATOM     16  O   UNL     1      -0.036  -4.191  -4.237  1.00  0.00    -0.550 OA
ATOM     17  O   UNL     1      -0.358  -4.339  -6.500  1.00  0.00    -0.550 OA
ENDBRANCH  14  15
ENDBRANCH  13  14
ENDBRANCH  12  13
ENDBRANCH  11  12
ENDBRANCH  10  11
ENDBRANCH   9  10
ENDBRANCH   8   9
ENDBRANCH   7   8
ENDBRANCH   6   7
ENDBRANCH   5   6
ENDBRANCH   4   5
ENDBRANCH   3   4
ENDBRANCH   2   3
ENDBRANCH   1   2
BRANCH   1  18
ATOM     18  C   UNL     1       0.174  -5.192  -0.623  1.00  0.00     0.000 C 
BRANCH  18  19
ATOM     19  C   UNL     1       0.759  -3.926  -1.273  1.00  0.00     0.000 C 
BRANCH  19  20
ATOM     20  C   UNL     1       0.421  -2.652  -0.480  1.00  0.00     0.000 C 
BRANCH  20  21
ATOM     21  C   UNL     1       1.356  -2.448   0.722  1.00  0.00     0.000 C 
BRANCH  21  22
ATOM     22  C   UNL     1       0.751  -1.459   1.729  1.00  0.00     0.000 C 
BRANCH  22  23
ATOM     23  C   UNL     1       1.135   0.003   1.437  1.00  0.00     0.000 C 
BRANCH  23  24
ATOM     24  C   UNL     1      -0.043   0.993   1.407  1.00  0.00    -0.000 C 
BRANCH  24  25
ATOM     25  C   UNL     1      -0.455   1.388  -0.022  1.00  0.00    -0.000 C 
BRANCH  25  26
ATOM     26  C   UNL     1      -1.874   1.984  -0.097  1.00  0.00    -0.000 C 
BRANCH  26  27
ATOM     27  C   UNL     1      -1.956   3.411  -0.672  1.00  0.00    -0.000 C 
BRANCH  27  28
ATOM     28  C   UNL     1      -0.912   3.675  -1.772  1.00  0.00    -0.000 C 
BRANCH  28  29
ATOM     29  C   UNL     1      -0.977   2.655  -2.922  1.00  0.00    -0.000 C 
BRANCH  29  30
ATOM     30  C   UNL     1       0.382   2.065  -3.341  1.00  0.00    -0.000 C 
BRANCH  30  31
ATOM     31  C   UNL     1       0.939   2.692  -4.628  1.00  0.00    -0.003 C 
ATOM     32  C   UNL     1       1.526   4.074  -4.358  1.00  0.00     0.004 C 
ENDBRANCH  30  31
ENDBRANCH  29  30
ENDBRANCH  28  29
ENDBRANCH  27  28
ENDBRANCH  26  27
ENDBRANCH  25  26
ENDBRANCH  24  25
ENDBRANCH  23  24
ENDBRANCH  22  23
ENDBRANCH  21  22
ENDBRANCH  20  21
ENDBRANCH  19  20
ENDBRANCH  18  19
ENDBRANCH   1  18
TORSDOF 28
ENDMDL
MODEL 9
REMARK VINA RESULT:    -3.010      2.980     10.977
REMARK INTER + INTRA:          -9.928
REMARK INTER:                  -7.822
REMARK INTRA:                  -2.107
REMARK UNBOUND:                -1.991
REMARK SMILES CCCCCCCCCCCCCCCCCCCCCCCCCCCCCC(=O)[O-]
REMARK SMILES IDX 16 1 17 2 18 3 19 4 20 5 21 6 22 7 23 8 24 9 25 10 26 11
REMARK SMILES IDX 27 12 28 13 29 14 30 15 31 16 32 17 15 18 14 19 13 20 12 21
REMARK SMILES IDX 11 22 10 23 9 24 8 25 7 26 6 27 5 28 4 29 3 30 2 31 1 32
REMARK H PARENT
REMARK Flexibility Score: inf
ROOT
ATOM      1  C   UNL     1       0.522  -4.362  -3.197  1.00  0.00     0.000 C 
ENDROOT
BRANCH   1   2
ATOM      2  C   UNL     1      -0.456  -5.429  -2.665  1.00  0.00     0.000 C 
BRANCH   2   3
ATOM      3  C   UNL     1       0.190  -6.723  -2.135  1.00  0.00     0.000 C 
BRANCH   3   4
ATOM      4  C   UNL     1      -0.302  -7.196  -0.752  1.00  0.00     0.000 C 
BRANCH   4   5
ATOM      5  C   UNL     1      -1.748  -7.732  -0.739  1.00  0.00     0.000 C 
BRANCH   5   6
ATOM      6  C   UNL     1      -1.861  -9.142  -0.141  1.00  0.00     0.000 C 
BRANCH   6   7
ATOM      7  C   UNL     1      -0.904 -10.116  -0.839  1.00  0.00     0.000 C 
BRANCH   7   8
ATOM      8  C   UNL     1       0.473 -10.125  -0.158  1.00  0.00     0.000 C 
BRANCH   8   9
ATOM      9  C   UNL     1       1.635 -10.065  -1.171  1.00  0.00     0.000 C 
BRANCH   9  10
ATOM     10  C   UNL     1       1.189 -10.115  -2.645  1.00  0.00     0.000 C 
BRANCH  10  11
ATOM     11  C   UNL     1       2.369 -10.076  -3.630  1.00  0.00     0.000 C 
BRANCH  11  12
ATOM     12  C   UNL     1       3.580  -9.284  -3.102  1.00  0.00     0.000 C 
BRANCH  12  13
ATOM     13  C   UNL     1       4.477  -8.641  -4.179  1.00  0.00     0.006 C 
BRANCH  13  14
ATOM     14  C   UNL     1       4.420  -9.325  -5.555  1.00  0.00     0.053 C 
BRANCH  14  15
ATOM     15  C   UNL     1       3.713  -8.481  -6.573  1.00  0.00     0.041 C 
ATOM     16  O   UNL     1       3.922  -8.660  -7.802  1.00  0.00    -0.550 OA
ATOM     17  O   UNL     1       2.810  -7.509  -6.163  1.00  0.00    -0.550 OA
ENDBRANCH  14  15
ENDBRANCH  13  14
ENDBRANCH  12  13
ENDBRANCH  11  12
ENDBRANCH  10  11
ENDBRANCH   9  10
ENDBRANCH   8   9
ENDBRANCH   7   8
ENDBRANCH   6   7
ENDBRANCH   5   6
ENDBRANCH   4   5
ENDBRANCH   3   4
ENDBRANCH   2   3
ENDBRANCH   1   2
BRANCH   1  18
ATOM     18  C   UNL     1       1.016  -3.367  -2.125  1.00  0.00     0.000 C 
BRANCH  18  19
ATOM     19  C   UNL     1       0.736  -3.846  -0.690  1.00  0.00     0.000 C 
BRANCH  19  20
ATOM     20  C   UNL     1       1.145  -2.803   0.364  1.00  0.00     0.000 C 
BRANCH  20  21
ATOM     21  C   UNL     1       0.213  -1.582   0.369  1.00  0.00     0.000 C 
BRANCH  21  22
ATOM     22  C   UNL     1       0.833  -0.419   1.156  1.00  0.00     0.000 C 
BRANCH  22  23
ATOM     23  C   UNL     1       0.472   0.959   0.572  1.00  0.00     0.000 C 
BRANCH  23  24
ATOM     24  C   UNL     1      -0.712   1.668   1.255  1.00  0.00    -0.000 C 
BRANCH  24  25
ATOM     25  C   UNL     1      -1.913   1.865   0.313  1.00  0.00    -0.000 C 
BRANCH  25  26
ATOM     26  C   UNL     1      -1.669   1.304  -1.101  1.00  0.00    -0.000 C 
BRANCH  26  27
ATOM     27  C   UNL     1      -1.778   2.333  -2.241  1.00  0.00    -0.000 C 
BRANCH  27  28
ATOM     28  C   UNL     1      -1.053   3.653  -1.929  1.00  0.00    -0.000 C 
BRANCH  28  29
ATOM     29  C   UNL     1       0.478   3.540  -2.036  1.00  0.00    -0.000 C 
BRANCH  29  30
ATOM     30  C   UNL     1       1.093   4.224  -3.271  1.00  0.00    -0.000 C 
BRANCH  30  31
ATOM     31  C   UNL     1       1.090   3.328  -4.519  1.00  0.00    -0.003 C 
ATOM     32  C   UNL     1       1.115   1.852  -4.136  1.00  0.00     0.004 C 
ENDBRANCH  30  31
ENDBRANCH  29  30
ENDBRANCH  28  29
ENDBRANCH  27  28
ENDBRANCH  26  27
ENDBRANCH  25  26
ENDBRANCH  24  25
ENDBRANCH  23  24
ENDBRANCH  22  23
ENDBRANCH  21  22
ENDBRANCH  20  21
ENDBRANCH  19  20
ENDBRANCH  18  19
ENDBRANCH   1  18
TORSDOF 28
ENDMDL
