MODEL 1
REMARK VINA RESULT:    -4.883      0.000      0.000
REMARK INTER + INTRA:         -12.987
REMARK INTER:                 -11.162
REMARK INTRA:                  -1.825
REMARK UNBOUND:                -1.825
REMARK SMILES CCCCCCCCCCCCCCCCCCCCCCCC(=O)[O-]
REMARK SMILES IDX 13 1 14 2 15 3 16 4 17 5 18 6 19 7 20 8 21 9 22 10 23 11
REMARK SMILES IDX 24 12 25 13 26 14 12 15 11 16 10 17 9 18 8 19 7 20 6 21 5 22
REMARK SMILES IDX 4 23 3 24 2 25 1 26
REMARK H PARENT
REMARK Flexibility Score: inf
ROOT
ATOM      1  C   UNL     1      -1.702  35.883  16.677  1.00  0.00     0.000 C 
ENDROOT
BRANCH   1   2
ATOM      2  C   UNL     1      -1.809  34.398  17.076  1.00  0.00     0.000 C 
BRANCH   2   3
ATOM      3  C   UNL     1      -0.478  33.622  17.062  1.00  0.00     0.000 C 
BRANCH   3   4
ATOM      4  C   UNL     1      -0.499  32.258  17.780  1.00  0.00     0.000 C 
BRANCH   4   5
ATOM      5  C   UNL     1       0.053  31.093  16.931  1.00  0.00     0.000 C 
BRANCH   5   6
ATOM      6  C   UNL     1      -0.289  29.712  17.518  1.00  0.00     0.000 C 
BRANCH   6   7
ATOM      7  C   UNL     1       0.465  28.570  16.818  1.00  0.00     0.000 C 
BRANCH   7   8
ATOM      8  C   UNL     1      -0.400  27.307  16.643  1.00  0.00     0.000 C 
BRANCH   8   9
ATOM      9  C   UNL     1       0.298  26.033  17.145  1.00  0.00     0.000 C 
BRANCH   9  10
ATOM     10  C   UNL     1      -0.448  25.370  18.317  1.00  0.00     0.006 C 
BRANCH  10  11
ATOM     11  C   UNL     1      -0.365  26.200  19.605  1.00  0.00     0.053 C 
BRANCH  11  12
ATOM     12  C   UNL     1      -1.000  25.501  20.769  1.00  0.00     0.041 C 
ATOM     13  O   UNL     1      -1.918  26.063  21.425  1.00  0.00    -0.550 OA
ATOM     14  O   UNL     1      -0.574  24.229  21.133  1.00  0.00    -0.550 OA
ENDBRANCH  11  12
ENDBRANCH  10  11
ENDBRANCH   9  10
ENDBRANCH   8   9
ENDBRANCH   7   8
ENDBRANCH   6   7
ENDBRANCH   5   6
ENDBRANCH   4   5
ENDBRANCH   3   4
ENDBRANCH   2   3
ENDBRANCH   1   2
BRANCH   1  15
ATOM     15  C   UNL     1      -0.517  36.595  17.353  1.00  0.00     0.000 C 
BRANCH  15  16
ATOM     16  C   UNL     1      -0.890  37.974  17.921  1.00  0.00     0.000 C 
BRANCH  16  17
ATOM     17  C   UNL     1      -2.134  37.988  18.829  1.00  0.00     0.000 C 
BRANCH  17  18
ATOM     18  C   UNL     1      -1.846  38.465  20.270  1.00  0.00    -0.000 C 
BRANCH  18  19
ATOM     19  C   UNL     1      -2.513  39.807  20.631  1.00  0.00    -0.000 C 
BRANCH  19  20
ATOM     20  C   UNL     1      -3.676  40.230  19.712  1.00  0.00    -0.000 C 
BRANCH  20  21
ATOM     21  C   UNL     1      -4.833  40.897  20.471  1.00  0.00    -0.000 C 
BRANCH  21  22
ATOM     22  C   UNL     1      -5.946  39.886  20.786  1.00  0.00    -0.000 C 
BRANCH  22  23
ATOM     23  C   UNL     1      -6.170  38.889  19.636  1.00  0.00    -0.000 C 
BRANCH  23  24
ATOM     24  C   UNL     1      -6.278  37.436  20.132  1.00  0.00    -0.000 C 
BRANCH  24  25
ATOM     25  C   UNL     1      -5.946  37.297  21.626  1.00  0.00    -0.003 C 
ATOM     26  C   UNL     1      -4.586  36.648  21.874  1.00  0.00     0.004 C 
ENDBRANCH  24  25
ENDBRANCH  23  24
ENDBRANCH  22  23
ENDBRANCH  21  22
ENDBRANCH  20  21
ENDBRANCH  19  20
ENDBRANCH  18  19
ENDBRANCH  17  18
ENDBRANCH  16  17
ENDBRANCH  15  16
ENDBRANCH   1  15
TORSDOF 22
ENDMDL
MODEL 2
REMARK VINA RESULT:    -4.875      3.862     11.581
REMARK INTER + INTRA:         -12.970
REMARK INTER:                 -11.688
REMARK INTRA:                  -1.282
REMARK UNBOUND:                -1.825
REMARK SMILES CCCCCCCCCCCCCCCCCCCCCCCC(=O)[O-]
REMARK SMILES IDX 13 1 14 2 15 3 16 4 17 5 18 6 19 7 20 8 21 9 22 10 23 11
REMARK SMILES IDX 24 12 25 13 26 14 12 15 11 16 10 17 9 18 8 19 7 20 6 21 5 22
REMARK SMILES IDX 4 23 3 24 2 25 1 26
REMARK H PARENT
REMARK Flexibility Score: inf
ROOT
ATOM      1  C   UNL     1      -1.399  33.296  17.377  1.00  0.00     0.000 C 
ENDROOT
BRANCH   1   2
ATOM      2  C   UNL     1      -0.763  34.695  17.259  1.00  0.00     0.000 C 
BRANCH   2   3
ATOM      3  C   UNL     1      -1.709  35.870  17.569  1.00  0.00     0.000 C 
BRANCH   3   4
ATOM      4  C   UNL     1      -1.029  37.243  17.733  1.00  0.00     0.000 C 
BRANCH   4   5
ATOM      5  C   UNL     1      -1.870  38.272  18.518  1.00  0.00     0.000 C 
BRANCH   5   6
ATOM      6  C   UNL     1      -3.061  37.633  19.253  1.00  0.00     0.000 C 
BRANCH   6   7
ATOM      7  C   UNL     1      -4.324  38.510  19.206  1.00  0.00     0.000 C 
BRANCH   7   8
ATOM      8  C   UNL     1      -5.513  37.803  18.528  1.00  0.00     0.000 C 
BRANCH   8   9
ATOM      9  C   UNL     1      -6.802  37.877  19.361  1.00  0.00     0.000 C 
BRANCH   9  10
ATOM     10  C   UNL     1      -6.912  39.182  20.170  1.00  0.00     0.006 C 
BRANCH  10  11
ATOM     11  C   UNL     1      -7.488  38.951  21.573  1.00  0.00     0.053 C 
BRANCH  11  12
ATOM     12  C   UNL     1      -6.527  38.226  22.466  1.00  0.00     0.041 C 
ATOM     13  O   UNL     1      -6.618  36.978  22.619  1.00  0.00    -0.550 OA
ATOM     14  O   UNL     1      -5.531  38.929  23.134  1.00  0.00    -0.550 OA
ENDBRANCH  11  12
ENDBRANCH  10  11
ENDBRANCH   9  10
ENDBRANCH   8   9
ENDBRANCH   7   8
ENDBRANCH   6   7
ENDBRANCH   5   6
ENDBRANCH   4   5
ENDBRANCH   3   4
ENDBRANCH   2   3
ENDBRANCH   1   2
BRANCH   1  15
ATOM     15  C   UNL     1      -0.367  32.201  17.704  1.00  0.00     0.000 C 
BRANCH  15  16
ATOM     16  C   UNL     1       0.038  31.372  16.473  1.00  0.00     0.000 C 
BRANCH  16  17
ATOM     17  C   UNL     1       1.353  30.585  16.624  1.00  0.00     0.000 C 
BRANCH  17  18
ATOM     18  C   UNL     1       1.161  29.052  16.645  1.00  0.00    -0.000 C 
BRANCH  18  19
ATOM     19  C   UNL     1      -0.281  28.605  16.954  1.00  0.00    -0.000 C 
BRANCH  19  20
ATOM     20  C   UNL     1      -0.725  27.299  16.267  1.00  0.00    -0.000 C 
BRANCH  20  21
ATOM     21  C   UNL     1       0.419  26.288  16.098  1.00  0.00    -0.000 C 
BRANCH  21  22
ATOM     22  C   UNL     1       0.212  25.060  16.998  1.00  0.00    -0.000 C 
BRANCH  22  23
ATOM     23  C   UNL     1       0.552  25.352  18.469  1.00  0.00    -0.000 C 
BRANCH  23  24
ATOM     24  C   UNL     1      -0.698  25.662  19.310  1.00  0.00    -0.000 C 
BRANCH  24  25
ATOM     25  C   UNL     1      -0.361  25.976  20.776  1.00  0.00    -0.003 C 
ATOM     26  C   UNL     1      -1.187  25.153  21.764  1.00  0.00     0.004 C 
ENDBRANCH  24  25
ENDBRANCH  23  24
ENDBRANCH  22  23
ENDBRANCH  21  22
ENDBRANCH  20  21
ENDBRANCH  19  20
ENDBRANCH  18  19
ENDBRANCH  17  18
ENDBRANCH  16  17
ENDBRANCH  15  16
ENDBRANCH   1  15
TORSDOF 22
ENDMDL
MODEL 3
REMARK VINA RESULT:    -4.819      1.466      2.190
REMARK INTER + INTRA:         -12.841
REMARK INTER:                 -11.180
REMARK INTRA:                  -1.662
REMARK UNBOUND:                -1.825
REMARK SMILES CCCCCCCCCCCCCCCCCCCCCCCC(=O)[O-]
REMARK SMILES IDX 13 1 14 2 15 3 16 4 17 5 18 6 19 7 20 8 21 9 22 10 23 11
REMARK SMILES IDX 24 12 25 13 26 14 12 15 11 16 10 17 9 18 8 19 7 20 6 21 5 22
REMARK SMILES IDX 4 23 3 24 2 25 1 26
REMARK H PARENT
REMARK Flexibility Score: inf
ROOT
ATOM      1  C   UNL     1      -1.801  35.136  17.379  1.00  0.00     0.000 C 
ENDROOT
BRANCH   1   2
ATOM      2  C   UNL     1      -0.444  34.652  16.833  1.00  0.00     0.000 C 
BRANCH   2   3
ATOM      3  C   UNL     1      -0.363  33.145  16.527  1.00  0.00     0.000 C 
BRANCH   3   4
ATOM      4  C   UNL     1      -0.372  32.217  17.758  1.00  0.00     0.000 C 
BRANCH   4   5
ATOM      5  C   UNL     1      -0.438  30.715  17.413  1.00  0.00     0.000 C 
BRANCH   5   6
ATOM      6  C   UNL     1       0.878  30.178  16.823  1.00  0.00     0.000 C 
BRANCH   6   7
ATOM      7  C   UNL     1       0.815  28.674  16.509  1.00  0.00     0.000 C 
BRANCH   7   8
ATOM      8  C   UNL     1      -0.206  27.926  17.387  1.00  0.00     0.000 C 
BRANCH   8   9
ATOM      9  C   UNL     1      -0.300  26.431  17.048  1.00  0.00     0.000 C 
BRANCH   9  10
ATOM     10  C   UNL     1       0.024  25.528  18.252  1.00  0.00     0.006 C 
BRANCH  10  11
ATOM     11  C   UNL     1      -0.341  26.186  19.589  1.00  0.00     0.053 C 
BRANCH  11  12
ATOM     12  C   UNL     1      -1.315  25.362  20.376  1.00  0.00     0.041 C 
ATOM     13  O   UNL     1      -1.704  24.246  19.938  1.00  0.00    -0.550 OA
ATOM     14  O   UNL     1      -1.798  25.830  21.592  1.00  0.00    -0.550 OA
ENDBRANCH  11  12
ENDBRANCH  10  11
ENDBRANCH   9  10
ENDBRANCH   8   9
ENDBRANCH   7   8
ENDBRANCH   6   7
ENDBRANCH   5   6
ENDBRANCH   4   5
ENDBRANCH   3   4
ENDBRANCH   2   3
ENDBRANCH   1   2
BRANCH   1  15
ATOM     15  C   UNL     1      -2.666  35.814  16.301  1.00  0.00     0.000 C 
BRANCH  15  16
ATOM     16  C   UNL     1      -2.712  37.344  16.445  1.00  0.00     0.000 C 
BRANCH  16  17
ATOM     17  C   UNL     1      -3.954  37.891  17.174  1.00  0.00     0.000 C 
BRANCH  17  18
ATOM     18  C   UNL     1      -3.847  37.831  18.714  1.00  0.00    -0.000 C 
BRANCH  18  19
ATOM     19  C   UNL     1      -5.173  37.484  19.420  1.00  0.00    -0.000 C 
BRANCH  19  20
ATOM     20  C   UNL     1      -6.299  38.523  19.249  1.00  0.00    -0.000 C 
BRANCH  20  21
ATOM     21  C   UNL     1      -7.176  38.673  20.502  1.00  0.00    -0.000 C 
BRANCH  21  22
ATOM     22  C   UNL     1      -6.681  37.763  21.637  1.00  0.00    -0.000 C 
BRANCH  22  23
ATOM     23  C   UNL     1      -6.748  38.456  23.009  1.00  0.00    -0.000 C 
BRANCH  23  24
ATOM     24  C   UNL     1      -5.471  39.253  23.326  1.00  0.00    -0.000 C 
BRANCH  24  25
ATOM     25  C   UNL     1      -4.190  38.466  23.007  1.00  0.00    -0.003 C 
ATOM     26  C   UNL     1      -3.228  39.239  22.107  1.00  0.00     0.004 C 
ENDBRANCH  24  25
ENDBRANCH  23  24
ENDBRANCH  22  23
ENDBRANCH  21  22
ENDBRANCH  20  21
ENDBRANCH  19  20
ENDBRANCH  18  19
ENDBRANCH  17  18
ENDBRANCH  16  17
ENDBRANCH  15  16
ENDBRANCH   1  15
TORSDOF 22
ENDMDL
MODEL 4
REMARK VINA RESULT:    -4.780      1.240      2.057
REMARK INTER + INTRA:         -12.752
REMARK INTER:                 -10.655
REMARK INTRA:                  -2.097
REMARK UNBOUND:                -1.825
REMARK SMILES CCCCCCCCCCCCCCCCCCCCCCCC(=O)[O-]
REMARK SMILES IDX 13 1 14 2 15 3 16 4 17 5 18 6 19 7 20 8 21 9 22 10 23 11
REMARK SMILES IDX 24 12 25 13 26 14 12 15 11 16 10 17 9 18 8 19 7 20 6 21 5 22
REMARK SMILES IDX 4 23 3 24 2 25 1 26
REMARK H PARENT
REMARK Flexibility Score: inf
ROOT
ATOM      1  C   UNL     1      -1.855  34.880  17.258  1.00  0.00     0.000 C 
ENDROOT
BRANCH   1   2
ATOM      2  C   UNL     1      -0.456  34.233  17.280  1.00  0.00     0.000 C 
BRANCH   2   3
ATOM      3  C   UNL     1      -0.390  32.802  16.714  1.00  0.00     0.000 C 
BRANCH   3   4
ATOM      4  C   UNL     1      -1.160  31.735  17.517  1.00  0.00     0.000 C 
BRANCH   4   5
ATOM      5  C   UNL     1      -0.406  30.397  17.667  1.00  0.00     0.000 C 
BRANCH   5   6
ATOM      6  C   UNL     1       0.754  30.248  16.666  1.00  0.00     0.000 C 
BRANCH   6   7
ATOM      7  C   UNL     1       0.973  28.790  16.229  1.00  0.00     0.000 C 
BRANCH   7   8
ATOM      8  C   UNL     1       0.301  27.778  17.177  1.00  0.00     0.000 C 
BRANCH   8   9
ATOM      9  C   UNL     1       0.166  26.380  16.554  1.00  0.00     0.000 C 
BRANCH   9  10
ATOM     10  C   UNL     1      -0.413  25.346  17.537  1.00  0.00     0.006 C 
BRANCH  10  11
ATOM     11  C   UNL     1      -0.126  25.709  19.000  1.00  0.00     0.053 C 
BRANCH  11  12
ATOM     12  C   UNL     1      -1.174  25.176  19.930  1.00  0.00     0.041 C 
ATOM     13  O   UNL     1      -1.704  24.052  19.714  1.00  0.00    -0.550 OA
ATOM     14  O   UNL     1      -1.570  25.922  21.034  1.00  0.00    -0.550 OA
ENDBRANCH  11  12
ENDBRANCH  10  11
ENDBRANCH   9  10
ENDBRANCH   8   9
ENDBRANCH   7   8
ENDBRANCH   6   7
ENDBRANCH   5   6
ENDBRANCH   4   5
ENDBRANCH   3   4
ENDBRANCH   2   3
ENDBRANCH   1   2
BRANCH   1  15
ATOM     15  C   UNL     1      -2.065  35.794  16.038  1.00  0.00     0.000 C 
BRANCH  15  16
ATOM     16  C   UNL     1      -3.207  36.806  16.236  1.00  0.00     0.000 C 
BRANCH  16  17
ATOM     17  C   UNL     1      -3.372  37.324  17.677  1.00  0.00     0.000 C 
BRANCH  17  18
ATOM     18  C   UNL     1      -3.313  38.864  17.794  1.00  0.00    -0.000 C 
BRANCH  18  19
ATOM     19  C   UNL     1      -2.416  39.371  18.940  1.00  0.00    -0.000 C 
BRANCH  19  20
ATOM     20  C   UNL     1      -2.168  38.359  20.077  1.00  0.00    -0.000 C 
BRANCH  20  21
ATOM     21  C   UNL     1      -2.537  38.907  21.464  1.00  0.00    -0.000 C 
BRANCH  21  22
ATOM     22  C   UNL     1      -3.515  37.968  22.188  1.00  0.00    -0.000 C 
BRANCH  22  23
ATOM     23  C   UNL     1      -4.264  37.043  21.214  1.00  0.00    -0.000 C 
BRANCH  23  24
ATOM     24  C   UNL     1      -5.773  37.342  21.166  1.00  0.00    -0.000 C 
BRANCH  24  25
ATOM     25  C   UNL     1      -6.106  38.550  20.276  1.00  0.00    -0.003 C 
ATOM     26  C   UNL     1      -6.828  38.157  18.988  1.00  0.00     0.004 C 
ENDBRANCH  24  25
ENDBRANCH  23  24
ENDBRANCH  22  23
ENDBRANCH  21  22
ENDBRANCH  20  21
ENDBRANCH  19  20
ENDBRANCH  18  19
ENDBRANCH  17  18
ENDBRANCH  16  17
ENDBRANCH  15  16
ENDBRANCH   1  15
TORSDOF 22
ENDMDL
MODEL 5
REMARK VINA RESULT:    -4.735      4.989      9.679
REMARK INTER + INTRA:         -12.651
REMARK INTER:                  -9.468
REMARK INTRA:                  -3.182
REMARK UNBOUND:                -1.825
REMARK SMILES CCCCCCCCCCCCCCCCCCCCCCCC(=O)[O-]
REMARK SMILES IDX 13 1 14 2 15 3 16 4 17 5 18 6 19 7 20 8 21 9 22 10 23 11
REMARK SMILES IDX 24 12 25 13 26 14 12 15 11 16 10 17 9 18 8 19 7 20 6 21 5 22
REMARK SMILES IDX 4 23 3 24 2 25 1 26
REMARK H PARENT
REMARK Flexibility Score: inf
ROOT
ATOM      1  C   UNL     1      -1.219  40.060  21.089  1.00  0.00     0.000 C 
ENDROOT
BRANCH   1   2
ATOM      2  C   UNL     1      -2.051  40.865  22.108  1.00  0.00     0.000 C 
BRANCH   2   3
ATOM      3  C   UNL     1      -3.538  40.474  22.189  1.00  0.00     0.000 C 
BRANCH   3   4
ATOM      4  C   UNL     1      -3.878  39.365  23.204  1.00  0.00     0.000 C 
BRANCH   4   5
ATOM      5  C   UNL     1      -3.283  37.986  22.851  1.00  0.00     0.000 C 
BRANCH   5   6
ATOM      6  C   UNL     1      -4.360  36.934  22.530  1.00  0.00     0.000 C 
BRANCH   6   7
ATOM      7  C   UNL     1      -4.189  36.321  21.131  1.00  0.00     0.000 C 
BRANCH   7   8
ATOM      8  C   UNL     1      -3.584  37.311  20.118  1.00  0.00     0.000 C 
BRANCH   8   9
ATOM      9  C   UNL     1      -4.635  38.253  19.507  1.00  0.00     0.000 C 
BRANCH   9  10
ATOM     10  C   UNL     1      -6.035  37.616  19.442  1.00  0.00     0.006 C 
BRANCH  10  11
ATOM     11  C   UNL     1      -7.154  38.649  19.634  1.00  0.00     0.053 C 
BRANCH  11  12
ATOM     12  C   UNL     1      -7.171  39.211  21.023  1.00  0.00     0.041 C 
ATOM     13  O   UNL     1      -7.287  38.444  22.017  1.00  0.00    -0.550 OA
ATOM     14  O   UNL     1      -7.065  40.582  21.221  1.00  0.00    -0.550 OA
ENDBRANCH  11  12
ENDBRANCH  10  11
ENDBRANCH   9  10
ENDBRANCH   8   9
ENDBRANCH   7   8
ENDBRANCH   6   7
ENDBRANCH   5   6
ENDBRANCH   4   5
ENDBRANCH   3   4
ENDBRANCH   2   3
ENDBRANCH   1   2
BRANCH   1  15
ATOM     15  C   UNL     1      -1.110  40.765  19.725  1.00  0.00     0.000 C 
BRANCH  15  16
ATOM     16  C   UNL     1      -1.619  39.899  18.560  1.00  0.00     0.000 C 
BRANCH  16  17
ATOM     17  C   UNL     1      -2.451  40.653  17.506  1.00  0.00     0.000 C 
BRANCH  17  18
ATOM     18  C   UNL     1      -2.776  39.809  16.252  1.00  0.00    -0.000 C 
BRANCH  18  19
ATOM     19  C   UNL     1      -2.249  38.362  16.317  1.00  0.00    -0.000 C 
BRANCH  19  20
ATOM     20  C   UNL     1      -3.329  37.266  16.228  1.00  0.00    -0.000 C 
BRANCH  20  21
ATOM     21  C   UNL     1      -2.754  35.844  16.316  1.00  0.00    -0.000 C 
BRANCH  21  22
ATOM     22  C   UNL     1      -1.272  35.819  15.909  1.00  0.00    -0.000 C 
BRANCH  22  23
ATOM     23  C   UNL     1      -0.381  35.189  16.994  1.00  0.00    -0.000 C 
BRANCH  23  24
ATOM     24  C   UNL     1      -0.811  33.754  17.344  1.00  0.00    -0.000 C 
BRANCH  24  25
ATOM     25  C   UNL     1      -0.281  32.718  16.341  1.00  0.00    -0.003 C 
ATOM     26  C   UNL     1       0.068  31.382  16.996  1.00  0.00     0.004 C 
ENDBRANCH  24  25
ENDBRANCH  23  24
ENDBRANCH  22  23
ENDBRANCH  21  22
ENDBRANCH  20  21
ENDBRANCH  19  20
ENDBRANCH  18  19
ENDBRANCH  17  18
ENDBRANCH  16  17
ENDBRANCH  15  16
ENDBRANCH   1  15
TORSDOF 22
ENDMDL
MODEL 6
REMARK VINA RESULT:    -4.722      7.521     11.235
REMARK INTER + INTRA:         -12.620
REMARK INTER:                 -10.099
REMARK INTRA:                  -2.522
REMARK UNBOUND:                -1.825
REMARK SMILES CCCCCCCCCCCCCCCCCCCCCCCC(=O)[O-]
REMARK SMILES IDX 13 1 14 2 15 3 16 4 17 5 18 6 19 7 20 8 21 9 22 10 23 11
REMARK SMILES IDX 24 12 25 13 26 14 12 15 11 16 10 17 9 18 8 19 7 20 6 21 5 22
REMARK SMILES IDX 4 23 3 24 2 25 1 26
REMARK H PARENT
REMARK Flexibility Score: inf
ROOT
ATOM      1  C   UNL     1      -3.040  38.514  23.367  1.00  0.00     0.000 C 
ENDROOT
BRANCH   1   2
ATOM      2  C   UNL     1      -2.892  40.010  23.706  1.00  0.00     0.000 C 
BRANCH   2   3
ATOM      3  C   UNL     1      -4.067  40.621  24.492  1.00  0.00     0.000 C 
BRANCH   3   4
ATOM      4  C   UNL     1      -4.491  39.848  25.756  1.00  0.00     0.000 C 
BRANCH   4   5
ATOM      5  C   UNL     1      -4.769  40.747  26.979  1.00  0.00     0.000 C 
BRANCH   5   6
ATOM      6  C   UNL     1      -4.132  40.210  28.274  1.00  0.00     0.000 C 
BRANCH   6   7
ATOM      7  C   UNL     1      -2.613  40.438  28.324  1.00  0.00     0.000 C 
BRANCH   7   8
ATOM      8  C   UNL     1      -2.014  40.142  29.712  1.00  0.00     0.000 C 
BRANCH   8   9
ATOM      9  C   UNL     1      -1.061  38.936  29.704  1.00  0.00     0.000 C 
BRANCH   9  10
ATOM     10  C   UNL     1      -1.769  37.618  30.066  1.00  0.00     0.006 C 
BRANCH  10  11
ATOM     11  C   UNL     1      -2.739  37.781  31.244  1.00  0.00     0.053 C 
BRANCH  11  12
ATOM     12  C   UNL     1      -3.471  36.510  31.553  1.00  0.00     0.041 C 
ATOM     13  O   UNL     1      -3.924  36.303  32.712  1.00  0.00    -0.550 OA
ATOM     14  O   UNL     1      -3.649  35.551  30.564  1.00  0.00    -0.550 OA
ENDBRANCH  11  12
ENDBRANCH  10  11
ENDBRANCH   9  10
ENDBRANCH   8   9
ENDBRANCH   7   8
ENDBRANCH   6   7
ENDBRANCH   5   6
ENDBRANCH   4   5
ENDBRANCH   3   4
ENDBRANCH   2   3
ENDBRANCH   1   2
BRANCH   1  15
ATOM     15  C   UNL     1      -3.112  38.254  21.852  1.00  0.00     0.000 C 
BRANCH  15  16
ATOM     16  C   UNL     1      -4.008  37.057  21.490  1.00  0.00     0.000 C 
BRANCH  16  17
ATOM     17  C   UNL     1      -4.907  36.550  22.634  1.00  0.00     0.000 C 
BRANCH  17  18
ATOM     18  C   UNL     1      -6.394  36.936  22.472  1.00  0.00    -0.000 C 
BRANCH  18  19
ATOM     19  C   UNL     1      -6.657  38.454  22.526  1.00  0.00    -0.000 C 
BRANCH  19  20
ATOM     20  C   UNL     1      -7.409  39.034  21.311  1.00  0.00    -0.000 C 
BRANCH  20  21
ATOM     21  C   UNL     1      -6.518  39.190  20.069  1.00  0.00    -0.000 C 
BRANCH  21  22
ATOM     22  C   UNL     1      -6.823  38.103  19.027  1.00  0.00    -0.000 C 
BRANCH  22  23
ATOM     23  C   UNL     1      -5.586  37.734  18.190  1.00  0.00    -0.000 C 
BRANCH  23  24
ATOM     24  C   UNL     1      -4.404  38.686  18.442  1.00  0.00    -0.000 C 
BRANCH  24  25
ATOM     25  C   UNL     1      -3.281  38.518  17.407  1.00  0.00    -0.003 C 
ATOM     26  C   UNL     1      -1.915  38.278  18.047  1.00  0.00     0.004 C 
ENDBRANCH  24  25
ENDBRANCH  23  24
ENDBRANCH  22  23
ENDBRANCH  21  22
ENDBRANCH  20  21
ENDBRANCH  19  20
ENDBRANCH  18  19
ENDBRANCH  17  18
ENDBRANCH  16  17
ENDBRANCH  15  16
ENDBRANCH   1  15
TORSDOF 22
ENDMDL
MODEL 7
REMARK VINA RESULT:    -4.717      4.308     11.050
REMARK INTER + INTRA:         -12.608
REMARK INTER:                 -10.677
REMARK INTRA:                  -1.931
REMARK UNBOUND:                -1.825
REMARK SMILES CCCCCCCCCCCCCCCCCCCCCCCC(=O)[O-]
REMARK SMILES IDX 13 1 14 2 15 3 16 4 17 5 18 6 19 7 20 8 21 9 22 10 23 11
REMARK SMILES IDX 24 12 25 13 26 14 12 15 11 16 10 17 9 18 8 19 7 20 6 21 5 22
REMARK SMILES IDX 4 23 3 24 2 25 1 26
REMARK H PARENT
REMARK Flexibility Score: inf
ROOT
ATOM      1  C   UNL     1      -1.999  35.073  17.082  1.00  0.00     0.000 C 
ENDROOT
BRANCH   1   2
ATOM      2  C   UNL     1      -2.398  35.949  15.878  1.00  0.00     0.000 C 
BRANCH   2   3
ATOM      3  C   UNL     1      -3.639  36.835  16.098  1.00  0.00     0.000 C 
BRANCH   3   4
ATOM      4  C   UNL     1      -3.374  38.353  16.121  1.00  0.00     0.000 C 
BRANCH   4   5
ATOM      5  C   UNL     1      -1.904  38.730  16.402  1.00  0.00     0.000 C 
BRANCH   5   6
ATOM      6  C   UNL     1      -1.689  39.278  17.824  1.00  0.00     0.000 C 
BRANCH   6   7
ATOM      7  C   UNL     1      -1.377  38.169  18.843  1.00  0.00     0.000 C 
BRANCH   7   8
ATOM      8  C   UNL     1      -2.393  38.123  20.001  1.00  0.00     0.000 C 
BRANCH   8   9
ATOM      9  C   UNL     1      -3.524  37.113  19.759  1.00  0.00     0.000 C 
BRANCH   9  10
ATOM     10  C   UNL     1      -4.396  36.888  21.008  1.00  0.00     0.006 C 
BRANCH  10  11
ATOM     11  C   UNL     1      -5.865  37.263  20.769  1.00  0.00     0.053 C 
BRANCH  11  12
ATOM     12  C   UNL     1      -6.240  38.540  21.458  1.00  0.00     0.041 C 
ATOM     13  O   UNL     1      -5.359  39.401  21.726  1.00  0.00    -0.550 OA
ATOM     14  O   UNL     1      -7.563  38.778  21.811  1.00  0.00    -0.550 OA
ENDBRANCH  11  12
ENDBRANCH  10  11
ENDBRANCH   9  10
ENDBRANCH   8   9
ENDBRANCH   7   8
ENDBRANCH   6   7
ENDBRANCH   5   6
ENDBRANCH   4   5
ENDBRANCH   3   4
ENDBRANCH   2   3
ENDBRANCH   1   2
BRANCH   1  15
ATOM     15  C   UNL     1      -0.532  34.614  17.020  1.00  0.00     0.000 C 
BRANCH  15  16
ATOM     16  C   UNL     1      -0.383  33.124  16.670  1.00  0.00     0.000 C 
BRANCH  16  17
ATOM     17  C   UNL     1      -0.640  32.154  17.838  1.00  0.00     0.000 C 
BRANCH  17  18
ATOM     18  C   UNL     1      -0.623  30.665  17.424  1.00  0.00    -0.000 C 
BRANCH  18  19
ATOM     19  C   UNL     1       0.736  30.182  16.880  1.00  0.00    -0.000 C 
BRANCH  19  20
ATOM     20  C   UNL     1       0.746  28.743  16.325  1.00  0.00    -0.000 C 
BRANCH  20  21
ATOM     21  C   UNL     1       0.378  27.688  17.379  1.00  0.00    -0.000 C 
BRANCH  21  22
ATOM     22  C   UNL     1      -0.236  26.441  16.724  1.00  0.00    -0.000 C 
BRANCH  22  23
ATOM     23  C   UNL     1      -0.421  25.287  17.725  1.00  0.00    -0.000 C 
BRANCH  23  24
ATOM     24  C   UNL     1      -0.393  25.770  19.186  1.00  0.00    -0.000 C 
BRANCH  24  25
ATOM     25  C   UNL     1      -1.176  24.842  20.128  1.00  0.00    -0.003 C 
ATOM     26  C   UNL     1      -2.017  23.809  19.381  1.00  0.00     0.004 C 
ENDBRANCH  24  25
ENDBRANCH  23  24
ENDBRANCH  22  23
ENDBRANCH  21  22
ENDBRANCH  20  21
ENDBRANCH  19  20
ENDBRANCH  18  19
ENDBRANCH  17  18
ENDBRANCH  16  17
ENDBRANCH  15  16
ENDBRANCH   1  15
TORSDOF 22
ENDMDL
MODEL 8
REMARK VINA RESULT:    -4.685      6.322     10.123
REMARK INTER + INTRA:         -12.535
REMARK INTER:                  -9.558
REMARK INTRA:                  -2.977
REMARK UNBOUND:                -1.825
REMARK SMILES CCCCCCCCCCCCCCCCCCCCCCCC(=O)[O-]
REMARK SMILES IDX 13 1 14 2 15 3 16 4 17 5 18 6 19 7 20 8 21 9 22 10 23 11
REMARK SMILES IDX 24 12 25 13 26 14 12 15 11 16 10 17 9 18 8 19 7 20 6 21 5 22
REMARK SMILES IDX 4 23 3 24 2 25 1 26
REMARK H PARENT
REMARK Flexibility Score: inf
ROOT
ATOM      1  C   UNL     1      -4.205  37.228  21.987  1.00  0.00     0.000 C 
ENDROOT
BRANCH   1   2
ATOM      2  C   UNL     1      -5.581  36.633  22.346  1.00  0.00     0.000 C 
BRANCH   2   3
ATOM      3  C   UNL     1      -6.711  37.664  22.525  1.00  0.00     0.000 C 
BRANCH   3   4
ATOM      4  C   UNL     1      -7.033  38.517  21.282  1.00  0.00     0.000 C 
BRANCH   4   5
ATOM      5  C   UNL     1      -7.112  40.032  21.562  1.00  0.00     0.000 C 
BRANCH   5   6
ATOM      6  C   UNL     1      -5.797  40.768  21.247  1.00  0.00     0.000 C 
BRANCH   6   7
ATOM      7  C   UNL     1      -5.002  40.099  20.114  1.00  0.00     0.000 C 
BRANCH   7   8
ATOM      8  C   UNL     1      -3.577  40.668  19.973  1.00  0.00     0.000 C 
BRANCH   8   9
ATOM      9  C   UNL     1      -2.738  39.915  18.929  1.00  0.00     0.000 C 
BRANCH   9  10
ATOM     10  C   UNL     1      -3.321  38.533  18.582  1.00  0.00     0.006 C 
BRANCH  10  11
ATOM     11  C   UNL     1      -2.320  37.398  18.838  1.00  0.00     0.053 C 
BRANCH  11  12
ATOM     12  C   UNL     1      -2.208  36.470  17.666  1.00  0.00     0.041 C 
ATOM     13  O   UNL     1      -1.263  35.638  17.602  1.00  0.00    -0.550 OA
ATOM     14  O   UNL     1      -3.144  36.528  16.640  1.00  0.00    -0.550 OA
ENDBRANCH  11  12
ENDBRANCH  10  11
ENDBRANCH   9  10
ENDBRANCH   8   9
ENDBRANCH   7   8
ENDBRANCH   6   7
ENDBRANCH   5   6
ENDBRANCH   4   5
ENDBRANCH   3   4
ENDBRANCH   2   3
ENDBRANCH   1   2
BRANCH   1  15
ATOM     15  C   UNL     1      -3.378  37.602  23.230  1.00  0.00     0.000 C 
BRANCH  15  16
ATOM     16  C   UNL     1      -2.655  38.951  23.086  1.00  0.00     0.000 C 
BRANCH  16  17
ATOM     17  C   UNL     1      -3.350  40.139  23.777  1.00  0.00     0.000 C 
BRANCH  17  18
ATOM     18  C   UNL     1      -4.552  39.728  24.657  1.00  0.00    -0.000 C 
BRANCH  18  19
ATOM     19  C   UNL     1      -4.616  40.460  26.012  1.00  0.00    -0.000 C 
BRANCH  19  20
ATOM     20  C   UNL     1      -3.357  40.324  26.891  1.00  0.00    -0.000 C 
BRANCH  20  21
ATOM     21  C   UNL     1      -3.679  40.090  28.375  1.00  0.00    -0.000 C 
BRANCH  21  22
ATOM     22  C   UNL     1      -2.435  39.618  29.144  1.00  0.00    -0.000 C 
BRANCH  22  23
ATOM     23  C   UNL     1      -2.796  38.708  30.332  1.00  0.00    -0.000 C 
BRANCH  23  24
ATOM     24  C   UNL     1      -2.331  37.257  30.120  1.00  0.00    -0.000 C 
BRANCH  24  25
ATOM     25  C   UNL     1      -3.503  36.266  30.054  1.00  0.00    -0.003 C 
ATOM     26  C   UNL     1      -3.666  35.451  31.336  1.00  0.00     0.004 C 
ENDBRANCH  24  25
ENDBRANCH  23  24
ENDBRANCH  22  23
ENDBRANCH  21  22
ENDBRANCH  20  21
ENDBRANCH  19  20
ENDBRANCH  18  19
ENDBRANCH  17  18
ENDBRANCH  16  17
ENDBRANCH  15  16
ENDBRANCH   1  15
TORSDOF 22
ENDMDL
MODEL 9
REMARK VINA RESULT:    -4.671      7.356     11.192
REMARK INTER + INTRA:         -12.504
REMARK INTER:                  -8.856
REMARK INTRA:                  -3.648
REMARK UNBOUND:                -1.825
REMARK SMILES CCCCCCCCCCCCCCCCCCCCCCCC(=O)[O-]
REMARK SMILES IDX 13 1 14 2 15 3 16 4 17 5 18 6 19 7 20 8 21 9 22 10 23 11
REMARK SMILES IDX 24 12 25 13 26 14 12 15 11 16 10 17 9 18 8 19 7 20 6 21 5 22
REMARK SMILES IDX 4 23 3 24 2 25 1 26
REMARK H PARENT
REMARK Flexibility Score: inf
ROOT
ATOM      1  C   UNL     1      -3.748  39.097  24.532  1.00  0.00     0.000 C 
ENDROOT
BRANCH   1   2
ATOM      2  C   UNL     1      -3.036  39.656  23.284  1.00  0.00     0.000 C 
BRANCH   2   3
ATOM      3  C   UNL     1      -3.748  40.839  22.602  1.00  0.00     0.000 C 
BRANCH   3   4
ATOM      4  C   UNL     1      -3.792  40.788  21.062  1.00  0.00     0.000 C 
BRANCH   4   5
ATOM      5  C   UNL     1      -5.219  40.792  20.474  1.00  0.00     0.000 C 
BRANCH   5   6
ATOM      6  C   UNL     1      -6.309  40.621  21.547  1.00  0.00     0.000 C 
BRANCH   6   7
ATOM      7  C   UNL     1      -7.133  39.337  21.353  1.00  0.00     0.000 C 
BRANCH   7   8
ATOM      8  C   UNL     1      -7.110  38.423  22.593  1.00  0.00     0.000 C 
BRANCH   8   9
ATOM      9  C   UNL     1      -6.230  37.179  22.398  1.00  0.00     0.000 C 
BRANCH   9  10
ATOM     10  C   UNL     1      -5.608  37.106  20.992  1.00  0.00     0.006 C 
BRANCH  10  11
ATOM     11  C   UNL     1      -4.093  36.863  21.036  1.00  0.00     0.053 C 
BRANCH  11  12
ATOM     12  C   UNL     1      -3.397  37.420  19.831  1.00  0.00     0.041 C 
ATOM     13  O   UNL     1      -2.189  37.774  19.902  1.00  0.00    -0.550 OA
ATOM     14  O   UNL     1      -4.083  37.552  18.630  1.00  0.00    -0.550 OA
ENDBRANCH  11  12
ENDBRANCH  10  11
ENDBRANCH   9  10
ENDBRANCH   8   9
ENDBRANCH   7   8
ENDBRANCH   6   7
ENDBRANCH   5   6
ENDBRANCH   4   5
ENDBRANCH   3   4
ENDBRANCH   2   3
ENDBRANCH   1   2
BRANCH   1  15
ATOM     15  C   UNL     1      -4.933  39.972  24.979  1.00  0.00     0.000 C 
BRANCH  15  16
ATOM     16  C   UNL     1      -4.769  40.520  26.406  1.00  0.00     0.000 C 
BRANCH  16  17
ATOM     17  C   UNL     1      -3.326  40.508  26.945  1.00  0.00     0.000 C 
BRANCH  17  18
ATOM     18  C   UNL     1      -3.225  40.815  28.456  1.00  0.00    -0.000 C 
BRANCH  18  19
ATOM     19  C   UNL     1      -4.408  40.278  29.286  1.00  0.00    -0.000 C 
BRANCH  19  20
ATOM     20  C   UNL     1      -4.455  40.760  30.749  1.00  0.00    -0.000 C 
BRANCH  20  21
ATOM     21  C   UNL     1      -4.345  39.614  31.766  1.00  0.00    -0.000 C 
BRANCH  21  22
ATOM     22  C   UNL     1      -4.136  38.265  31.059  1.00  0.00    -0.000 C 
BRANCH  22  23
ATOM     23  C   UNL     1      -2.731  37.688  31.309  1.00  0.00    -0.000 C 
BRANCH  23  24
ATOM     24  C   UNL     1      -1.944  37.479  30.004  1.00  0.00    -0.000 C 
BRANCH  24  25
ATOM     25  C   UNL     1      -0.805  38.496  29.833  1.00  0.00    -0.003 C 
ATOM     26  C   UNL     1      -0.656  39.428  31.035  1.00  0.00     0.004 C 
ENDBRANCH  24  25
ENDBRANCH  23  24
ENDBRANCH  22  23
ENDBRANCH  21  22
ENDBRANCH  20  21
ENDBRANCH  19  20
ENDBRANCH  18  19
ENDBRANCH  17  18
ENDBRANCH  16  17
ENDBRANCH  15  16
ENDBRANCH   1  15
TORSDOF 22
ENDMDL
