MODEL 1
REMARK VINA RESULT:    -3.066      0.000      0.000
REMARK INTER + INTRA:          -9.208
REMARK INTER:                  -7.726
REMARK INTRA:                  -1.482
REMARK UNBOUND:                -1.482
REMARK SMILES CCCCCCCCCCCCCCCCCCCCCCCCCCCC(=O)[O-]
REMARK SMILES IDX 15 1 16 2 17 3 18 4 19 5 20 6 21 7 22 8 23 9 24 10 25 11
REMARK SMILES IDX 26 12 27 13 28 14 29 15 30 16 14 17 13 18 12 19 11 20 10 21
REMARK SMILES IDX 9 22 8 23 7 24 6 25 5 26 4 27 3 28 2 29 1 30
REMARK H PARENT
REMARK Flexibility Score: inf
ROOT
ATOM      1  C   UNL     1       1.668  -2.665 -10.275  1.00  0.00     0.000 C 
ENDROOT
BRANCH   1   2
ATOM      2  C   UNL     1       0.838  -2.618 -11.570  1.00  0.00     0.000 C 
BRANCH   2   3
ATOM      3  C   UNL     1       0.491  -4.018 -12.100  1.00  0.00     0.000 C 
BRANCH   3   4
ATOM      4  C   UNL     1       1.636  -5.026 -11.902  1.00  0.00     0.000 C 
BRANCH   4   5
ATOM      5  C   UNL     1       1.388  -5.975 -10.719  1.00  0.00     0.000 C 
BRANCH   5   6
ATOM      6  C   UNL     1       1.952  -7.386 -10.964  1.00  0.00     0.000 C 
BRANCH   6   7
ATOM      7  C   UNL     1       0.852  -8.446 -11.121  1.00  0.00     0.000 C 
BRANCH   7   8
ATOM      8  C   UNL     1      -0.545  -7.906 -10.778  1.00  0.00     0.000 C 
BRANCH   8   9
ATOM      9  C   UNL     1      -1.598  -8.450 -11.749  1.00  0.00     0.000 C 
BRANCH   9  10
ATOM     10  C   UNL     1      -2.461  -9.528 -11.078  1.00  0.00     0.000 C 
BRANCH  10  11
ATOM     11  C   UNL     1      -1.666 -10.798 -10.723  1.00  0.00     0.000 C 
BRANCH  11  12
ATOM     12  C   UNL     1      -0.959 -11.478 -11.913  1.00  0.00     0.006 C 
BRANCH  12  13
ATOM     13  C   UNL     1      -0.112 -12.706 -11.538  1.00  0.00     0.053 C 
BRANCH  13  14
ATOM     14  C   UNL     1       1.091 -12.331 -10.729  1.00  0.00     0.041 C 
ATOM     15  O   UNL     1       2.045 -11.709 -11.265  1.00  0.00    -0.550 OA
ATOM     16  O   UNL     1       1.142 -12.636  -9.375  1.00  0.00    -0.550 OA
ENDBRANCH  13  14
ENDBRANCH  12  13
ENDBRANCH  11  12
ENDBRANCH  10  11
ENDBRANCH   9  10
ENDBRANCH   8   9
ENDBRANCH   7   8
ENDBRANCH   6   7
ENDBRANCH   5   6
ENDBRANCH   4   5
ENDBRANCH   3   4
ENDBRANCH   2   3
ENDBRANCH   1   2
BRANCH   1  17
ATOM     17  C   UNL     1       2.844  -1.676 -10.292  1.00  0.00     0.000 C 
BRANCH  17  18
ATOM     18  C   UNL     1       3.638  -1.726 -11.609  1.00  0.00     0.000 C 
BRANCH  18  19
ATOM     19  C   UNL     1       4.973  -0.970 -11.524  1.00  0.00     0.000 C 
BRANCH  19  20
ATOM     20  C   UNL     1       6.145  -1.775 -12.105  1.00  0.00     0.000 C 
BRANCH  20  21
ATOM     21  C   UNL     1       7.202  -2.067 -11.031  1.00  0.00     0.000 C 
BRANCH  21  22
ATOM     22  C   UNL     1       7.829  -0.788 -10.446  1.00  0.00    -0.000 C 
BRANCH  22  23
ATOM     23  C   UNL     1       7.377  -0.433  -9.015  1.00  0.00    -0.000 C 
BRANCH  23  24
ATOM     24  C   UNL     1       8.522  -0.206  -8.008  1.00  0.00    -0.000 C 
BRANCH  24  25
ATOM     25  C   UNL     1       9.113  -1.492  -7.398  1.00  0.00    -0.000 C 
BRANCH  25  26
ATOM     26  C   UNL     1       9.115  -1.541  -5.857  1.00  0.00    -0.000 C 
BRANCH  26  27
ATOM     27  C   UNL     1       8.947  -2.945  -5.248  1.00  0.00    -0.000 C 
BRANCH  27  28
ATOM     28  C   UNL     1       8.117  -2.937  -3.953  1.00  0.00    -0.000 C 
BRANCH  28  29
ATOM     29  C   UNL     1       8.408  -4.152  -3.058  1.00  0.00    -0.003 C 
ATOM     30  C   UNL     1       8.468  -3.793  -1.573  1.00  0.00     0.004 C 
ENDBRANCH  28  29
ENDBRANCH  27  28
ENDBRANCH  26  27
ENDBRANCH  25  26
ENDBRANCH  24  25
ENDBRANCH  23  24
ENDBRANCH  22  23
ENDBRANCH  21  22
ENDBRANCH  20  21
ENDBRANCH  19  20
ENDBRANCH  18  19
ENDBRANCH  17  18
ENDBRANCH   1  17
TORSDOF 26
ENDMDL
MODEL 2
REMARK VINA RESULT:    -2.875      2.619      4.261
REMARK INTER + INTRA:          -8.727
REMARK INTER:                  -6.911
REMARK INTRA:                  -1.816
REMARK UNBOUND:                -1.482
REMARK SMILES CCCCCCCCCCCCCCCCCCCCCCCCCCCC(=O)[O-]
REMARK SMILES IDX 15 1 16 2 17 3 18 4 19 5 20 6 21 7 22 8 23 9 24 10 25 11
REMARK SMILES IDX 26 12 27 13 28 14 29 15 30 16 14 17 13 18 12 19 11 20 10 21
REMARK SMILES IDX 9 22 8 23 7 24 6 25 5 26 4 27 3 28 2 29 1 30
REMARK H PARENT
REMARK Flexibility Score: inf
ROOT
ATOM      1  C   UNL     1       1.877  -1.685 -12.023  1.00  0.00     0.000 C 
ENDROOT
BRANCH   1   2
ATOM      2  C   UNL     1       1.126  -2.834 -11.328  1.00  0.00     0.000 C 
BRANCH   2   3
ATOM      3  C   UNL     1       1.188  -4.147 -12.124  1.00  0.00     0.000 C 
BRANCH   3   4
ATOM      4  C   UNL     1       0.940  -5.384 -11.243  1.00  0.00     0.000 C 
BRANCH   4   5
ATOM      5  C   UNL     1       2.231  -5.926 -10.612  1.00  0.00     0.000 C 
BRANCH   5   6
ATOM      6  C   UNL     1       2.882  -7.036 -11.459  1.00  0.00     0.000 C 
BRANCH   6   7
ATOM      7  C   UNL     1       2.549  -8.446 -10.945  1.00  0.00     0.000 C 
BRANCH   7   8
ATOM      8  C   UNL     1       2.269  -9.439 -12.083  1.00  0.00     0.000 C 
BRANCH   8   9
ATOM      9  C   UNL     1       0.813  -9.920 -12.045  1.00  0.00     0.000 C 
BRANCH   9  10
ATOM     10  C   UNL     1      -0.157  -8.731 -11.982  1.00  0.00     0.000 C 
BRANCH  10  11
ATOM     11  C   UNL     1      -0.913  -8.645 -10.644  1.00  0.00     0.000 C 
BRANCH  11  12
ATOM     12  C   UNL     1      -1.970  -9.746 -10.420  1.00  0.00     0.006 C 
BRANCH  12  13
ATOM     13  C   UNL     1      -1.508 -10.904  -9.520  1.00  0.00     0.053 C 
BRANCH  13  14
ATOM     14  C   UNL     1      -1.710 -12.236 -10.174  1.00  0.00     0.041 C 
ATOM     15  O   UNL     1      -0.758 -12.796 -10.777  1.00  0.00    -0.550 OA
ATOM     16  O   UNL     1      -2.940 -12.875 -10.085  1.00  0.00    -0.550 OA
ENDBRANCH  13  14
ENDBRANCH  12  13
ENDBRANCH  11  12
ENDBRANCH  10  11
ENDBRANCH   9  10
ENDBRANCH   8   9
ENDBRANCH   7   8
ENDBRANCH   6   7
ENDBRANCH   5   6
ENDBRANCH   4   5
ENDBRANCH   3   4
ENDBRANCH   2   3
ENDBRANCH   1   2
BRANCH   1  17
ATOM     17  C   UNL     1       3.180  -1.310 -11.301  1.00  0.00     0.000 C 
BRANCH  17  18
ATOM     18  C   UNL     1       4.431  -1.789 -12.057  1.00  0.00     0.000 C 
BRANCH  18  19
ATOM     19  C   UNL     1       5.694  -1.003 -11.669  1.00  0.00     0.000 C 
BRANCH  19  20
ATOM     20  C   UNL     1       6.337  -1.522 -10.374  1.00  0.00     0.000 C 
BRANCH  20  21
ATOM     21  C   UNL     1       7.399  -0.544  -9.855  1.00  0.00     0.000 C 
BRANCH  21  22
ATOM     22  C   UNL     1       8.496  -1.235  -9.025  1.00  0.00    -0.000 C 
BRANCH  22  23
ATOM     23  C   UNL     1       8.561  -2.769  -9.177  1.00  0.00    -0.000 C 
BRANCH  23  24
ATOM     24  C   UNL     1       9.125  -3.266 -10.523  1.00  0.00    -0.000 C 
BRANCH  24  25
ATOM     25  C   UNL     1       8.092  -3.937 -11.449  1.00  0.00    -0.000 C 
BRANCH  25  26
ATOM     26  C   UNL     1       8.469  -5.352 -11.930  1.00  0.00    -0.000 C 
BRANCH  26  27
ATOM     27  C   UNL     1       8.716  -6.379 -10.810  1.00  0.00    -0.000 C 
BRANCH  27  28
ATOM     28  C   UNL     1       8.591  -7.833 -11.297  1.00  0.00    -0.000 C 
BRANCH  28  29
ATOM     29  C   UNL     1       7.212  -8.133 -11.908  1.00  0.00    -0.003 C 
ATOM     30  C   UNL     1       6.446  -9.211 -11.141  1.00  0.00     0.004 C 
ENDBRANCH  28  29
ENDBRANCH  27  28
ENDBRANCH  26  27
ENDBRANCH  25  26
ENDBRANCH  24  25
ENDBRANCH  23  24
ENDBRANCH  22  23
ENDBRANCH  21  22
ENDBRANCH  20  21
ENDBRANCH  19  20
ENDBRANCH  18  19
ENDBRANCH  17  18
ENDBRANCH   1  17
TORSDOF 26
ENDMDL
MODEL 3
REMARK VINA RESULT:    -1.910      7.717     12.115
REMARK INTER + INTRA:          -6.295
REMARK INTER:                  -4.355
REMARK INTRA:                  -1.940
REMARK UNBOUND:                -1.482
REMARK SMILES CCCCCCCCCCCCCCCCCCCCCCCCCCCC(=O)[O-]
REMARK SMILES IDX 15 1 16 2 17 3 18 4 19 5 20 6 21 7 22 8 23 9 24 10 25 11
REMARK SMILES IDX 26 12 27 13 28 14 29 15 30 16 14 17 13 18 12 19 11 20 10 21
REMARK SMILES IDX 9 22 8 23 7 24 6 25 5 26 4 27 3 28 2 29 1 30
REMARK H PARENT
REMARK Flexibility Score: inf
ROOT
ATOM      1  C   UNL     1      -3.237  -2.511 -11.842  1.00  0.00     0.000 C 
ENDROOT
BRANCH   1   2
ATOM      2  C   UNL     1      -3.309  -4.024 -12.112  1.00  0.00     0.000 C 
BRANCH   2   3
ATOM      3  C   UNL     1      -1.933  -4.704 -12.036  1.00  0.00     0.000 C 
BRANCH   3   4
ATOM      4  C   UNL     1      -1.002  -4.041 -11.006  1.00  0.00     0.000 C 
BRANCH   4   5
ATOM      5  C   UNL     1       0.310  -3.544 -11.631  1.00  0.00     0.000 C 
BRANCH   5   6
ATOM      6  C   UNL     1       1.554  -4.127 -10.936  1.00  0.00     0.000 C 
BRANCH   6   7
ATOM      7  C   UNL     1       2.365  -5.056 -11.852  1.00  0.00     0.000 C 
BRANCH   7   8
ATOM      8  C   UNL     1       1.825  -6.494 -11.864  1.00  0.00     0.000 C 
BRANCH   8   9
ATOM      9  C   UNL     1       1.974  -7.148 -10.485  1.00  0.00     0.000 C 
BRANCH   9  10
ATOM     10  C   UNL     1       1.096  -8.403 -10.374  1.00  0.00     0.000 C 
BRANCH  10  11
ATOM     11  C   UNL     1       0.239  -8.649 -11.629  1.00  0.00     0.000 C 
BRANCH  11  12
ATOM     12  C   UNL     1      -1.272  -8.397 -11.447  1.00  0.00     0.006 C 
BRANCH  12  13
ATOM     13  C   UNL     1      -1.966  -9.355 -10.465  1.00  0.00     0.053 C 
BRANCH  13  14
ATOM     14  C   UNL     1      -1.556 -10.779 -10.686  1.00  0.00     0.041 C 
ATOM     15  O   UNL     1      -2.156 -11.485 -11.538  1.00  0.00    -0.550 OA
ATOM     16  O   UNL     1      -0.489 -11.313  -9.976  1.00  0.00    -0.550 OA
ENDBRANCH  13  14
ENDBRANCH  12  13
ENDBRANCH  11  12
ENDBRANCH  10  11
ENDBRANCH   9  10
ENDBRANCH   8   9
ENDBRANCH   7   8
ENDBRANCH   6   7
ENDBRANCH   5   6
ENDBRANCH   4   5
ENDBRANCH   3   4
ENDBRANCH   2   3
ENDBRANCH   1   2
BRANCH   1  17
ATOM     17  C   UNL     1      -4.567  -1.797 -12.124  1.00  0.00     0.000 C 
BRANCH  17  18
ATOM     18  C   UNL     1      -4.477  -0.277 -11.909  1.00  0.00     0.000 C 
BRANCH  18  19
ATOM     19  C   UNL     1      -5.853   0.372 -11.687  1.00  0.00     0.000 C 
BRANCH  19  20
ATOM     20  C   UNL     1      -6.013   0.946 -10.272  1.00  0.00     0.000 C 
BRANCH  20  21
ATOM     21  C   UNL     1      -7.441   0.735  -9.748  1.00  0.00     0.000 C 
BRANCH  21  22
ATOM     22  C   UNL     1      -8.283   2.023  -9.766  1.00  0.00    -0.000 C 
BRANCH  22  23
ATOM     23  C   UNL     1      -9.589   1.940 -10.582  1.00  0.00    -0.000 C 
BRANCH  23  24
ATOM     24  C   UNL     1      -9.738   3.009 -11.682  1.00  0.00    -0.000 C 
BRANCH  24  25
ATOM     25  C   UNL     1     -10.684   4.174 -11.330  1.00  0.00    -0.000 C 
BRANCH  25  26
ATOM     26  C   UNL     1     -10.592   4.671  -9.874  1.00  0.00    -0.000 C 
BRANCH  26  27
ATOM     27  C   UNL     1     -10.562   6.201  -9.706  1.00  0.00    -0.000 C 
BRANCH  27  28
ATOM     28  C   UNL     1      -9.173   6.729  -9.307  1.00  0.00    -0.000 C 
BRANCH  28  29
ATOM     29  C   UNL     1      -8.031   5.862  -9.861  1.00  0.00    -0.003 C 
ATOM     30  C   UNL     1      -7.455   6.405 -11.169  1.00  0.00     0.004 C 
ENDBRANCH  28  29
ENDBRANCH  27  28
ENDBRANCH  26  27
ENDBRANCH  25  26
ENDBRANCH  24  25
ENDBRANCH  23  24
ENDBRANCH  22  23
ENDBRANCH  21  22
ENDBRANCH  20  21
ENDBRANCH  19  20
ENDBRANCH  18  19
ENDBRANCH  17  18
ENDBRANCH   1  17
TORSDOF 26
ENDMDL
MODEL 4
REMARK VINA RESULT:    -1.852      3.364      9.860
REMARK INTER + INTRA:          -6.148
REMARK INTER:                  -4.162
REMARK INTRA:                  -1.985
REMARK UNBOUND:                -1.482
REMARK SMILES CCCCCCCCCCCCCCCCCCCCCCCCCCCC(=O)[O-]
REMARK SMILES IDX 15 1 16 2 17 3 18 4 19 5 20 6 21 7 22 8 23 9 24 10 25 11
REMARK SMILES IDX 26 12 27 13 28 14 29 15 30 16 14 17 13 18 12 19 11 20 10 21
REMARK SMILES IDX 9 22 8 23 7 24 6 25 5 26 4 27 3 28 2 29 1 30
REMARK H PARENT
REMARK Flexibility Score: inf
ROOT
ATOM      1  C   UNL     1       2.523  -3.498 -10.311  1.00  0.00     0.000 C 
ENDROOT
BRANCH   1   2
ATOM      2  C   UNL     1       2.957  -2.986 -11.696  1.00  0.00     0.000 C 
BRANCH   2   3
ATOM      3  C   UNL     1       2.807  -1.462 -11.836  1.00  0.00     0.000 C 
BRANCH   3   4
ATOM      4  C   UNL     1       4.163  -0.746 -11.969  1.00  0.00     0.000 C 
BRANCH   4   5
ATOM      5  C   UNL     1       5.353  -1.709 -11.835  1.00  0.00     0.000 C 
BRANCH   5   6
ATOM      6  C   UNL     1       6.661  -0.983 -11.469  1.00  0.00     0.000 C 
BRANCH   6   7
ATOM      7  C   UNL     1       7.290  -1.514 -10.171  1.00  0.00     0.000 C 
BRANCH   7   8
ATOM      8  C   UNL     1       8.418  -2.524 -10.430  1.00  0.00     0.000 C 
BRANCH   8   9
ATOM      9  C   UNL     1       8.504  -2.880 -11.919  1.00  0.00     0.000 C 
BRANCH   9  10
ATOM     10  C   UNL     1       8.487  -4.402 -12.122  1.00  0.00     0.000 C 
BRANCH  10  11
ATOM     11  C   UNL     1       9.125  -5.171 -10.951  1.00  0.00     0.000 C 
BRANCH  11  12
ATOM     12  C   UNL     1       8.240  -6.275 -10.336  1.00  0.00     0.006 C 
BRANCH  12  13
ATOM     13  C   UNL     1       8.056  -7.516 -11.224  1.00  0.00     0.053 C 
BRANCH  13  14
ATOM     14  C   UNL     1       7.283  -8.594 -10.527  1.00  0.00     0.041 C 
ATOM     15  O   UNL     1       7.669  -9.028  -9.411  1.00  0.00    -0.550 OA
ATOM     16  O   UNL     1       6.118  -9.092 -11.095  1.00  0.00    -0.550 OA
ENDBRANCH  13  14
ENDBRANCH  12  13
ENDBRANCH  11  12
ENDBRANCH  10  11
ENDBRANCH   9  10
ENDBRANCH   8   9
ENDBRANCH   7   8
ENDBRANCH   6   7
ENDBRANCH   5   6
ENDBRANCH   4   5
ENDBRANCH   3   4
ENDBRANCH   2   3
ENDBRANCH   1   2
BRANCH   1  17
ATOM     17  C   UNL     1       1.332  -4.465 -10.386  1.00  0.00     0.000 C 
BRANCH  17  18
ATOM     18  C   UNL     1      -0.009  -3.734 -10.571  1.00  0.00     0.000 C 
BRANCH  18  19
ATOM     19  C   UNL     1      -0.897  -4.388 -11.642  1.00  0.00     0.000 C 
BRANCH  19  20
ATOM     20  C   UNL     1      -0.491  -5.840 -11.939  1.00  0.00     0.000 C 
BRANCH  20  21
ATOM     21  C   UNL     1      -0.957  -6.782 -10.820  1.00  0.00     0.000 C 
BRANCH  21  22
ATOM     22  C   UNL     1      -1.001  -8.257 -11.259  1.00  0.00    -0.000 C 
BRANCH  22  23
ATOM     23  C   UNL     1      -2.177  -9.074 -10.686  1.00  0.00    -0.000 C 
BRANCH  23  24
ATOM     24  C   UNL     1      -1.928 -10.594 -10.593  1.00  0.00    -0.000 C 
BRANCH  24  25
ATOM     25  C   UNL     1      -1.425 -11.249 -11.893  1.00  0.00    -0.000 C 
BRANCH  25  26
ATOM     26  C   UNL     1       0.003 -11.825 -11.824  1.00  0.00    -0.000 C 
BRANCH  26  27
ATOM     27  C   UNL     1       0.997 -11.010 -10.975  1.00  0.00    -0.000 C 
BRANCH  27  28
ATOM     28  C   UNL     1       2.187 -10.482 -11.795  1.00  0.00    -0.000 C 
BRANCH  28  29
ATOM     29  C   UNL     1       2.059  -8.986 -12.125  1.00  0.00    -0.003 C 
ATOM     30  C   UNL     1       2.631  -8.087 -11.030  1.00  0.00     0.004 C 
ENDBRANCH  28  29
ENDBRANCH  27  28
ENDBRANCH  26  27
ENDBRANCH  25  26
ENDBRANCH  24  25
ENDBRANCH  23  24
ENDBRANCH  22  23
ENDBRANCH  21  22
ENDBRANCH  20  21
ENDBRANCH  19  20
ENDBRANCH  18  19
ENDBRANCH  17  18
ENDBRANCH   1  17
TORSDOF 26
ENDMDL
MODEL 5
REMARK VINA RESULT:    -1.845      1.671      2.104
REMARK INTER + INTRA:          -6.132
REMARK INTER:                  -4.609
REMARK INTRA:                  -1.523
REMARK UNBOUND:                -1.482
REMARK SMILES CCCCCCCCCCCCCCCCCCCCCCCCCCCC(=O)[O-]
REMARK SMILES IDX 15 1 16 2 17 3 18 4 19 5 20 6 21 7 22 8 23 9 24 10 25 11
REMARK SMILES IDX 26 12 27 13 28 14 29 15 30 16 14 17 13 18 12 19 11 20 10 21
REMARK SMILES IDX 9 22 8 23 7 24 6 25 5 26 4 27 3 28 2 29 1 30
REMARK H PARENT
REMARK Flexibility Score: inf
ROOT
ATOM      1  C   UNL     1       1.851  -2.089  -9.956  1.00  0.00     0.000 C 
ENDROOT
BRANCH   1   2
ATOM      2  C   UNL     1       1.344  -2.423 -11.370  1.00  0.00     0.000 C 
BRANCH   2   3
ATOM      3  C   UNL     1       0.338  -3.584 -11.379  1.00  0.00     0.000 C 
BRANCH   3   4
ATOM      4  C   UNL     1       0.930  -4.874 -11.973  1.00  0.00     0.000 C 
BRANCH   4   5
ATOM      5  C   UNL     1       2.302  -5.221 -11.376  1.00  0.00     0.000 C 
BRANCH   5   6
ATOM      6  C   UNL     1       2.716  -6.678 -11.655  1.00  0.00     0.000 C 
BRANCH   6   7
ATOM      7  C   UNL     1       2.137  -7.666 -10.632  1.00  0.00     0.000 C 
BRANCH   7   8
ATOM      8  C   UNL     1       0.882  -8.386 -11.149  1.00  0.00     0.000 C 
BRANCH   8   9
ATOM      9  C   UNL     1       0.763  -9.788 -10.539  1.00  0.00     0.000 C 
BRANCH   9  10
ATOM     10  C   UNL     1       0.777 -10.866 -11.632  1.00  0.00     0.000 C 
BRANCH  10  11
ATOM     11  C   UNL     1       0.495 -12.278 -11.086  1.00  0.00     0.000 C 
BRANCH  11  12
ATOM     12  C   UNL     1      -0.966 -12.752 -11.226  1.00  0.00     0.006 C 
BRANCH  12  13
ATOM     13  C   UNL     1      -1.964 -12.028 -10.307  1.00  0.00     0.053 C 
BRANCH  13  14
ATOM     14  C   UNL     1      -2.853 -11.094 -11.071  1.00  0.00     0.041 C 
ATOM     15  O   UNL     1      -3.654 -11.545 -11.930  1.00  0.00    -0.550 OA
ATOM     16  O   UNL     1      -2.819  -9.731 -10.807  1.00  0.00    -0.550 OA
ENDBRANCH  13  14
ENDBRANCH  12  13
ENDBRANCH  11  12
ENDBRANCH  10  11
ENDBRANCH   9  10
ENDBRANCH   8   9
ENDBRANCH   7   8
ENDBRANCH   6   7
ENDBRANCH   5   6
ENDBRANCH   4   5
ENDBRANCH   3   4
ENDBRANCH   2   3
ENDBRANCH   1   2
BRANCH   1  17
ATOM     17  C   UNL     1       3.302  -1.586  -9.952  1.00  0.00     0.000 C 
BRANCH  17  18
ATOM     18  C   UNL     1       4.141  -2.196 -11.088  1.00  0.00     0.000 C 
BRANCH  18  19
ATOM     19  C   UNL     1       5.383  -1.356 -11.423  1.00  0.00     0.000 C 
BRANCH  19  20
ATOM     20  C   UNL     1       6.671  -2.192 -11.450  1.00  0.00     0.000 C 
BRANCH  20  21
ATOM     21  C   UNL     1       7.297  -2.287 -10.051  1.00  0.00     0.000 C 
BRANCH  21  22
ATOM     22  C   UNL     1       8.576  -1.442  -9.909  1.00  0.00    -0.000 C 
BRANCH  22  23
ATOM     23  C   UNL     1       8.423  -0.164  -9.060  1.00  0.00    -0.000 C 
BRANCH  23  24
ATOM     24  C   UNL     1       9.015  -0.253  -7.638  1.00  0.00    -0.000 C 
BRANCH  24  25
ATOM     25  C   UNL     1       8.215  -1.131  -6.657  1.00  0.00    -0.000 C 
BRANCH  25  26
ATOM     26  C   UNL     1       9.033  -2.224  -5.942  1.00  0.00    -0.000 C 
BRANCH  26  27
ATOM     27  C   UNL     1       9.118  -2.082  -4.412  1.00  0.00    -0.000 C 
BRANCH  27  28
ATOM     28  C   UNL     1       7.940  -2.752  -3.685  1.00  0.00    -0.000 C 
BRANCH  28  29
ATOM     29  C   UNL     1       8.267  -4.182  -3.225  1.00  0.00    -0.003 C 
ATOM     30  C   UNL     1       8.187  -4.349  -1.708  1.00  0.00     0.004 C 
ENDBRANCH  28  29
ENDBRANCH  27  28
ENDBRANCH  26  27
ENDBRANCH  25  26
ENDBRANCH  24  25
ENDBRANCH  23  24
ENDBRANCH  22  23
ENDBRANCH  21  22
ENDBRANCH  20  21
ENDBRANCH  19  20
ENDBRANCH  18  19
ENDBRANCH  17  18
ENDBRANCH   1  17
TORSDOF 26
ENDMDL
MODEL 6
REMARK VINA RESULT:    -1.435      3.518      4.281
REMARK INTER + INTRA:          -5.097
REMARK INTER:                  -3.803
REMARK INTRA:                  -1.293
REMARK UNBOUND:                -1.482
REMARK SMILES CCCCCCCCCCCCCCCCCCCCCCCCCCCC(=O)[O-]
REMARK SMILES IDX 15 1 16 2 17 3 18 4 19 5 20 6 21 7 22 8 23 9 24 10 25 11
REMARK SMILES IDX 26 12 27 13 28 14 29 15 30 16 14 17 13 18 12 19 11 20 10 21
REMARK SMILES IDX 9 22 8 23 7 24 6 25 5 26 4 27 3 28 2 29 1 30
REMARK H PARENT
REMARK Flexibility Score: inf
ROOT
ATOM      1  C   UNL     1       1.679  -2.626 -10.287  1.00  0.00     0.000 C 
ENDROOT
BRANCH   1   2
ATOM      2  C   UNL     1       1.239  -2.782 -11.753  1.00  0.00     0.000 C 
BRANCH   2   3
ATOM      3  C   UNL     1      -0.035  -3.629 -11.900  1.00  0.00     0.000 C 
BRANCH   3   4
ATOM      4  C   UNL     1       0.252  -5.140 -11.859  1.00  0.00     0.000 C 
BRANCH   4   5
ATOM      5  C   UNL     1       1.736  -5.464 -12.093  1.00  0.00     0.000 C 
BRANCH   5   6
ATOM      6  C   UNL     1       2.180  -6.752 -11.376  1.00  0.00     0.000 C 
BRANCH   6   7
ATOM      7  C   UNL     1       1.394  -7.989 -11.838  1.00  0.00     0.000 C 
BRANCH   7   8
ATOM      8  C   UNL     1       1.504  -9.163 -10.853  1.00  0.00     0.000 C 
BRANCH   8   9
ATOM      9  C   UNL     1       1.172 -10.491 -11.543  1.00  0.00     0.000 C 
BRANCH   9  10
ATOM     10  C   UNL     1       1.277 -11.664 -10.557  1.00  0.00     0.000 C 
BRANCH  10  11
ATOM     11  C   UNL     1      -0.049 -12.430 -10.392  1.00  0.00     0.000 C 
BRANCH  11  12
ATOM     12  C   UNL     1      -1.296 -11.542 -10.201  1.00  0.00     0.006 C 
BRANCH  12  13
ATOM     13  C   UNL     1      -2.184 -11.409 -11.449  1.00  0.00     0.053 C 
BRANCH  13  14
ATOM     14  C   UNL     1      -3.623 -11.194 -11.093  1.00  0.00     0.041 C 
ATOM     15  O   UNL     1      -4.488 -12.051 -11.409  1.00  0.00    -0.550 OA
ATOM     16  O   UNL     1      -4.000 -10.063 -10.380  1.00  0.00    -0.550 OA
ENDBRANCH  13  14
ENDBRANCH  12  13
ENDBRANCH  11  12
ENDBRANCH  10  11
ENDBRANCH   9  10
ENDBRANCH   8   9
ENDBRANCH   7   8
ENDBRANCH   6   7
ENDBRANCH   5   6
ENDBRANCH   4   5
ENDBRANCH   3   4
ENDBRANCH   2   3
ENDBRANCH   1   2
BRANCH   1  17
ATOM     17  C   UNL     1       3.023  -3.312  -9.998  1.00  0.00     0.000 C 
BRANCH  17  18
ATOM     18  C   UNL     1       4.102  -2.955 -11.035  1.00  0.00     0.000 C 
BRANCH  18  19
ATOM     19  C   UNL     1       4.068  -1.472 -11.437  1.00  0.00     0.000 C 
BRANCH  19  20
ATOM     20  C   UNL     1       5.473  -0.866 -11.571  1.00  0.00     0.000 C 
BRANCH  20  21
ATOM     21  C   UNL     1       6.279  -1.050 -10.278  1.00  0.00     0.000 C 
BRANCH  21  22
ATOM     22  C   UNL     1       7.619  -1.773 -10.505  1.00  0.00    -0.000 C 
BRANCH  22  23
ATOM     23  C   UNL     1       7.752  -2.490 -11.864  1.00  0.00    -0.000 C 
BRANCH  23  24
ATOM     24  C   UNL     1       9.124  -3.147 -12.121  1.00  0.00    -0.000 C 
BRANCH  24  25
ATOM     25  C   UNL     1       9.124  -4.687 -12.068  1.00  0.00    -0.000 C 
BRANCH  25  26
ATOM     26  C   UNL     1       8.242  -5.302 -10.963  1.00  0.00    -0.000 C 
BRANCH  26  27
ATOM     27  C   UNL     1       8.840  -6.534 -10.260  1.00  0.00    -0.000 C 
BRANCH  27  28
ATOM     28  C   UNL     1       8.074  -7.830 -10.576  1.00  0.00    -0.000 C 
BRANCH  28  29
ATOM     29  C   UNL     1       7.896  -8.727  -9.340  1.00  0.00    -0.003 C 
ATOM     30  C   UNL     1       8.512 -10.113  -9.519  1.00  0.00     0.004 C 
ENDBRANCH  28  29
ENDBRANCH  27  28
ENDBRANCH  26  27
ENDBRANCH  25  26
ENDBRANCH  24  25
ENDBRANCH  23  24
ENDBRANCH  22  23
ENDBRANCH  21  22
ENDBRANCH  20  21
ENDBRANCH  19  20
ENDBRANCH  18  19
ENDBRANCH  17  18
ENDBRANCH   1  17
TORSDOF 26
ENDMDL
MODEL 7
REMARK VINA RESULT:    -1.407      9.081     13.836
REMARK INTER + INTRA:          -5.027
REMARK INTER:                  -3.590
REMARK INTRA:                  -1.437
REMARK UNBOUND:                -1.482
REMARK SMILES CCCCCCCCCCCCCCCCCCCCCCCCCCCC(=O)[O-]
REMARK SMILES IDX 15 1 16 2 17 3 18 4 19 5 20 6 21 7 22 8 23 9 24 10 25 11
REMARK SMILES IDX 26 12 27 13 28 14 29 15 30 16 14 17 13 18 12 19 11 20 10 21
REMARK SMILES IDX 9 22 8 23 7 24 6 25 5 26 4 27 3 28 2 29 1 30
REMARK H PARENT
REMARK Flexibility Score: inf
ROOT
ATOM      1  C   UNL     1      -3.089  -2.798 -11.255  1.00  0.00     0.000 C 
ENDROOT
BRANCH   1   2
ATOM      2  C   UNL     1      -3.883  -1.806 -12.124  1.00  0.00     0.000 C 
BRANCH   2   3
ATOM      3  C   UNL     1      -4.217  -0.504 -11.379  1.00  0.00     0.000 C 
BRANCH   3   4
ATOM      4  C   UNL     1      -5.724  -0.346 -11.113  1.00  0.00     0.000 C 
BRANCH   4   5
ATOM      5  C   UNL     1      -6.032   0.789 -10.125  1.00  0.00     0.000 C 
BRANCH   5   6
ATOM      6  C   UNL     1      -7.481   1.296 -10.240  1.00  0.00     0.000 C 
BRANCH   6   7
ATOM      7  C   UNL     1      -8.380   0.784  -9.103  1.00  0.00     0.000 C 
BRANCH   7   8
ATOM      8  C   UNL     1      -9.206   1.905  -8.452  1.00  0.00     0.000 C 
BRANCH   8   9
ATOM      9  C   UNL     1     -10.218   2.488  -9.444  1.00  0.00     0.000 C 
BRANCH   9  10
ATOM     10  C   UNL     1     -10.889   3.745  -8.871  1.00  0.00     0.000 C 
BRANCH  10  11
ATOM     11  C   UNL     1     -10.113   4.351  -7.687  1.00  0.00     0.000 C 
BRANCH  11  12
ATOM     12  C   UNL     1      -9.056   5.407  -8.071  1.00  0.00     0.006 C 
BRANCH  12  13
ATOM     13  C   UNL     1      -9.478   6.349  -9.210  1.00  0.00     0.053 C 
BRANCH  13  14
ATOM     14  C   UNL     1      -8.355   6.610 -10.167  1.00  0.00     0.041 C 
ATOM     15  O   UNL     1      -7.281   7.123  -9.757  1.00  0.00    -0.550 OA
ATOM     16  O   UNL     1      -8.482   6.252 -11.503  1.00  0.00    -0.550 OA
ENDBRANCH  13  14
ENDBRANCH  12  13
ENDBRANCH  11  12
ENDBRANCH  10  11
ENDBRANCH   9  10
ENDBRANCH   8   9
ENDBRANCH   7   8
ENDBRANCH   6   7
ENDBRANCH   5   6
ENDBRANCH   4   5
ENDBRANCH   3   4
ENDBRANCH   2   3
ENDBRANCH   1   2
BRANCH   1  17
ATOM     17  C   UNL     1      -2.318  -3.829 -12.092  1.00  0.00     0.000 C 
BRANCH  17  18
ATOM     18  C   UNL     1      -1.517  -4.814 -11.222  1.00  0.00     0.000 C 
BRANCH  18  19
ATOM     19  C   UNL     1      -1.509  -6.240 -11.796  1.00  0.00     0.000 C 
BRANCH  19  20
ATOM     20  C   UNL     1      -0.088  -6.790 -11.990  1.00  0.00     0.000 C 
BRANCH  20  21
ATOM     21  C   UNL     1       0.432  -7.439 -10.699  1.00  0.00     0.000 C 
BRANCH  21  22
ATOM     22  C   UNL     1      -0.627  -8.305  -9.995  1.00  0.00    -0.000 C 
BRANCH  22  23
ATOM     23  C   UNL     1      -1.449  -9.218 -10.927  1.00  0.00    -0.000 C 
BRANCH  23  24
ATOM     24  C   UNL     1      -2.552 -10.039 -10.227  1.00  0.00    -0.000 C 
BRANCH  24  25
ATOM     25  C   UNL     1      -2.427 -11.566 -10.395  1.00  0.00    -0.000 C 
BRANCH  25  26
ATOM     26  C   UNL     1      -1.303 -12.223  -9.572  1.00  0.00    -0.000 C 
BRANCH  26  27
ATOM     27  C   UNL     1      -0.219 -12.938 -10.399  1.00  0.00    -0.000 C 
BRANCH  27  28
ATOM     28  C   UNL     1       1.155 -12.252 -10.300  1.00  0.00    -0.000 C 
BRANCH  28  29
ATOM     29  C   UNL     1       1.809 -12.043 -11.675  1.00  0.00    -0.003 C 
ATOM     30  C   UNL     1       1.806 -10.580 -12.118  1.00  0.00     0.004 C 
ENDBRANCH  28  29
ENDBRANCH  27  28
ENDBRANCH  26  27
ENDBRANCH  25  26
ENDBRANCH  24  25
ENDBRANCH  23  24
ENDBRANCH  22  23
ENDBRANCH  21  22
ENDBRANCH  20  21
ENDBRANCH  19  20
ENDBRANCH  18  19
ENDBRANCH  17  18
ENDBRANCH   1  17
TORSDOF 26
ENDMDL
MODEL 8
REMARK VINA RESULT:    -1.011      8.815     13.976
REMARK INTER + INTRA:          -4.030
REMARK INTER:                  -2.159
REMARK INTRA:                  -1.871
REMARK UNBOUND:                -1.482
REMARK SMILES CCCCCCCCCCCCCCCCCCCCCCCCCCCC(=O)[O-]
REMARK SMILES IDX 15 1 16 2 17 3 18 4 19 5 20 6 21 7 22 8 23 9 24 10 25 11
REMARK SMILES IDX 26 12 27 13 28 14 29 15 30 16 14 17 13 18 12 19 11 20 10 21
REMARK SMILES IDX 9 22 8 23 7 24 6 25 5 26 4 27 3 28 2 29 1 30
REMARK H PARENT
REMARK Flexibility Score: inf
ROOT
ATOM      1  C   UNL     1      -2.728  -3.493 -11.202  1.00  0.00     0.000 C 
ENDROOT
BRANCH   1   2
ATOM      2  C   UNL     1      -3.664  -2.693 -12.124  1.00  0.00     0.000 C 
BRANCH   2   3
ATOM      3  C   UNL     1      -3.812  -1.227 -11.688  1.00  0.00     0.000 C 
BRANCH   3   4
ATOM      4  C   UNL     1      -5.283  -0.797 -11.553  1.00  0.00     0.000 C 
BRANCH   4   5
ATOM      5  C   UNL     1      -5.473   0.345 -10.542  1.00  0.00     0.000 C 
BRANCH   5   6
ATOM      6  C   UNL     1      -6.901   0.920 -10.562  1.00  0.00     0.000 C 
BRANCH   6   7
ATOM      7  C   UNL     1      -7.665   0.656  -9.256  1.00  0.00     0.000 C 
BRANCH   7   8
ATOM      8  C   UNL     1      -9.060   1.300  -9.246  1.00  0.00     0.000 C 
BRANCH   8   9
ATOM      9  C   UNL     1      -9.032   2.662  -8.542  1.00  0.00     0.000 C 
BRANCH   9  10
ATOM     10  C   UNL     1     -10.309   3.461  -8.839  1.00  0.00     0.000 C 
BRANCH  10  11
ATOM     11  C   UNL     1     -10.416   3.896 -10.312  1.00  0.00     0.000 C 
BRANCH  11  12
ATOM     12  C   UNL     1     -10.328   5.418 -10.550  1.00  0.00     0.006 C 
BRANCH  12  13
ATOM     13  C   UNL     1      -9.577   6.195  -9.457  1.00  0.00     0.053 C 
BRANCH  13  14
ATOM     14  C   UNL     1      -8.128   6.374  -9.792  1.00  0.00     0.041 C 
ATOM     15  O   UNL     1      -7.698   6.055 -10.931  1.00  0.00    -0.550 OA
ATOM     16  O   UNL     1      -7.261   6.926  -8.858  1.00  0.00    -0.550 OA
ENDBRANCH  13  14
ENDBRANCH  12  13
ENDBRANCH  11  12
ENDBRANCH  10  11
ENDBRANCH   9  10
ENDBRANCH   8   9
ENDBRANCH   7   8
ENDBRANCH   6   7
ENDBRANCH   5   6
ENDBRANCH   4   5
ENDBRANCH   3   4
ENDBRANCH   2   3
ENDBRANCH   1   2
BRANCH   1  17
ATOM     17  C   UNL     1      -1.407  -3.872 -11.887  1.00  0.00     0.000 C 
BRANCH  17  18
ATOM     18  C   UNL     1      -1.280  -5.387 -12.125  1.00  0.00     0.000 C 
BRANCH  18  19
ATOM     19  C   UNL     1      -0.329  -6.066 -11.126  1.00  0.00     0.000 C 
BRANCH  19  20
ATOM     20  C   UNL     1      -0.999  -7.219 -10.364  1.00  0.00     0.000 C 
BRANCH  20  21
ATOM     21  C   UNL     1      -0.095  -8.459 -10.335  1.00  0.00     0.000 C 
BRANCH  21  22
ATOM     22  C   UNL     1      -0.056  -9.204 -11.681  1.00  0.00    -0.000 C 
BRANCH  22  23
ATOM     23  C   UNL     1       0.615 -10.592 -11.641  1.00  0.00    -0.000 C 
BRANCH  23  24
ATOM     24  C   UNL     1       0.642 -11.262 -10.252  1.00  0.00    -0.000 C 
BRANCH  24  25
ATOM     25  C   UNL     1      -0.467 -12.306 -10.015  1.00  0.00    -0.000 C 
BRANCH  25  26
ATOM     26  C   UNL     1      -0.952 -13.040 -11.281  1.00  0.00    -0.000 C 
BRANCH  26  27
ATOM     27  C   UNL     1      -2.367 -12.661 -11.755  1.00  0.00    -0.000 C 
BRANCH  27  28
ATOM     28  C   UNL     1      -2.910 -11.400 -11.060  1.00  0.00    -0.000 C 
BRANCH  28  29
ATOM     29  C   UNL     1      -3.390 -10.336 -12.059  1.00  0.00    -0.003 C 
ATOM     30  C   UNL     1      -4.693  -9.664 -11.629  1.00  0.00     0.004 C 
ENDBRANCH  28  29
ENDBRANCH  27  28
ENDBRANCH  26  27
ENDBRANCH  25  26
ENDBRANCH  24  25
ENDBRANCH  23  24
ENDBRANCH  22  23
ENDBRANCH  21  22
ENDBRANCH  20  21
ENDBRANCH  19  20
ENDBRANCH  18  19
ENDBRANCH  17  18
ENDBRANCH   1  17
TORSDOF 26
ENDMDL
