MODEL 1
REMARK VINA RESULT:    -3.207      0.000      0.000
REMARK INTER + INTRA:         -10.952
REMARK INTER:                  -6.957
REMARK INTRA:                  -3.995
REMARK UNBOUND:                -3.995
REMARK SMILES CCCCCCCCCCCCCCCCCCCCCC(=O)[O-]
REMARK SMILES IDX 12 1 11 2 10 3 9 4 8 5 7 6 6 7 5 8 4 9 3 10 2 11 1 12 13 13
REMARK SMILES IDX 14 14 15 15 16 16 17 17 18 18 19 19 20 20 21 21 22 22 23 23
REMARK SMILES IDX 24 24
REMARK H PARENT
REMARK Flexibility Score: inf
ROOT
ATOM      1  C   UNL     1      -4.734  28.628  46.573  1.00  0.00     0.000 C 
ENDROOT
BRANCH   1   2
ATOM      2  C   UNL     1      -6.052  27.837  46.468  1.00  0.00     0.000 C 
BRANCH   2   3
ATOM      3  C   UNL     1      -5.923  26.430  45.855  1.00  0.00     0.000 C 
BRANCH   3   4
ATOM      4  C   UNL     1      -4.663  26.204  44.998  1.00  0.00    -0.000 C 
BRANCH   4   5
ATOM      5  C   UNL     1      -4.954  25.593  43.611  1.00  0.00    -0.000 C 
BRANCH   5   6
ATOM      6  C   UNL     1      -6.354  25.962  43.091  1.00  0.00    -0.000 C 
BRANCH   6   7
ATOM      7  C   UNL     1      -6.337  27.177  42.149  1.00  0.00    -0.000 C 
BRANCH   7   8
ATOM      8  C   UNL     1      -4.943  27.444  41.551  1.00  0.00    -0.000 C 
BRANCH   8   9
ATOM      9  C   UNL     1      -4.431  28.862  41.853  1.00  0.00    -0.000 C 
BRANCH   9  10
ATOM     10  C   UNL     1      -5.021  29.439  43.149  1.00  0.00    -0.000 C 
BRANCH  10  11
ATOM     11  C   UNL     1      -5.615  30.832  42.907  1.00  0.00    -0.003 C 
ATOM     12  C   UNL     1      -4.784  31.913  43.591  1.00  0.00     0.004 C 
ENDBRANCH  10  11
ENDBRANCH   9  10
ENDBRANCH   8   9
ENDBRANCH   7   8
ENDBRANCH   6   7
ENDBRANCH   5   6
ENDBRANCH   4   5
ENDBRANCH   3   4
ENDBRANCH   2   3
ENDBRANCH   1   2
BRANCH   1  13
ATOM     13  C   UNL     1      -4.946  30.122  46.863  1.00  0.00     0.000 C 
BRANCH  13  14
ATOM     14  C   UNL     1      -6.405  30.404  47.256  1.00  0.00     0.000 C 
BRANCH  14  15
ATOM     15  C   UNL     1      -6.954  31.696  46.627  1.00  0.00     0.000 C 
BRANCH  15  16
ATOM     16  C   UNL     1      -8.126  31.492  45.647  1.00  0.00     0.000 C 
BRANCH  16  17
ATOM     17  C   UNL     1      -8.758  30.086  45.668  1.00  0.00     0.000 C 
BRANCH  17  18
ATOM     18  C   UNL     1      -8.756  29.352  44.316  1.00  0.00     0.000 C 
BRANCH  18  19
ATOM     19  C   UNL     1      -9.096  27.860  44.445  1.00  0.00     0.000 C 
BRANCH  19  20
ATOM     20  C   UNL     1     -10.583  27.608  44.167  1.00  0.00     0.006 C 
BRANCH  20  21
ATOM     21  C   UNL     1     -10.870  27.617  42.663  1.00  0.00     0.053 C 
BRANCH  21  22
ATOM     22  C   UNL     1     -10.709  26.245  42.085  1.00  0.00     0.041 C 
ATOM     23  O   UNL     1     -11.612  25.382  42.247  1.00  0.00    -0.550 OA
ATOM     24  O   UNL     1      -9.543  25.906  41.410  1.00  0.00    -0.550 OA
ENDBRANCH  21  22
ENDBRANCH  20  21
ENDBRANCH  19  20
ENDBRANCH  18  19
ENDBRANCH  17  18
ENDBRANCH  16  17
ENDBRANCH  15  16
ENDBRANCH  14  15
ENDBRANCH  13  14
ENDBRANCH   1  13
TORSDOF 20
ENDMDL
MODEL 2
REMARK VINA RESULT:    -3.206      1.365      2.589
REMARK INTER + INTRA:         -10.950
REMARK INTER:                  -7.458
REMARK INTRA:                  -3.491
REMARK UNBOUND:                -3.995
REMARK SMILES CCCCCCCCCCCCCCCCCCCCCC(=O)[O-]
REMARK SMILES IDX 12 1 11 2 10 3 9 4 8 5 7 6 6 7 5 8 4 9 3 10 2 11 1 12 13 13
REMARK SMILES IDX 14 14 15 15 16 16 17 17 18 18 19 19 20 20 21 21 22 22 23 23
REMARK SMILES IDX 24 24
REMARK H PARENT
REMARK Flexibility Score: inf
ROOT
ATOM      1  C   UNL     1      -6.873  30.273  47.154  1.00  0.00     0.000 C 
ENDROOT
BRANCH   1   2
ATOM      2  C   UNL     1      -5.384  29.910  46.998  1.00  0.00     0.000 C 
BRANCH   2   3
ATOM      3  C   UNL     1      -5.102  28.432  46.671  1.00  0.00     0.000 C 
BRANCH   3   4
ATOM      4  C   UNL     1      -6.347  27.588  46.336  1.00  0.00    -0.000 C 
BRANCH   4   5
ATOM      5  C   UNL     1      -6.044  26.092  46.112  1.00  0.00    -0.000 C 
BRANCH   5   6
ATOM      6  C   UNL     1      -5.326  25.833  44.776  1.00  0.00    -0.000 C 
BRANCH   6   7
ATOM      7  C   UNL     1      -6.237  26.058  43.559  1.00  0.00    -0.000 C 
BRANCH   7   8
ATOM      8  C   UNL     1      -5.754  27.211  42.661  1.00  0.00    -0.000 C 
BRANCH   8   9
ATOM      9  C   UNL     1      -4.275  27.560  42.891  1.00  0.00    -0.000 C 
BRANCH   9  10
ATOM     10  C   UNL     1      -4.055  29.059  43.147  1.00  0.00    -0.000 C 
BRANCH  10  11
ATOM     11  C   UNL     1      -5.388  29.816  43.146  1.00  0.00    -0.003 C 
ATOM     12  C   UNL     1      -5.186  31.291  43.481  1.00  0.00     0.004 C 
ENDBRANCH  10  11
ENDBRANCH   9  10
ENDBRANCH   8   9
ENDBRANCH   7   8
ENDBRANCH   6   7
ENDBRANCH   5   6
ENDBRANCH   4   5
ENDBRANCH   3   4
ENDBRANCH   2   3
ENDBRANCH   1   2
BRANCH   1  13
ATOM     13  C   UNL     1      -7.227  31.642  46.553  1.00  0.00     0.000 C 
BRANCH  13  14
ATOM     14  C   UNL     1      -8.350  31.512  45.512  1.00  0.00     0.000 C 
BRANCH  14  15
ATOM     15  C   UNL     1      -8.956  30.099  45.460  1.00  0.00     0.000 C 
BRANCH  15  16
ATOM     16  C   UNL     1      -8.897  29.418  44.078  1.00  0.00     0.000 C 
BRANCH  16  17
ATOM     17  C   UNL     1      -9.158  27.899  44.087  1.00  0.00     0.000 C 
BRANCH  17  18
ATOM     18  C   UNL     1     -10.627  27.491  43.878  1.00  0.00     0.000 C 
BRANCH  18  19
ATOM     19  C   UNL     1     -10.816  26.524  42.700  1.00  0.00     0.000 C 
BRANCH  19  20
ATOM     20  C   UNL     1     -11.276  27.271  41.442  1.00  0.00     0.006 C 
BRANCH  20  21
ATOM     21  C   UNL     1     -12.600  28.001  41.689  1.00  0.00     0.053 C 
BRANCH  21  22
ATOM     22  C   UNL     1     -13.753  27.051  41.592  1.00  0.00     0.041 C 
ATOM     23  O   UNL     1     -13.650  25.999  40.907  1.00  0.00    -0.550 OA
ATOM     24  O   UNL     1     -14.956  27.349  42.220  1.00  0.00    -0.550 OA
ENDBRANCH  21  22
ENDBRANCH  20  21
ENDBRANCH  19  20
ENDBRANCH  18  19
ENDBRANCH  17  18
ENDBRANCH  16  17
ENDBRANCH  15  16
ENDBRANCH  14  15
ENDBRANCH  13  14
ENDBRANCH   1  13
TORSDOF 20
ENDMDL
MODEL 3
REMARK VINA RESULT:    -3.175      2.235      4.705
REMARK INTER + INTRA:         -10.882
REMARK INTER:                  -6.660
REMARK INTRA:                  -4.222
REMARK UNBOUND:                -3.995
REMARK SMILES CCCCCCCCCCCCCCCCCCCCCC(=O)[O-]
REMARK SMILES IDX 12 1 11 2 10 3 9 4 8 5 7 6 6 7 5 8 4 9 3 10 2 11 1 12 13 13
REMARK SMILES IDX 14 14 15 15 16 16 17 17 18 18 19 19 20 20 21 21 22 22 23 23
REMARK SMILES IDX 24 24
REMARK H PARENT
REMARK Flexibility Score: inf
ROOT
ATOM      1  C   UNL     1      -6.916  32.749  47.277  1.00  0.00     0.000 C 
ENDROOT
BRANCH   1   2
ATOM      2  C   UNL     1      -7.495  31.353  46.979  1.00  0.00     0.000 C 
BRANCH   2   3
ATOM      3  C   UNL     1      -6.547  30.175  47.273  1.00  0.00     0.000 C 
BRANCH   3   4
ATOM      4  C   UNL     1      -5.075  30.408  46.881  1.00  0.00    -0.000 C 
BRANCH   4   5
ATOM      5  C   UNL     1      -4.260  29.108  46.719  1.00  0.00    -0.000 C 
BRANCH   5   6
ATOM      6  C   UNL     1      -4.045  28.731  45.243  1.00  0.00    -0.000 C 
BRANCH   6   7
ATOM      7  C   UNL     1      -4.791  27.448  44.843  1.00  0.00    -0.000 C 
BRANCH   7   8
ATOM      8  C   UNL     1      -5.473  26.761  46.040  1.00  0.00    -0.000 C 
BRANCH   8   9
ATOM      9  C   UNL     1      -7.006  26.764  45.929  1.00  0.00    -0.000 C 
BRANCH   9  10
ATOM     10  C   UNL     1      -7.502  27.400  44.623  1.00  0.00    -0.000 C 
BRANCH  10  11
ATOM     11  C   UNL     1      -8.712  28.307  44.880  1.00  0.00    -0.003 C 
ATOM     12  C   UNL     1      -9.952  27.793  44.154  1.00  0.00     0.004 C 
ENDBRANCH  10  11
ENDBRANCH   9  10
ENDBRANCH   8   9
ENDBRANCH   7   8
ENDBRANCH   6   7
ENDBRANCH   5   6
ENDBRANCH   4   5
ENDBRANCH   3   4
ENDBRANCH   2   3
ENDBRANCH   1   2
BRANCH   1  13
ATOM     13  C   UNL     1      -7.631  33.875  46.515  1.00  0.00     0.000 C 
BRANCH  13  14
ATOM     14  C   UNL     1      -6.630  34.717  45.709  1.00  0.00     0.000 C 
BRANCH  14  15
ATOM     15  C   UNL     1      -5.280  34.007  45.506  1.00  0.00     0.000 C 
BRANCH  15  16
ATOM     16  C   UNL     1      -4.667  34.168  44.101  1.00  0.00     0.000 C 
BRANCH  16  17
ATOM     17  C   UNL     1      -5.186  33.171  43.046  1.00  0.00     0.000 C 
BRANCH  17  18
ATOM     18  C   UNL     1      -5.208  31.700  43.496  1.00  0.00     0.000 C 
BRANCH  18  19
ATOM     19  C   UNL     1      -6.614  31.083  43.452  1.00  0.00     0.000 C 
BRANCH  19  20
ATOM     20  C   UNL     1      -7.688  32.169  43.315  1.00  0.00     0.006 C 
BRANCH  20  21
ATOM     21  C   UNL     1      -9.089  31.553  43.259  1.00  0.00     0.053 C 
BRANCH  21  22
ATOM     22  C   UNL     1      -9.433  31.149  41.859  1.00  0.00     0.041 C 
ATOM     23  O   UNL     1      -8.941  31.775  40.882  1.00  0.00    -0.550 OA
ATOM     24  O   UNL     1     -10.332  30.115  41.632  1.00  0.00    -0.550 OA
ENDBRANCH  21  22
ENDBRANCH  20  21
ENDBRANCH  19  20
ENDBRANCH  18  19
ENDBRANCH  17  18
ENDBRANCH  16  17
ENDBRANCH  15  16
ENDBRANCH  14  15
ENDBRANCH  13  14
ENDBRANCH   1  13
TORSDOF 20
ENDMDL
MODEL 4
REMARK VINA RESULT:    -3.113      1.888      4.057
REMARK INTER + INTRA:         -10.748
REMARK INTER:                  -7.204
REMARK INTRA:                  -3.544
REMARK UNBOUND:                -3.995
REMARK SMILES CCCCCCCCCCCCCCCCCCCCCC(=O)[O-]
REMARK SMILES IDX 12 1 11 2 10 3 9 4 8 5 7 6 6 7 5 8 4 9 3 10 2 11 1 12 13 13
REMARK SMILES IDX 14 14 15 15 16 16 17 17 18 18 19 19 20 20 21 21 22 22 23 23
REMARK SMILES IDX 24 24
REMARK H PARENT
REMARK Flexibility Score: inf
ROOT
ATOM      1  C   UNL     1      -4.881  28.252  46.511  1.00  0.00     0.000 C 
ENDROOT
BRANCH   1   2
ATOM      2  C   UNL     1      -4.284  29.668  46.400  1.00  0.00     0.000 C 
BRANCH   2   3
ATOM      3  C   UNL     1      -5.194  30.803  46.904  1.00  0.00     0.000 C 
BRANCH   3   4
ATOM      4  C   UNL     1      -6.505  30.342  47.569  1.00  0.00    -0.000 C 
BRANCH   4   5
ATOM      5  C   UNL     1      -7.775  30.768  46.801  1.00  0.00    -0.000 C 
BRANCH   5   6
ATOM      6  C   UNL     1      -7.720  32.237  46.347  1.00  0.00    -0.000 C 
BRANCH   6   7
ATOM      7  C   UNL     1      -8.460  32.476  45.021  1.00  0.00    -0.000 C 
BRANCH   7   8
ATOM      8  C   UNL     1      -8.574  31.201  44.167  1.00  0.00    -0.000 C 
BRANCH   8   9
ATOM      9  C   UNL     1      -7.553  31.164  43.018  1.00  0.00    -0.000 C 
BRANCH   9  10
ATOM     10  C   UNL     1      -6.292  30.363  43.374  1.00  0.00    -0.000 C 
BRANCH  10  11
ATOM     11  C   UNL     1      -5.028  31.204  43.159  1.00  0.00    -0.003 C 
ATOM     12  C   UNL     1      -5.372  32.679  42.971  1.00  0.00     0.004 C 
ENDBRANCH  10  11
ENDBRANCH   9  10
ENDBRANCH   8   9
ENDBRANCH   7   8
ENDBRANCH   6   7
ENDBRANCH   5   6
ENDBRANCH   4   5
ENDBRANCH   3   4
ENDBRANCH   2   3
ENDBRANCH   1   2
BRANCH   1  13
ATOM     13  C   UNL     1      -4.672  27.406  45.246  1.00  0.00     0.000 C 
BRANCH  13  14
ATOM     14  C   UNL     1      -5.975  26.709  44.827  1.00  0.00     0.000 C 
BRANCH  14  15
ATOM     15  C   UNL     1      -7.195  27.188  45.633  1.00  0.00     0.000 C 
BRANCH  15  16
ATOM     16  C   UNL     1      -8.401  27.631  44.783  1.00  0.00     0.000 C 
BRANCH  16  17
ATOM     17  C   UNL     1      -8.249  27.404  43.266  1.00  0.00     0.000 C 
BRANCH  17  18
ATOM     18  C   UNL     1      -9.527  26.942  42.545  1.00  0.00     0.000 C 
BRANCH  18  19
ATOM     19  C   UNL     1     -10.810  27.338  43.292  1.00  0.00     0.000 C 
BRANCH  19  20
ATOM     20  C   UNL     1     -11.946  27.650  42.309  1.00  0.00     0.006 C 
BRANCH  20  21
ATOM     21  C   UNL     1     -12.255  26.438  41.424  1.00  0.00     0.053 C 
BRANCH  21  22
ATOM     22  C   UNL     1     -13.728  26.168  41.395  1.00  0.00     0.041 C 
ATOM     23  O   UNL     1     -14.525  26.953  41.972  1.00  0.00    -0.550 OA
ATOM     24  O   UNL     1     -14.214  25.025  40.772  1.00  0.00    -0.550 OA
ENDBRANCH  21  22
ENDBRANCH  20  21
ENDBRANCH  19  20
ENDBRANCH  18  19
ENDBRANCH  17  18
ENDBRANCH  16  17
ENDBRANCH  15  16
ENDBRANCH  14  15
ENDBRANCH  13  14
ENDBRANCH   1  13
TORSDOF 20
ENDMDL
MODEL 5
REMARK VINA RESULT:    -3.106      1.661      4.642
REMARK INTER + INTRA:         -10.733
REMARK INTER:                  -7.248
REMARK INTRA:                  -3.486
REMARK UNBOUND:                -3.995
REMARK SMILES CCCCCCCCCCCCCCCCCCCCCC(=O)[O-]
REMARK SMILES IDX 12 1 11 2 10 3 9 4 8 5 7 6 6 7 5 8 4 9 3 10 2 11 1 12 13 13
REMARK SMILES IDX 14 14 15 15 16 16 17 17 18 18 19 19 20 20 21 21 22 22 23 23
REMARK SMILES IDX 24 24
REMARK H PARENT
REMARK Flexibility Score: inf
ROOT
ATOM      1  C   UNL     1      -6.015  26.450  45.646  1.00  0.00     0.000 C 
ENDROOT
BRANCH   1   2
ATOM      2  C   UNL     1      -5.402  27.585  46.488  1.00  0.00     0.000 C 
BRANCH   2   3
ATOM      3  C   UNL     1      -4.357  28.450  45.760  1.00  0.00     0.000 C 
BRANCH   3   4
ATOM      4  C   UNL     1      -4.358  29.941  46.148  1.00  0.00    -0.000 C 
BRANCH   4   5
ATOM      5  C   UNL     1      -5.399  30.302  47.229  1.00  0.00    -0.000 C 
BRANCH   5   6
ATOM      6  C   UNL     1      -5.909  31.747  47.091  1.00  0.00    -0.000 C 
BRANCH   6   7
ATOM      7  C   UNL     1      -7.425  31.820  46.846  1.00  0.00    -0.000 C 
BRANCH   7   8
ATOM      8  C   UNL     1      -8.089  30.432  46.821  1.00  0.00    -0.000 C 
BRANCH   8   9
ATOM      9  C   UNL     1      -8.887  30.182  45.530  1.00  0.00    -0.000 C 
BRANCH   9  10
ATOM     10  C   UNL     1      -8.197  29.177  44.595  1.00  0.00    -0.000 C 
BRANCH  10  11
ATOM     11  C   UNL     1      -7.113  29.865  43.757  1.00  0.00    -0.003 C 
ATOM     12  C   UNL     1      -7.686  30.409  42.452  1.00  0.00     0.004 C 
ENDBRANCH  10  11
ENDBRANCH   9  10
ENDBRANCH   8   9
ENDBRANCH   7   8
ENDBRANCH   6   7
ENDBRANCH   5   6
ENDBRANCH   4   5
ENDBRANCH   3   4
ENDBRANCH   2   3
ENDBRANCH   1   2
BRANCH   1  13
ATOM     13  C   UNL     1      -5.560  26.474  44.178  1.00  0.00     0.000 C 
BRANCH  13  14
ATOM     14  C   UNL     1      -5.733  25.094  43.526  1.00  0.00     0.000 C 
BRANCH  14  15
ATOM     15  C   UNL     1      -6.718  25.110  42.343  1.00  0.00     0.000 C 
BRANCH  15  16
ATOM     16  C   UNL     1      -7.489  26.432  42.161  1.00  0.00     0.000 C 
BRANCH  16  17
ATOM     17  C   UNL     1      -8.980  26.273  41.803  1.00  0.00     0.000 C 
BRANCH  17  18
ATOM     18  C   UNL     1      -9.657  27.543  41.257  1.00  0.00     0.000 C 
BRANCH  18  19
ATOM     19  C   UNL     1     -10.670  28.149  42.240  1.00  0.00     0.000 C 
BRANCH  19  20
ATOM     20  C   UNL     1     -11.425  27.052  43.000  1.00  0.00     0.006 C 
BRANCH  20  21
ATOM     21  C   UNL     1     -12.799  26.796  42.374  1.00  0.00     0.053 C 
BRANCH  21  22
ATOM     22  C   UNL     1     -12.905  25.382  41.893  1.00  0.00     0.041 C 
ATOM     23  O   UNL     1     -12.011  24.545  42.189  1.00  0.00    -0.550 OA
ATOM     24  O   UNL     1     -13.965  25.000  41.080  1.00  0.00    -0.550 OA
ENDBRANCH  21  22
ENDBRANCH  20  21
ENDBRANCH  19  20
ENDBRANCH  18  19
ENDBRANCH  17  18
ENDBRANCH  16  17
ENDBRANCH  15  16
ENDBRANCH  14  15
ENDBRANCH  13  14
ENDBRANCH   1  13
TORSDOF 20
ENDMDL
MODEL 6
REMARK VINA RESULT:    -3.104      1.435      4.816
REMARK INTER + INTRA:         -10.729
REMARK INTER:                  -6.687
REMARK INTRA:                  -4.042
REMARK UNBOUND:                -3.995
REMARK SMILES CCCCCCCCCCCCCCCCCCCCCC(=O)[O-]
REMARK SMILES IDX 12 1 11 2 10 3 9 4 8 5 7 6 6 7 5 8 4 9 3 10 2 11 1 12 13 13
REMARK SMILES IDX 14 14 15 15 16 16 17 17 18 18 19 19 20 20 21 21 22 22 23 23
REMARK SMILES IDX 24 24
REMARK H PARENT
REMARK Flexibility Score: inf
ROOT
ATOM      1  C   UNL     1      -6.601  26.787  45.483  1.00  0.00     0.000 C 
ENDROOT
BRANCH   1   2
ATOM      2  C   UNL     1      -6.116  27.969  46.343  1.00  0.00     0.000 C 
BRANCH   2   3
ATOM      3  C   UNL     1      -4.612  28.281  46.237  1.00  0.00     0.000 C 
BRANCH   3   4
ATOM      4  C   UNL     1      -4.193  29.663  46.775  1.00  0.00    -0.000 C 
BRANCH   4   5
ATOM      5  C   UNL     1      -4.198  30.775  45.704  1.00  0.00    -0.000 C 
BRANCH   5   6
ATOM      6  C   UNL     1      -4.774  32.099  46.237  1.00  0.00    -0.000 C 
BRANCH   6   7
ATOM      7  C   UNL     1      -5.686  31.900  47.459  1.00  0.00    -0.000 C 
BRANCH   7   8
ATOM      8  C   UNL     1      -7.179  32.036  47.112  1.00  0.00    -0.000 C 
BRANCH   8   9
ATOM      9  C   UNL     1      -7.888  30.676  47.002  1.00  0.00    -0.000 C 
BRANCH   9  10
ATOM     10  C   UNL     1      -8.658  30.517  45.683  1.00  0.00    -0.000 C 
BRANCH  10  11
ATOM     11  C   UNL     1      -7.973  31.293  44.551  1.00  0.00    -0.003 C 
ATOM     12  C   UNL     1      -8.991  32.066  43.718  1.00  0.00     0.004 C 
ENDBRANCH  10  11
ENDBRANCH   9  10
ENDBRANCH   8   9
ENDBRANCH   7   8
ENDBRANCH   6   7
ENDBRANCH   5   6
ENDBRANCH   4   5
ENDBRANCH   3   4
ENDBRANCH   2   3
ENDBRANCH   1   2
BRANCH   1  13
ATOM     13  C   UNL     1      -5.455  25.896  44.979  1.00  0.00     0.000 C 
BRANCH  13  14
ATOM     14  C   UNL     1      -5.753  25.361  43.570  1.00  0.00     0.000 C 
BRANCH  14  15
ATOM     15  C   UNL     1      -4.757  25.869  42.514  1.00  0.00     0.000 C 
BRANCH  15  16
ATOM     16  C   UNL     1      -3.999  27.153  42.902  1.00  0.00     0.000 C 
BRANCH  16  17
ATOM     17  C   UNL     1      -4.487  28.437  42.202  1.00  0.00     0.000 C 
BRANCH  17  18
ATOM     18  C   UNL     1      -5.807  29.012  42.746  1.00  0.00     0.000 C 
BRANCH  18  19
ATOM     19  C   UNL     1      -6.972  28.875  41.755  1.00  0.00     0.000 C 
BRANCH  19  20
ATOM     20  C   UNL     1      -7.993  27.841  42.245  1.00  0.00     0.006 C 
BRANCH  20  21
ATOM     21  C   UNL     1      -9.327  28.507  42.594  1.00  0.00     0.053 C 
BRANCH  21  22
ATOM     22  C   UNL     1     -10.296  27.499  43.131  1.00  0.00     0.041 C 
ATOM     23  O   UNL     1     -10.751  26.597  42.380  1.00  0.00    -0.550 OA
ATOM     24  O   UNL     1     -10.732  27.585  44.448  1.00  0.00    -0.550 OA
ENDBRANCH  21  22
ENDBRANCH  20  21
ENDBRANCH  19  20
ENDBRANCH  18  19
ENDBRANCH  17  18
ENDBRANCH  16  17
ENDBRANCH  15  16
ENDBRANCH  14  15
ENDBRANCH  13  14
ENDBRANCH   1  13
TORSDOF 20
ENDMDL
MODEL 7
REMARK VINA RESULT:    -3.093      1.470      3.919
REMARK INTER + INTRA:         -10.705
REMARK INTER:                  -6.923
REMARK INTRA:                  -3.783
REMARK UNBOUND:                -3.995
REMARK SMILES CCCCCCCCCCCCCCCCCCCCCC(=O)[O-]
REMARK SMILES IDX 12 1 11 2 10 3 9 4 8 5 7 6 6 7 5 8 4 9 3 10 2 11 1 12 13 13
REMARK SMILES IDX 14 14 15 15 16 16 17 17 18 18 19 19 20 20 21 21 22 22 23 23
REMARK SMILES IDX 24 24
REMARK H PARENT
REMARK Flexibility Score: inf
ROOT
ATOM      1  C   UNL     1      -6.625  26.924  41.808  1.00  0.00     0.000 C 
ENDROOT
BRANCH   1   2
ATOM      2  C   UNL     1      -6.485  25.924  42.971  1.00  0.00     0.000 C 
BRANCH   2   3
ATOM      3  C   UNL     1      -5.533  26.362  44.100  1.00  0.00     0.000 C 
BRANCH   3   4
ATOM      4  C   UNL     1      -6.080  26.169  45.527  1.00  0.00    -0.000 C 
BRANCH   4   5
ATOM      5  C   UNL     1      -5.710  27.312  46.496  1.00  0.00    -0.000 C 
BRANCH   5   6
ATOM      6  C   UNL     1      -4.561  28.184  45.961  1.00  0.00    -0.000 C 
BRANCH   6   7
ATOM      7  C   UNL     1      -4.638  29.637  46.457  1.00  0.00    -0.000 C 
BRANCH   7   8
ATOM      8  C   UNL     1      -5.999  29.975  47.093  1.00  0.00    -0.000 C 
BRANCH   8   9
ATOM      9  C   UNL     1      -6.092  31.441  47.548  1.00  0.00    -0.000 C 
BRANCH   9  10
ATOM     10  C   UNL     1      -5.036  32.334  46.881  1.00  0.00    -0.000 C 
BRANCH  10  11
ATOM     11  C   UNL     1      -4.221  33.098  47.931  1.00  0.00    -0.003 C 
ATOM     12  C   UNL     1      -5.122  33.961  48.809  1.00  0.00     0.004 C 
ENDBRANCH  10  11
ENDBRANCH   9  10
ENDBRANCH   8   9
ENDBRANCH   7   8
ENDBRANCH   6   7
ENDBRANCH   5   6
ENDBRANCH   4   5
ENDBRANCH   3   4
ENDBRANCH   2   3
ENDBRANCH   1   2
BRANCH   1  13
ATOM     13  C   UNL     1      -5.676  28.127  41.928  1.00  0.00     0.000 C 
BRANCH  13  14
ATOM     14  C   UNL     1      -6.465  29.444  42.010  1.00  0.00     0.000 C 
BRANCH  14  15
ATOM     15  C   UNL     1      -6.589  29.977  43.448  1.00  0.00     0.000 C 
BRANCH  15  16
ATOM     16  C   UNL     1      -7.870  30.787  43.730  1.00  0.00     0.000 C 
BRANCH  16  17
ATOM     17  C   UNL     1      -8.922  30.064  44.593  1.00  0.00     0.000 C 
BRANCH  17  18
ATOM     18  C   UNL     1      -8.655  28.567  44.828  1.00  0.00     0.000 C 
BRANCH  18  19
ATOM     19  C   UNL     1      -9.774  27.668  44.283  1.00  0.00     0.000 C 
BRANCH  19  20
ATOM     20  C   UNL     1     -10.009  27.924  42.789  1.00  0.00     0.006 C 
BRANCH  20  21
ATOM     21  C   UNL     1     -10.348  26.623  42.054  1.00  0.00     0.053 C 
BRANCH  21  22
ATOM     22  C   UNL     1     -11.785  26.258  42.263  1.00  0.00     0.041 C 
ATOM     23  O   UNL     1     -12.137  25.049  42.258  1.00  0.00    -0.550 OA
ATOM     24  O   UNL     1     -12.742  27.254  42.416  1.00  0.00    -0.550 OA
ENDBRANCH  21  22
ENDBRANCH  20  21
ENDBRANCH  19  20
ENDBRANCH  18  19
ENDBRANCH  17  18
ENDBRANCH  16  17
ENDBRANCH  15  16
ENDBRANCH  14  15
ENDBRANCH  13  14
ENDBRANCH   1  13
TORSDOF 20
ENDMDL
MODEL 8
REMARK VINA RESULT:    -3.080     13.619     15.748
REMARK INTER + INTRA:         -10.676
REMARK INTER:                  -8.113
REMARK INTRA:                  -2.563
REMARK UNBOUND:                -3.995
REMARK SMILES CCCCCCCCCCCCCCCCCCCCCC(=O)[O-]
REMARK SMILES IDX 12 1 11 2 10 3 9 4 8 5 7 6 6 7 5 8 4 9 3 10 2 11 1 12 13 13
REMARK SMILES IDX 14 14 15 15 16 16 17 17 18 18 19 19 20 20 21 21 22 22 23 23
REMARK SMILES IDX 24 24
REMARK H PARENT
REMARK Flexibility Score: inf
ROOT
ATOM      1  C   UNL     1     -19.472  25.710  39.845  1.00  0.00     0.000 C 
ENDROOT
BRANCH   1   2
ATOM      2  C   UNL     1     -20.042  24.901  38.664  1.00  0.00     0.000 C 
BRANCH   2   3
ATOM      3  C   UNL     1     -19.669  25.431  37.267  1.00  0.00     0.000 C 
BRANCH   3   4
ATOM      4  C   UNL     1     -18.338  24.900  36.702  1.00  0.00    -0.000 C 
BRANCH   4   5
ATOM      5  C   UNL     1     -17.806  25.706  35.498  1.00  0.00    -0.000 C 
BRANCH   5   6
ATOM      6  C   UNL     1     -17.794  24.881  34.199  1.00  0.00    -0.000 C 
BRANCH   6   7
ATOM      7  C   UNL     1     -18.043  23.384  34.445  1.00  0.00    -0.000 C 
BRANCH   7   8
ATOM      8  C   UNL     1     -19.370  22.896  33.837  1.00  0.00    -0.000 C 
BRANCH   8   9
ATOM      9  C   UNL     1     -20.152  21.974  34.786  1.00  0.00    -0.000 C 
BRANCH   9  10
ATOM     10  C   UNL     1     -21.574  22.482  35.065  1.00  0.00    -0.000 C 
BRANCH  10  11
ATOM     11  C   UNL     1     -22.452  21.365  35.642  1.00  0.00    -0.003 C 
ATOM     12  C   UNL     1     -22.328  21.295  37.161  1.00  0.00     0.004 C 
ENDBRANCH  10  11
ENDBRANCH   9  10
ENDBRANCH   8   9
ENDBRANCH   7   8
ENDBRANCH   6   7
ENDBRANCH   5   6
ENDBRANCH   4   5
ENDBRANCH   3   4
ENDBRANCH   2   3
ENDBRANCH   1   2
BRANCH   1  13
ATOM     13  C   UNL     1     -20.527  26.574  40.552  1.00  0.00     0.000 C 
BRANCH  13  14
ATOM     14  C   UNL     1     -21.841  25.797  40.736  1.00  0.00     0.000 C 
BRANCH  14  15
ATOM     15  C   UNL     1     -21.889  25.010  42.057  1.00  0.00     0.000 C 
BRANCH  15  16
ATOM     16  C   UNL     1     -22.638  23.665  41.982  1.00  0.00     0.000 C 
BRANCH  16  17
ATOM     17  C   UNL     1     -22.422  22.869  40.681  1.00  0.00     0.000 C 
BRANCH  17  18
ATOM     18  C   UNL     1     -21.528  21.624  40.820  1.00  0.00     0.000 C 
BRANCH  18  19
ATOM     19  C   UNL     1     -20.033  21.940  40.658  1.00  0.00     0.000 C 
BRANCH  19  20
ATOM     20  C   UNL     1     -19.311  21.901  42.010  1.00  0.00     0.006 C 
BRANCH  20  21
ATOM     21  C   UNL     1     -19.339  20.491  42.608  1.00  0.00     0.053 C 
BRANCH  21  22
ATOM     22  C   UNL     1     -17.960  19.912  42.658  1.00  0.00     0.041 C 
ATOM     23  O   UNL     1     -17.548  19.350  43.707  1.00  0.00    -0.550 OA
ATOM     24  O   UNL     1     -17.113  20.034  41.563  1.00  0.00    -0.550 OA
ENDBRANCH  21  22
ENDBRANCH  20  21
ENDBRANCH  19  20
ENDBRANCH  18  19
ENDBRANCH  17  18
ENDBRANCH  16  17
ENDBRANCH  15  16
ENDBRANCH  14  15
ENDBRANCH  13  14
ENDBRANCH   1  13
TORSDOF 20
ENDMDL
MODEL 9
REMARK VINA RESULT:    -3.057      3.891      6.192
REMARK INTER + INTRA:         -10.626
REMARK INTER:                  -7.250
REMARK INTRA:                  -3.376
REMARK UNBOUND:                -3.995
REMARK SMILES CCCCCCCCCCCCCCCCCCCCCC(=O)[O-]
REMARK SMILES IDX 12 1 11 2 10 3 9 4 8 5 7 6 6 7 5 8 4 9 3 10 2 11 1 12 13 13
REMARK SMILES IDX 14 14 15 15 16 16 17 17 18 18 19 19 20 20 21 21 22 22 23 23
REMARK SMILES IDX 24 24
REMARK H PARENT
REMARK Flexibility Score: inf
ROOT
ATOM      1  C   UNL     1      -4.796  31.354  44.338  1.00  0.00     0.000 C 
ENDROOT
BRANCH   1   2
ATOM      2  C   UNL     1      -4.237  30.813  45.667  1.00  0.00     0.000 C 
BRANCH   2   3
ATOM      3  C   UNL     1      -4.004  29.291  45.708  1.00  0.00     0.000 C 
BRANCH   3   4
ATOM      4  C   UNL     1      -4.740  28.548  46.838  1.00  0.00    -0.000 C 
BRANCH   4   5
ATOM      5  C   UNL     1      -6.032  27.839  46.380  1.00  0.00    -0.000 C 
BRANCH   5   6
ATOM      6  C   UNL     1      -5.815  26.338  46.118  1.00  0.00    -0.000 C 
BRANCH   6   7
ATOM      7  C   UNL     1      -5.441  26.038  44.658  1.00  0.00    -0.000 C 
BRANCH   7   8
ATOM      8  C   UNL     1      -6.559  26.415  43.669  1.00  0.00    -0.000 C 
BRANCH   8   9
ATOM      9  C   UNL     1      -6.018  26.811  42.286  1.00  0.00    -0.000 C 
BRANCH   9  10
ATOM     10  C   UNL     1      -6.466  25.846  41.178  1.00  0.00    -0.000 C 
BRANCH  10  11
ATOM     11  C   UNL     1      -7.633  24.972  41.653  1.00  0.00    -0.003 C 
ATOM     12  C   UNL     1      -7.420  23.511  41.267  1.00  0.00     0.004 C 
ENDBRANCH  10  11
ENDBRANCH   9  10
ENDBRANCH   8   9
ENDBRANCH   7   8
ENDBRANCH   6   7
ENDBRANCH   5   6
ENDBRANCH   4   5
ENDBRANCH   3   4
ENDBRANCH   2   3
ENDBRANCH   1   2
BRANCH   1  13
ATOM     13  C   UNL     1      -5.500  30.279  43.496  1.00  0.00     0.000 C 
BRANCH  13  14
ATOM     14  C   UNL     1      -6.954  30.677  43.199  1.00  0.00     0.000 C 
BRANCH  14  15
ATOM     15  C   UNL     1      -7.977  29.836  43.982  1.00  0.00     0.000 C 
BRANCH  15  16
ATOM     16  C   UNL     1      -8.745  30.602  45.076  1.00  0.00     0.000 C 
BRANCH  16  17
ATOM     17  C   UNL     1      -8.290  30.310  46.520  1.00  0.00     0.000 C 
BRANCH  17  18
ATOM     18  C   UNL     1      -7.437  31.414  47.169  1.00  0.00     0.000 C 
BRANCH  18  19
ATOM     19  C   UNL     1      -7.531  32.756  46.428  1.00  0.00     0.000 C 
BRANCH  19  20
ATOM     20  C   UNL     1      -6.443  33.726  46.903  1.00  0.00     0.006 C 
BRANCH  20  21
ATOM     21  C   UNL     1      -6.711  34.192  48.338  1.00  0.00     0.053 C 
BRANCH  21  22
ATOM     22  C   UNL     1      -5.595  33.773  49.245  1.00  0.00     0.041 C 
ATOM     23  O   UNL     1      -5.775  33.733  50.491  1.00  0.00    -0.550 OA
ATOM     24  O   UNL     1      -4.345  33.473  48.719  1.00  0.00    -0.550 OA
ENDBRANCH  21  22
ENDBRANCH  20  21
ENDBRANCH  19  20
ENDBRANCH  18  19
ENDBRANCH  17  18
ENDBRANCH  16  17
ENDBRANCH  15  16
ENDBRANCH  14  15
ENDBRANCH  13  14
ENDBRANCH   1  13
TORSDOF 20
ENDMDL
