MODEL 1
REMARK VINA RESULT:    -5.638      0.000      0.000
REMARK INTER + INTRA:          -6.765
REMARK INTER:                  -6.627
REMARK INTRA:                  -0.138
REMARK UNBOUND:                -0.138
REMARK SMILES O=C([O-])C=Cc1ccc(O)c(O)c1
REMARK SMILES IDX 6 1 13 2 7 3 11 4 8 5 9 6 5 7 4 8 2 9 1 10 3 11 12 12 10 14
REMARK H PARENT 12 13 10 15
REMARK Flexibility Score: inf
ROOT
ATOM      1  C   UNL     1      73.587  43.241  -4.404  1.00  0.00    -0.022 A 
ATOM      2  C   UNL     1      73.974  44.552  -4.085  1.00  0.00     0.058 A 
ATOM      3  C   UNL     1      72.855  42.501  -3.458  1.00  0.00     0.012 A 
ATOM      4  C   UNL     1      73.621  45.134  -2.861  1.00  0.00     0.157 A 
ATOM      5  C   UNL     1      72.499  43.074  -2.236  1.00  0.00     0.051 A 
ATOM      6  C   UNL     1      72.870  44.386  -1.925  1.00  0.00     0.157 A 
ENDROOT
BRANCH   1   7
ATOM      7  C   UNL     1      74.000  42.676  -5.713  1.00  0.00     0.010 C 
ATOM      8  C   UNL     1      73.529  41.524  -6.210  1.00  0.00     0.025 C 
BRANCH   8   9
ATOM      9  C   UNL     1      73.958  41.008  -7.519  1.00  0.00     0.064 C 
ATOM     10  O   UNL     1      75.125  40.558  -7.657  1.00  0.00    -0.545 OA
ATOM     11  O   UNL     1      73.095  41.010  -8.610  1.00  0.00    -0.545 OA
ENDBRANCH   8   9
ENDBRANCH   1   7
BRANCH   4  12
ATOM     12  O   UNL     1      74.035  46.446  -2.620  1.00  0.00    -0.504 OA
ATOM     13  H   UNL     1      73.406  47.205  -2.401  1.00  0.00     0.293 HD
ENDBRANCH   4  12
BRANCH   6  14
ATOM     14  O   UNL     1      72.480  44.900  -0.687  1.00  0.00    -0.504 OA
ATOM     15  H   UNL     1      72.952  45.658  -0.216  1.00  0.00     0.293 HD
ENDBRANCH   6  14
TORSDOF 4
ENDMDL
MODEL 2
REMARK VINA RESULT:    -5.211      1.705      6.527
REMARK INTER + INTRA:          -6.262
REMARK INTER:                  -6.133
REMARK INTRA:                  -0.129
REMARK UNBOUND:                -0.138
REMARK SMILES O=C([O-])C=Cc1ccc(O)c(O)c1
REMARK SMILES IDX 6 1 13 2 7 3 11 4 8 5 9 6 5 7 4 8 2 9 1 10 3 11 12 12 10 14
REMARK H PARENT 12 13 10 15
REMARK Flexibility Score: inf
ROOT
ATOM      1  C   UNL     1      73.789  41.369  -6.389  1.00  0.00    -0.022 A 
ATOM      2  C   UNL     1      72.706  40.619  -6.875  1.00  0.00     0.058 A 
ATOM      3  C   UNL     1      74.995  41.366  -7.114  1.00  0.00     0.012 A 
ATOM      4  C   UNL     1      72.803  39.900  -8.072  1.00  0.00     0.157 A 
ATOM      5  C   UNL     1      75.099  40.652  -8.309  1.00  0.00     0.051 A 
ATOM      6  C   UNL     1      74.014  39.919  -8.801  1.00  0.00     0.157 A 
ENDROOT
BRANCH   1   7
ATOM      7  C   UNL     1      73.629  42.103  -5.109  1.00  0.00     0.010 C 
ATOM      8  C   UNL     1      73.630  43.439  -5.011  1.00  0.00     0.025 C 
BRANCH   8   9
ATOM      9  C   UNL     1      73.456  44.125  -3.721  1.00  0.00     0.064 C 
ATOM     10  O   UNL     1      72.814  43.559  -2.798  1.00  0.00    -0.545 OA
ATOM     11  O   UNL     1      73.989  45.391  -3.502  1.00  0.00    -0.545 OA
ENDBRANCH   8   9
ENDBRANCH   1   7
BRANCH   4  12
ATOM     12  O   UNL     1      71.679  39.186  -8.496  1.00  0.00    -0.504 OA
ATOM     13  H   UNL     1      70.891  39.603  -8.969  1.00  0.00     0.293 HD
ENDBRANCH   4  12
BRANCH   6  14
ATOM     14  O   UNL     1      74.184  39.228 -10.003  1.00  0.00    -0.504 OA
ATOM     15  H   UNL     1      74.746  38.396 -10.102  1.00  0.00     0.293 HD
ENDBRANCH   6  14
TORSDOF 4
ENDMDL
MODEL 3
REMARK VINA RESULT:    -5.176      9.944     13.323
REMARK INTER + INTRA:          -6.221
REMARK INTER:                  -6.087
REMARK INTRA:                  -0.134
REMARK UNBOUND:                -0.138
REMARK SMILES O=C([O-])C=Cc1ccc(O)c(O)c1
REMARK SMILES IDX 6 1 13 2 7 3 11 4 8 5 9 6 5 7 4 8 2 9 1 10 3 11 12 12 10 14
REMARK H PARENT 12 13 10 15
REMARK Flexibility Score: inf
ROOT
ATOM      1  C   UNL     1      70.602  49.405   5.670  1.00  0.00    -0.022 A 
ATOM      2  C   UNL     1      71.265  48.367   4.997  1.00  0.00     0.058 A 
ATOM      3  C   UNL     1      69.951  50.397   4.915  1.00  0.00     0.012 A 
ATOM      4  C   UNL     1      71.263  48.295   3.598  1.00  0.00     0.157 A 
ATOM      5  C   UNL     1      69.944  50.331   3.521  1.00  0.00     0.051 A 
ATOM      6  C   UNL     1      70.590  49.288   2.850  1.00  0.00     0.157 A 
ENDROOT
BRANCH   1   7
ATOM      7  C   UNL     1      70.648  49.433   7.154  1.00  0.00     0.010 C 
ATOM      8  C   UNL     1      71.652  48.919   7.878  1.00  0.00     0.025 C 
BRANCH   8   9
ATOM      9  C   UNL     1      71.660  48.981   9.349  1.00  0.00     0.064 C 
ATOM     10  O   UNL     1      70.604  49.278   9.964  1.00  0.00    -0.545 OA
ATOM     11  O   UNL     1      72.819  48.717  10.071  1.00  0.00    -0.545 OA
ENDBRANCH   8   9
ENDBRANCH   1   7
BRANCH   4  12
ATOM     12  O   UNL     1      71.936  47.226   3.000  1.00  0.00    -0.504 OA
ATOM     13  H   UNL     1      72.473  46.541   3.511  1.00  0.00     0.293 HD
ENDBRANCH   4  12
BRANCH   6  14
ATOM     14  O   UNL     1      70.543  49.280   1.454  1.00  0.00    -0.504 OA
ATOM     15  H   UNL     1      69.740  48.985   0.918  1.00  0.00     0.293 HD
ENDBRANCH   6  14
TORSDOF 4
ENDMDL
MODEL 4
REMARK VINA RESULT:    -4.853      1.576      6.287
REMARK INTER + INTRA:          -5.842
REMARK INTER:                  -5.700
REMARK INTRA:                  -0.141
REMARK UNBOUND:                -0.138
REMARK SMILES O=C([O-])C=Cc1ccc(O)c(O)c1
REMARK SMILES IDX 6 1 13 2 7 3 11 4 8 5 9 6 5 7 4 8 2 9 1 10 3 11 12 12 10 14
REMARK H PARENT 12 13 10 15
REMARK Flexibility Score: inf
ROOT
ATOM      1  C   UNL     1      73.560  41.455  -6.335  1.00  0.00    -0.022 A 
ATOM      2  C   UNL     1      74.377  41.412  -7.476  1.00  0.00     0.058 A 
ATOM      3  C   UNL     1      72.547  40.491  -6.190  1.00  0.00     0.012 A 
ATOM      4  C   UNL     1      74.213  40.417  -8.447  1.00  0.00     0.157 A 
ATOM      5  C   UNL     1      72.377  39.495  -7.153  1.00  0.00     0.051 A 
ATOM      6  C   UNL     1      73.201  39.442  -8.281  1.00  0.00     0.157 A 
ENDROOT
BRANCH   1   7
ATOM      7  C   UNL     1      73.777  42.541  -5.346  1.00  0.00     0.010 C 
ATOM      8  C   UNL     1      72.986  42.751  -4.285  1.00  0.00     0.025 C 
BRANCH   8   9
ATOM      9  C   UNL     1      73.246  43.834  -3.323  1.00  0.00     0.064 C 
ATOM     10  O   UNL     1      72.846  43.719  -2.136  1.00  0.00    -0.545 OA
ATOM     11  O   UNL     1      73.927  44.985  -3.705  1.00  0.00    -0.545 OA
ENDBRANCH   8   9
ENDBRANCH   1   7
BRANCH   4  12
ATOM     12  O   UNL     1      75.070  40.434  -9.550  1.00  0.00    -0.504 OA
ATOM     13  H   UNL     1      75.220  39.645 -10.161  1.00  0.00     0.293 HD
ENDBRANCH   4  12
BRANCH   6  14
ATOM     14  O   UNL     1      72.980  38.419  -9.205  1.00  0.00    -0.504 OA
ATOM     15  H   UNL     1      72.291  38.462  -9.942  1.00  0.00     0.293 HD
ENDBRANCH   6  14
TORSDOF 4
ENDMDL
MODEL 5
REMARK VINA RESULT:    -4.638     10.337     12.884
REMARK INTER + INTRA:          -5.589
REMARK INTER:                  -5.458
REMARK INTRA:                  -0.131
REMARK UNBOUND:                -0.138
REMARK SMILES O=C([O-])C=Cc1ccc(O)c(O)c1
REMARK SMILES IDX 6 1 13 2 7 3 11 4 8 5 9 6 5 7 4 8 2 9 1 10 3 11 12 12 10 14
REMARK H PARENT 12 13 10 15
REMARK Flexibility Score: inf
ROOT
ATOM      1  C   UNL     1      71.443  48.519   6.365  1.00  0.00    -0.022 A 
ATOM      2  C   UNL     1      71.778  48.067   5.078  1.00  0.00     0.058 A 
ATOM      3  C   UNL     1      70.542  49.590   6.494  1.00  0.00     0.012 A 
ATOM      4  C   UNL     1      71.211  48.647   3.937  1.00  0.00     0.157 A 
ATOM      5  C   UNL     1      69.972  50.173   5.360  1.00  0.00     0.051 A 
ATOM      6  C   UNL     1      70.292  49.712   4.080  1.00  0.00     0.157 A 
ENDROOT
BRANCH   1   7
ATOM      7  C   UNL     1      72.086  47.870   7.536  1.00  0.00     0.010 C 
ATOM      8  C   UNL     1      73.386  47.552   7.591  1.00  0.00     0.025 C 
BRANCH   8   9
ATOM      9  C   UNL     1      73.982  46.920   8.779  1.00  0.00     0.064 C 
ATOM     10  O   UNL     1      73.603  47.272   9.926  1.00  0.00    -0.545 OA
ATOM     11  O   UNL     1      74.960  45.939   8.655  1.00  0.00    -0.545 OA
ENDBRANCH   8   9
ENDBRANCH   1   7
BRANCH   4  12
ATOM     12  O   UNL     1      71.586  48.136   2.692  1.00  0.00    -0.504 OA
ATOM     13  H   UNL     1      71.234  47.272   2.307  1.00  0.00     0.293 HD
ENDBRANCH   4  12
BRANCH   6  14
ATOM     14  O   UNL     1      69.685  50.337   2.989  1.00  0.00    -0.504 OA
ATOM     15  H   UNL     1      69.469  51.323   2.951  1.00  0.00     0.293 HD
ENDBRANCH   6  14
TORSDOF 4
ENDMDL
MODEL 6
REMARK VINA RESULT:    -4.633      9.678     11.095
REMARK INTER + INTRA:          -5.584
REMARK INTER:                  -5.451
REMARK INTRA:                  -0.133
REMARK UNBOUND:                -0.138
REMARK SMILES O=C([O-])C=Cc1ccc(O)c(O)c1
REMARK SMILES IDX 6 1 13 2 7 3 11 4 8 5 9 6 5 7 4 8 2 9 1 10 3 11 12 12 10 14
REMARK H PARENT 12 13 10 15
REMARK Flexibility Score: inf
ROOT
ATOM      1  C   UNL     1      72.811  47.298   4.772  1.00  0.00    -0.022 A 
ATOM      2  C   UNL     1      73.104  45.979   4.387  1.00  0.00     0.058 A 
ATOM      3  C   UNL     1      73.121  47.705   6.082  1.00  0.00     0.012 A 
ATOM      4  C   UNL     1      73.716  45.085   5.273  1.00  0.00     0.157 A 
ATOM      5  C   UNL     1      73.732  46.819   6.971  1.00  0.00     0.051 A 
ATOM      6  C   UNL     1      74.038  45.512   6.582  1.00  0.00     0.157 A 
ENDROOT
BRANCH   1   7
ATOM      7  C   UNL     1      72.152  48.196   3.791  1.00  0.00     0.010 C 
ATOM      8  C   UNL     1      71.023  48.872   4.042  1.00  0.00     0.025 C 
BRANCH   8   9
ATOM      9  C   UNL     1      70.411  49.761   3.042  1.00  0.00     0.064 C 
ATOM     10  O   UNL     1      69.828  50.811   3.418  1.00  0.00    -0.545 OA
ATOM     11  O   UNL     1      70.464  49.460   1.684  1.00  0.00    -0.545 OA
ENDBRANCH   8   9
ENDBRANCH   1   7
BRANCH   4  12
ATOM     12  O   UNL     1      73.984  43.793   4.813  1.00  0.00    -0.504 OA
ATOM     13  H   UNL     1      73.461  42.976   5.091  1.00  0.00     0.293 HD
ENDBRANCH   4  12
BRANCH   6  14
ATOM     14  O   UNL     1      74.652  44.677   7.519  1.00  0.00    -0.504 OA
ATOM     15  H   UNL     1      75.646  44.510   7.560  1.00  0.00     0.293 HD
ENDBRANCH   6  14
TORSDOF 4
ENDMDL
MODEL 7
REMARK VINA RESULT:    -4.601     10.632     12.184
REMARK INTER + INTRA:          -5.546
REMARK INTER:                  -5.412
REMARK INTRA:                  -0.134
REMARK UNBOUND:                -0.138
REMARK SMILES O=C([O-])C=Cc1ccc(O)c(O)c1
REMARK SMILES IDX 6 1 13 2 7 3 11 4 8 5 9 6 5 7 4 8 2 9 1 10 3 11 12 12 10 14
REMARK H PARENT 12 13 10 15
REMARK Flexibility Score: inf
ROOT
ATOM      1  C   UNL     1      72.284  47.785   5.220  1.00  0.00    -0.022 A 
ATOM      2  C   UNL     1      71.316  48.471   5.971  1.00  0.00     0.058 A 
ATOM      3  C   UNL     1      72.307  47.959   3.824  1.00  0.00     0.012 A 
ATOM      4  C   UNL     1      70.402  49.336   5.357  1.00  0.00     0.157 A 
ATOM      5  C   UNL     1      71.400  48.820   3.205  1.00  0.00     0.051 A 
ATOM      6  C   UNL     1      70.447  49.516   3.955  1.00  0.00     0.157 A 
ENDROOT
BRANCH   1   7
ATOM      7  C   UNL     1      73.219  46.875   5.927  1.00  0.00     0.010 C 
ATOM      8  C   UNL     1      73.426  46.901   7.250  1.00  0.00     0.025 C 
BRANCH   8   9
ATOM      9  C   UNL     1      74.355  45.970   7.910  1.00  0.00     0.064 C 
ATOM     10  O   UNL     1      74.507  44.810   7.446  1.00  0.00    -0.545 OA
ATOM     11  O   UNL     1      75.070  46.349   9.042  1.00  0.00    -0.545 OA
ENDBRANCH   8   9
ENDBRANCH   1   7
BRANCH   4  12
ATOM     12  O   UNL     1      69.475  49.990   6.172  1.00  0.00    -0.504 OA
ATOM     13  H   UNL     1      69.083  49.592   7.013  1.00  0.00     0.293 HD
ENDBRANCH   4  12
BRANCH   6  14
ATOM     14  O   UNL     1      69.570  50.363   3.274  1.00  0.00    -0.504 OA
ATOM     15  H   UNL     1      69.586  51.370   3.348  1.00  0.00     0.293 HD
ENDBRANCH   6  14
TORSDOF 4
ENDMDL
MODEL 8
REMARK VINA RESULT:    -4.597     10.503     12.399
REMARK INTER + INTRA:          -5.541
REMARK INTER:                  -5.408
REMARK INTRA:                  -0.133
REMARK UNBOUND:                -0.138
REMARK SMILES O=C([O-])C=Cc1ccc(O)c(O)c1
REMARK SMILES IDX 6 1 13 2 7 3 11 4 8 5 9 6 5 7 4 8 2 9 1 10 3 11 12 12 10 14
REMARK H PARENT 12 13 10 15
REMARK Flexibility Score: inf
ROOT
ATOM      1  C   UNL     1      72.766  47.728   6.235  1.00  0.00    -0.022 A 
ATOM      2  C   UNL     1      72.816  48.711   7.236  1.00  0.00     0.058 A 
ATOM      3  C   UNL     1      73.326  46.465   6.496  1.00  0.00     0.012 A 
ATOM      4  C   UNL     1      73.386  48.442   8.487  1.00  0.00     0.157 A 
ATOM      5  C   UNL     1      73.895  46.189   7.741  1.00  0.00     0.051 A 
ATOM      6  C   UNL     1      73.930  47.163   8.744  1.00  0.00     0.157 A 
ENDROOT
BRANCH   1   7
ATOM      7  C   UNL     1      72.157  48.077   4.926  1.00  0.00     0.010 C 
ATOM      8  C   UNL     1      71.155  48.954   4.781  1.00  0.00     0.025 C 
BRANCH   8   9
ATOM      9  C   UNL     1      70.591  49.277   3.461  1.00  0.00     0.064 C 
ATOM     10  O   UNL     1      70.793  48.501   2.491  1.00  0.00    -0.545 OA
ATOM     11  O   UNL     1      69.837  50.430   3.265  1.00  0.00    -0.545 OA
ENDBRANCH   8   9
ENDBRANCH   1   7
BRANCH   4  12
ATOM     12  O   UNL     1      73.390  49.468   9.435  1.00  0.00    -0.504 OA
ATOM     13  H   UNL     1      74.016  50.260   9.407  1.00  0.00     0.293 HD
ENDBRANCH   4  12
BRANCH   6  14
ATOM     14  O   UNL     1      74.512  46.821   9.966  1.00  0.00    -0.504 OA
ATOM     15  H   UNL     1      75.117  46.024  10.101  1.00  0.00     0.293 HD
ENDBRANCH   6  14
TORSDOF 4
ENDMDL
MODEL 9
REMARK VINA RESULT:    -4.561      9.576     13.111
REMARK INTER + INTRA:          -5.499
REMARK INTER:                  -5.367
REMARK INTRA:                  -0.132
REMARK UNBOUND:                -0.138
REMARK SMILES O=C([O-])C=Cc1ccc(O)c(O)c1
REMARK SMILES IDX 6 1 13 2 7 3 11 4 8 5 9 6 5 7 4 8 2 9 1 10 3 11 12 12 10 14
REMARK H PARENT 12 13 10 15
REMARK Flexibility Score: inf
ROOT
ATOM      1  C   UNL     1      71.266  48.585   5.437  1.00  0.00    -0.022 A 
ATOM      2  C   UNL     1      70.497  49.690   5.038  1.00  0.00     0.058 A 
ATOM      3  C   UNL     1      71.748  47.704   4.453  1.00  0.00     0.012 A 
ATOM      4  C   UNL     1      70.229  49.936   3.686  1.00  0.00     0.157 A 
ATOM      5  C   UNL     1      71.486  47.942   3.102  1.00  0.00     0.051 A 
ATOM      6  C   UNL     1      70.734  49.052   2.704  1.00  0.00     0.157 A 
ENDROOT
BRANCH   1   7
ATOM      7  C   UNL     1      71.507  48.372   6.887  1.00  0.00     0.010 C 
ATOM      8  C   UNL     1      71.346  49.323   7.816  1.00  0.00     0.025 C 
BRANCH   8   9
ATOM      9  C   UNL     1      71.585  49.063   9.245  1.00  0.00     0.064 C 
ATOM     10  O   UNL     1      72.765  49.020   9.679  1.00  0.00    -0.545 OA
ATOM     11  O   UNL     1      70.527  48.862  10.125  1.00  0.00    -0.545 OA
ENDBRANCH   8   9
ENDBRANCH   1   7
BRANCH   4  12
ATOM     12  O   UNL     1      69.465  51.061   3.367  1.00  0.00    -0.504 OA
ATOM     13  H   UNL     1      69.837  51.889   2.927  1.00  0.00     0.293 HD
ENDBRANCH   4  12
BRANCH   6  14
ATOM     14  O   UNL     1      70.511  49.234   1.338  1.00  0.00    -0.504 OA
ATOM     15  H   UNL     1      70.092  48.540   0.736  1.00  0.00     0.293 HD
ENDBRANCH   6  14
TORSDOF 4
ENDMDL
