MODEL 1
REMARK VINA RESULT:    -5.564      0.000      0.000
REMARK INTER + INTRA:         -14.713
REMARK INTER:                 -12.720
REMARK INTRA:                  -1.993
REMARK UNBOUND:                -1.993
REMARK SMILES CCCCCCCCCCCCCCCCCCCCCCCC(=O)[O-]
REMARK SMILES IDX 13 1 14 2 15 3 16 4 17 5 18 6 19 7 20 8 21 9 22 10 23 11
REMARK SMILES IDX 24 12 25 13 26 14 12 15 11 16 10 17 9 18 8 19 7 20 6 21 5 22
REMARK SMILES IDX 4 23 3 24 2 25 1 26
REMARK H PARENT
REMARK Flexibility Score: inf
ROOT
ATOM      1  C   UNL     1      43.669   5.626 127.591  1.00  0.00     0.000 C 
ENDROOT
BRANCH   1   2
ATOM      2  C   UNL     1      44.755   5.968 126.556  1.00  0.00     0.000 C 
BRANCH   2   3
ATOM      3  C   UNL     1      45.629   7.158 126.990  1.00  0.00     0.000 C 
BRANCH   3   4
ATOM      4  C   UNL     1      47.110   6.771 127.158  1.00  0.00     0.000 C 
BRANCH   4   5
ATOM      5  C   UNL     1      48.036   7.579 126.225  1.00  0.00     0.000 C 
BRANCH   5   6
ATOM      6  C   UNL     1      47.316   8.154 124.993  1.00  0.00     0.000 C 
BRANCH   6   7
ATOM      7  C   UNL     1      47.887   9.506 124.547  1.00  0.00     0.000 C 
BRANCH   7   8
ATOM      8  C   UNL     1      46.955  10.195 123.543  1.00  0.00     0.000 C 
BRANCH   8   9
ATOM      9  C   UNL     1      46.558  11.593 124.036  1.00  0.00     0.000 C 
BRANCH   9  10
ATOM     10  C   UNL     1      45.042  11.837 123.955  1.00  0.00     0.006 C 
BRANCH  10  11
ATOM     11  C   UNL     1      44.438  11.321 122.642  1.00  0.00     0.053 C 
BRANCH  11  12
ATOM     12  C   UNL     1      44.600  12.334 121.553  1.00  0.00     0.041 C 
ATOM     13  O   UNL     1      44.826  13.540 121.840  1.00  0.00    -0.550 OA
ATOM     14  O   UNL     1      44.473  11.954 120.222  1.00  0.00    -0.550 OA
ENDBRANCH  11  12
ENDBRANCH  10  11
ENDBRANCH   9  10
ENDBRANCH   8   9
ENDBRANCH   7   8
ENDBRANCH   6   7
ENDBRANCH   5   6
ENDBRANCH   4   5
ENDBRANCH   3   4
ENDBRANCH   2   3
ENDBRANCH   1   2
BRANCH   1  15
ATOM     15  C   UNL     1      43.722   6.538 128.827  1.00  0.00     0.000 C 
BRANCH  15  16
ATOM     16  C   UNL     1      43.976   5.764 130.132  1.00  0.00     0.000 C 
BRANCH  16  17
ATOM     17  C   UNL     1      45.120   4.738 130.015  1.00  0.00     0.000 C 
BRANCH  17  18
ATOM     18  C   UNL     1      46.513   5.257 130.429  1.00  0.00    -0.000 C 
BRANCH  18  19
ATOM     19  C   UNL     1      47.124   4.553 131.661  1.00  0.00    -0.000 C 
BRANCH  19  20
ATOM     20  C   UNL     1      46.433   3.226 132.031  1.00  0.00    -0.000 C 
BRANCH  20  21
ATOM     21  C   UNL     1      46.030   3.122 133.519  1.00  0.00    -0.000 C 
BRANCH  21  22
ATOM     22  C   UNL     1      44.650   2.474 133.739  1.00  0.00    -0.000 C 
BRANCH  22  23
ATOM     23  C   UNL     1      43.834   2.283 132.446  1.00  0.00    -0.000 C 
BRANCH  23  24
ATOM     24  C   UNL     1      43.727   0.807 132.017  1.00  0.00    -0.000 C 
BRANCH  24  25
ATOM     25  C   UNL     1      42.298   0.259 132.153  1.00  0.00    -0.003 C 
ATOM     26  C   UNL     1      41.989  -0.247 133.562  1.00  0.00     0.004 C 
ENDBRANCH  24  25
ENDBRANCH  23  24
ENDBRANCH  22  23
ENDBRANCH  21  22
ENDBRANCH  20  21
ENDBRANCH  19  20
ENDBRANCH  18  19
ENDBRANCH  17  18
ENDBRANCH  16  17
ENDBRANCH  15  16
ENDBRANCH   1  15
TORSDOF 22
ENDMDL
MODEL 2
REMARK VINA RESULT:    -5.440      4.699     11.586
REMARK INTER + INTRA:         -14.430
REMARK INTER:                 -12.501
REMARK INTRA:                  -1.929
REMARK UNBOUND:                -1.993
REMARK SMILES CCCCCCCCCCCCCCCCCCCCCCCC(=O)[O-]
REMARK SMILES IDX 13 1 14 2 15 3 16 4 17 5 18 6 19 7 20 8 21 9 22 10 23 11
REMARK SMILES IDX 24 12 25 13 26 14 12 15 11 16 10 17 9 18 8 19 7 20 6 21 5 22
REMARK SMILES IDX 4 23 3 24 2 25 1 26
REMARK H PARENT
REMARK Flexibility Score: inf
ROOT
ATOM      1  C   UNL     1      43.762   6.620 128.365  1.00  0.00     0.000 C 
ENDROOT
BRANCH   1   2
ATOM      2  C   UNL     1      44.096   6.028 129.746  1.00  0.00     0.000 C 
BRANCH   2   3
ATOM      3  C   UNL     1      45.143   4.904 129.667  1.00  0.00     0.000 C 
BRANCH   3   4
ATOM      4  C   UNL     1      46.533   5.358 130.151  1.00  0.00     0.000 C 
BRANCH   4   5
ATOM      5  C   UNL     1      47.026   4.545 131.366  1.00  0.00     0.000 C 
BRANCH   5   6
ATOM      6  C   UNL     1      45.907   3.763 132.076  1.00  0.00     0.000 C 
BRANCH   6   7
ATOM      7  C   UNL     1      45.862   4.028 133.586  1.00  0.00     0.000 C 
BRANCH   7   8
ATOM      8  C   UNL     1      46.246   2.773 134.379  1.00  0.00     0.000 C 
BRANCH   8   9
ATOM      9  C   UNL     1      45.109   2.352 135.320  1.00  0.00     0.000 C 
BRANCH   9  10
ATOM     10  C   UNL     1      44.352   1.114 134.809  1.00  0.00     0.006 C 
BRANCH  10  11
ATOM     11  C   UNL     1      43.426   1.443 133.630  1.00  0.00     0.053 C 
BRANCH  11  12
ATOM     12  C   UNL     1      43.768   0.602 132.440  1.00  0.00     0.041 C 
ATOM     13  O   UNL     1      42.896   0.361 131.564  1.00  0.00    -0.550 OA
ATOM     14  O   UNL     1      45.042   0.060 132.312  1.00  0.00    -0.550 OA
ENDBRANCH  11  12
ENDBRANCH  10  11
ENDBRANCH   9  10
ENDBRANCH   8   9
ENDBRANCH   7   8
ENDBRANCH   6   7
ENDBRANCH   5   6
ENDBRANCH   4   5
ENDBRANCH   3   4
ENDBRANCH   2   3
ENDBRANCH   1   2
BRANCH   1  15
ATOM     15  C   UNL     1      44.188   5.701 127.209  1.00  0.00     0.000 C 
BRANCH  15  16
ATOM     16  C   UNL     1      45.115   6.400 126.199  1.00  0.00     0.000 C 
BRANCH  16  17
ATOM     17  C   UNL     1      46.432   6.894 126.828  1.00  0.00     0.000 C 
BRANCH  17  18
ATOM     18  C   UNL     1      47.271   7.838 125.940  1.00  0.00    -0.000 C 
BRANCH  18  19
ATOM     19  C   UNL     1      46.494   8.489 124.775  1.00  0.00    -0.000 C 
BRANCH  19  20
ATOM     20  C   UNL     1      47.382   8.920 123.593  1.00  0.00    -0.000 C 
BRANCH  20  21
ATOM     21  C   UNL     1      47.182  10.390 123.162  1.00  0.00    -0.000 C 
BRANCH  21  22
ATOM     22  C   UNL     1      46.469  11.251 124.223  1.00  0.00    -0.000 C 
BRANCH  22  23
ATOM     23  C   UNL     1      45.043  11.680 123.826  1.00  0.00    -0.000 C 
BRANCH  23  24
ATOM     24  C   UNL     1      44.779  11.552 122.314  1.00  0.00    -0.000 C 
BRANCH  24  25
ATOM     25  C   UNL     1      44.683  12.918 121.618  1.00  0.00    -0.003 C 
ATOM     26  C   UNL     1      46.053  13.516 121.296  1.00  0.00     0.004 C 
ENDBRANCH  24  25
ENDBRANCH  23  24
ENDBRANCH  22  23
ENDBRANCH  21  22
ENDBRANCH  20  21
ENDBRANCH  19  20
ENDBRANCH  18  19
ENDBRANCH  17  18
ENDBRANCH  16  17
ENDBRANCH  15  16
ENDBRANCH   1  15
TORSDOF 22
ENDMDL
MODEL 3
REMARK VINA RESULT:    -5.394      4.719     10.495
REMARK INTER + INTRA:         -14.323
REMARK INTER:                 -11.937
REMARK INTRA:                  -2.387
REMARK UNBOUND:                -1.993
REMARK SMILES CCCCCCCCCCCCCCCCCCCCCCCC(=O)[O-]
REMARK SMILES IDX 13 1 14 2 15 3 16 4 17 5 18 6 19 7 20 8 21 9 22 10 23 11
REMARK SMILES IDX 24 12 25 13 26 14 12 15 11 16 10 17 9 18 8 19 7 20 6 21 5 22
REMARK SMILES IDX 4 23 3 24 2 25 1 26
REMARK H PARENT
REMARK Flexibility Score: inf
ROOT
ATOM      1  C   UNL     1      42.479   6.360 128.684  1.00  0.00     0.000 C 
ENDROOT
BRANCH   1   2
ATOM      2  C   UNL     1      43.807   6.633 129.411  1.00  0.00     0.000 C 
BRANCH   2   3
ATOM      3  C   UNL     1      44.369   5.379 130.102  1.00  0.00     0.000 C 
BRANCH   3   4
ATOM      4  C   UNL     1      45.655   4.862 129.429  1.00  0.00     0.000 C 
BRANCH   4   5
ATOM      5  C   UNL     1      46.918   5.581 129.949  1.00  0.00     0.000 C 
BRANCH   5   6
ATOM      6  C   UNL     1      48.005   4.618 130.459  1.00  0.00     0.000 C 
BRANCH   6   7
ATOM      7  C   UNL     1      47.527   3.745 131.626  1.00  0.00     0.000 C 
BRANCH   7   8
ATOM      8  C   UNL     1      46.772   4.581 132.666  1.00  0.00     0.000 C 
BRANCH   8   9
ATOM      9  C   UNL     1      45.740   3.723 133.412  1.00  0.00     0.000 C 
BRANCH   9  10
ATOM     10  C   UNL     1      45.343   2.464 132.623  1.00  0.00     0.006 C 
BRANCH  10  11
ATOM     11  C   UNL     1      43.854   2.124 132.777  1.00  0.00     0.053 C 
BRANCH  11  12
ATOM     12  C   UNL     1      43.567   0.757 132.243  1.00  0.00     0.041 C 
ATOM     13  O   UNL     1      44.486  -0.103 132.177  1.00  0.00    -0.550 OA
ATOM     14  O   UNL     1      42.292   0.438 131.790  1.00  0.00    -0.550 OA
ENDBRANCH  11  12
ENDBRANCH  10  11
ENDBRANCH   9  10
ENDBRANCH   8   9
ENDBRANCH   7   8
ENDBRANCH   6   7
ENDBRANCH   5   6
ENDBRANCH   4   5
ENDBRANCH   3   4
ENDBRANCH   2   3
ENDBRANCH   1   2
BRANCH   1  15
ATOM     15  C   UNL     1      42.630   6.365 127.154  1.00  0.00     0.000 C 
BRANCH  15  16
ATOM     16  C   UNL     1      43.316   5.097 126.617  1.00  0.00     0.000 C 
BRANCH  16  17
ATOM     17  C   UNL     1      44.710   5.371 126.019  1.00  0.00     0.000 C 
BRANCH  17  18
ATOM     18  C   UNL     1      45.263   6.791 126.263  1.00  0.00    -0.000 C 
BRANCH  18  19
ATOM     19  C   UNL     1      46.792   6.862 126.466  1.00  0.00    -0.000 C 
BRANCH  19  20
ATOM     20  C   UNL     1      47.453   8.098 125.824  1.00  0.00    -0.000 C 
BRANCH  20  21
ATOM     21  C   UNL     1      47.338   8.142 124.284  1.00  0.00    -0.000 C 
BRANCH  21  22
ATOM     22  C   UNL     1      46.216   9.067 123.777  1.00  0.00    -0.000 C 
BRANCH  22  23
ATOM     23  C   UNL     1      46.599  10.559 123.746  1.00  0.00    -0.000 C 
BRANCH  23  24
ATOM     24  C   UNL     1      45.437  11.484 124.157  1.00  0.00    -0.000 C 
BRANCH  24  25
ATOM     25  C   UNL     1      44.359  11.589 123.068  1.00  0.00    -0.003 C 
ATOM     26  C   UNL     1      44.942  11.868 121.682  1.00  0.00     0.004 C 
ENDBRANCH  24  25
ENDBRANCH  23  24
ENDBRANCH  22  23
ENDBRANCH  21  22
ENDBRANCH  20  21
ENDBRANCH  19  20
ENDBRANCH  18  19
ENDBRANCH  17  18
ENDBRANCH  16  17
ENDBRANCH  15  16
ENDBRANCH   1  15
TORSDOF 22
ENDMDL
MODEL 4
REMARK VINA RESULT:    -5.337      1.367      2.668
REMARK INTER + INTRA:         -14.193
REMARK INTER:                 -12.501
REMARK INTRA:                  -1.692
REMARK UNBOUND:                -1.993
REMARK SMILES CCCCCCCCCCCCCCCCCCCCCCCC(=O)[O-]
REMARK SMILES IDX 13 1 14 2 15 3 16 4 17 5 18 6 19 7 20 8 21 9 22 10 23 11
REMARK SMILES IDX 24 12 25 13 26 14 12 15 11 16 10 17 9 18 8 19 7 20 6 21 5 22
REMARK SMILES IDX 4 23 3 24 2 25 1 26
REMARK H PARENT
REMARK Flexibility Score: inf
ROOT
ATOM      1  C   UNL     1      47.238   6.798 127.244  1.00  0.00     0.000 C 
ENDROOT
BRANCH   1   2
ATOM      2  C   UNL     1      48.002   7.594 126.171  1.00  0.00     0.000 C 
BRANCH   2   3
ATOM      3  C   UNL     1      47.063   8.232 125.132  1.00  0.00     0.000 C 
BRANCH   3   4
ATOM      4  C   UNL     1      47.754   8.456 123.774  1.00  0.00     0.000 C 
BRANCH   4   5
ATOM      5  C   UNL     1      47.312   9.773 123.101  1.00  0.00     0.000 C 
BRANCH   5   6
ATOM      6  C   UNL     1      47.110  10.931 124.094  1.00  0.00     0.000 C 
BRANCH   6   7
ATOM      7  C   UNL     1      45.720  11.572 123.986  1.00  0.00     0.000 C 
BRANCH   7   8
ATOM      8  C   UNL     1      44.891  10.907 122.881  1.00  0.00     0.000 C 
BRANCH   8   9
ATOM      9  C   UNL     1      44.071  11.951 122.110  1.00  0.00     0.000 C 
BRANCH   9  10
ATOM     10  C   UNL     1      44.777  12.420 120.826  1.00  0.00     0.006 C 
BRANCH  10  11
ATOM     11  C   UNL     1      45.601  11.301 120.172  1.00  0.00     0.053 C 
BRANCH  11  12
ATOM     12  C   UNL     1      47.001  11.760 119.913  1.00  0.00     0.041 C 
ATOM     13  O   UNL     1      47.235  12.975 119.674  1.00  0.00    -0.550 OA
ATOM     14  O   UNL     1      48.046  10.843 119.907  1.00  0.00    -0.550 OA
ENDBRANCH  11  12
ENDBRANCH  10  11
ENDBRANCH   9  10
ENDBRANCH   8   9
ENDBRANCH   7   8
ENDBRANCH   6   7
ENDBRANCH   5   6
ENDBRANCH   4   5
ENDBRANCH   3   4
ENDBRANCH   2   3
ENDBRANCH   1   2
BRANCH   1  15
ATOM     15  C   UNL     1      45.746   6.640 126.913  1.00  0.00     0.000 C 
BRANCH  15  16
ATOM     16  C   UNL     1      45.121   5.385 127.549  1.00  0.00     0.000 C 
BRANCH  16  17
ATOM     17  C   UNL     1      44.539   5.645 128.952  1.00  0.00     0.000 C 
BRANCH  17  18
ATOM     18  C   UNL     1      45.207   4.853 130.097  1.00  0.00    -0.000 C 
BRANCH  18  19
ATOM     19  C   UNL     1      46.696   5.188 130.330  1.00  0.00    -0.000 C 
BRANCH  19  20
ATOM     20  C   UNL     1      47.316   4.474 131.547  1.00  0.00    -0.000 C 
BRANCH  20  21
ATOM     21  C   UNL     1      46.281   4.016 132.598  1.00  0.00    -0.000 C 
BRANCH  21  22
ATOM     22  C   UNL     1      46.308   2.499 132.868  1.00  0.00    -0.000 C 
BRANCH  22  23
ATOM     23  C   UNL     1      44.985   1.938 133.425  1.00  0.00    -0.000 C 
BRANCH  23  24
ATOM     24  C   UNL     1      44.560   0.622 132.747  1.00  0.00    -0.000 C 
BRANCH  24  25
ATOM     25  C   UNL     1      43.291   0.783 131.896  1.00  0.00    -0.003 C 
ATOM     26  C   UNL     1      42.118  -0.046 132.417  1.00  0.00     0.004 C 
ENDBRANCH  24  25
ENDBRANCH  23  24
ENDBRANCH  22  23
ENDBRANCH  21  22
ENDBRANCH  20  21
ENDBRANCH  19  20
ENDBRANCH  18  19
ENDBRANCH  17  18
ENDBRANCH  16  17
ENDBRANCH  15  16
ENDBRANCH   1  15
TORSDOF 22
ENDMDL
MODEL 5
REMARK VINA RESULT:    -5.330      3.579      6.962
REMARK INTER + INTRA:         -14.179
REMARK INTER:                 -11.534
REMARK INTRA:                  -2.645
REMARK UNBOUND:                -1.993
REMARK SMILES CCCCCCCCCCCCCCCCCCCCCCCC(=O)[O-]
REMARK SMILES IDX 13 1 14 2 15 3 16 4 17 5 18 6 19 7 20 8 21 9 22 10 23 11
REMARK SMILES IDX 24 12 25 13 26 14 12 15 11 16 10 17 9 18 8 19 7 20 6 21 5 22
REMARK SMILES IDX 4 23 3 24 2 25 1 26
REMARK H PARENT
REMARK Flexibility Score: inf
ROOT
ATOM      1  C   UNL     1      44.699  11.416 123.444  1.00  0.00     0.000 C 
ENDROOT
BRANCH   1   2
ATOM      2  C   UNL     1      44.491  11.753 121.957  1.00  0.00     0.000 C 
BRANCH   2   3
ATOM      3  C   UNL     1      45.492  12.803 121.445  1.00  0.00     0.000 C 
BRANCH   3   4
ATOM      4  C   UNL     1      46.416  12.248 120.344  1.00  0.00     0.000 C 
BRANCH   4   5
ATOM      5  C   UNL     1      46.152  10.755 120.054  1.00  0.00     0.000 C 
BRANCH   5   6
ATOM      6  C   UNL     1      46.173  10.408 118.555  1.00  0.00     0.000 C 
BRANCH   6   7
ATOM      7  C   UNL     1      45.101   9.382 118.167  1.00  0.00     0.000 C 
BRANCH   7   8
ATOM      8  C   UNL     1      44.436   9.754 116.837  1.00  0.00     0.000 C 
BRANCH   8   9
ATOM      9  C   UNL     1      42.968  10.148 117.051  1.00  0.00     0.000 C 
BRANCH   9  10
ATOM     10  C   UNL     1      42.745  11.666 116.936  1.00  0.00     0.006 C 
BRANCH  10  11
ATOM     11  C   UNL     1      42.957  12.389 118.273  1.00  0.00     0.053 C 
BRANCH  11  12
ATOM     12  C   UNL     1      43.908  13.532 118.109  1.00  0.00     0.041 C 
ATOM     13  O   UNL     1      44.830  13.470 117.253  1.00  0.00    -0.550 OA
ATOM     14  O   UNL     1      43.795  14.656 118.920  1.00  0.00    -0.550 OA
ENDBRANCH  11  12
ENDBRANCH  10  11
ENDBRANCH   9  10
ENDBRANCH   8   9
ENDBRANCH   7   8
ENDBRANCH   6   7
ENDBRANCH   5   6
ENDBRANCH   4   5
ENDBRANCH   3   4
ENDBRANCH   2   3
ENDBRANCH   1   2
BRANCH   1  15
ATOM     15  C   UNL     1      46.102  11.794 123.945  1.00  0.00     0.000 C 
BRANCH  15  16
ATOM     16  C   UNL     1      47.137  10.677 123.726  1.00  0.00     0.000 C 
BRANCH  16  17
ATOM     17  C   UNL     1      46.499   9.283 123.564  1.00  0.00     0.000 C 
BRANCH  17  18
ATOM     18  C   UNL     1      47.152   8.160 124.398  1.00  0.00    -0.000 C 
BRANCH  18  19
ATOM     19  C   UNL     1      46.459   7.872 125.748  1.00  0.00    -0.000 C 
BRANCH  19  20
ATOM     20  C   UNL     1      47.366   7.176 126.781  1.00  0.00    -0.000 C 
BRANCH  20  21
ATOM     21  C   UNL     1      46.609   6.631 128.013  1.00  0.00    -0.000 C 
BRANCH  21  22
ATOM     22  C   UNL     1      46.375   5.109 127.968  1.00  0.00    -0.000 C 
BRANCH  22  23
ATOM     23  C   UNL     1      44.891   4.706 127.867  1.00  0.00    -0.000 C 
BRANCH  23  24
ATOM     24  C   UNL     1      44.295   4.963 126.470  1.00  0.00    -0.000 C 
BRANCH  24  25
ATOM     25  C   UNL     1      42.850   5.480 126.535  1.00  0.00    -0.003 C 
ATOM     26  C   UNL     1      42.559   6.266 127.813  1.00  0.00     0.004 C 
ENDBRANCH  24  25
ENDBRANCH  23  24
ENDBRANCH  22  23
ENDBRANCH  21  22
ENDBRANCH  20  21
ENDBRANCH  19  20
ENDBRANCH  18  19
ENDBRANCH  17  18
ENDBRANCH  16  17
ENDBRANCH  15  16
ENDBRANCH   1  15
TORSDOF 22
ENDMDL
MODEL 6
REMARK VINA RESULT:    -5.292      4.864     11.800
REMARK INTER + INTRA:         -14.091
REMARK INTER:                 -12.119
REMARK INTRA:                  -1.972
REMARK UNBOUND:                -1.993
REMARK SMILES CCCCCCCCCCCCCCCCCCCCCCCC(=O)[O-]
REMARK SMILES IDX 13 1 14 2 15 3 16 4 17 5 18 6 19 7 20 8 21 9 22 10 23 11
REMARK SMILES IDX 24 12 25 13 26 14 12 15 11 16 10 17 9 18 8 19 7 20 6 21 5 22
REMARK SMILES IDX 4 23 3 24 2 25 1 26
REMARK H PARENT
REMARK Flexibility Score: inf
ROOT
ATOM      1  C   UNL     1      45.142   6.366 126.430  1.00  0.00     0.000 C 
ENDROOT
BRANCH   1   2
ATOM      2  C   UNL     1      44.409   5.351 127.324  1.00  0.00     0.000 C 
BRANCH   2   3
ATOM      3  C   UNL     1      43.531   6.029 128.389  1.00  0.00     0.000 C 
BRANCH   3   4
ATOM      4  C   UNL     1      44.229   6.117 129.759  1.00  0.00     0.000 C 
BRANCH   4   5
ATOM      5  C   UNL     1      44.987   4.820 130.115  1.00  0.00     0.000 C 
BRANCH   5   6
ATOM      6  C   UNL     1      46.503   5.022 130.286  1.00  0.00     0.000 C 
BRANCH   6   7
ATOM      7  C   UNL     1      47.030   4.469 131.616  1.00  0.00     0.000 C 
BRANCH   7   8
ATOM      8  C   UNL     1      45.878   4.024 132.524  1.00  0.00     0.000 C 
BRANCH   8   9
ATOM      9  C   UNL     1      46.052   2.559 132.950  1.00  0.00     0.000 C 
BRANCH   9  10
ATOM     10  C   UNL     1      44.763   1.961 133.539  1.00  0.00     0.006 C 
BRANCH  10  11
ATOM     11  C   UNL     1      43.581   2.052 132.564  1.00  0.00     0.053 C 
BRANCH  11  12
ATOM     12  C   UNL     1      42.899   0.726 132.438  1.00  0.00     0.041 C 
ATOM     13  O   UNL     1      42.808   0.166 131.313  1.00  0.00    -0.550 OA
ATOM     14  O   UNL     1      42.337   0.121 133.556  1.00  0.00    -0.550 OA
ENDBRANCH  11  12
ENDBRANCH  10  11
ENDBRANCH   9  10
ENDBRANCH   8   9
ENDBRANCH   7   8
ENDBRANCH   6   7
ENDBRANCH   5   6
ENDBRANCH   4   5
ENDBRANCH   3   4
ENDBRANCH   2   3
ENDBRANCH   1   2
BRANCH   1  15
ATOM     15  C   UNL     1      46.394   6.950 127.104  1.00  0.00     0.000 C 
BRANCH  15  16
ATOM     16  C   UNL     1      47.408   7.516 126.094  1.00  0.00     0.000 C 
BRANCH  16  17
ATOM     17  C   UNL     1      46.751   8.365 124.988  1.00  0.00     0.000 C 
BRANCH  17  18
ATOM     18  C   UNL     1      47.670   8.726 123.802  1.00  0.00    -0.000 C 
BRANCH  18  19
ATOM     19  C   UNL     1      47.430  10.128 123.202  1.00  0.00    -0.000 C 
BRANCH  19  20
ATOM     20  C   UNL     1      46.685  11.094 124.144  1.00  0.00    -0.000 C 
BRANCH  20  21
ATOM     21  C   UNL     1      45.250  11.435 123.685  1.00  0.00    -0.000 C 
BRANCH  21  22
ATOM     22  C   UNL     1      45.041  11.297 122.165  1.00  0.00    -0.000 C 
BRANCH  22  23
ATOM     23  C   UNL     1      44.242  12.455 121.535  1.00  0.00    -0.000 C 
BRANCH  23  24
ATOM     24  C   UNL     1      45.092  13.722 121.322  1.00  0.00    -0.000 C 
BRANCH  24  25
ATOM     25  C   UNL     1      46.537  13.397 120.913  1.00  0.00    -0.003 C 
ATOM     26  C   UNL     1      47.571  13.993 121.868  1.00  0.00     0.004 C 
ENDBRANCH  24  25
ENDBRANCH  23  24
ENDBRANCH  22  23
ENDBRANCH  21  22
ENDBRANCH  20  21
ENDBRANCH  19  20
ENDBRANCH  18  19
ENDBRANCH  17  18
ENDBRANCH  16  17
ENDBRANCH  15  16
ENDBRANCH   1  15
TORSDOF 22
ENDMDL
MODEL 7
REMARK VINA RESULT:    -5.195      6.726     12.150
REMARK INTER + INTRA:         -13.870
REMARK INTER:                 -12.008
REMARK INTRA:                  -1.863
REMARK UNBOUND:                -1.993
REMARK SMILES CCCCCCCCCCCCCCCCCCCCCCCC(=O)[O-]
REMARK SMILES IDX 13 1 14 2 15 3 16 4 17 5 18 6 19 7 20 8 21 9 22 10 23 11
REMARK SMILES IDX 24 12 25 13 26 14 12 15 11 16 10 17 9 18 8 19 7 20 6 21 5 22
REMARK SMILES IDX 4 23 3 24 2 25 1 26
REMARK H PARENT
REMARK Flexibility Score: inf
ROOT
ATOM      1  C   UNL     1      44.113   2.936 132.901  1.00  0.00     0.000 C 
ENDROOT
BRANCH   1   2
ATOM      2  C   UNL     1      44.760   1.738 133.617  1.00  0.00     0.000 C 
BRANCH   2   3
ATOM      3  C   UNL     1      44.427   0.397 132.940  1.00  0.00     0.000 C 
BRANCH   3   4
ATOM      4  C   UNL     1      43.340   0.538 131.858  1.00  0.00     0.000 C 
BRANCH   4   5
ATOM      5  C   UNL     1      41.986  -0.051 132.308  1.00  0.00     0.000 C 
BRANCH   5   6
ATOM      6  C   UNL     1      41.995  -0.576 133.754  1.00  0.00     0.000 C 
BRANCH   6   7
ATOM      7  C   UNL     1      41.476  -2.015 133.867  1.00  0.00     0.000 C 
BRANCH   7   8
ATOM      8  C   UNL     1      40.339  -2.113 134.892  1.00  0.00     0.000 C 
BRANCH   8   9
ATOM      9  C   UNL     1      39.408  -0.897 134.793  1.00  0.00     0.000 C 
BRANCH   9  10
ATOM     10  C   UNL     1      37.979  -1.211 135.270  1.00  0.00     0.006 C 
BRANCH  10  11
ATOM     11  C   UNL     1      36.966  -1.209 134.118  1.00  0.00     0.053 C 
BRANCH  11  12
ATOM     12  C   UNL     1      35.773  -0.375 134.466  1.00  0.00     0.041 C 
ATOM     13  O   UNL     1      34.688  -0.535 133.847  1.00  0.00    -0.550 OA
ATOM     14  O   UNL     1      35.866   0.598 135.453  1.00  0.00    -0.550 OA
ENDBRANCH  11  12
ENDBRANCH  10  11
ENDBRANCH   9  10
ENDBRANCH   8   9
ENDBRANCH   7   8
ENDBRANCH   6   7
ENDBRANCH   5   6
ENDBRANCH   4   5
ENDBRANCH   3   4
ENDBRANCH   2   3
ENDBRANCH   1   2
BRANCH   1  15
ATOM     15  C   UNL     1      45.152   3.907 132.317  1.00  0.00     0.000 C 
BRANCH  15  16
ATOM     16  C   UNL     1      46.601   3.457 132.572  1.00  0.00     0.000 C 
BRANCH  16  17
ATOM     17  C   UNL     1      47.586   3.952 131.495  1.00  0.00     0.000 C 
BRANCH  17  18
ATOM     18  C   UNL     1      47.056   5.082 130.588  1.00  0.00    -0.000 C 
BRANCH  18  19
ATOM     19  C   UNL     1      47.414   4.933 129.094  1.00  0.00    -0.000 C 
BRANCH  19  20
ATOM     20  C   UNL     1      47.012   6.144 128.229  1.00  0.00    -0.000 C 
BRANCH  20  21
ATOM     21  C   UNL     1      46.353   7.292 129.025  1.00  0.00    -0.000 C 
BRANCH  21  22
ATOM     22  C   UNL     1      44.885   7.549 128.634  1.00  0.00    -0.000 C 
BRANCH  22  23
ATOM     23  C   UNL     1      43.947   6.356 128.902  1.00  0.00    -0.000 C 
BRANCH  23  24
ATOM     24  C   UNL     1      42.610   6.464 128.143  1.00  0.00    -0.000 C 
BRANCH  24  25
ATOM     25  C   UNL     1      42.595   5.618 126.860  1.00  0.00    -0.003 C 
ATOM     26  C   UNL     1      43.828   4.724 126.726  1.00  0.00     0.004 C 
ENDBRANCH  24  25
ENDBRANCH  23  24
ENDBRANCH  22  23
ENDBRANCH  21  22
ENDBRANCH  20  21
ENDBRANCH  19  20
ENDBRANCH  18  19
ENDBRANCH  17  18
ENDBRANCH  16  17
ENDBRANCH  15  16
ENDBRANCH   1  15
TORSDOF 22
ENDMDL
MODEL 8
REMARK VINA RESULT:    -5.165      4.437      7.983
REMARK INTER + INTRA:         -13.800
REMARK INTER:                 -12.353
REMARK INTRA:                  -1.447
REMARK UNBOUND:                -1.993
REMARK SMILES CCCCCCCCCCCCCCCCCCCCCCCC(=O)[O-]
REMARK SMILES IDX 13 1 14 2 15 3 16 4 17 5 18 6 19 7 20 8 21 9 22 10 23 11
REMARK SMILES IDX 24 12 25 13 26 14 12 15 11 16 10 17 9 18 8 19 7 20 6 21 5 22
REMARK SMILES IDX 4 23 3 24 2 25 1 26
REMARK H PARENT
REMARK Flexibility Score: inf
ROOT
ATOM      1  C   UNL     1      44.121   2.049 132.373  1.00  0.00     0.000 C 
ENDROOT
BRANCH   1   2
ATOM      2  C   UNL     1      44.747   2.134 133.777  1.00  0.00     0.000 C 
BRANCH   2   3
ATOM      3  C   UNL     1      45.921   3.125 133.839  1.00  0.00     0.000 C 
BRANCH   3   4
ATOM      4  C   UNL     1      46.782   3.100 132.562  1.00  0.00     0.000 C 
BRANCH   4   5
ATOM      5  C   UNL     1      46.856   4.481 131.878  1.00  0.00     0.000 C 
BRANCH   5   6
ATOM      6  C   UNL     1      47.804   4.516 130.666  1.00  0.00     0.000 C 
BRANCH   6   7
ATOM      7  C   UNL     1      47.093   4.907 129.365  1.00  0.00     0.000 C 
BRANCH   7   8
ATOM      8  C   UNL     1      47.354   6.377 129.015  1.00  0.00     0.000 C 
BRANCH   8   9
ATOM      9  C   UNL     1      46.043   7.176 129.001  1.00  0.00     0.000 C 
BRANCH   9  10
ATOM     10  C   UNL     1      44.810   6.286 129.230  1.00  0.00     0.006 C 
BRANCH  10  11
ATOM     11  C   UNL     1      43.651   6.642 128.289  1.00  0.00     0.053 C 
BRANCH  11  12
ATOM     12  C   UNL     1      43.502   5.605 127.220  1.00  0.00     0.041 C 
ATOM     13  O   UNL     1      42.507   5.632 126.448  1.00  0.00    -0.550 OA
ATOM     14  O   UNL     1      44.445   4.592 127.094  1.00  0.00    -0.550 OA
ENDBRANCH  11  12
ENDBRANCH  10  11
ENDBRANCH   9  10
ENDBRANCH   8   9
ENDBRANCH   7   8
ENDBRANCH   6   7
ENDBRANCH   5   6
ENDBRANCH   4   5
ENDBRANCH   3   4
ENDBRANCH   2   3
ENDBRANCH   1   2
BRANCH   1  15
ATOM     15  C   UNL     1      43.705   0.618 131.997  1.00  0.00     0.000 C 
BRANCH  15  16
ATOM     16  C   UNL     1      42.200   0.363 132.188  1.00  0.00     0.000 C 
BRANCH  16  17
ATOM     17  C   UNL     1      41.896  -0.662 133.298  1.00  0.00     0.000 C 
BRANCH  17  18
ATOM     18  C   UNL     1      41.745  -0.071 134.715  1.00  0.00    -0.000 C 
BRANCH  18  19
ATOM     19  C   UNL     1      40.457  -0.490 135.456  1.00  0.00    -0.000 C 
BRANCH  19  20
ATOM     20  C   UNL     1      39.403  -1.159 134.552  1.00  0.00    -0.000 C 
BRANCH  20  21
ATOM     21  C   UNL     1      37.979  -1.166 135.149  1.00  0.00    -0.000 C 
BRANCH  21  22
ATOM     22  C   UNL     1      36.964  -1.966 134.310  1.00  0.00    -0.000 C 
BRANCH  22  23
ATOM     23  C   UNL     1      36.315  -1.155 133.172  1.00  0.00    -0.000 C 
BRANCH  23  24
ATOM     24  C   UNL     1      34.777  -1.247 133.173  1.00  0.00    -0.000 C 
BRANCH  24  25
ATOM     25  C   UNL     1      34.249  -2.266 132.152  1.00  0.00    -0.003 C 
ATOM     26  C   UNL     1      32.806  -2.689 132.428  1.00  0.00     0.004 C 
ENDBRANCH  24  25
ENDBRANCH  23  24
ENDBRANCH  22  23
ENDBRANCH  21  22
ENDBRANCH  20  21
ENDBRANCH  19  20
ENDBRANCH  18  19
ENDBRANCH  17  18
ENDBRANCH  16  17
ENDBRANCH  15  16
ENDBRANCH   1  15
TORSDOF 22
ENDMDL
MODEL 9
REMARK VINA RESULT:    -5.112      4.959      9.065
REMARK INTER + INTRA:         -13.679
REMARK INTER:                 -12.103
REMARK INTRA:                  -1.576
REMARK UNBOUND:                -1.993
REMARK SMILES CCCCCCCCCCCCCCCCCCCCCCCC(=O)[O-]
REMARK SMILES IDX 13 1 14 2 15 3 16 4 17 5 18 6 19 7 20 8 21 9 22 10 23 11
REMARK SMILES IDX 24 12 25 13 26 14 12 15 11 16 10 17 9 18 8 19 7 20 6 21 5 22
REMARK SMILES IDX 4 23 3 24 2 25 1 26
REMARK H PARENT
REMARK Flexibility Score: inf
ROOT
ATOM      1  C   UNL     1      42.990   0.627 131.935  1.00  0.00     0.000 C 
ENDROOT
BRANCH   1   2
ATOM      2  C   UNL     1      44.302   0.458 132.721  1.00  0.00     0.000 C 
BRANCH   2   3
ATOM      3  C   UNL     1      44.793   1.779 133.338  1.00  0.00     0.000 C 
BRANCH   3   4
ATOM      4  C   UNL     1      44.087   3.008 132.737  1.00  0.00     0.000 C 
BRANCH   4   5
ATOM      5  C   UNL     1      45.029   3.851 131.851  1.00  0.00     0.000 C 
BRANCH   5   6
ATOM      6  C   UNL     1      46.521   3.573 132.104  1.00  0.00     0.000 C 
BRANCH   6   7
ATOM      7  C   UNL     1      47.442   4.543 131.354  1.00  0.00     0.000 C 
BRANCH   7   8
ATOM      8  C   UNL     1      46.654   5.375 130.335  1.00  0.00     0.000 C 
BRANCH   8   9
ATOM      9  C   UNL     1      47.043   4.993 128.900  1.00  0.00     0.000 C 
BRANCH   9  10
ATOM     10  C   UNL     1      46.046   5.529 127.859  1.00  0.00     0.006 C 
BRANCH  10  11
ATOM     11  C   UNL     1      44.629   4.976 128.070  1.00  0.00     0.053 C 
BRANCH  11  12
ATOM     12  C   UNL     1      43.649   6.092 128.245  1.00  0.00     0.041 C 
ATOM     13  O   UNL     1      42.682   6.217 127.446  1.00  0.00    -0.550 OA
ATOM     14  O   UNL     1      43.816   7.014 129.273  1.00  0.00    -0.550 OA
ENDBRANCH  11  12
ENDBRANCH  10  11
ENDBRANCH   9  10
ENDBRANCH   8   9
ENDBRANCH   7   8
ENDBRANCH   6   7
ENDBRANCH   5   6
ENDBRANCH   4   5
ENDBRANCH   3   4
ENDBRANCH   2   3
ENDBRANCH   1   2
BRANCH   1  15
ATOM     15  C   UNL     1      41.787  -0.009 132.650  1.00  0.00     0.000 C 
BRANCH  15  16
ATOM     16  C   UNL     1      42.189  -0.808 133.902  1.00  0.00     0.000 C 
BRANCH  16  17
ATOM     17  C   UNL     1      41.203  -1.944 134.238  1.00  0.00     0.000 C 
BRANCH  17  18
ATOM     18  C   UNL     1      39.711  -1.551 134.203  1.00  0.00    -0.000 C 
BRANCH  18  19
ATOM     19  C   UNL     1      38.764  -2.551 134.901  1.00  0.00    -0.000 C 
BRANCH  19  20
ATOM     20  C   UNL     1      37.330  -2.554 134.337  1.00  0.00    -0.000 C 
BRANCH  20  21
ATOM     21  C   UNL     1      36.825  -1.161 133.898  1.00  0.00    -0.000 C 
BRANCH  21  22
ATOM     22  C   UNL     1      35.745  -1.215 132.802  1.00  0.00    -0.000 C 
BRANCH  22  23
ATOM     23  C   UNL     1      34.882  -2.492 132.835  1.00  0.00    -0.000 C 
BRANCH  23  24
ATOM     24  C   UNL     1      33.420  -2.237 132.418  1.00  0.00    -0.000 C 
BRANCH  24  25
ATOM     25  C   UNL     1      32.978  -3.135 131.253  1.00  0.00    -0.003 C 
ATOM     26  C   UNL     1      34.070  -3.319 130.199  1.00  0.00     0.004 C 
ENDBRANCH  24  25
ENDBRANCH  23  24
ENDBRANCH  22  23
ENDBRANCH  21  22
ENDBRANCH  20  21
ENDBRANCH  19  20
ENDBRANCH  18  19
ENDBRANCH  17  18
ENDBRANCH  16  17
ENDBRANCH  15  16
ENDBRANCH   1  15
TORSDOF 22
ENDMDL
