MODEL 1
REMARK VINA RESULT:    -6.922      0.000      0.000
REMARK INTER + INTRA:         -11.139
REMARK INTER:                 -10.160
REMARK INTRA:                  -0.979
REMARK UNBOUND:                -0.979
REMARK SMILES O=c1c(O[C@H]2O[C@H](CO)[C@H](O)[C@@H](O)[C@@H]2O)c(-c2ccc(O)c(O)c2)oc2cc(O)cc(O)c12
REMARK SMILES IDX 4 1 3 2 16 3 25 4 2 5 26 6 1 7 33 8 27 9 31 10 28 11 30 12
REMARK SMILES IDX 17 13 20 14 19 15 22 16 18 17 24 18 21 19 23 21 32 23 29 25
REMARK SMILES IDX 5 27 14 28 6 29 12 30 7 31 10 32 15 33 13 35 8 37 9 38 11 40
REMARK H PARENT 21 20 23 22 32 24 29 26 15 34 13 36 9 39 11 41
REMARK Flexibility Score: inf
ROOT
ATOM      1  O   UNL     1       4.948  31.375  70.292  1.00  0.00    -0.454 OA
ENDROOT
BRANCH   1   2
ATOM      2  C   UNL     1       4.230  32.359  69.546  1.00  0.00     0.214 A 
ATOM      3  C   UNL     1       4.765  32.983  68.482  1.00  0.00     0.180 A 
ATOM      4  O   UNL     1       4.051  33.913  67.792  1.00  0.00    -0.452 OA
ATOM      5  C   UNL     1       2.949  32.667  69.949  1.00  0.00     0.239 A 
ATOM      6  C   UNL     1       2.851  34.256  68.106  1.00  0.00     0.146 A 
ATOM      7  O   UNL     1       2.373  32.139  70.930  1.00  0.00    -0.285 OA
ATOM      8  C   UNL     1       2.251  33.636  69.210  1.00  0.00     0.111 A 
ATOM      9  C   UNL     1       2.150  35.234  67.370  1.00  0.00     0.094 A 
ATOM     10  C   UNL     1       0.999  33.953  69.579  1.00  0.00     0.134 A 
ATOM     11  C   UNL     1       0.887  35.519  67.797  1.00  0.00     0.123 A 
ATOM     12  C   UNL     1       0.290  34.927  68.848  1.00  0.00     0.093 A 
BRANCH   3  13
ATOM     13  C   UNL     1       6.090  32.729  67.972  1.00  0.00     0.025 A 
ATOM     14  C   UNL     1       8.599  32.027  66.990  1.00  0.00     0.157 A 
ATOM     15  C   UNL     1       8.495  33.109  67.798  1.00  0.00     0.051 A 
ATOM     16  C   UNL     1       7.488  31.256  66.640  1.00  0.00     0.158 A 
ATOM     17  C   UNL     1       7.199  33.418  68.263  1.00  0.00     0.016 A 
ATOM     18  C   UNL     1       6.268  31.618  67.134  1.00  0.00     0.062 A 
BRANCH  14  19
ATOM     19  O   UNL     1       9.884  31.696  66.504  1.00  0.00    -0.504 OA
ATOM     20  H   UNL     1      10.533  32.500  66.581  1.00  0.00     0.293 HD
ENDBRANCH  14  19
BRANCH  16  21
ATOM     21  O   UNL     1       7.725  30.179  65.818  1.00  0.00    -0.504 OA
ATOM     22  H   UNL     1       8.280  29.379  66.193  1.00  0.00     0.293 HD
ENDBRANCH  16  21
ENDBRANCH   3  13
BRANCH  10  23
ATOM     23  O   UNL     1       0.424  33.314  70.681  1.00  0.00    -0.507 OA
ATOM     24  H   UNL     1      -0.377  32.689  70.500  1.00  0.00     0.293 HD
ENDBRANCH  10  23
BRANCH  11  25
ATOM     25  O   UNL     1       0.129  36.512  67.078  1.00  0.00    -0.508 OA
ATOM     26  H   UNL     1      -0.360  36.158  66.246  1.00  0.00     0.293 HD
ENDBRANCH  11  25
ENDBRANCH   1   2
BRANCH   1  27
ATOM     27  C   UNL     1       5.244  31.640  71.639  1.00  0.00     0.339 C 
ATOM     28  C   UNL     1       6.627  32.446  71.759  1.00  0.00     0.214 C 
ATOM     29  O   UNL     1       5.670  30.788  72.398  1.00  0.00    -0.332 OA
ATOM     30  C   UNL     1       7.176  32.394  73.307  1.00  0.00     0.180 C 
ATOM     31  C   UNL     1       6.072  29.985  73.112  1.00  0.00     0.179 C 
ATOM     32  C   UNL     1       7.492  30.812  73.218  1.00  0.00     0.177 C 
BRANCH  28  33
ATOM     33  O   UNL     1       6.455  33.757  71.511  1.00  0.00    -0.384 OA
ATOM     34  H   UNL     1       7.118  34.065  70.863  1.00  0.00     0.211 HD
ENDBRANCH  28  33
BRANCH  30  35
ATOM     35  O   UNL     1       8.331  33.038  73.344  1.00  0.00    -0.387 OA
ATOM     36  H   UNL     1       8.467  33.694  74.071  1.00  0.00     0.211 HD
ENDBRANCH  30  35
BRANCH  31  37
ATOM     37  C   UNL     1       5.670  29.943  74.570  1.00  0.00     0.191 C 
BRANCH  37  38
ATOM     38  O   UNL     1       4.286  29.875  74.719  1.00  0.00    -0.394 OA
ATOM     39  H   UNL     1       3.968  28.941  74.568  1.00  0.00     0.210 HD
ENDBRANCH  37  38
ENDBRANCH  31  37
BRANCH  32  40
ATOM     40  O   UNL     1       8.074  30.507  74.396  1.00  0.00    -0.387 OA
ATOM     41  H   UNL     1       7.661  29.731  74.877  1.00  0.00     0.211 HD
ENDBRANCH  32  40
ENDBRANCH   1  27
TORSDOF 12
ENDMDL
MODEL 2
REMARK VINA RESULT:    -6.850     15.306     18.319
REMARK INTER + INTRA:         -11.033
REMARK INTER:                  -9.778
REMARK INTRA:                  -1.255
REMARK UNBOUND:                -0.979
REMARK SMILES O=c1c(O[C@H]2O[C@H](CO)[C@H](O)[C@@H](O)[C@@H]2O)c(-c2ccc(O)c(O)c2)oc2cc(O)cc(O)c12
REMARK SMILES IDX 4 1 3 2 16 3 25 4 2 5 26 6 1 7 33 8 27 9 31 10 28 11 30 12
REMARK SMILES IDX 17 13 20 14 19 15 22 16 18 17 24 18 21 19 23 21 32 23 29 25
REMARK SMILES IDX 5 27 14 28 6 29 12 30 7 31 10 32 15 33 13 35 8 37 9 38 11 40
REMARK H PARENT 21 20 23 22 32 24 29 26 15 34 13 36 9 39 11 41
REMARK Flexibility Score: inf
ROOT
ATOM      1  O   UNL     1      15.224  44.710  73.613  1.00  0.00    -0.454 OA
ENDROOT
BRANCH   1   2
ATOM      2  C   UNL     1      16.198  43.780  74.088  1.00  0.00     0.214 A 
ATOM      3  C   UNL     1      17.385  44.174  74.581  1.00  0.00     0.180 A 
ATOM      4  O   UNL     1      18.288  43.259  75.029  1.00  0.00    -0.452 OA
ATOM      5  C   UNL     1      15.891  42.438  74.030  1.00  0.00     0.239 A 
ATOM      6  C   UNL     1      18.077  41.990  75.007  1.00  0.00     0.146 A 
ATOM      7  O   UNL     1      14.811  41.981  73.584  1.00  0.00    -0.285 OA
ATOM      8  C   UNL     1      16.854  41.530  74.499  1.00  0.00     0.111 A 
ATOM      9  C   UNL     1      19.045  41.076  75.471  1.00  0.00     0.094 A 
ATOM     10  C   UNL     1      16.579  40.215  74.456  1.00  0.00     0.134 A 
ATOM     11  C   UNL     1      18.713  39.756  75.395  1.00  0.00     0.123 A 
ATOM     12  C   UNL     1      17.540  39.295  74.920  1.00  0.00     0.093 A 
BRANCH   3  13
ATOM     13  C   UNL     1      17.801  45.550  74.696  1.00  0.00     0.025 A 
ATOM     14  C   UNL     1      18.752  48.165  74.767  1.00  0.00     0.157 A 
ATOM     15  C   UNL     1      18.275  47.615  75.909  1.00  0.00     0.051 A 
ATOM     16  C   UNL     1      18.782  47.460  73.563  1.00  0.00     0.158 A 
ATOM     17  C   UNL     1      17.804  46.288  75.812  1.00  0.00     0.016 A 
ATOM     18  C   UNL     1      18.312  46.178  73.551  1.00  0.00     0.062 A 
BRANCH  14  19
ATOM     19  O   UNL     1      19.226  49.495  74.832  1.00  0.00    -0.504 OA
ATOM     20  H   UNL     1      20.151  49.541  75.297  1.00  0.00     0.293 HD
ENDBRANCH  14  19
BRANCH  16  21
ATOM     21  O   UNL     1      19.296  48.127  72.475  1.00  0.00    -0.504 OA
ATOM     22  H   UNL     1      19.826  49.010  72.638  1.00  0.00     0.293 HD
ENDBRANCH  16  21
ENDBRANCH   3  13
BRANCH  10  23
ATOM     23  O   UNL     1      15.350  39.786  73.951  1.00  0.00    -0.507 OA
ATOM     24  H   UNL     1      15.307  39.552  72.947  1.00  0.00     0.293 HD
ENDBRANCH  10  23
BRANCH  11  25
ATOM     25  O   UNL     1      19.669  38.781  75.856  1.00  0.00    -0.508 OA
ATOM     26  H   UNL     1      20.619  39.148  75.997  1.00  0.00     0.293 HD
ENDBRANCH  11  25
ENDBRANCH   1   2
BRANCH   1  27
ATOM     27  C   UNL     1      14.513  45.474  74.552  1.00  0.00     0.339 C 
ATOM     28  C   UNL     1      13.086  44.801  74.853  1.00  0.00     0.214 C 
ATOM     29  O   UNL     1      13.963  46.521  74.266  1.00  0.00    -0.332 OA
ATOM     30  C   UNL     1      12.105  45.880  75.611  1.00  0.00     0.180 C 
ATOM     31  C   UNL     1      13.444  47.509  73.995  1.00  0.00     0.179 C 
ATOM     32  C   UNL     1      11.985  46.807  74.293  1.00  0.00     0.177 C 
BRANCH  28  33
ATOM     33  O   UNL     1      13.197  43.783  75.725  1.00  0.00    -0.384 OA
ATOM     34  H   UNL     1      12.426  43.770  76.325  1.00  0.00     0.211 HD
ENDBRANCH  28  33
BRANCH  30  35
ATOM     35  O   UNL     1      10.936  45.292  75.803  1.00  0.00    -0.387 OA
ATOM     36  H   UNL     1      10.318  45.701  76.458  1.00  0.00     0.211 HD
ENDBRANCH  30  35
BRANCH  31  37
ATOM     37  C   UNL     1      13.392  48.671  74.962  1.00  0.00     0.191 C 
BRANCH  37  38
ATOM     38  O   UNL     1      14.632  48.904  75.554  1.00  0.00    -0.394 OA
ATOM     39  H   UNL     1      15.331  48.333  75.127  1.00  0.00     0.210 HD
ENDBRANCH  37  38
ENDBRANCH  31  37
BRANCH  32  40
ATOM     40  O   UNL     1      11.108  47.775  74.629  1.00  0.00    -0.387 OA
ATOM     41  H   UNL     1      11.112  48.570  74.020  1.00  0.00     0.211 HD
ENDBRANCH  32  40
ENDBRANCH   1  27
TORSDOF 12
ENDMDL
MODEL 3
REMARK VINA RESULT:    -6.164      1.380      2.418
REMARK INTER + INTRA:         -10.027
REMARK INTER:                  -9.548
REMARK INTRA:                  -0.479
REMARK UNBOUND:                -0.979
REMARK SMILES O=c1c(O[C@H]2O[C@H](CO)[C@H](O)[C@@H](O)[C@@H]2O)c(-c2ccc(O)c(O)c2)oc2cc(O)cc(O)c12
REMARK SMILES IDX 4 1 3 2 16 3 25 4 2 5 26 6 1 7 33 8 27 9 31 10 28 11 30 12
REMARK SMILES IDX 17 13 20 14 19 15 22 16 18 17 24 18 21 19 23 21 32 23 29 25
REMARK SMILES IDX 5 27 14 28 6 29 12 30 7 31 10 32 15 33 13 35 8 37 9 38 11 40
REMARK H PARENT 21 20 23 22 32 24 29 26 15 34 13 36 9 39 11 41
REMARK Flexibility Score: inf
ROOT
ATOM      1  O   UNL     1       6.276  33.500  71.047  1.00  0.00    -0.454 OA
ENDROOT
BRANCH   1   2
ATOM      2  C   UNL     1       5.226  33.930  70.179  1.00  0.00     0.214 A 
ATOM      3  C   UNL     1       5.230  33.661  68.862  1.00  0.00     0.180 A 
ATOM      4  O   UNL     1       4.211  34.084  68.065  1.00  0.00    -0.452 OA
ATOM      5  C   UNL     1       4.185  34.645  70.730  1.00  0.00     0.239 A 
ATOM      6  C   UNL     1       3.205  34.757  68.503  1.00  0.00     0.146 A 
ATOM      7  O   UNL     1       4.101  34.943  71.946  1.00  0.00    -0.285 OA
ATOM      8  C   UNL     1       3.157  35.064  69.870  1.00  0.00     0.111 A 
ATOM      9  C   UNL     1       2.176  35.185  67.640  1.00  0.00     0.094 A 
ATOM     10  C   UNL     1       2.128  35.760  70.381  1.00  0.00     0.134 A 
ATOM     11  C   UNL     1       1.163  35.893  68.215  1.00  0.00     0.123 A 
ATOM     12  C   UNL     1       1.094  36.190  69.527  1.00  0.00     0.093 A 
BRANCH   3  13
ATOM     13  C   UNL     1       6.264  32.914  68.188  1.00  0.00     0.025 A 
ATOM     14  C   UNL     1       8.359  31.660  66.852  1.00  0.00     0.157 A 
ATOM     15  C   UNL     1       7.115  31.133  66.752  1.00  0.00     0.051 A 
ATOM     16  C   UNL     1       8.617  32.811  67.600  1.00  0.00     0.158 A 
ATOM     17  C   UNL     1       6.094  31.810  67.453  1.00  0.00     0.016 A 
ATOM     18  C   UNL     1       7.574  33.410  68.245  1.00  0.00     0.062 A 
BRANCH  14  19
ATOM     19  O   UNL     1       9.404  31.002  66.165  1.00  0.00    -0.504 OA
ATOM     20  H   UNL     1      10.002  31.676  65.655  1.00  0.00     0.293 HD
ENDBRANCH  14  19
BRANCH  16  21
ATOM     21  O   UNL     1       9.920  33.251  67.617  1.00  0.00    -0.504 OA
ATOM     22  H   UNL     1      10.537  32.948  68.402  1.00  0.00     0.293 HD
ENDBRANCH  16  21
ENDBRANCH   3  13
BRANCH  10  23
ATOM     23  O   UNL     1       2.105  36.046  71.748  1.00  0.00    -0.507 OA
ATOM     24  H   UNL     1       1.236  35.831  72.261  1.00  0.00     0.293 HD
ENDBRANCH  10  23
BRANCH  11  25
ATOM     25  O   UNL     1       0.086  36.354  67.375  1.00  0.00    -0.508 OA
ATOM     26  H   UNL     1      -0.829  36.403  67.841  1.00  0.00     0.293 HD
ENDBRANCH  11  25
ENDBRANCH   1   2
BRANCH   1  27
ATOM     27  C   UNL     1       6.348  32.140  71.388  1.00  0.00     0.339 C 
ATOM     28  C   UNL     1       4.972  31.659  72.060  1.00  0.00     0.214 C 
ATOM     29  O   UNL     1       6.966  31.737  72.356  1.00  0.00    -0.332 OA
ATOM     30  C   UNL     1       5.191  30.219  72.821  1.00  0.00     0.180 C 
ATOM     31  C   UNL     1       7.548  31.358  73.269  1.00  0.00     0.179 C 
ATOM     32  C   UNL     1       6.131  30.880  73.957  1.00  0.00     0.177 C 
BRANCH  28  33
ATOM     33  O   UNL     1       4.033  31.404  71.131  1.00  0.00    -0.384 OA
ATOM     34  H   UNL     1       3.205  31.871  71.353  1.00  0.00     0.211 HD
ENDBRANCH  28  33
BRANCH  30  35
ATOM     35  O   UNL     1       4.043  29.886  73.386  1.00  0.00    -0.387 OA
ATOM     36  H   UNL     1       3.980  29.950  74.372  1.00  0.00     0.211 HD
ENDBRANCH  30  35
BRANCH  31  37
ATOM     37  C   UNL     1       8.298  30.044  73.245  1.00  0.00     0.191 C 
BRANCH  37  38
ATOM     38  O   UNL     1       9.165  29.927  74.330  1.00  0.00    -0.394 OA
ATOM     39  H   UNL     1       9.532  29.000  74.381  1.00  0.00     0.210 HD
ENDBRANCH  37  38
ENDBRANCH  31  37
BRANCH  32  40
ATOM     40  O   UNL     1       6.393  29.875  74.817  1.00  0.00    -0.387 OA
ATOM     41  H   UNL     1       5.617  29.601  75.388  1.00  0.00     0.211 HD
ENDBRANCH  32  40
ENDBRANCH   1  27
TORSDOF 12
ENDMDL
MODEL 4
REMARK VINA RESULT:    -6.154     15.065     18.922
REMARK INTER + INTRA:         -10.012
REMARK INTER:                  -9.600
REMARK INTRA:                  -0.412
REMARK UNBOUND:                -0.979
REMARK SMILES O=c1c(O[C@H]2O[C@H](CO)[C@H](O)[C@@H](O)[C@@H]2O)c(-c2ccc(O)c(O)c2)oc2cc(O)cc(O)c12
REMARK SMILES IDX 4 1 3 2 16 3 25 4 2 5 26 6 1 7 33 8 27 9 31 10 28 11 30 12
REMARK SMILES IDX 17 13 20 14 19 15 22 16 18 17 24 18 21 19 23 21 32 23 29 25
REMARK SMILES IDX 5 27 14 28 6 29 12 30 7 31 10 32 15 33 13 35 8 37 9 38 11 40
REMARK H PARENT 21 20 23 22 32 24 29 26 15 34 13 36 9 39 11 41
REMARK Flexibility Score: inf
ROOT
ATOM      1  O   UNL     1      17.929  43.656  75.994  1.00  0.00    -0.454 OA
ENDROOT
BRANCH   1   2
ATOM      2  C   UNL     1      18.267  42.369  76.513  1.00  0.00     0.214 A 
ATOM      3  C   UNL     1      18.622  42.185  77.797  1.00  0.00     0.180 A 
ATOM      4  O   UNL     1      18.933  40.943  78.258  1.00  0.00    -0.452 OA
ATOM      5  C   UNL     1      18.221  41.294  75.653  1.00  0.00     0.239 A 
ATOM      6  C   UNL     1      18.916  39.890  77.518  1.00  0.00     0.146 A 
ATOM      7  O   UNL     1      17.905  41.374  74.442  1.00  0.00    -0.285 OA
ATOM      8  C   UNL     1      18.554  40.032  76.171  1.00  0.00     0.111 A 
ATOM      9  C   UNL     1      19.257  38.623  78.034  1.00  0.00     0.094 A 
ATOM     10  C   UNL     1      18.516  38.966  75.354  1.00  0.00     0.134 A 
ATOM     11  C   UNL     1      19.207  37.581  77.156  1.00  0.00     0.123 A 
ATOM     12  C   UNL     1      18.852  37.696  75.862  1.00  0.00     0.093 A 
BRANCH   3  13
ATOM     13  C   UNL     1      18.691  43.237  78.781  1.00  0.00     0.025 A 
ATOM     14  C   UNL     1      18.609  45.250  80.702  1.00  0.00     0.157 A 
ATOM     15  C   UNL     1      19.534  45.329  79.715  1.00  0.00     0.051 A 
ATOM     16  C   UNL     1      17.699  44.195  80.779  1.00  0.00     0.158 A 
ATOM     17  C   UNL     1      19.530  44.278  78.771  1.00  0.00     0.016 A 
ATOM     18  C   UNL     1      17.756  43.220  79.826  1.00  0.00     0.062 A 
BRANCH  14  19
ATOM     19  O   UNL     1      18.593  46.285  81.664  1.00  0.00    -0.504 OA
ATOM     20  H   UNL     1      18.048  47.100  81.329  1.00  0.00     0.293 HD
ENDBRANCH  14  19
BRANCH  16  21
ATOM     21  O   UNL     1      16.806  44.233  81.824  1.00  0.00    -0.504 OA
ATOM     22  H   UNL     1      15.789  44.124  81.615  1.00  0.00     0.293 HD
ENDBRANCH  16  21
ENDBRANCH   3  13
BRANCH  10  23
ATOM     23  O   UNL     1      18.146  39.137  74.018  1.00  0.00    -0.507 OA
ATOM     24  H   UNL     1      18.352  38.363  73.368  1.00  0.00     0.293 HD
ENDBRANCH  10  23
BRANCH  11  25
ATOM     25  O   UNL     1      19.547  36.265  77.635  1.00  0.00    -0.508 OA
ATOM     26  H   UNL     1      18.966  35.508  77.253  1.00  0.00     0.293 HD
ENDBRANCH  11  25
ENDBRANCH   1   2
BRANCH   1  27
ATOM     27  C   UNL     1      16.935  43.741  75.006  1.00  0.00     0.339 C 
ATOM     28  C   UNL     1      16.980  45.177  74.290  1.00  0.00     0.214 C 
ATOM     29  O   UNL     1      15.758  43.905  75.271  1.00  0.00    -0.332 OA
ATOM     30  C   UNL     1      15.592  45.429  73.448  1.00  0.00     0.180 C 
ATOM     31  C   UNL     1      14.649  44.061  75.521  1.00  0.00     0.179 C 
ATOM     32  C   UNL     1      14.708  45.538  74.796  1.00  0.00     0.177 C 
BRANCH  28  33
ATOM     33  O   UNL     1      17.948  45.232  73.358  1.00  0.00    -0.384 OA
ATOM     34  H   UNL     1      17.630  45.715  72.571  1.00  0.00     0.211 HD
ENDBRANCH  28  33
BRANCH  30  35
ATOM     35  O   UNL     1      15.663  46.635  72.910  1.00  0.00    -0.387 OA
ATOM     36  H   UNL     1      16.315  46.774  72.179  1.00  0.00     0.211 HD
ENDBRANCH  30  35
BRANCH  31  37
ATOM     37  C   UNL     1      13.552  43.403  74.714  1.00  0.00     0.191 C 
BRANCH  37  38
ATOM     38  O   UNL     1      14.021  42.291  74.018  1.00  0.00    -0.394 OA
ATOM     39  H   UNL     1      13.557  42.213  73.138  1.00  0.00     0.210 HD
ENDBRANCH  37  38
ENDBRANCH  31  37
BRANCH  32  40
ATOM     40  O   UNL     1      13.467  45.854  74.373  1.00  0.00    -0.387 OA
ATOM     41  H   UNL     1      13.165  46.777  74.620  1.00  0.00     0.211 HD
ENDBRANCH  32  40
ENDBRANCH   1  27
TORSDOF 12
ENDMDL
MODEL 5
REMARK VINA RESULT:    -5.970     15.965     19.104
REMARK INTER + INTRA:          -9.742
REMARK INTER:                  -8.755
REMARK INTRA:                  -0.986
REMARK UNBOUND:                -0.979
REMARK SMILES O=c1c(O[C@H]2O[C@H](CO)[C@H](O)[C@@H](O)[C@@H]2O)c(-c2ccc(O)c(O)c2)oc2cc(O)cc(O)c12
REMARK SMILES IDX 4 1 3 2 16 3 25 4 2 5 26 6 1 7 33 8 27 9 31 10 28 11 30 12
REMARK SMILES IDX 17 13 20 14 19 15 22 16 18 17 24 18 21 19 23 21 32 23 29 25
REMARK SMILES IDX 5 27 14 28 6 29 12 30 7 31 10 32 15 33 13 35 8 37 9 38 11 40
REMARK H PARENT 21 20 23 22 32 24 29 26 15 34 13 36 9 39 11 41
REMARK Flexibility Score: inf
ROOT
ATOM      1  O   UNL     1      17.397  45.754  75.556  1.00  0.00    -0.454 OA
ENDROOT
BRANCH   1   2
ATOM      2  C   UNL     1      17.019  44.431  75.175  1.00  0.00     0.214 A 
ATOM      3  C   UNL     1      15.772  44.129  74.774  1.00  0.00     0.180 A 
ATOM      4  O   UNL     1      15.449  42.857  74.414  1.00  0.00    -0.452 OA
ATOM      5  C   UNL     1      17.980  43.444  75.230  1.00  0.00     0.239 A 
ATOM      6  C   UNL     1      16.287  41.881  74.439  1.00  0.00     0.146 A 
ATOM      7  O   UNL     1      19.165  43.635  75.594  1.00  0.00    -0.285 OA
ATOM      8  C   UNL     1      17.600  42.146  74.853  1.00  0.00     0.111 A 
ATOM      9  C   UNL     1      15.906  40.575  74.069  1.00  0.00     0.094 A 
ATOM     10  C   UNL     1      18.518  41.166  74.895  1.00  0.00     0.134 A 
ATOM     11  C   UNL     1      16.878  39.622  74.138  1.00  0.00     0.123 A 
ATOM     12  C   UNL     1      18.146  39.858  74.524  1.00  0.00     0.093 A 
BRANCH   3  13
ATOM     13  C   UNL     1      14.698  45.086  74.671  1.00  0.00     0.025 A 
ATOM     14  C   UNL     1      12.486  46.764  74.468  1.00  0.00     0.157 A 
ATOM     15  C   UNL     1      13.650  47.147  73.890  1.00  0.00     0.051 A 
ATOM     16  C   UNL     1      12.366  45.556  75.157  1.00  0.00     0.158 A 
ATOM     17  C   UNL     1      14.737  46.258  74.027  1.00  0.00     0.016 A 
ATOM     18  C   UNL     1      13.462  44.748  75.243  1.00  0.00     0.062 A 
BRANCH  14  19
ATOM     19  O   UNL     1      11.381  47.638  74.352  1.00  0.00    -0.504 OA
ATOM     20  H   UNL     1      10.843  47.682  75.236  1.00  0.00     0.293 HD
ENDBRANCH  14  19
BRANCH  16  21
ATOM     21  O   UNL     1      11.131  45.278  75.694  1.00  0.00    -0.504 OA
ATOM     22  H   UNL     1      11.084  44.906  76.668  1.00  0.00     0.293 HD
ENDBRANCH  16  21
ENDBRANCH   3  13
BRANCH  10  23
ATOM     23  O   UNL     1      19.819  41.460  75.306  1.00  0.00    -0.507 OA
ATOM     24  H   UNL     1      19.929  42.009  76.173  1.00  0.00     0.293 HD
ENDBRANCH  10  23
BRANCH  11  25
ATOM     25  O   UNL     1      16.539  38.270  73.771  1.00  0.00    -0.508 OA
ATOM     26  H   UNL     1      15.534  38.106  73.626  1.00  0.00     0.293 HD
ENDBRANCH  11  25
ENDBRANCH   1   2
BRANCH   1  27
ATOM     27  C   UNL     1      18.394  46.407  74.812  1.00  0.00     0.339 C 
ATOM     28  C   UNL     1      18.912  47.709  75.595  1.00  0.00     0.214 C 
ATOM     29  O   UNL     1      18.144  47.088  73.835  1.00  0.00    -0.332 OA
ATOM     30  C   UNL     1      19.753  48.682  74.572  1.00  0.00     0.180 C 
ATOM     31  C   UNL     1      17.908  47.731  72.914  1.00  0.00     0.179 C 
ATOM     32  C   UNL     1      18.429  49.064  73.729  1.00  0.00     0.177 C 
BRANCH  28  33
ATOM     33  O   UNL     1      19.800  47.387  76.552  1.00  0.00    -0.384 OA
ATOM     34  H   UNL     1      20.020  46.436  76.499  1.00  0.00     0.211 HD
ENDBRANCH  28  33
BRANCH  30  35
ATOM     35  O   UNL     1      20.125  49.753  75.253  1.00  0.00    -0.387 OA
ATOM     36  H   UNL     1      19.441  50.446  75.429  1.00  0.00     0.211 HD
ENDBRANCH  30  35
BRANCH  31  37
ATOM     37  C   UNL     1      18.826  47.768  71.713  1.00  0.00     0.191 C 
BRANCH  37  38
ATOM     38  O   UNL     1      18.163  48.217  70.572  1.00  0.00    -0.394 OA
ATOM     39  H   UNL     1      17.380  47.631  70.375  1.00  0.00     0.210 HD
ENDBRANCH  37  38
ENDBRANCH  31  37
BRANCH  32  40
ATOM     40  O   UNL     1      18.842  49.978  72.829  1.00  0.00    -0.387 OA
ATOM     41  H   UNL     1      19.826  50.164  72.845  1.00  0.00     0.211 HD
ENDBRANCH  32  40
ENDBRANCH   1  27
TORSDOF 12
ENDMDL
MODEL 6
REMARK VINA RESULT:    -5.501      1.988      6.433
REMARK INTER + INTRA:          -9.053
REMARK INTER:                  -8.165
REMARK INTRA:                  -0.887
REMARK UNBOUND:                -0.979
REMARK SMILES O=c1c(O[C@H]2O[C@H](CO)[C@H](O)[C@@H](O)[C@@H]2O)c(-c2ccc(O)c(O)c2)oc2cc(O)cc(O)c12
REMARK SMILES IDX 4 1 3 2 16 3 25 4 2 5 26 6 1 7 33 8 27 9 31 10 28 11 30 12
REMARK SMILES IDX 17 13 20 14 19 15 22 16 18 17 24 18 21 19 23 21 32 23 29 25
REMARK SMILES IDX 5 27 14 28 6 29 12 30 7 31 10 32 15 33 13 35 8 37 9 38 11 40
REMARK H PARENT 21 20 23 22 32 24 29 26 15 34 13 36 9 39 11 41
REMARK Flexibility Score: inf
ROOT
ATOM      1  O   UNL     1       2.790  32.168  69.469  1.00  0.00    -0.454 OA
ENDROOT
BRANCH   1   2
ATOM      2  C   UNL     1       3.851  31.858  70.373  1.00  0.00     0.214 A 
ATOM      3  C   UNL     1       5.128  32.198  70.125  1.00  0.00     0.180 A 
ATOM      4  O   UNL     1       6.113  31.890  71.012  1.00  0.00    -0.452 OA
ATOM      5  C   UNL     1       3.534  31.187  71.534  1.00  0.00     0.239 A 
ATOM      6  C   UNL     1       5.898  31.264  72.115  1.00  0.00     0.146 A 
ATOM      7  O   UNL     1       2.373  30.828  71.846  1.00  0.00    -0.285 OA
ATOM      8  C   UNL     1       4.583  30.886  72.418  1.00  0.00     0.111 A 
ATOM      9  C   UNL     1       6.951  30.954  73.001  1.00  0.00     0.094 A 
ATOM     10  C   UNL     1       4.301  30.234  73.558  1.00  0.00     0.134 A 
ATOM     11  C   UNL     1       6.605  30.286  74.137  1.00  0.00     0.123 A 
ATOM     12  C   UNL     1       5.346  29.923  74.451  1.00  0.00     0.093 A 
BRANCH   3  13
ATOM     13  C   UNL     1       5.565  32.910  68.949  1.00  0.00     0.025 A 
ATOM     14  C   UNL     1       6.497  34.430  66.811  1.00  0.00     0.157 A 
ATOM     15  C   UNL     1       5.333  33.753  66.669  1.00  0.00     0.051 A 
ATOM     16  C   UNL     1       7.237  34.389  67.994  1.00  0.00     0.158 A 
ATOM     17  C   UNL     1       4.911  32.997  67.785  1.00  0.00     0.016 A 
ATOM     18  C   UNL     1       6.760  33.639  69.030  1.00  0.00     0.062 A 
BRANCH  14  19
ATOM     19  O   UNL     1       6.947  35.191  65.709  1.00  0.00    -0.504 OA
ATOM     20  H   UNL     1       7.435  36.051  66.020  1.00  0.00     0.293 HD
ENDBRANCH  14  19
BRANCH  16  21
ATOM     21  O   UNL     1       8.399  35.124  68.015  1.00  0.00    -0.504 OA
ATOM     22  H   UNL     1       9.047  35.008  68.825  1.00  0.00     0.293 HD
ENDBRANCH  16  21
ENDBRANCH   3  13
BRANCH  10  23
ATOM     23  O   UNL     1       2.981  29.875  73.837  1.00  0.00    -0.507 OA
ATOM     24  H   UNL     1       2.560  30.251  74.701  1.00  0.00     0.293 HD
ENDBRANCH  10  23
BRANCH  11  25
ATOM     25  O   UNL     1       7.645  29.945  75.076  1.00  0.00    -0.508 OA
ATOM     26  H   UNL     1       7.812  30.652  75.803  1.00  0.00     0.293 HD
ENDBRANCH  11  25
ENDBRANCH   1   2
BRANCH   1  27
ATOM     27  C   UNL     1       1.947  33.250  69.771  1.00  0.00     0.339 C 
ATOM     28  C   UNL     1       1.147  33.716  68.459  1.00  0.00     0.214 C 
ATOM     29  O   UNL     1       2.362  34.383  69.926  1.00  0.00    -0.332 OA
ATOM     30  C   UNL     1       0.492  35.204  68.700  1.00  0.00     0.180 C 
ATOM     31  C   UNL     1       2.754  35.452  70.071  1.00  0.00     0.179 C 
ATOM     32  C   UNL     1       1.941  35.919  68.717  1.00  0.00     0.177 C 
BRANCH  28  33
ATOM     33  O   UNL     1       0.088  32.922  68.221  1.00  0.00    -0.384 OA
ATOM     34  H   UNL     1      -0.724  33.329  68.581  1.00  0.00     0.211 HD
ENDBRANCH  28  33
BRANCH  30  35
ATOM     35  O   UNL     1      -0.122  35.557  67.583  1.00  0.00    -0.387 OA
ATOM     36  H   UNL     1      -0.086  36.510  67.320  1.00  0.00     0.211 HD
ENDBRANCH  30  35
BRANCH  31  37
ATOM     37  C   UNL     1       2.148  36.390  71.092  1.00  0.00     0.191 C 
BRANCH  37  38
ATOM     38  O   UNL     1       2.546  36.066  72.387  1.00  0.00    -0.394 OA
ATOM     39  H   UNL     1       1.838  36.324  73.041  1.00  0.00     0.210 HD
ENDBRANCH  37  38
ENDBRANCH  31  37
BRANCH  32  40
ATOM     40  O   UNL     1       1.677  37.238  68.814  1.00  0.00    -0.387 OA
ATOM     41  H   UNL     1       1.950  37.655  69.682  1.00  0.00     0.211 HD
ENDBRANCH  32  40
ENDBRANCH   1  27
TORSDOF 12
ENDMDL
MODEL 7
REMARK VINA RESULT:    -5.328     16.844     19.820
REMARK INTER + INTRA:          -8.799
REMARK INTER:                  -7.419
REMARK INTRA:                  -1.380
REMARK UNBOUND:                -0.979
REMARK SMILES O=c1c(O[C@H]2O[C@H](CO)[C@H](O)[C@@H](O)[C@@H]2O)c(-c2ccc(O)c(O)c2)oc2cc(O)cc(O)c12
REMARK SMILES IDX 4 1 3 2 16 3 25 4 2 5 26 6 1 7 33 8 27 9 31 10 28 11 30 12
REMARK SMILES IDX 17 13 20 14 19 15 22 16 18 17 24 18 21 19 23 21 32 23 29 25
REMARK SMILES IDX 5 27 14 28 6 29 12 30 7 31 10 32 15 33 13 35 8 37 9 38 11 40
REMARK H PARENT 21 20 23 22 32 24 29 26 15 34 13 36 9 39 11 41
REMARK Flexibility Score: inf
ROOT
ATOM      1  O   UNL     1      19.660  44.886  76.803  1.00  0.00    -0.454 OA
ENDROOT
BRANCH   1   2
ATOM      2  C   UNL     1      18.913  43.851  76.163  1.00  0.00     0.214 A 
ATOM      3  C   UNL     1      18.062  44.100  75.153  1.00  0.00     0.180 A 
ATOM      4  O   UNL     1      17.369  43.087  74.565  1.00  0.00    -0.452 OA
ATOM      5  C   UNL     1      19.085  42.559  76.613  1.00  0.00     0.239 A 
ATOM      6  C   UNL     1      17.473  41.856  74.927  1.00  0.00     0.146 A 
ATOM      7  O   UNL     1      19.854  42.236  77.550  1.00  0.00    -0.285 OA
ATOM      8  C   UNL     1      18.347  41.547  75.979  1.00  0.00     0.111 A 
ATOM      9  C   UNL     1      16.728  40.839  74.297  1.00  0.00     0.094 A 
ATOM     10  C   UNL     1      18.497  40.279  76.396  1.00  0.00     0.134 A 
ATOM     11  C   UNL     1      16.917  39.574  74.768  1.00  0.00     0.123 A 
ATOM     12  C   UNL     1      17.759  39.255  75.770  1.00  0.00     0.093 A 
BRANCH   3  13
ATOM     13  C   UNL     1      17.817  45.409  74.601  1.00  0.00     0.025 A 
ATOM     14  C   UNL     1      17.133  47.900  73.564  1.00  0.00     0.157 A 
ATOM     15  C   UNL     1      18.223  47.267  73.070  1.00  0.00     0.051 A 
ATOM     16  C   UNL     1      16.345  47.340  74.571  1.00  0.00     0.158 A 
ATOM     17  C   UNL     1      18.523  46.009  73.636  1.00  0.00     0.016 A 
ATOM     18  C   UNL     1      16.698  46.117  75.064  1.00  0.00     0.062 A 
BRANCH  14  19
ATOM     19  O   UNL     1      16.811  49.164  73.020  1.00  0.00    -0.504 OA
ATOM     20  H   UNL     1      16.123  49.664  73.613  1.00  0.00     0.293 HD
ENDBRANCH  14  19
BRANCH  16  21
ATOM     21  O   UNL     1      15.261  48.079  74.983  1.00  0.00    -0.504 OA
ATOM     22  H   UNL     1      14.938  47.982  75.970  1.00  0.00     0.293 HD
ENDBRANCH  16  21
ENDBRANCH   3  13
BRANCH  10  23
ATOM     23  O   UNL     1      19.380  39.999  77.442  1.00  0.00    -0.507 OA
ATOM     24  H   UNL     1      19.039  39.382  78.195  1.00  0.00     0.293 HD
ENDBRANCH  10  23
BRANCH  11  25
ATOM     25  O   UNL     1      16.178  38.498  74.157  1.00  0.00    -0.508 OA
ATOM     26  H   UNL     1      16.416  37.561  74.508  1.00  0.00     0.293 HD
ENDBRANCH  11  25
ENDBRANCH   1   2
BRANCH   1  27
ATOM     27  C   UNL     1      19.022  45.666  77.781  1.00  0.00     0.339 C 
ATOM     28  C   UNL     1      19.656  47.140  77.821  1.00  0.00     0.214 C 
ATOM     29  O   UNL     1      19.240  45.535  78.971  1.00  0.00    -0.332 OA
ATOM     30  C   UNL     1      19.214  47.905  79.206  1.00  0.00     0.180 C 
ATOM     31  C   UNL     1      19.448  45.412  80.093  1.00  0.00     0.179 C 
ATOM     32  C   UNL     1      20.109  46.920  80.122  1.00  0.00     0.177 C 
BRANCH  28  33
ATOM     33  O   UNL     1      19.161  47.916  76.840  1.00  0.00    -0.384 OA
ATOM     34  H   UNL     1      18.366  48.389  77.156  1.00  0.00     0.211 HD
ENDBRANCH  28  33
BRANCH  30  35
ATOM     35  O   UNL     1      19.790  49.096  79.208  1.00  0.00    -0.387 OA
ATOM     36  H   UNL     1      20.560  49.234  79.814  1.00  0.00     0.211 HD
ENDBRANCH  30  35
BRANCH  31  37
ATOM     37  C   UNL     1      18.354  45.573  81.126  1.00  0.00     0.191 C 
BRANCH  37  38
ATOM     38  O   UNL     1      17.494  44.476  81.139  1.00  0.00    -0.394 OA
ATOM     39  H   UNL     1      16.547  44.779  81.047  1.00  0.00     0.210 HD
ENDBRANCH  37  38
ENDBRANCH  31  37
BRANCH  32  40
ATOM     40  O   UNL     1      19.995  47.410  81.373  1.00  0.00    -0.387 OA
ATOM     41  H   UNL     1      20.697  48.079  81.624  1.00  0.00     0.211 HD
ENDBRANCH  32  40
ENDBRANCH   1  27
TORSDOF 12
ENDMDL
MODEL 8
REMARK VINA RESULT:    -4.116     16.004     18.958
REMARK INTER + INTRA:          -7.020
REMARK INTER:                  -5.981
REMARK INTRA:                  -1.039
REMARK UNBOUND:                -0.979
REMARK SMILES O=c1c(O[C@H]2O[C@H](CO)[C@H](O)[C@@H](O)[C@@H]2O)c(-c2ccc(O)c(O)c2)oc2cc(O)cc(O)c12
REMARK SMILES IDX 4 1 3 2 16 3 25 4 2 5 26 6 1 7 33 8 27 9 31 10 28 11 30 12
REMARK SMILES IDX 17 13 20 14 19 15 22 16 18 17 24 18 21 19 23 21 32 23 29 25
REMARK SMILES IDX 5 27 14 28 6 29 12 30 7 31 10 32 15 33 13 35 8 37 9 38 11 40
REMARK H PARENT 21 20 23 22 32 24 29 26 15 34 13 36 9 39 11 41
REMARK Flexibility Score: inf
ROOT
ATOM      1  O   UNL     1      17.332  46.065  74.620  1.00  0.00    -0.454 OA
ENDROOT
BRANCH   1   2
ATOM      2  C   UNL     1      16.950  44.697  74.470  1.00  0.00     0.214 A 
ATOM      3  C   UNL     1      15.663  44.318  74.382  1.00  0.00     0.180 A 
ATOM      4  O   UNL     1      15.336  43.005  74.236  1.00  0.00    -0.452 OA
ATOM      5  C   UNL     1      17.949  43.750  74.418  1.00  0.00     0.239 A 
ATOM      6  C   UNL     1      16.209  42.062  74.180  1.00  0.00     0.146 A 
ATOM      7  O   UNL     1      19.173  44.012  74.495  1.00  0.00    -0.285 OA
ATOM      8  C   UNL     1      17.564  42.407  74.270  1.00  0.00     0.111 A 
ATOM      9  C   UNL     1      15.825  40.713  74.040  1.00  0.00     0.094 A 
ATOM     10  C   UNL     1      18.519  41.463  74.214  1.00  0.00     0.134 A 
ATOM     11  C   UNL     1      16.837  39.800  73.996  1.00  0.00     0.123 A 
ATOM     12  C   UNL     1      18.144  40.113  74.071  1.00  0.00     0.093 A 
BRANCH   3  13
ATOM     13  C   UNL     1      14.544  45.228  74.415  1.00  0.00     0.025 A 
ATOM     14  C   UNL     1      12.254  46.809  74.491  1.00  0.00     0.157 A 
ATOM     15  C   UNL     1      13.321  47.242  73.778  1.00  0.00     0.051 A 
ATOM     16  C   UNL     1      12.270  45.596  75.183  1.00  0.00     0.158 A 
ATOM     17  C   UNL     1      14.455  46.400  73.779  1.00  0.00     0.016 A 
ATOM     18  C   UNL     1      13.402  44.836  75.130  1.00  0.00     0.062 A 
BRANCH  14  19
ATOM     19  O   UNL     1      11.107  47.634  74.514  1.00  0.00    -0.504 OA
ATOM     20  H   UNL     1      11.360  48.624  74.681  1.00  0.00     0.293 HD
ENDBRANCH  14  19
BRANCH  16  21
ATOM     21  O   UNL     1      11.122  45.265  75.864  1.00  0.00    -0.504 OA
ATOM     22  H   UNL     1      11.023  45.577  76.855  1.00  0.00     0.293 HD
ENDBRANCH  16  21
ENDBRANCH   3  13
BRANCH  10  23
ATOM     23  O   UNL     1      19.861  41.838  74.300  1.00  0.00    -0.507 OA
ATOM     24  H   UNL     1      20.543  41.101  74.543  1.00  0.00     0.293 HD
ENDBRANCH  10  23
BRANCH  11  25
ATOM     25  O   UNL     1      16.496  38.406  73.853  1.00  0.00    -0.508 OA
ATOM     26  H   UNL     1      16.604  38.035  72.901  1.00  0.00     0.293 HD
ENDBRANCH  11  25
ENDBRANCH   1   2
BRANCH   1  27
ATOM     27  C   UNL     1      17.490  46.579  75.918  1.00  0.00     0.339 C 
ATOM     28  C   UNL     1      17.276  48.170  75.918  1.00  0.00     0.214 C 
ATOM     29  O   UNL     1      18.580  46.721  76.440  1.00  0.00    -0.332 OA
ATOM     30  C   UNL     1      17.855  48.815  77.314  1.00  0.00     0.180 C 
ATOM     31  C   UNL     1      19.608  46.856  76.932  1.00  0.00     0.179 C 
ATOM     32  C   UNL     1      19.386  48.487  76.916  1.00  0.00     0.177 C 
BRANCH  28  33
ATOM     33  O   UNL     1      15.970  48.490  75.920  1.00  0.00    -0.384 OA
ATOM     34  H   UNL     1      15.627  48.493  76.835  1.00  0.00     0.211 HD
ENDBRANCH  28  33
BRANCH  30  35
ATOM     35  O   UNL     1      17.689  50.125  77.249  1.00  0.00    -0.387 OA
ATOM     36  H   UNL     1      16.784  50.464  77.038  1.00  0.00     0.211 HD
ENDBRANCH  30  35
BRANCH  31  37
ATOM     37  C   UNL     1      19.819  46.622  78.412  1.00  0.00     0.191 C 
BRANCH  37  38
ATOM     38  O   UNL     1      19.226  45.433  78.834  1.00  0.00    -0.394 OA
ATOM     39  H   UNL     1      19.009  45.483  79.807  1.00  0.00     0.210 HD
ENDBRANCH  37  38
ENDBRANCH  31  37
BRANCH  32  40
ATOM     40  O   UNL     1      20.125  49.026  77.907  1.00  0.00    -0.387 OA
ATOM     41  H   UNL     1      19.661  49.743  78.430  1.00  0.00     0.211 HD
ENDBRANCH  32  40
ENDBRANCH   1  27
TORSDOF 12
ENDMDL
