MODEL 1
REMARK VINA RESULT:    -4.131      0.000      0.000
REMARK INTER + INTRA:          -8.335
REMARK INTER:                  -7.029
REMARK INTRA:                  -1.306
REMARK UNBOUND:                -1.306
REMARK SMILES CCCCCCCCCCCCCC(=O)[O-]
REMARK SMILES IDX 8 1 9 2 10 3 11 4 12 5 13 6 14 7 15 8 16 9 7 10 6 11 5 12
REMARK SMILES IDX 4 13 3 14 2 15 1 16
REMARK H PARENT
REMARK Flexibility Score: inf
ROOT
ATOM      1  C   UNL     1      -2.682 -33.949  46.482  1.00  0.00     0.000 C 
ENDROOT
BRANCH   1   2
ATOM      2  C   UNL     1      -1.246 -34.166  45.982  1.00  0.00     0.000 C 
BRANCH   2   3
ATOM      3  C   UNL     1      -1.040 -35.617  45.522  1.00  0.00     0.000 C 
BRANCH   3   4
ATOM      4  C   UNL     1       0.214 -35.797  44.646  1.00  0.00     0.000 C 
BRANCH   4   5
ATOM      5  C   UNL     1       1.039 -34.516  44.421  1.00  0.00     0.006 C 
BRANCH   5   6
ATOM      6  C   UNL     1       2.444 -34.595  45.030  1.00  0.00     0.053 C 
BRANCH   6   7
ATOM      7  C   UNL     1       2.381 -34.414  46.514  1.00  0.00     0.041 C 
ATOM      8  O   UNL     1       2.234 -33.264  47.006  1.00  0.00    -0.550 OA
ATOM      9  O   UNL     1       2.435 -35.521  47.353  1.00  0.00    -0.550 OA
ENDBRANCH   6   7
ENDBRANCH   5   6
ENDBRANCH   4   5
ENDBRANCH   3   4
ENDBRANCH   2   3
ENDBRANCH   1   2
BRANCH   1  10
ATOM     10  C   UNL     1      -3.213 -35.141  47.294  1.00  0.00     0.000 C 
BRANCH  10  11
ATOM     11  C   UNL     1      -4.587 -34.859  47.928  1.00  0.00    -0.000 C 
BRANCH  11  12
ATOM     12  C   UNL     1      -5.134 -33.473  47.553  1.00  0.00    -0.000 C 
BRANCH  12  13
ATOM     13  C   UNL     1      -6.616 -33.512  47.142  1.00  0.00    -0.000 C 
BRANCH  13  14
ATOM     14  C   UNL     1      -6.896 -34.593  46.077  1.00  0.00    -0.000 C 
BRANCH  14  15
ATOM     15  C   UNL     1      -6.276 -34.281  44.705  1.00  0.00    -0.003 C 
ATOM     16  C   UNL     1      -5.347 -35.384  44.201  1.00  0.00     0.004 C 
ENDBRANCH  14  15
ENDBRANCH  13  14
ENDBRANCH  12  13
ENDBRANCH  11  12
ENDBRANCH  10  11
ENDBRANCH   1  10
TORSDOF 12
ENDMDL
MODEL 2
REMARK VINA RESULT:    -4.055      3.503      7.287
REMARK INTER + INTRA:          -8.206
REMARK INTER:                  -6.833
REMARK INTRA:                  -1.372
REMARK UNBOUND:                -1.306
REMARK SMILES CCCCCCCCCCCCCC(=O)[O-]
REMARK SMILES IDX 8 1 9 2 10 3 11 4 12 5 13 6 14 7 15 8 16 9 7 10 6 11 5 12
REMARK SMILES IDX 4 13 3 14 2 15 1 16
REMARK H PARENT
REMARK Flexibility Score: inf
ROOT
ATOM      1  C   UNL     1      -0.567 -36.522  46.075  1.00  0.00     0.000 C 
ENDROOT
BRANCH   1   2
ATOM      2  C   UNL     1      -1.173 -35.367  46.887  1.00  0.00     0.000 C 
BRANCH   2   3
ATOM      3  C   UNL     1      -1.831 -34.332  45.963  1.00  0.00     0.000 C 
BRANCH   3   4
ATOM      4  C   UNL     1      -3.363 -34.277  46.117  1.00  0.00     0.000 C 
BRANCH   4   5
ATOM      5  C   UNL     1      -4.073 -35.641  46.035  1.00  0.00     0.006 C 
BRANCH   5   6
ATOM      6  C   UNL     1      -5.013 -35.754  44.829  1.00  0.00     0.053 C 
BRANCH   6   7
ATOM      7  C   UNL     1      -6.111 -34.743  44.926  1.00  0.00     0.041 C 
ATOM      8  O   UNL     1      -6.916 -34.773  45.895  1.00  0.00    -0.550 OA
ATOM      9  O   UNL     1      -6.217 -33.738  43.973  1.00  0.00    -0.550 OA
ENDBRANCH   6   7
ENDBRANCH   5   6
ENDBRANCH   4   5
ENDBRANCH   3   4
ENDBRANCH   2   3
ENDBRANCH   1   2
BRANCH   1  10
ATOM     10  C   UNL     1      -0.339 -36.151  44.600  1.00  0.00     0.000 C 
BRANCH  10  11
ATOM     11  C   UNL     1       1.154 -36.015  44.250  1.00  0.00    -0.000 C 
BRANCH  11  12
ATOM     12  C   UNL     1       1.685 -34.592  44.485  1.00  0.00    -0.000 C 
BRANCH  12  13
ATOM     13  C   UNL     1       2.986 -34.575  45.307  1.00  0.00    -0.000 C 
BRANCH  13  14
ATOM     14  C   UNL     1       2.722 -34.753  46.817  1.00  0.00    -0.000 C 
BRANCH  14  15
ATOM     15  C   UNL     1       1.965 -33.575  47.453  1.00  0.00    -0.003 C 
ATOM     16  C   UNL     1       2.891 -32.487  47.991  1.00  0.00     0.004 C 
ENDBRANCH  14  15
ENDBRANCH  13  14
ENDBRANCH  12  13
ENDBRANCH  11  12
ENDBRANCH  10  11
ENDBRANCH   1  10
TORSDOF 12
ENDMDL
MODEL 3
REMARK VINA RESULT:    -4.033      1.202      2.354
REMARK INTER + INTRA:          -8.168
REMARK INTER:                  -7.287
REMARK INTRA:                  -0.881
REMARK UNBOUND:                -1.306
REMARK SMILES CCCCCCCCCCCCCC(=O)[O-]
REMARK SMILES IDX 8 1 9 2 10 3 11 4 12 5 13 6 14 7 15 8 16 9 7 10 6 11 5 12
REMARK SMILES IDX 4 13 3 14 2 15 1 16
REMARK H PARENT
REMARK Flexibility Score: inf
ROOT
ATOM      1  C   UNL     1      -1.956 -34.123  45.935  1.00  0.00     0.000 C 
ENDROOT
BRANCH   1   2
ATOM      2  C   UNL     1      -0.500 -34.598  46.051  1.00  0.00     0.000 C 
BRANCH   2   3
ATOM      3  C   UNL     1       0.056 -35.002  44.677  1.00  0.00     0.000 C 
BRANCH   3   4
ATOM      4  C   UNL     1       1.581 -35.217  44.685  1.00  0.00     0.000 C 
BRANCH   4   5
ATOM      5  C   UNL     1       2.358 -34.321  45.668  1.00  0.00     0.006 C 
BRANCH   5   6
ATOM      6  C   UNL     1       3.250 -35.120  46.627  1.00  0.00     0.053 C 
BRANCH   6   7
ATOM      7  C   UNL     1       3.636 -34.279  47.802  1.00  0.00     0.041 C 
ATOM      8  O   UNL     1       4.397 -34.745  48.691  1.00  0.00    -0.550 OA
ATOM      9  O   UNL     1       3.195 -32.965  47.893  1.00  0.00    -0.550 OA
ENDBRANCH   6   7
ENDBRANCH   5   6
ENDBRANCH   4   5
ENDBRANCH   3   4
ENDBRANCH   2   3
ENDBRANCH   1   2
BRANCH   1  10
ATOM     10  C   UNL     1      -2.956 -35.140  46.509  1.00  0.00     0.000 C 
BRANCH  10  11
ATOM     11  C   UNL     1      -3.342 -36.228  45.490  1.00  0.00    -0.000 C 
BRANCH  11  12
ATOM     12  C   UNL     1      -4.855 -36.276  45.225  1.00  0.00    -0.000 C 
BRANCH  12  13
ATOM     13  C   UNL     1      -5.295 -35.289  44.130  1.00  0.00    -0.000 C 
BRANCH  13  14
ATOM     14  C   UNL     1      -6.404 -34.333  44.619  1.00  0.00    -0.000 C 
BRANCH  14  15
ATOM     15  C   UNL     1      -6.865 -34.612  46.060  1.00  0.00    -0.003 C 
ATOM     16  C   UNL     1      -6.614 -33.441  47.007  1.00  0.00     0.004 C 
ENDBRANCH  14  15
ENDBRANCH  13  14
ENDBRANCH  12  13
ENDBRANCH  11  12
ENDBRANCH  10  11
ENDBRANCH   1  10
TORSDOF 12
ENDMDL
MODEL 4
REMARK VINA RESULT:    -4.026      1.212      2.858
REMARK INTER + INTRA:          -8.157
REMARK INTER:                  -6.945
REMARK INTRA:                  -1.212
REMARK UNBOUND:                -1.306
REMARK SMILES CCCCCCCCCCCCCC(=O)[O-]
REMARK SMILES IDX 8 1 9 2 10 3 11 4 12 5 13 6 14 7 15 8 16 9 7 10 6 11 5 12
REMARK SMILES IDX 4 13 3 14 2 15 1 16
REMARK H PARENT
REMARK Flexibility Score: inf
ROOT
ATOM      1  C   UNL     1      -5.048 -36.450  45.150  1.00  0.00     0.000 C 
ENDROOT
BRANCH   1   2
ATOM      2  C   UNL     1      -3.613 -36.818  45.557  1.00  0.00     0.000 C 
BRANCH   2   3
ATOM      3  C   UNL     1      -2.767 -35.556  45.785  1.00  0.00     0.000 C 
BRANCH   3   4
ATOM      4  C   UNL     1      -1.284 -35.753  45.419  1.00  0.00     0.000 C 
BRANCH   4   5
ATOM      5  C   UNL     1      -0.448 -34.461  45.376  1.00  0.00     0.006 C 
BRANCH   5   6
ATOM      6  C   UNL     1       0.902 -34.645  44.672  1.00  0.00     0.053 C 
BRANCH   6   7
ATOM      7  C   UNL     1       2.027 -34.404  45.628  1.00  0.00     0.041 C 
ATOM      8  O   UNL     1       1.875 -33.616  46.598  1.00  0.00    -0.550 OA
ATOM      9  O   UNL     1       3.227 -35.088  45.476  1.00  0.00    -0.550 OA
ENDBRANCH   6   7
ENDBRANCH   5   6
ENDBRANCH   4   5
ENDBRANCH   3   4
ENDBRANCH   2   3
ENDBRANCH   1   2
BRANCH   1  10
ATOM     10  C   UNL     1      -5.102 -35.235  44.210  1.00  0.00     0.000 C 
BRANCH  10  11
ATOM     11  C   UNL     1      -6.177 -34.214  44.628  1.00  0.00    -0.000 C 
BRANCH  11  12
ATOM     12  C   UNL     1      -6.795 -34.538  45.997  1.00  0.00    -0.000 C 
BRANCH  12  13
ATOM     13  C   UNL     1      -6.434 -33.497  47.071  1.00  0.00    -0.000 C 
BRANCH  13  14
ATOM     14  C   UNL     1      -5.197 -33.915  47.894  1.00  0.00    -0.000 C 
BRANCH  14  15
ATOM     15  C   UNL     1      -4.380 -32.726  48.425  1.00  0.00    -0.003 C 
ATOM     16  C   UNL     1      -2.911 -32.775  48.012  1.00  0.00     0.004 C 
ENDBRANCH  14  15
ENDBRANCH  13  14
ENDBRANCH  12  13
ENDBRANCH  11  12
ENDBRANCH  10  11
ENDBRANCH   1  10
TORSDOF 12
ENDMDL
MODEL 5
REMARK VINA RESULT:    -3.994      2.744      6.863
REMARK INTER + INTRA:          -8.102
REMARK INTER:                  -7.387
REMARK INTRA:                  -0.715
REMARK UNBOUND:                -1.306
REMARK SMILES CCCCCCCCCCCCCC(=O)[O-]
REMARK SMILES IDX 8 1 9 2 10 3 11 4 12 5 13 6 14 7 15 8 16 9 7 10 6 11 5 12
REMARK SMILES IDX 4 13 3 14 2 15 1 16
REMARK H PARENT
REMARK Flexibility Score: inf
ROOT
ATOM      1  C   UNL     1      -3.244 -35.834  45.324  1.00  0.00     0.000 C 
ENDROOT
BRANCH   1   2
ATOM      2  C   UNL     1      -4.718 -36.213  45.117  1.00  0.00     0.000 C 
BRANCH   2   3
ATOM      3  C   UNL     1      -5.386 -35.279  44.097  1.00  0.00     0.000 C 
BRANCH   3   4
ATOM      4  C   UNL     1      -6.188 -34.142  44.758  1.00  0.00     0.000 C 
BRANCH   4   5
ATOM      5  C   UNL     1      -6.669 -34.434  46.191  1.00  0.00     0.006 C 
BRANCH   5   6
ATOM      6  C   UNL     1      -6.399 -33.276  47.160  1.00  0.00     0.053 C 
BRANCH   6   7
ATOM      7  C   UNL     1      -5.145 -33.526  47.936  1.00  0.00     0.041 C 
ATOM      8  O   UNL     1      -4.420 -32.561  48.296  1.00  0.00    -0.550 OA
ATOM      9  O   UNL     1      -4.801 -34.821  48.304  1.00  0.00    -0.550 OA
ENDBRANCH   6   7
ENDBRANCH   5   6
ENDBRANCH   4   5
ENDBRANCH   3   4
ENDBRANCH   2   3
ENDBRANCH   1   2
BRANCH   1  10
ATOM     10  C   UNL     1      -2.320 -37.062  45.372  1.00  0.00     0.000 C 
BRANCH  10  11
ATOM     11  C   UNL     1      -0.992 -36.830  44.628  1.00  0.00    -0.000 C 
BRANCH  11  12
ATOM     12  C   UNL     1       0.009 -36.008  45.455  1.00  0.00    -0.000 C 
BRANCH  12  13
ATOM     13  C   UNL     1       0.399 -34.686  44.771  1.00  0.00    -0.000 C 
BRANCH  13  14
ATOM     14  C   UNL     1       1.911 -34.608  44.474  1.00  0.00    -0.000 C 
BRANCH  14  15
ATOM     15  C   UNL     1       2.787 -34.594  45.738  1.00  0.00    -0.003 C 
ATOM     16  C   UNL     1       2.220 -33.715  46.851  1.00  0.00     0.004 C 
ENDBRANCH  14  15
ENDBRANCH  13  14
ENDBRANCH  12  13
ENDBRANCH  11  12
ENDBRANCH  10  11
ENDBRANCH   1  10
TORSDOF 12
ENDMDL
MODEL 6
REMARK VINA RESULT:    -3.954      1.476      2.866
REMARK INTER + INTRA:          -8.035
REMARK INTER:                  -7.012
REMARK INTRA:                  -1.022
REMARK UNBOUND:                -1.306
REMARK SMILES CCCCCCCCCCCCCC(=O)[O-]
REMARK SMILES IDX 8 1 9 2 10 3 11 4 12 5 13 6 14 7 15 8 16 9 7 10 6 11 5 12
REMARK SMILES IDX 4 13 3 14 2 15 1 16
REMARK H PARENT
REMARK Flexibility Score: inf
ROOT
ATOM      1  C   UNL     1      -0.521 -36.566  44.734  1.00  0.00     0.000 C 
ENDROOT
BRANCH   1   2
ATOM      2  C   UNL     1       0.910 -36.320  44.233  1.00  0.00     0.000 C 
BRANCH   2   3
ATOM      3  C   UNL     1       1.243 -34.820  44.237  1.00  0.00     0.000 C 
BRANCH   3   4
ATOM      4  C   UNL     1       2.588 -34.505  44.917  1.00  0.00     0.000 C 
BRANCH   4   5
ATOM      5  C   UNL     1       3.002 -35.489  46.027  1.00  0.00     0.006 C 
BRANCH   5   6
ATOM      6  C   UNL     1       2.500 -35.070  47.414  1.00  0.00     0.053 C 
BRANCH   6   7
ATOM      7  C   UNL     1       3.307 -33.925  47.938  1.00  0.00     0.041 C 
ATOM      8  O   UNL     1       4.463 -34.123  48.398  1.00  0.00    -0.550 OA
ATOM      9  O   UNL     1       2.804 -32.631  47.874  1.00  0.00    -0.550 OA
ENDBRANCH   6   7
ENDBRANCH   5   6
ENDBRANCH   4   5
ENDBRANCH   3   4
ENDBRANCH   2   3
ENDBRANCH   1   2
BRANCH   1  10
ATOM     10  C   UNL     1      -0.966 -35.533  45.782  1.00  0.00     0.000 C 
BRANCH  10  11
ATOM     11  C   UNL     1      -2.494 -35.351  45.820  1.00  0.00    -0.000 C 
BRANCH  11  12
ATOM     12  C   UNL     1      -3.247 -36.604  45.346  1.00  0.00    -0.000 C 
BRANCH  12  13
ATOM     13  C   UNL     1      -4.729 -36.325  45.042  1.00  0.00    -0.000 C 
BRANCH  13  14
ATOM     14  C   UNL     1      -5.386 -35.436  46.118  1.00  0.00    -0.000 C 
BRANCH  14  15
ATOM     15  C   UNL     1      -6.410 -34.438  45.551  1.00  0.00    -0.003 C 
ATOM     16  C   UNL     1      -6.136 -34.058  44.098  1.00  0.00     0.004 C 
ENDBRANCH  14  15
ENDBRANCH  13  14
ENDBRANCH  12  13
ENDBRANCH  11  12
ENDBRANCH  10  11
ENDBRANCH   1  10
TORSDOF 12
ENDMDL
MODEL 7
REMARK VINA RESULT:    -3.917      3.226      7.024
REMARK INTER + INTRA:          -7.971
REMARK INTER:                  -6.609
REMARK INTRA:                  -1.362
REMARK UNBOUND:                -1.306
REMARK SMILES CCCCCCCCCCCCCC(=O)[O-]
REMARK SMILES IDX 8 1 9 2 10 3 11 4 12 5 13 6 14 7 15 8 16 9 7 10 6 11 5 12
REMARK SMILES IDX 4 13 3 14 2 15 1 16
REMARK H PARENT
REMARK Flexibility Score: inf
ROOT
ATOM      1  C   UNL     1      -1.955 -34.102  46.249  1.00  0.00     0.000 C 
ENDROOT
BRANCH   1   2
ATOM      2  C   UNL     1      -2.474 -33.721  47.644  1.00  0.00     0.000 C 
BRANCH   2   3
ATOM      3  C   UNL     1      -4.008 -33.655  47.659  1.00  0.00     0.000 C 
BRANCH   3   4
ATOM      4  C   UNL     1      -4.666 -35.019  47.938  1.00  0.00     0.000 C 
BRANCH   4   5
ATOM      5  C   UNL     1      -5.757 -35.432  46.934  1.00  0.00     0.006 C 
BRANCH   5   6
ATOM      6  C   UNL     1      -6.242 -34.266  46.064  1.00  0.00     0.053 C 
BRANCH   6   7
ATOM      7  C   UNL     1      -5.944 -34.530  44.622  1.00  0.00     0.041 C 
ATOM      8  O   UNL     1      -6.433 -33.790  43.728  1.00  0.00    -0.550 OA
ATOM      9  O   UNL     1      -5.086 -35.564  44.268  1.00  0.00    -0.550 OA
ENDBRANCH   6   7
ENDBRANCH   5   6
ENDBRANCH   4   5
ENDBRANCH   3   4
ENDBRANCH   2   3
ENDBRANCH   1   2
BRANCH   1  10
ATOM     10  C   UNL     1      -1.440 -35.549  46.185  1.00  0.00     0.000 C 
BRANCH  10  11
ATOM     11  C   UNL     1      -0.441 -35.770  45.035  1.00  0.00    -0.000 C 
BRANCH  11  12
ATOM     12  C   UNL     1       0.350 -34.498  44.691  1.00  0.00    -0.000 C 
BRANCH  12  13
ATOM     13  C   UNL     1       1.867 -34.745  44.620  1.00  0.00    -0.000 C 
BRANCH  13  14
ATOM     14  C   UNL     1       2.519 -34.760  46.018  1.00  0.00    -0.000 C 
BRANCH  14  15
ATOM     15  C   UNL     1       2.040 -33.622  46.934  1.00  0.00    -0.003 C 
ATOM     16  C   UNL     1       1.412 -34.121  48.233  1.00  0.00     0.004 C 
ENDBRANCH  14  15
ENDBRANCH  13  14
ENDBRANCH  12  13
ENDBRANCH  11  12
ENDBRANCH  10  11
ENDBRANCH   1  10
TORSDOF 12
ENDMDL
MODEL 8
REMARK VINA RESULT:    -3.900      1.682      2.957
REMARK INTER + INTRA:          -7.942
REMARK INTER:                  -6.469
REMARK INTRA:                  -1.474
REMARK UNBOUND:                -1.306
REMARK SMILES CCCCCCCCCCCCCC(=O)[O-]
REMARK SMILES IDX 8 1 9 2 10 3 11 4 12 5 13 6 14 7 15 8 16 9 7 10 6 11 5 12
REMARK SMILES IDX 4 13 3 14 2 15 1 16
REMARK H PARENT
REMARK Flexibility Score: inf
ROOT
ATOM      1  C   UNL     1      -3.889 -35.739  48.061  1.00  0.00     0.000 C 
ENDROOT
BRANCH   1   2
ATOM      2  C   UNL     1      -2.463 -35.332  48.462  1.00  0.00     0.000 C 
BRANCH   2   3
ATOM      3  C   UNL     1      -2.148 -33.903  47.994  1.00  0.00     0.000 C 
BRANCH   3   4
ATOM      4  C   UNL     1      -2.162 -33.756  46.461  1.00  0.00     0.000 C 
BRANCH   4   5
ATOM      5  C   UNL     1      -1.194 -34.690  45.710  1.00  0.00     0.006 C 
BRANCH   5   6
ATOM      6  C   UNL     1       0.229 -34.127  45.618  1.00  0.00     0.053 C 
BRANCH   6   7
ATOM      7  C   UNL     1       1.030 -34.894  44.614  1.00  0.00     0.041 C 
ATOM      8  O   UNL     1       1.888 -34.304  43.905  1.00  0.00    -0.550 OA
ATOM      9  O   UNL     1       0.864 -36.268  44.494  1.00  0.00    -0.550 OA
ENDBRANCH   6   7
ENDBRANCH   5   6
ENDBRANCH   4   5
ENDBRANCH   3   4
ENDBRANCH   2   3
ENDBRANCH   1   2
BRANCH   1  10
ATOM     10  C   UNL     1      -3.939 -37.106  47.362  1.00  0.00     0.000 C 
BRANCH  10  11
ATOM     11  C   UNL     1      -4.914 -37.125  46.170  1.00  0.00    -0.000 C 
BRANCH  11  12
ATOM     12  C   UNL     1      -4.492 -36.160  45.051  1.00  0.00    -0.000 C 
BRANCH  12  13
ATOM     13  C   UNL     1      -5.692 -35.462  44.387  1.00  0.00    -0.000 C 
BRANCH  13  14
ATOM     14  C   UNL     1      -6.002 -34.096  45.035  1.00  0.00    -0.000 C 
BRANCH  14  15
ATOM     15  C   UNL     1      -6.860 -34.199  46.307  1.00  0.00    -0.003 C 
ATOM     16  C   UNL     1      -6.645 -33.033  47.271  1.00  0.00     0.004 C 
ENDBRANCH  14  15
ENDBRANCH  13  14
ENDBRANCH  12  13
ENDBRANCH  11  12
ENDBRANCH  10  11
ENDBRANCH   1  10
TORSDOF 12
ENDMDL
MODEL 9
REMARK VINA RESULT:    -3.849      3.240      6.770
REMARK INTER + INTRA:          -7.856
REMARK INTER:                  -6.618
REMARK INTRA:                  -1.237
REMARK UNBOUND:                -1.306
REMARK SMILES CCCCCCCCCCCCCC(=O)[O-]
REMARK SMILES IDX 8 1 9 2 10 3 11 4 12 5 13 6 14 7 15 8 16 9 7 10 6 11 5 12
REMARK SMILES IDX 4 13 3 14 2 15 1 16
REMARK H PARENT
REMARK Flexibility Score: inf
ROOT
ATOM      1  C   UNL     1      -2.369 -33.994  46.278  1.00  0.00     0.000 C 
ENDROOT
BRANCH   1   2
ATOM      2  C   UNL     1      -3.025 -33.437  47.551  1.00  0.00     0.000 C 
BRANCH   2   3
ATOM      3  C   UNL     1      -4.379 -34.115  47.811  1.00  0.00     0.000 C 
BRANCH   3   4
ATOM      4  C   UNL     1      -5.577 -33.177  47.569  1.00  0.00     0.000 C 
BRANCH   4   5
ATOM      5  C   UNL     1      -6.724 -33.788  46.744  1.00  0.00     0.006 C 
BRANCH   5   6
ATOM      6  C   UNL     1      -6.305 -35.050  45.979  1.00  0.00     0.053 C 
BRANCH   6   7
ATOM      7  C   UNL     1      -5.983 -34.716  44.557  1.00  0.00     0.041 C 
ATOM      8  O   UNL     1      -6.386 -33.633  44.055  1.00  0.00    -0.550 OA
ATOM      9  O   UNL     1      -5.198 -35.576  43.801  1.00  0.00    -0.550 OA
ENDBRANCH   6   7
ENDBRANCH   5   6
ENDBRANCH   4   5
ENDBRANCH   3   4
ENDBRANCH   2   3
ENDBRANCH   1   2
BRANCH   1  10
ATOM     10  C   UNL     1      -2.540 -35.516  46.143  1.00  0.00     0.000 C 
BRANCH  10  11
ATOM     11  C   UNL     1      -1.559 -36.301  47.033  1.00  0.00    -0.000 C 
BRANCH  11  12
ATOM     12  C   UNL     1      -0.470 -37.016  46.218  1.00  0.00    -0.000 C 
BRANCH  12  13
ATOM     13  C   UNL     1      -0.461 -36.590  44.740  1.00  0.00    -0.000 C 
BRANCH  13  14
ATOM     14  C   UNL     1       0.959 -36.245  44.242  1.00  0.00    -0.000 C 
BRANCH  14  15
ATOM     15  C   UNL     1       1.301 -34.749  44.345  1.00  0.00    -0.003 C 
ATOM     16  C   UNL     1       2.138 -34.409  45.577  1.00  0.00     0.004 C 
ENDBRANCH  14  15
ENDBRANCH  13  14
ENDBRANCH  12  13
ENDBRANCH  11  12
ENDBRANCH  10  11
ENDBRANCH   1  10
TORSDOF 12
ENDMDL
