MODEL 1
REMARK VINA RESULT:    -3.688      0.000      0.000
REMARK INTER + INTRA:          -8.655
REMARK INTER:                  -6.706
REMARK INTRA:                  -1.949
REMARK UNBOUND:                -1.949
REMARK SMILES CCCCCCCCCCCCCCCC(=O)[O-]
REMARK SMILES IDX 9 1 10 2 11 3 12 4 13 5 14 6 15 7 16 8 17 9 18 10 8 11 7 12
REMARK SMILES IDX 6 13 5 14 4 15 3 16 2 17 1 18
REMARK H PARENT
REMARK Flexibility Score: inf
ROOT
ATOM      1  C   UNL     1      15.621 129.381  56.563  1.00  0.00     0.000 C 
ENDROOT
BRANCH   1   2
ATOM      2  C   UNL     1      16.331 130.315  57.555  1.00  0.00     0.000 C 
BRANCH   2   3
ATOM      3  C   UNL     1      17.274 129.563  58.508  1.00  0.00     0.000 C 
BRANCH   3   4
ATOM      4  C   UNL     1      18.667 130.205  58.520  1.00  0.00     0.000 C 
BRANCH   4   5
ATOM      5  C   UNL     1      19.226 130.284  59.948  1.00  0.00     0.000 C 
BRANCH   5   6
ATOM      6  C   UNL     1      18.381 129.503  60.971  1.00  0.00     0.006 C 
BRANCH   6   7
ATOM      7  C   UNL     1      19.214 128.691  61.979  1.00  0.00     0.053 C 
BRANCH   7   8
ATOM      8  C   UNL     1      18.370 128.053  63.040  1.00  0.00     0.041 C 
ATOM      9  O   UNL     1      17.440 127.265  62.720  1.00  0.00    -0.550 OA
ATOM     10  O   UNL     1      18.583 128.354  64.379  1.00  0.00    -0.550 OA
ENDBRANCH   7   8
ENDBRANCH   6   7
ENDBRANCH   5   6
ENDBRANCH   4   5
ENDBRANCH   3   4
ENDBRANCH   2   3
ENDBRANCH   1   2
BRANCH   1  11
ATOM     11  C   UNL     1      16.219 127.964  56.554  1.00  0.00     0.000 C 
BRANCH  11  12
ATOM     12  C   UNL     1      16.191 127.313  55.159  1.00  0.00    -0.000 C 
BRANCH  12  13
ATOM     13  C   UNL     1      15.657 128.211  54.024  1.00  0.00    -0.000 C 
BRANCH  13  14
ATOM     14  C   UNL     1      16.490 128.197  52.730  1.00  0.00    -0.000 C 
BRANCH  14  15
ATOM     15  C   UNL     1      17.832 128.929  52.878  1.00  0.00    -0.000 C 
BRANCH  15  16
ATOM     16  C   UNL     1      17.646 130.276  53.586  1.00  0.00    -0.000 C 
BRANCH  16  17
ATOM     17  C   UNL     1      18.711 130.480  54.671  1.00  0.00    -0.003 C 
ATOM     18  C   UNL     1      19.372 129.157  55.049  1.00  0.00     0.004 C 
ENDBRANCH  16  17
ENDBRANCH  15  16
ENDBRANCH  14  15
ENDBRANCH  13  14
ENDBRANCH  12  13
ENDBRANCH  11  12
ENDBRANCH   1  11
TORSDOF 14
ENDMDL
MODEL 2
REMARK VINA RESULT:    -3.614      3.837      7.803
REMARK INTER + INTRA:          -8.521
REMARK INTER:                  -6.696
REMARK INTRA:                  -1.825
REMARK UNBOUND:                -1.949
REMARK SMILES CCCCCCCCCCCCCCCC(=O)[O-]
REMARK SMILES IDX 9 1 10 2 11 3 12 4 13 5 14 6 15 7 16 8 17 9 18 10 8 11 7 12
REMARK SMILES IDX 6 13 5 14 4 15 3 16 2 17 1 18
REMARK H PARENT
REMARK Flexibility Score: inf
ROOT
ATOM      1  C   UNL     1      15.880 128.429  59.825  1.00  0.00     0.000 C 
ENDROOT
BRANCH   1   2
ATOM      2  C   UNL     1      14.661 128.246  58.906  1.00  0.00     0.000 C 
BRANCH   2   3
ATOM      3  C   UNL     1      15.015 128.385  57.417  1.00  0.00     0.000 C 
BRANCH   3   4
ATOM      4  C   UNL     1      16.295 129.210  57.233  1.00  0.00     0.000 C 
BRANCH   4   5
ATOM      5  C   UNL     1      17.246 128.537  56.233  1.00  0.00     0.000 C 
BRANCH   5   6
ATOM      6  C   UNL     1      16.568 127.429  55.407  1.00  0.00     0.006 C 
BRANCH   6   7
ATOM      7  C   UNL     1      16.584 127.683  53.889  1.00  0.00     0.053 C 
BRANCH   7   8
ATOM      8  C   UNL     1      15.662 128.791  53.483  1.00  0.00     0.041 C 
ATOM      9  O   UNL     1      14.427 128.705  53.716  1.00  0.00    -0.550 OA
ATOM     10  O   UNL     1      16.157 129.904  52.813  1.00  0.00    -0.550 OA
ENDBRANCH   7   8
ENDBRANCH   6   7
ENDBRANCH   5   6
ENDBRANCH   4   5
ENDBRANCH   3   4
ENDBRANCH   2   3
ENDBRANCH   1   2
BRANCH   1  11
ATOM     11  C   UNL     1      15.624 129.448  60.948  1.00  0.00     0.000 C 
BRANCH  11  12
ATOM     12  C   UNL     1      16.908 130.157  61.415  1.00  0.00    -0.000 C 
BRANCH  12  13
ATOM     13  C   UNL     1      18.201 129.714  60.701  1.00  0.00    -0.000 C 
BRANCH  13  14
ATOM     14  C   UNL     1      19.213 128.963  61.584  1.00  0.00    -0.000 C 
BRANCH  14  15
ATOM     15  C   UNL     1      18.608 128.491  62.914  1.00  0.00    -0.000 C 
BRANCH  15  16
ATOM     16  C   UNL     1      18.437 126.967  62.928  1.00  0.00    -0.000 C 
BRANCH  16  17
ATOM     17  C   UNL     1      16.970 126.580  63.150  1.00  0.00    -0.003 C 
ATOM     18  C   UNL     1      16.271 127.573  64.073  1.00  0.00     0.004 C 
ENDBRANCH  16  17
ENDBRANCH  15  16
ENDBRANCH  14  15
ENDBRANCH  13  14
ENDBRANCH  12  13
ENDBRANCH  11  12
ENDBRANCH   1  11
TORSDOF 14
ENDMDL
MODEL 3
REMARK VINA RESULT:    -3.579      4.914      7.478
REMARK INTER + INTRA:          -8.458
REMARK INTER:                  -6.360
REMARK INTRA:                  -2.098
REMARK UNBOUND:                -1.949
REMARK SMILES CCCCCCCCCCCCCCCC(=O)[O-]
REMARK SMILES IDX 9 1 10 2 11 3 12 4 13 5 14 6 15 7 16 8 17 9 18 10 8 11 7 12
REMARK SMILES IDX 6 13 5 14 4 15 3 16 2 17 1 18
REMARK H PARENT
REMARK Flexibility Score: inf
ROOT
ATOM      1  C   UNL     1      15.176 129.608  56.639  1.00  0.00     0.000 C 
ENDROOT
BRANCH   1   2
ATOM      2  C   UNL     1      15.224 128.785  55.342  1.00  0.00     0.000 C 
BRANCH   2   3
ATOM      3  C   UNL     1      16.113 127.538  55.462  1.00  0.00     0.000 C 
BRANCH   3   4
ATOM      4  C   UNL     1      16.890 127.290  54.163  1.00  0.00     0.000 C 
BRANCH   4   5
ATOM      5  C   UNL     1      16.303 128.110  53.005  1.00  0.00     0.000 C 
BRANCH   5   6
ATOM      6  C   UNL     1      17.374 128.864  52.196  1.00  0.00     0.006 C 
BRANCH   6   7
ATOM      7  C   UNL     1      17.213 128.731  50.671  1.00  0.00     0.053 C 
BRANCH   7   8
ATOM      8  C   UNL     1      16.742 130.001  50.030  1.00  0.00     0.041 C 
ATOM      9  O   UNL     1      17.289 130.419  48.976  1.00  0.00    -0.550 OA
ATOM     10  O   UNL     1      15.723 130.744  50.614  1.00  0.00    -0.550 OA
ENDBRANCH   7   8
ENDBRANCH   6   7
ENDBRANCH   5   6
ENDBRANCH   4   5
ENDBRANCH   3   4
ENDBRANCH   2   3
ENDBRANCH   1   2
BRANCH   1  11
ATOM     11  C   UNL     1      15.698 128.825  57.855  1.00  0.00     0.000 C 
BRANCH  11  12
ATOM     12  C   UNL     1      16.891 129.514  58.542  1.00  0.00    -0.000 C 
BRANCH  12  13
ATOM     13  C   UNL     1      17.793 130.351  57.612  1.00  0.00    -0.000 C 
BRANCH  13  14
ATOM     14  C   UNL     1      19.102 129.668  57.180  1.00  0.00    -0.000 C 
BRANCH  14  15
ATOM     15  C   UNL     1      19.301 129.669  55.657  1.00  0.00    -0.000 C 
BRANCH  15  16
ATOM     16  C   UNL     1      18.487 130.789  54.999  1.00  0.00    -0.000 C 
BRANCH  16  17
ATOM     17  C   UNL     1      19.403 131.782  54.273  1.00  0.00    -0.003 C 
ATOM     18  C   UNL     1      19.043 133.222  54.626  1.00  0.00     0.004 C 
ENDBRANCH  16  17
ENDBRANCH  15  16
ENDBRANCH  14  15
ENDBRANCH  13  14
ENDBRANCH  12  13
ENDBRANCH  11  12
ENDBRANCH   1  11
TORSDOF 14
ENDMDL
MODEL 4
REMARK VINA RESULT:    -3.572      1.811      3.541
REMARK INTER + INTRA:          -8.445
REMARK INTER:                  -5.814
REMARK INTRA:                  -2.631
REMARK UNBOUND:                -1.949
REMARK SMILES CCCCCCCCCCCCCCCC(=O)[O-]
REMARK SMILES IDX 9 1 10 2 11 3 12 4 13 5 14 6 15 7 16 8 17 9 18 10 8 11 7 12
REMARK SMILES IDX 6 13 5 14 4 15 3 16 2 17 1 18
REMARK H PARENT
REMARK Flexibility Score: inf
ROOT
ATOM      1  C   UNL     1      15.812 130.999  56.498  1.00  0.00     0.000 C 
ENDROOT
BRANCH   1   2
ATOM      2  C   UNL     1      14.895 129.981  55.801  1.00  0.00     0.000 C 
BRANCH   2   3
ATOM      3  C   UNL     1      14.893 128.611  56.497  1.00  0.00     0.000 C 
BRANCH   3   4
ATOM      4  C   UNL     1      15.861 128.598  57.686  1.00  0.00     0.000 C 
BRANCH   4   5
ATOM      5  C   UNL     1      15.131 128.237  58.988  1.00  0.00     0.000 C 
BRANCH   5   6
ATOM      6  C   UNL     1      15.567 129.101  60.185  1.00  0.00     0.006 C 
BRANCH   6   7
ATOM      7  C   UNL     1      16.839 129.929  59.927  1.00  0.00     0.053 C 
BRANCH   7   8
ATOM      8  C   UNL     1      18.005 129.459  60.742  1.00  0.00     0.041 C 
ATOM      9  O   UNL     1      17.815 128.839  61.822  1.00  0.00    -0.550 OA
ATOM     10  O   UNL     1      19.303 129.736  60.331  1.00  0.00    -0.550 OA
ENDBRANCH   7   8
ENDBRANCH   6   7
ENDBRANCH   5   6
ENDBRANCH   4   5
ENDBRANCH   3   4
ENDBRANCH   2   3
ENDBRANCH   1   2
BRANCH   1  11
ATOM     11  C   UNL     1      16.601 131.862  55.500  1.00  0.00     0.000 C 
BRANCH  11  12
ATOM     12  C   UNL     1      18.126 131.735  55.677  1.00  0.00    -0.000 C 
BRANCH  12  13
ATOM     13  C   UNL     1      18.581 130.987  56.947  1.00  0.00    -0.000 C 
BRANCH  13  14
ATOM     14  C   UNL     1      19.254 129.625  56.699  1.00  0.00    -0.000 C 
BRANCH  14  15
ATOM     15  C   UNL     1      19.316 129.254  55.210  1.00  0.00    -0.000 C 
BRANCH  15  16
ATOM     16  C   UNL     1      18.202 128.266  54.845  1.00  0.00    -0.000 C 
BRANCH  16  17
ATOM     17  C   UNL     1      17.504 128.679  53.543  1.00  0.00    -0.003 C 
ATOM     18  C   UNL     1      16.390 127.701  53.181  1.00  0.00     0.004 C 
ENDBRANCH  16  17
ENDBRANCH  15  16
ENDBRANCH  14  15
ENDBRANCH  13  14
ENDBRANCH  12  13
ENDBRANCH  11  12
ENDBRANCH   1  11
TORSDOF 14
ENDMDL
MODEL 5
REMARK VINA RESULT:    -3.570      5.944      8.813
REMARK INTER + INTRA:          -8.441
REMARK INTER:                  -6.407
REMARK INTRA:                  -2.034
REMARK UNBOUND:                -1.949
REMARK SMILES CCCCCCCCCCCCCCCC(=O)[O-]
REMARK SMILES IDX 9 1 10 2 11 3 12 4 13 5 14 6 15 7 16 8 17 9 18 10 8 11 7 12
REMARK SMILES IDX 6 13 5 14 4 15 3 16 2 17 1 18
REMARK H PARENT
REMARK Flexibility Score: inf
ROOT
ATOM      1  C   UNL     1      14.971 129.160  53.617  1.00  0.00     0.000 C 
ENDROOT
BRANCH   1   2
ATOM      2  C   UNL     1      15.439 130.315  52.718  1.00  0.00     0.000 C 
BRANCH   2   3
ATOM      3  C   UNL     1      16.683 129.957  51.890  1.00  0.00     0.000 C 
BRANCH   3   4
ATOM      4  C   UNL     1      16.812 130.878  50.669  1.00  0.00     0.000 C 
BRANCH   4   5
ATOM      5  C   UNL     1      15.638 130.677  49.700  1.00  0.00     0.000 C 
BRANCH   5   6
ATOM      6  C   UNL     1      16.089 130.422  48.250  1.00  0.00     0.006 C 
BRANCH   6   7
ATOM      7  C   UNL     1      17.608 130.238  48.091  1.00  0.00     0.053 C 
BRANCH   7   8
ATOM      8  C   UNL     1      18.017 128.797  48.104  1.00  0.00     0.041 C 
ATOM      9  O   UNL     1      18.922 128.401  48.886  1.00  0.00    -0.550 OA
ATOM     10  O   UNL     1      17.427 127.895  47.227  1.00  0.00    -0.550 OA
ENDBRANCH   7   8
ENDBRANCH   6   7
ENDBRANCH   5   6
ENDBRANCH   4   5
ENDBRANCH   3   4
ENDBRANCH   2   3
ENDBRANCH   1   2
BRANCH   1  11
ATOM     11  C   UNL     1      15.880 127.924  53.510  1.00  0.00     0.000 C 
BRANCH  11  12
ATOM     12  C   UNL     1      16.423 127.461  54.875  1.00  0.00    -0.000 C 
BRANCH  12  13
ATOM     13  C   UNL     1      17.345 128.469  55.592  1.00  0.00    -0.000 C 
BRANCH  13  14
ATOM     14  C   UNL     1      18.623 128.849  54.823  1.00  0.00    -0.000 C 
BRANCH  14  15
ATOM     15  C   UNL     1      19.026 130.317  55.027  1.00  0.00    -0.000 C 
BRANCH  15  16
ATOM     16  C   UNL     1      17.813 131.170  55.414  1.00  0.00    -0.000 C 
BRANCH  16  17
ATOM     17  C   UNL     1      17.977 132.615  54.927  1.00  0.00    -0.003 C 
ATOM     18  C   UNL     1      18.570 132.659  53.522  1.00  0.00     0.004 C 
ENDBRANCH  16  17
ENDBRANCH  15  16
ENDBRANCH  14  15
ENDBRANCH  13  14
ENDBRANCH  12  13
ENDBRANCH  11  12
ENDBRANCH   1  11
TORSDOF 14
ENDMDL
MODEL 6
REMARK VINA RESULT:    -3.565      3.270      7.134
REMARK INTER + INTRA:          -8.431
REMARK INTER:                  -6.759
REMARK INTRA:                  -1.673
REMARK UNBOUND:                -1.949
REMARK SMILES CCCCCCCCCCCCCCCC(=O)[O-]
REMARK SMILES IDX 9 1 10 2 11 3 12 4 13 5 14 6 15 7 16 8 17 9 18 10 8 11 7 12
REMARK SMILES IDX 6 13 5 14 4 15 3 16 2 17 1 18
REMARK H PARENT
REMARK Flexibility Score: inf
ROOT
ATOM      1  C   UNL     1      15.884 130.149  57.520  1.00  0.00     0.000 C 
ENDROOT
BRANCH   1   2
ATOM      2  C   UNL     1      15.968 128.617  57.417  1.00  0.00     0.000 C 
BRANCH   2   3
ATOM      3  C   UNL     1      15.464 128.084  56.067  1.00  0.00     0.000 C 
BRANCH   3   4
ATOM      4  C   UNL     1      16.590 127.375  55.304  1.00  0.00     0.000 C 
BRANCH   4   5
ATOM      5  C   UNL     1      17.093 128.236  54.137  1.00  0.00     0.000 C 
BRANCH   5   6
ATOM      6  C   UNL     1      18.367 129.030  54.477  1.00  0.00     0.006 C 
BRANCH   6   7
ATOM      7  C   UNL     1      18.334 130.495  54.008  1.00  0.00     0.053 C 
BRANCH   7   8
ATOM      8  C   UNL     1      19.452 131.308  54.586  1.00  0.00     0.041 C 
ATOM      9  O   UNL     1      19.538 132.539  54.330  1.00  0.00    -0.550 OA
ATOM     10  O   UNL     1      20.422 130.704  55.376  1.00  0.00    -0.550 OA
ENDBRANCH   7   8
ENDBRANCH   6   7
ENDBRANCH   5   6
ENDBRANCH   4   5
ENDBRANCH   3   4
ENDBRANCH   2   3
ENDBRANCH   1   2
BRANCH   1  11
ATOM     11  C   UNL     1      17.266 130.808  57.659  1.00  0.00     0.000 C 
BRANCH  11  12
ATOM     12  C   UNL     1      18.353 129.822  58.127  1.00  0.00    -0.000 C 
BRANCH  12  13
ATOM     13  C   UNL     1      19.088 130.220  59.424  1.00  0.00    -0.000 C 
BRANCH  13  14
ATOM     14  C   UNL     1      18.176 130.536  60.623  1.00  0.00    -0.000 C 
BRANCH  14  15
ATOM     15  C   UNL     1      17.640 129.274  61.312  1.00  0.00    -0.000 C 
BRANCH  15  16
ATOM     16  C   UNL     1      18.730 128.607  62.161  1.00  0.00    -0.000 C 
BRANCH  16  17
ATOM     17  C   UNL     1      18.114 127.736  63.262  1.00  0.00    -0.003 C 
ATOM     18  C   UNL     1      18.408 126.258  63.024  1.00  0.00     0.004 C 
ENDBRANCH  16  17
ENDBRANCH  15  16
ENDBRANCH  14  15
ENDBRANCH  13  14
ENDBRANCH  12  13
ENDBRANCH  11  12
ENDBRANCH   1  11
TORSDOF 14
ENDMDL
MODEL 7
REMARK VINA RESULT:    -3.529      5.076      6.417
REMARK INTER + INTRA:          -8.366
REMARK INTER:                  -6.304
REMARK INTRA:                  -2.062
REMARK UNBOUND:                -1.949
REMARK SMILES CCCCCCCCCCCCCCCC(=O)[O-]
REMARK SMILES IDX 9 1 10 2 11 3 12 4 13 5 14 6 15 7 16 8 17 9 18 10 8 11 7 12
REMARK SMILES IDX 6 13 5 14 4 15 3 16 2 17 1 18
REMARK H PARENT
REMARK Flexibility Score: inf
ROOT
ATOM      1  C   UNL     1      16.495 127.863  55.709  1.00  0.00     0.000 C 
ENDROOT
BRANCH   1   2
ATOM      2  C   UNL     1      17.597 128.690  56.391  1.00  0.00     0.000 C 
BRANCH   2   3
ATOM      3  C   UNL     1      18.676 129.168  55.407  1.00  0.00     0.000 C 
BRANCH   3   4
ATOM      4  C   UNL     1      19.170 130.573  55.776  1.00  0.00     0.000 C 
BRANCH   4   5
ATOM      5  C   UNL     1      17.997 131.491  56.146  1.00  0.00     0.000 C 
BRANCH   5   6
ATOM      6  C   UNL     1      17.355 132.173  54.925  1.00  0.00     0.006 C 
BRANCH   6   7
ATOM      7  C   UNL     1      18.369 132.821  53.965  1.00  0.00     0.053 C 
BRANCH   7   8
ATOM      8  C   UNL     1      17.786 133.973  53.205  1.00  0.00     0.041 C 
ATOM      9  O   UNL     1      18.167 135.149  53.448  1.00  0.00    -0.550 OA
ATOM     10  O   UNL     1      16.797 133.755  52.255  1.00  0.00    -0.550 OA
ENDBRANCH   7   8
ENDBRANCH   6   7
ENDBRANCH   5   6
ENDBRANCH   4   5
ENDBRANCH   3   4
ENDBRANCH   2   3
ENDBRANCH   1   2
BRANCH   1  11
ATOM     11  C   UNL     1      15.335 128.733  55.198  1.00  0.00     0.000 C 
BRANCH  11  12
ATOM     12  C   UNL     1      15.230 128.747  53.662  1.00  0.00    -0.000 C 
BRANCH  12  13
ATOM     13  C   UNL     1      16.261 127.868  52.924  1.00  0.00    -0.000 C 
BRANCH  13  14
ATOM     14  C   UNL     1      17.164 128.614  51.926  1.00  0.00    -0.000 C 
BRANCH  14  15
ATOM     15  C   UNL     1      16.844 130.113  51.839  1.00  0.00    -0.000 C 
BRANCH  15  16
ATOM     16  C   UNL     1      16.252 130.468  50.469  1.00  0.00    -0.000 C 
BRANCH  16  17
ATOM     17  C   UNL     1      16.709 129.472  49.397  1.00  0.00    -0.003 C 
ATOM     18  C   UNL     1      17.631 130.139  48.381  1.00  0.00     0.004 C 
ENDBRANCH  16  17
ENDBRANCH  15  16
ENDBRANCH  14  15
ENDBRANCH  13  14
ENDBRANCH  12  13
ENDBRANCH  11  12
ENDBRANCH   1  11
TORSDOF 14
ENDMDL
MODEL 8
REMARK VINA RESULT:    -3.479      3.125      6.891
REMARK INTER + INTRA:          -8.275
REMARK INTER:                  -6.042
REMARK INTRA:                  -2.232
REMARK UNBOUND:                -1.949
REMARK SMILES CCCCCCCCCCCCCCCC(=O)[O-]
REMARK SMILES IDX 9 1 10 2 11 3 12 4 13 5 14 6 15 7 16 8 17 9 18 10 8 11 7 12
REMARK SMILES IDX 6 13 5 14 4 15 3 16 2 17 1 18
REMARK H PARENT
REMARK Flexibility Score: inf
ROOT
ATOM      1  C   UNL     1      15.982 129.762  56.962  1.00  0.00     0.000 C 
ENDROOT
BRANCH   1   2
ATOM      2  C   UNL     1      16.273 128.257  57.080  1.00  0.00     0.000 C 
BRANCH   2   3
ATOM      3  C   UNL     1      16.256 127.541  55.720  1.00  0.00     0.000 C 
BRANCH   3   4
ATOM      4  C   UNL     1      15.893 128.515  54.592  1.00  0.00     0.000 C 
BRANCH   4   5
ATOM      5  C   UNL     1      16.611 128.140  53.288  1.00  0.00     0.000 C 
BRANCH   5   6
ATOM      6  C   UNL     1      17.713 129.140  52.896  1.00  0.00     0.006 C 
BRANCH   6   7
ATOM      7  C   UNL     1      18.017 130.191  53.978  1.00  0.00     0.053 C 
BRANCH   7   8
ATOM      8  C   UNL     1      19.269 129.884  54.743  1.00  0.00     0.041 C 
ATOM      9  O   UNL     1      19.543 128.695  55.057  1.00  0.00    -0.550 OA
ATOM     10  O   UNL     1      20.116 130.911  55.141  1.00  0.00    -0.550 OA
ENDBRANCH   7   8
ENDBRANCH   6   7
ENDBRANCH   5   6
ENDBRANCH   4   5
ENDBRANCH   3   4
ENDBRANCH   2   3
ENDBRANCH   1   2
BRANCH   1  11
ATOM     11  C   UNL     1      16.978 130.619  57.759  1.00  0.00     0.000 C 
BRANCH  11  12
ATOM     12  C   UNL     1      18.229 129.833  58.195  1.00  0.00    -0.000 C 
BRANCH  12  13
ATOM     13  C   UNL     1      18.868 130.297  59.520  1.00  0.00    -0.000 C 
BRANCH  13  14
ATOM     14  C   UNL     1      18.337 129.598  60.784  1.00  0.00    -0.000 C 
BRANCH  14  15
ATOM     15  C   UNL     1      17.465 130.517  61.651  1.00  0.00    -0.000 C 
BRANCH  15  16
ATOM     16  C   UNL     1      15.975 130.274  61.382  1.00  0.00    -0.000 C 
BRANCH  16  17
ATOM     17  C   UNL     1      15.730 128.841  60.896  1.00  0.00    -0.003 C 
ATOM     18  C   UNL     1      14.375 128.717  60.206  1.00  0.00     0.004 C 
ENDBRANCH  16  17
ENDBRANCH  15  16
ENDBRANCH  14  15
ENDBRANCH  13  14
ENDBRANCH  12  13
ENDBRANCH  11  12
ENDBRANCH   1  11
TORSDOF 14
ENDMDL
MODEL 9
REMARK VINA RESULT:    -3.464      1.485      2.978
REMARK INTER + INTRA:          -8.247
REMARK INTER:                  -5.871
REMARK INTRA:                  -2.377
REMARK UNBOUND:                -1.949
REMARK SMILES CCCCCCCCCCCCCCCC(=O)[O-]
REMARK SMILES IDX 9 1 10 2 11 3 12 4 13 5 14 6 15 7 16 8 17 9 18 10 8 11 7 12
REMARK SMILES IDX 6 13 5 14 4 15 3 16 2 17 1 18
REMARK H PARENT
REMARK Flexibility Score: inf
ROOT
ATOM      1  C   UNL     1      18.755 130.873  54.543  1.00  0.00     0.000 C 
ENDROOT
BRANCH   1   2
ATOM      2  C   UNL     1      19.014 130.851  56.058  1.00  0.00     0.000 C 
BRANCH   2   3
ATOM      3  C   UNL     1      18.399 132.058  56.783  1.00  0.00     0.000 C 
BRANCH   3   4
ATOM      4  C   UNL     1      18.093 131.720  58.248  1.00  0.00     0.000 C 
BRANCH   4   5
ATOM      5  C   UNL     1      18.473 130.268  58.570  1.00  0.00     0.000 C 
BRANCH   5   6
ATOM      6  C   UNL     1      19.090 130.101  59.970  1.00  0.00     0.006 C 
BRANCH   6   7
ATOM      7  C   UNL     1      18.089 129.636  61.043  1.00  0.00     0.053 C 
BRANCH   7   8
ATOM      8  C   UNL     1      18.761 128.968  62.204  1.00  0.00     0.041 C 
ATOM      9  O   UNL     1      19.584 128.035  62.008  1.00  0.00    -0.550 OA
ATOM     10  O   UNL     1      18.452 129.348  63.504  1.00  0.00    -0.550 OA
ENDBRANCH   7   8
ENDBRANCH   6   7
ENDBRANCH   5   6
ENDBRANCH   4   5
ENDBRANCH   3   4
ENDBRANCH   2   3
ENDBRANCH   1   2
BRANCH   1  11
ATOM     11  C   UNL     1      18.431 129.480  53.979  1.00  0.00     0.000 C 
BRANCH  11  12
ATOM     12  C   UNL     1      18.179 128.433  55.081  1.00  0.00    -0.000 C 
BRANCH  12  13
ATOM     13  C   UNL     1      16.973 127.502  54.840  1.00  0.00    -0.000 C 
BRANCH  13  14
ATOM     14  C   UNL     1      15.617 128.050  55.320  1.00  0.00    -0.000 C 
BRANCH  14  15
ATOM     15  C   UNL     1      15.708 128.757  56.680  1.00  0.00    -0.000 C 
BRANCH  15  16
ATOM     16  C   UNL     1      15.137 130.178  56.598  1.00  0.00    -0.000 C 
BRANCH  16  17
ATOM     17  C   UNL     1      14.774 130.544  55.154  1.00  0.00    -0.003 C 
ATOM     18  C   UNL     1      15.272 131.941  54.798  1.00  0.00     0.004 C 
ENDBRANCH  16  17
ENDBRANCH  15  16
ENDBRANCH  14  15
ENDBRANCH  13  14
ENDBRANCH  12  13
ENDBRANCH  11  12
ENDBRANCH   1  11
TORSDOF 14
ENDMDL
