MODEL 1
REMARK VINA RESULT:    -1.223      0.000      0.000
REMARK INTER + INTRA:          -0.964
REMARK INTER:                  -2.082
REMARK INTRA:                   1.118
REMARK UNBOUND:                 1.118
REMARK SMILES CCCCCCCCCCCCCC(=O)[O-]
REMARK SMILES IDX 8 1 9 2 10 3 11 4 12 5 13 6 14 7 15 8 16 9 7 10 6 11 5 12
REMARK SMILES IDX 4 13 3 14 2 15 1 16
REMARK H PARENT
REMARK Flexibility Score: inf
ROOT
ATOM      1  C   UNL     1     -29.295 -20.891 -23.741  1.00  0.00     0.000 C 
ENDROOT
BRANCH   1   2
ATOM      2  C   UNL     1     -27.919 -21.031 -23.066  1.00  0.00     0.000 C 
BRANCH   2   3
ATOM      3  C   UNL     1     -27.972 -21.889 -21.792  1.00  0.00     0.000 C 
BRANCH   3   4
ATOM      4  C   UNL     1     -29.407 -22.124 -21.298  1.00  0.00     0.000 C 
BRANCH   4   5
ATOM      5  C   UNL     1     -29.481 -22.039 -19.765  1.00  0.00     0.006 C 
BRANCH   5   6
ATOM      6  C   UNL     1     -28.379 -21.146 -19.180  1.00  0.00     0.053 C 
BRANCH   6   7
ATOM      7  C   UNL     1     -27.872 -21.675 -17.874  1.00  0.00     0.041 C 
ATOM      8  O   UNL     1     -26.647 -21.930 -17.724  1.00  0.00    -0.550 OA
ATOM      9  O   UNL     1     -28.758 -21.919 -16.832  1.00  0.00    -0.550 OA
ENDBRANCH   6   7
ENDBRANCH   5   6
ENDBRANCH   4   5
ENDBRANCH   3   4
ENDBRANCH   2   3
ENDBRANCH   1   2
BRANCH   1  10
ATOM     10  C   UNL     1     -29.229 -20.116 -25.068  1.00  0.00     0.000 C 
BRANCH  10  11
ATOM     11  C   UNL     1     -29.982 -20.828 -26.204  1.00  0.00    -0.000 C 
BRANCH  11  12
ATOM     12  C   UNL     1     -31.322 -21.432 -25.748  1.00  0.00    -0.000 C 
BRANCH  12  13
ATOM     13  C   UNL     1     -32.033 -20.665 -24.614  1.00  0.00    -0.000 C 
BRANCH  13  14
ATOM     14  C   UNL     1     -31.803 -21.227 -23.197  1.00  0.00    -0.000 C 
BRANCH  14  15
ATOM     15  C   UNL     1     -32.261 -20.305 -22.055  1.00  0.00    -0.003 C 
ATOM     16  C   UNL     1     -32.315 -18.834 -22.462  1.00  0.00     0.004 C 
ENDBRANCH  14  15
ENDBRANCH  13  14
ENDBRANCH  12  13
ENDBRANCH  11  12
ENDBRANCH  10  11
ENDBRANCH   1  10
TORSDOF 12
ENDMDL
MODEL 2
REMARK VINA RESULT:    -1.161      1.118      3.112
REMARK INTER + INTRA:          -0.858
REMARK INTER:                   0.162
REMARK INTRA:                  -1.021
REMARK UNBOUND:                 1.118
REMARK SMILES CCCCCCCCCCCCCC(=O)[O-]
REMARK SMILES IDX 8 1 9 2 10 3 11 4 12 5 13 6 14 7 15 8 16 9 7 10 6 11 5 12
REMARK SMILES IDX 4 13 3 14 2 15 1 16
REMARK H PARENT
REMARK Flexibility Score: inf
ROOT
ATOM      1  C   UNL     1     -32.258 -19.770 -22.004  1.00  0.00     0.000 C 
ENDROOT
BRANCH   1   2
ATOM      2  C   UNL     1     -32.498 -21.287 -22.115  1.00  0.00     0.000 C 
BRANCH   2   3
ATOM      3  C   UNL     1     -31.245 -22.109 -21.771  1.00  0.00     0.000 C 
BRANCH   3   4
ATOM      4  C   UNL     1     -30.876 -22.028 -20.283  1.00  0.00     0.000 C 
BRANCH   4   5
ATOM      5  C   UNL     1     -29.352 -22.066 -20.092  1.00  0.00     0.006 C 
BRANCH   5   6
ATOM      6  C   UNL     1     -28.954 -22.125 -18.611  1.00  0.00     0.053 C 
BRANCH   6   7
ATOM      7  C   UNL     1     -27.672 -21.395 -18.352  1.00  0.00     0.041 C 
ATOM      8  O   UNL     1     -26.774 -21.920 -17.641  1.00  0.00    -0.550 OA
ATOM      9  O   UNL     1     -27.482 -20.119 -18.869  1.00  0.00    -0.550 OA
ENDBRANCH   6   7
ENDBRANCH   5   6
ENDBRANCH   4   5
ENDBRANCH   3   4
ENDBRANCH   2   3
ENDBRANCH   1   2
BRANCH   1  10
ATOM     10  C   UNL     1     -31.864 -19.132 -23.346  1.00  0.00     0.000 C 
BRANCH  10  11
ATOM     11  C   UNL     1     -31.705 -20.170 -24.469  1.00  0.00    -0.000 C 
BRANCH  11  12
ATOM     12  C   UNL     1     -30.703 -19.732 -25.552  1.00  0.00    -0.000 C 
BRANCH  12  13
ATOM     13  C   UNL     1     -29.253 -20.211 -25.333  1.00  0.00    -0.000 C 
BRANCH  13  14
ATOM     14  C   UNL     1     -29.074 -21.286 -24.242  1.00  0.00    -0.000 C 
BRANCH  14  15
ATOM     15  C   UNL     1     -28.067 -20.924 -23.138  1.00  0.00    -0.003 C 
ATOM     16  C   UNL     1     -27.054 -22.036 -22.869  1.00  0.00     0.004 C 
ENDBRANCH  14  15
ENDBRANCH  13  14
ENDBRANCH  12  13
ENDBRANCH  11  12
ENDBRANCH  10  11
ENDBRANCH   1  10
TORSDOF 12
ENDMDL
MODEL 3
REMARK VINA RESULT:    -0.337      2.678      6.145
REMARK INTER + INTRA:           0.545
REMARK INTER:                   0.835
REMARK INTRA:                  -0.290
REMARK UNBOUND:                 1.118
REMARK SMILES CCCCCCCCCCCCCC(=O)[O-]
REMARK SMILES IDX 8 1 9 2 10 3 11 4 12 5 13 6 14 7 15 8 16 9 7 10 6 11 5 12
REMARK SMILES IDX 4 13 3 14 2 15 1 16
REMARK H PARENT
REMARK Flexibility Score: inf
ROOT
ATOM      1  C   UNL     1     -28.982 -21.027 -23.059  1.00  0.00     0.000 C 
ENDROOT
BRANCH   1   2
ATOM      2  C   UNL     1     -29.018 -21.529 -24.514  1.00  0.00     0.000 C 
BRANCH   2   3
ATOM      3  C   UNL     1     -30.450 -21.696 -25.046  1.00  0.00     0.000 C 
BRANCH   3   4
ATOM      4  C   UNL     1     -31.028 -20.389 -25.608  1.00  0.00     0.000 C 
BRANCH   4   5
ATOM      5  C   UNL     1     -31.011 -19.279 -24.545  1.00  0.00     0.006 C 
BRANCH   5   6
ATOM      6  C   UNL     1     -32.364 -19.135 -23.834  1.00  0.00     0.053 C 
BRANCH   6   7
ATOM      7  C   UNL     1     -32.302 -19.623 -22.420  1.00  0.00     0.041 C 
ATOM      8  O   UNL     1     -32.074 -18.817 -21.479  1.00  0.00    -0.550 OA
ATOM      9  O   UNL     1     -32.462 -20.975 -22.144  1.00  0.00    -0.550 OA
ENDBRANCH   6   7
ENDBRANCH   5   6
ENDBRANCH   4   5
ENDBRANCH   3   4
ENDBRANCH   2   3
ENDBRANCH   1   2
BRANCH   1  10
ATOM     10  C   UNL     1     -29.486 -22.078 -22.057  1.00  0.00     0.000 C 
BRANCH  10  11
ATOM     11  C   UNL     1     -29.614 -21.518 -20.630  1.00  0.00    -0.000 C 
BRANCH  11  12
ATOM     12  C   UNL     1     -28.558 -22.090 -19.666  1.00  0.00    -0.000 C 
BRANCH  12  13
ATOM     13  C   UNL     1     -28.850 -21.865 -18.168  1.00  0.00    -0.000 C 
BRANCH  13  14
ATOM     14  C   UNL     1     -27.660 -22.122 -17.223  1.00  0.00    -0.000 C 
BRANCH  14  15
ATOM     15  C   UNL     1     -26.282 -21.776 -17.811  1.00  0.00    -0.003 C 
ATOM     16  C   UNL     1     -25.186 -21.691 -16.749  1.00  0.00     0.004 C 
ENDBRANCH  14  15
ENDBRANCH  13  14
ENDBRANCH  12  13
ENDBRANCH  11  12
ENDBRANCH  10  11
ENDBRANCH   1  10
TORSDOF 12
ENDMDL
MODEL 4
REMARK VINA RESULT:     0.130      2.442      5.644
REMARK INTER + INTRA:           1.339
REMARK INTER:                   0.433
REMARK INTRA:                   0.905
REMARK UNBOUND:                 1.118
REMARK SMILES CCCCCCCCCCCCCC(=O)[O-]
REMARK SMILES IDX 8 1 9 2 10 3 11 4 12 5 13 6 14 7 15 8 16 9 7 10 6 11 5 12
REMARK SMILES IDX 4 13 3 14 2 15 1 16
REMARK H PARENT
REMARK Flexibility Score: inf
ROOT
ATOM      1  C   UNL     1     -32.289 -19.730 -22.096  1.00  0.00     0.000 C 
ENDROOT
BRANCH   1   2
ATOM      2  C   UNL     1     -32.338 -19.483 -23.614  1.00  0.00     0.000 C 
BRANCH   2   3
ATOM      3  C   UNL     1     -30.947 -19.543 -24.267  1.00  0.00     0.000 C 
BRANCH   3   4
ATOM      4  C   UNL     1     -30.930 -20.400 -25.541  1.00  0.00     0.000 C 
BRANCH   4   5
ATOM      5  C   UNL     1     -29.999 -21.611 -25.376  1.00  0.00     0.006 C 
BRANCH   5   6
ATOM      6  C   UNL     1     -29.477 -21.751 -23.939  1.00  0.00     0.053 C 
BRANCH   6   7
ATOM      7  C   UNL     1     -28.064 -21.274 -23.813  1.00  0.00     0.041 C 
ATOM      8  O   UNL     1     -27.728 -20.152 -24.277  1.00  0.00    -0.550 OA
ATOM      9  O   UNL     1     -27.108 -22.084 -23.213  1.00  0.00    -0.550 OA
ENDBRANCH   6   7
ENDBRANCH   5   6
ENDBRANCH   4   5
ENDBRANCH   3   4
ENDBRANCH   2   3
ENDBRANCH   1   2
BRANCH   1  10
ATOM     10  C   UNL     1     -32.246 -21.225 -21.739  1.00  0.00     0.000 C 
BRANCH  10  11
ATOM     11  C   UNL     1     -30.827 -21.811 -21.825  1.00  0.00    -0.000 C 
BRANCH  11  12
ATOM     12  C   UNL     1     -30.168 -21.989 -20.445  1.00  0.00    -0.000 C 
BRANCH  12  13
ATOM     13  C   UNL     1     -28.711 -21.493 -20.346  1.00  0.00    -0.000 C 
BRANCH  13  14
ATOM     14  C   UNL     1     -28.203 -21.230 -18.915  1.00  0.00    -0.000 C 
BRANCH  14  15
ATOM     15  C   UNL     1     -26.965 -22.048 -18.509  1.00  0.00    -0.003 C 
ATOM     16  C   UNL     1     -26.773 -22.125 -16.995  1.00  0.00     0.004 C 
ENDBRANCH  14  15
ENDBRANCH  13  14
ENDBRANCH  12  13
ENDBRANCH  11  12
ENDBRANCH  10  11
ENDBRANCH   1  10
TORSDOF 12
ENDMDL
MODEL 5
REMARK VINA RESULT:     0.423      1.914      4.058
REMARK INTER + INTRA:           1.838
REMARK INTER:                   1.532
REMARK INTRA:                   0.306
REMARK UNBOUND:                 1.118
REMARK SMILES CCCCCCCCCCCCCC(=O)[O-]
REMARK SMILES IDX 8 1 9 2 10 3 11 4 12 5 13 6 14 7 15 8 16 9 7 10 6 11 5 12
REMARK SMILES IDX 4 13 3 14 2 15 1 16
REMARK H PARENT
REMARK Flexibility Score: inf
ROOT
ATOM      1  C   UNL     1     -28.661 -21.126 -19.261  1.00  0.00     0.000 C 
ENDROOT
BRANCH   1   2
ATOM      2  C   UNL     1     -27.334 -21.904 -19.192  1.00  0.00     0.000 C 
BRANCH   2   3
ATOM      3  C   UNL     1     -26.532 -21.591 -17.919  1.00  0.00     0.000 C 
BRANCH   3   4
ATOM      4  C   UNL     1     -27.208 -22.125 -16.649  1.00  0.00     0.000 C 
BRANCH   4   5
ATOM      5  C   UNL     1     -28.738 -22.108 -16.793  1.00  0.00     0.006 C 
BRANCH   5   6
ATOM      6  C   UNL     1     -29.449 -22.100 -15.433  1.00  0.00     0.053 C 
BRANCH   6   7
ATOM      7  C   UNL     1     -30.939 -22.097 -15.586  1.00  0.00     0.041 C 
ATOM      8  O   UNL     1     -31.682 -22.121 -14.569  1.00  0.00    -0.550 OA
ATOM      9  O   UNL     1     -31.507 -22.102 -16.854  1.00  0.00    -0.550 OA
ENDBRANCH   6   7
ENDBRANCH   5   6
ENDBRANCH   4   5
ENDBRANCH   3   4
ENDBRANCH   2   3
ENDBRANCH   1   2
BRANCH   1  10
ATOM     10  C   UNL     1     -29.374 -21.287 -20.613  1.00  0.00     0.000 C 
BRANCH  10  11
ATOM     11  C   UNL     1     -28.389 -21.433 -21.785  1.00  0.00    -0.000 C 
BRANCH  11  12
ATOM     12  C   UNL     1     -29.085 -21.412 -23.158  1.00  0.00    -0.000 C 
BRANCH  12  13
ATOM     13  C   UNL     1     -30.625 -21.490 -23.112  1.00  0.00    -0.000 C 
BRANCH  13  14
ATOM     14  C   UNL     1     -31.352 -20.785 -24.274  1.00  0.00    -0.000 C 
BRANCH  14  15
ATOM     15  C   UNL     1     -30.434 -20.020 -25.241  1.00  0.00    -0.003 C 
ATOM     16  C   UNL     1     -30.327 -20.684 -26.613  1.00  0.00     0.004 C 
ENDBRANCH  14  15
ENDBRANCH  13  14
ENDBRANCH  12  13
ENDBRANCH  11  12
ENDBRANCH  10  11
ENDBRANCH   1  10
TORSDOF 12
ENDMDL
MODEL 6
REMARK VINA RESULT:     0.543      3.173      4.977
REMARK INTER + INTRA:           2.041
REMARK INTER:                   2.254
REMARK INTRA:                  -0.213
REMARK UNBOUND:                 1.118
REMARK SMILES CCCCCCCCCCCCCC(=O)[O-]
REMARK SMILES IDX 8 1 9 2 10 3 11 4 12 5 13 6 14 7 15 8 16 9 7 10 6 11 5 12
REMARK SMILES IDX 4 13 3 14 2 15 1 16
REMARK H PARENT
REMARK Flexibility Score: inf
ROOT
ATOM      1  C   UNL     1     -28.090 -20.742 -19.758  1.00  0.00     0.000 C 
ENDROOT
BRANCH   1   2
ATOM      2  C   UNL     1     -28.702 -22.122 -19.457  1.00  0.00     0.000 C 
BRANCH   2   3
ATOM      3  C   UNL     1     -30.236 -22.123 -19.564  1.00  0.00     0.000 C 
BRANCH   3   4
ATOM      4  C   UNL     1     -30.726 -22.063 -21.018  1.00  0.00     0.000 C 
BRANCH   4   5
ATOM      5  C   UNL     1     -31.133 -20.633 -21.402  1.00  0.00     0.006 C 
BRANCH   5   6
ATOM      6  C   UNL     1     -32.428 -20.599 -22.226  1.00  0.00     0.053 C 
BRANCH   6   7
ATOM      7  C   UNL     1     -32.490 -19.393 -23.112  1.00  0.00     0.041 C 
ATOM      8  O   UNL     1     -31.921 -19.400 -24.236  1.00  0.00    -0.550 OA
ATOM      9  O   UNL     1     -33.149 -18.248 -22.681  1.00  0.00    -0.550 OA
ENDBRANCH   6   7
ENDBRANCH   5   6
ENDBRANCH   4   5
ENDBRANCH   3   4
ENDBRANCH   2   3
ENDBRANCH   1   2
BRANCH   1  10
ATOM     10  C   UNL     1     -27.395 -20.688 -21.129  1.00  0.00     0.000 C 
BRANCH  10  11
ATOM     11  C   UNL     1     -27.749 -21.893 -22.017  1.00  0.00    -0.000 C 
BRANCH  11  12
ATOM     12  C   UNL     1     -27.677 -21.570 -23.520  1.00  0.00    -0.000 C 
BRANCH  12  13
ATOM     13  C   UNL     1     -28.933 -20.890 -24.103  1.00  0.00    -0.000 C 
BRANCH  13  14
ATOM     14  C   UNL     1     -29.986 -21.851 -24.691  1.00  0.00    -0.000 C 
BRANCH  14  15
ATOM     15  C   UNL     1     -30.346 -21.591 -26.164  1.00  0.00    -0.003 C 
ATOM     16  C   UNL     1     -30.335 -20.107 -26.527  1.00  0.00     0.004 C 
ENDBRANCH  14  15
ENDBRANCH  13  14
ENDBRANCH  12  13
ENDBRANCH  11  12
ENDBRANCH  10  11
ENDBRANCH   1  10
TORSDOF 12
ENDMDL
MODEL 7
REMARK VINA RESULT:     0.565      2.525      5.254
REMARK INTER + INTRA:           2.080
REMARK INTER:                   0.018
REMARK INTRA:                   2.062
REMARK UNBOUND:                 1.118
REMARK SMILES CCCCCCCCCCCCCC(=O)[O-]
REMARK SMILES IDX 8 1 9 2 10 3 11 4 12 5 13 6 14 7 15 8 16 9 7 10 6 11 5 12
REMARK SMILES IDX 4 13 3 14 2 15 1 16
REMARK H PARENT
REMARK Flexibility Score: inf
ROOT
ATOM      1  C   UNL     1     -29.323 -20.331 -23.718  1.00  0.00     0.000 C 
ENDROOT
BRANCH   1   2
ATOM      2  C   UNL     1     -29.758 -19.624 -25.014  1.00  0.00     0.000 C 
BRANCH   2   3
ATOM      3  C   UNL     1     -30.202 -20.612 -26.104  1.00  0.00     0.000 C 
BRANCH   3   4
ATOM      4  C   UNL     1     -31.117 -21.719 -25.561  1.00  0.00     0.000 C 
BRANCH   4   5
ATOM      5  C   UNL     1     -31.489 -21.453 -24.094  1.00  0.00     0.006 C 
BRANCH   5   6
ATOM      6  C   UNL     1     -32.518 -20.323 -23.952  1.00  0.00     0.053 C 
BRANCH   6   7
ATOM      7  C   UNL     1     -32.510 -19.736 -22.574  1.00  0.00     0.041 C 
ATOM      8  O   UNL     1     -32.567 -18.488 -22.415  1.00  0.00    -0.550 OA
ATOM      9  O   UNL     1     -32.406 -20.567 -21.465  1.00  0.00    -0.550 OA
ENDBRANCH   6   7
ENDBRANCH   5   6
ENDBRANCH   4   5
ENDBRANCH   3   4
ENDBRANCH   2   3
ENDBRANCH   1   2
BRANCH   1  10
ATOM     10  C   UNL     1     -27.969 -21.047 -23.858  1.00  0.00     0.000 C 
BRANCH  10  11
ATOM     11  C   UNL     1     -27.747 -22.108 -22.766  1.00  0.00    -0.000 C 
BRANCH  11  12
ATOM     12  C   UNL     1     -28.119 -21.606 -21.360  1.00  0.00    -0.000 C 
BRANCH  12  13
ATOM     13  C   UNL     1     -29.475 -22.108 -20.823  1.00  0.00    -0.000 C 
BRANCH  13  14
ATOM     14  C   UNL     1     -29.639 -22.043 -19.292  1.00  0.00    -0.000 C 
BRANCH  14  15
ATOM     15  C   UNL     1     -28.325 -22.125 -18.498  1.00  0.00    -0.003 C 
ATOM     16  C   UNL     1     -27.474 -20.862 -18.623  1.00  0.00     0.004 C 
ENDBRANCH  14  15
ENDBRANCH  13  14
ENDBRANCH  12  13
ENDBRANCH  11  12
ENDBRANCH  10  11
ENDBRANCH   1  10
TORSDOF 12
ENDMDL
MODEL 8
REMARK VINA RESULT:     0.679      1.153      3.219
REMARK INTER + INTRA:           2.274
REMARK INTER:                   1.326
REMARK INTRA:                   0.948
REMARK UNBOUND:                 1.118
REMARK SMILES CCCCCCCCCCCCCC(=O)[O-]
REMARK SMILES IDX 8 1 9 2 10 3 11 4 12 5 13 6 14 7 15 8 16 9 7 10 6 11 5 12
REMARK SMILES IDX 4 13 3 14 2 15 1 16
REMARK H PARENT
REMARK Flexibility Score: inf
ROOT
ATOM      1  C   UNL     1     -32.165 -19.843 -21.576  1.00  0.00     0.000 C 
ENDROOT
BRANCH   1   2
ATOM      2  C   UNL     1     -32.387 -21.322 -21.940  1.00  0.00     0.000 C 
BRANCH   2   3
ATOM      3  C   UNL     1     -31.078 -22.045 -22.296  1.00  0.00     0.000 C 
BRANCH   3   4
ATOM      4  C   UNL     1     -30.107 -22.125 -21.109  1.00  0.00     0.000 C 
BRANCH   4   5
ATOM      5  C   UNL     1     -28.650 -22.007 -21.583  1.00  0.00     0.006 C 
BRANCH   5   6
ATOM      6  C   UNL     1     -27.721 -21.485 -20.479  1.00  0.00     0.053 C 
BRANCH   6   7
ATOM      7  C   UNL     1     -28.204 -21.875 -19.117  1.00  0.00     0.041 C 
ATOM      8  O   UNL     1     -27.385 -22.031 -18.172  1.00  0.00    -0.550 OA
ATOM      9  O   UNL     1     -29.558 -22.098 -18.898  1.00  0.00    -0.550 OA
ENDBRANCH   6   7
ENDBRANCH   5   6
ENDBRANCH   4   5
ENDBRANCH   3   4
ENDBRANCH   2   3
ENDBRANCH   1   2
BRANCH   1  10
ATOM     10  C   UNL     1     -31.993 -18.946 -22.813  1.00  0.00     0.000 C 
BRANCH  10  11
ATOM     11  C   UNL     1     -31.942 -19.751 -24.122  1.00  0.00    -0.000 C 
BRANCH  11  12
ATOM     12  C   UNL     1     -30.810 -19.298 -25.060  1.00  0.00    -0.000 C 
BRANCH  12  13
ATOM     13  C   UNL     1     -29.474 -20.051 -24.885  1.00  0.00    -0.000 C 
BRANCH  13  14
ATOM     14  C   UNL     1     -29.229 -21.194 -25.889  1.00  0.00    -0.000 C 
BRANCH  14  15
ATOM     15  C   UNL     1     -30.308 -21.342 -26.975  1.00  0.00    -0.003 C 
ATOM     16  C   UNL     1     -31.531 -22.124 -26.497  1.00  0.00     0.004 C 
ENDBRANCH  14  15
ENDBRANCH  13  14
ENDBRANCH  12  13
ENDBRANCH  11  12
ENDBRANCH  10  11
ENDBRANCH   1  10
TORSDOF 12
ENDMDL
