MODEL 1
REMARK VINA RESULT:    -2.765      0.000      0.000
REMARK INTER + INTRA:         -10.526
REMARK INTER:                  -6.321
REMARK INTRA:                  -4.205
REMARK UNBOUND:                -4.205
REMARK SMILES CCCCCCCCCCCCCCCCCCCCCCCC(=O)[O-]
REMARK SMILES IDX 13 1 14 2 15 3 16 4 17 5 18 6 19 7 20 8 21 9 22 10 23 11
REMARK SMILES IDX 24 12 25 13 26 14 12 15 11 16 10 17 9 18 8 19 7 20 6 21 5 22
REMARK SMILES IDX 4 23 3 24 2 25 1 26
REMARK H PARENT
REMARK Flexibility Score: inf
ROOT
ATOM      1  C   UNL     1      22.207  27.955  46.682  1.00  0.00     0.000 C 
ENDROOT
BRANCH   1   2
ATOM      2  C   UNL     1      23.417  27.345  47.409  1.00  0.00     0.000 C 
BRANCH   2   3
ATOM      3  C   UNL     1      23.002  26.382  48.533  1.00  0.00     0.000 C 
BRANCH   3   4
ATOM      4  C   UNL     1      22.218  27.076  49.661  1.00  0.00     0.000 C 
BRANCH   4   5
ATOM      5  C   UNL     1      22.998  28.151  50.438  1.00  0.00     0.000 C 
BRANCH   5   6
ATOM      6  C   UNL     1      22.230  29.479  50.561  1.00  0.00     0.000 C 
BRANCH   6   7
ATOM      7  C   UNL     1      20.767  29.358  50.103  1.00  0.00     0.000 C 
BRANCH   7   8
ATOM      8  C   UNL     1      20.249  30.639  49.425  1.00  0.00     0.000 C 
BRANCH   8   9
ATOM      9  C   UNL     1      21.301  31.758  49.390  1.00  0.00     0.000 C 
BRANCH   9  10
ATOM     10  C   UNL     1      20.911  32.905  48.441  1.00  0.00     0.006 C 
BRANCH  10  11
ATOM     11  C   UNL     1      20.704  34.230  49.188  1.00  0.00     0.053 C 
BRANCH  11  12
ATOM     12  C   UNL     1      19.356  34.821  48.911  1.00  0.00     0.041 C 
ATOM     13  O   UNL     1      18.333  34.360  49.480  1.00  0.00    -0.550 OA
ATOM     14  O   UNL     1      19.227  35.864  48.002  1.00  0.00    -0.550 OA
ENDBRANCH  11  12
ENDBRANCH  10  11
ENDBRANCH   9  10
ENDBRANCH   8   9
ENDBRANCH   7   8
ENDBRANCH   6   7
ENDBRANCH   5   6
ENDBRANCH   4   5
ENDBRANCH   3   4
ENDBRANCH   2   3
ENDBRANCH   1   2
BRANCH   1  15
ATOM     15  C   UNL     1      22.280  29.490  46.610  1.00  0.00     0.000 C 
BRANCH  15  16
ATOM     16  C   UNL     1      23.657  30.042  47.020  1.00  0.00     0.000 C 
BRANCH  16  17
ATOM     17  C   UNL     1      23.898  31.524  46.669  1.00  0.00     0.000 C 
BRANCH  17  18
ATOM     18  C   UNL     1      25.261  31.827  46.019  1.00  0.00    -0.000 C 
BRANCH  18  19
ATOM     19  C   UNL     1      25.234  31.966  44.483  1.00  0.00    -0.000 C 
BRANCH  19  20
ATOM     20  C   UNL     1      26.114  30.958  43.723  1.00  0.00    -0.000 C 
BRANCH  20  21
ATOM     21  C   UNL     1      25.310  30.066  42.766  1.00  0.00    -0.000 C 
BRANCH  21  22
ATOM     22  C   UNL     1      24.120  29.421  43.485  1.00  0.00    -0.000 C 
BRANCH  22  23
ATOM     23  C   UNL     1      22.997  29.082  42.497  1.00  0.00    -0.000 C 
BRANCH  23  24
ATOM     24  C   UNL     1      21.719  29.868  42.827  1.00  0.00    -0.000 C 
BRANCH  24  25
ATOM     25  C   UNL     1      21.952  31.386  42.865  1.00  0.00    -0.003 C 
ATOM     26  C   UNL     1      21.371  32.044  44.116  1.00  0.00     0.004 C 
ENDBRANCH  24  25
ENDBRANCH  23  24
ENDBRANCH  22  23
ENDBRANCH  21  22
ENDBRANCH  20  21
ENDBRANCH  19  20
ENDBRANCH  18  19
ENDBRANCH  17  18
ENDBRANCH  16  17
ENDBRANCH  15  16
ENDBRANCH   1  15
TORSDOF 22
ENDMDL
MODEL 2
REMARK VINA RESULT:    -2.723      1.363      2.610
REMARK INTER + INTRA:         -10.431
REMARK INTER:                  -6.439
REMARK INTRA:                  -3.992
REMARK UNBOUND:                -4.205
REMARK SMILES CCCCCCCCCCCCCCCCCCCCCCCC(=O)[O-]
REMARK SMILES IDX 13 1 14 2 15 3 16 4 17 5 18 6 19 7 20 8 21 9 22 10 23 11
REMARK SMILES IDX 24 12 25 13 26 14 12 15 11 16 10 17 9 18 8 19 7 20 6 21 5 22
REMARK SMILES IDX 4 23 3 24 2 25 1 26
REMARK H PARENT
REMARK Flexibility Score: inf
ROOT
ATOM      1  C   UNL     1      23.099  25.480  46.241  1.00  0.00     0.000 C 
ENDROOT
BRANCH   1   2
ATOM      2  C   UNL     1      24.476  25.002  46.731  1.00  0.00     0.000 C 
BRANCH   2   3
ATOM      3  C   UNL     1      24.406  24.328  48.111  1.00  0.00     0.000 C 
BRANCH   3   4
ATOM      4  C   UNL     1      23.620  25.154  49.145  1.00  0.00     0.000 C 
BRANCH   4   5
ATOM      5  C   UNL     1      24.261  26.498  49.536  1.00  0.00     0.000 C 
BRANCH   5   6
ATOM      6  C   UNL     1      23.390  27.319  50.503  1.00  0.00     0.000 C 
BRANCH   6   7
ATOM      7  C   UNL     1      21.901  27.296  50.119  1.00  0.00     0.000 C 
BRANCH   7   8
ATOM      8  C   UNL     1      21.187  28.624  50.427  1.00  0.00     0.000 C 
BRANCH   8   9
ATOM      9  C   UNL     1      22.168  29.773  50.704  1.00  0.00     0.000 C 
BRANCH   9  10
ATOM     10  C   UNL     1      21.455  31.121  50.909  1.00  0.00     0.006 C 
BRANCH  10  11
ATOM     11  C   UNL     1      20.245  31.284  49.979  1.00  0.00     0.053 C 
BRANCH  11  12
ATOM     12  C   UNL     1      20.039  32.712  49.576  1.00  0.00     0.041 C 
ATOM     13  O   UNL     1      21.020  33.422  49.237  1.00  0.00    -0.550 OA
ATOM     14  O   UNL     1      18.765  33.266  49.604  1.00  0.00    -0.550 OA
ENDBRANCH  11  12
ENDBRANCH  10  11
ENDBRANCH   9  10
ENDBRANCH   8   9
ENDBRANCH   7   8
ENDBRANCH   6   7
ENDBRANCH   5   6
ENDBRANCH   4   5
ENDBRANCH   3   4
ENDBRANCH   2   3
ENDBRANCH   1   2
BRANCH   1  15
ATOM     15  C   UNL     1      23.148  26.900  45.650  1.00  0.00     0.000 C 
BRANCH  15  16
ATOM     16  C   UNL     1      22.505  27.953  46.571  1.00  0.00     0.000 C 
BRANCH  16  17
ATOM     17  C   UNL     1      23.417  29.137  46.948  1.00  0.00     0.000 C 
BRANCH  17  18
ATOM     18  C   UNL     1      22.686  30.470  47.199  1.00  0.00    -0.000 C 
BRANCH  18  19
ATOM     19  C   UNL     1      23.390  31.716  46.627  1.00  0.00    -0.000 C 
BRANCH  19  20
ATOM     20  C   UNL     1      24.858  31.503  46.216  1.00  0.00    -0.000 C 
BRANCH  20  21
ATOM     21  C   UNL     1      25.175  32.059  44.820  1.00  0.00    -0.000 C 
BRANCH  21  22
ATOM     22  C   UNL     1      25.856  30.998  43.948  1.00  0.00    -0.000 C 
BRANCH  22  23
ATOM     23  C   UNL     1      24.921  30.522  42.830  1.00  0.00    -0.000 C 
BRANCH  23  24
ATOM     24  C   UNL     1      24.105  29.300  43.281  1.00  0.00    -0.000 C 
BRANCH  24  25
ATOM     25  C   UNL     1      22.622  29.405  42.891  1.00  0.00    -0.003 C 
ATOM     26  C   UNL     1      21.939  30.638  43.482  1.00  0.00     0.004 C 
ENDBRANCH  24  25
ENDBRANCH  23  24
ENDBRANCH  22  23
ENDBRANCH  21  22
ENDBRANCH  20  21
ENDBRANCH  19  20
ENDBRANCH  18  19
ENDBRANCH  17  18
ENDBRANCH  16  17
ENDBRANCH  15  16
ENDBRANCH   1  15
TORSDOF 22
ENDMDL
MODEL 3
REMARK VINA RESULT:    -2.587      3.033      5.945
REMARK INTER + INTRA:         -10.119
REMARK INTER:                  -5.738
REMARK INTRA:                  -4.380
REMARK UNBOUND:                -4.205
REMARK SMILES CCCCCCCCCCCCCCCCCCCCCCCC(=O)[O-]
REMARK SMILES IDX 13 1 14 2 15 3 16 4 17 5 18 6 19 7 20 8 21 9 22 10 23 11
REMARK SMILES IDX 24 12 25 13 26 14 12 15 11 16 10 17 9 18 8 19 7 20 6 21 5 22
REMARK SMILES IDX 4 23 3 24 2 25 1 26
REMARK H PARENT
REMARK Flexibility Score: inf
ROOT
ATOM      1  C   UNL     1      21.822  29.406  50.985  1.00  0.00     0.000 C 
ENDROOT
BRANCH   1   2
ATOM      2  C   UNL     1      20.449  28.818  50.619  1.00  0.00     0.000 C 
BRANCH   2   3
ATOM      3  C   UNL     1      20.565  27.549  49.760  1.00  0.00     0.000 C 
BRANCH   3   4
ATOM      4  C   UNL     1      20.088  27.757  48.311  1.00  0.00     0.000 C 
BRANCH   4   5
ATOM      5  C   UNL     1      18.708  28.421  48.162  1.00  0.00     0.000 C 
BRANCH   5   6
ATOM      6  C   UNL     1      18.682  29.518  47.084  1.00  0.00     0.000 C 
BRANCH   6   7
ATOM      7  C   UNL     1      19.039  28.981  45.688  1.00  0.00     0.000 C 
BRANCH   7   8
ATOM      8  C   UNL     1      20.026  29.891  44.935  1.00  0.00     0.000 C 
BRANCH   8   9
ATOM      9  C   UNL     1      21.167  29.104  44.270  1.00  0.00     0.000 C 
BRANCH   9  10
ATOM     10  C   UNL     1      22.120  30.010  43.471  1.00  0.00     0.006 C 
BRANCH  10  11
ATOM     11  C   UNL     1      23.559  29.476  43.467  1.00  0.00     0.053 C 
BRANCH  11  12
ATOM     12  C   UNL     1      24.562  30.579  43.316  1.00  0.00     0.041 C 
ATOM     13  O   UNL     1      25.715  30.458  43.807  1.00  0.00    -0.550 OA
ATOM     14  O   UNL     1      24.214  31.751  42.658  1.00  0.00    -0.550 OA
ENDBRANCH  11  12
ENDBRANCH  10  11
ENDBRANCH   9  10
ENDBRANCH   8   9
ENDBRANCH   7   8
ENDBRANCH   6   7
ENDBRANCH   5   6
ENDBRANCH   4   5
ENDBRANCH   3   4
ENDBRANCH   2   3
ENDBRANCH   1   2
BRANCH   1  15
ATOM     15  C   UNL     1      21.848  30.941  50.883  1.00  0.00     0.000 C 
BRANCH  15  16
ATOM     16  C   UNL     1      20.728  31.499  49.985  1.00  0.00     0.000 C 
BRANCH  16  17
ATOM     17  C   UNL     1      21.211  32.218  48.709  1.00  0.00     0.000 C 
BRANCH  17  18
ATOM     18  C   UNL     1      21.720  31.290  47.590  1.00  0.00    -0.000 C 
BRANCH  18  19
ATOM     19  C   UNL     1      23.115  31.643  47.037  1.00  0.00    -0.000 C 
BRANCH  19  20
ATOM     20  C   UNL     1      24.101  30.463  46.958  1.00  0.00    -0.000 C 
BRANCH  20  21
ATOM     21  C   UNL     1      23.651  29.252  47.788  1.00  0.00    -0.000 C 
BRANCH  21  22
ATOM     22  C   UNL     1      23.320  28.059  46.884  1.00  0.00    -0.000 C 
BRANCH  22  23
ATOM     23  C   UNL     1      23.705  26.736  47.556  1.00  0.00    -0.000 C 
BRANCH  23  24
ATOM     24  C   UNL     1      24.153  26.967  49.008  1.00  0.00    -0.000 C 
BRANCH  24  25
ATOM     25  C   UNL     1      25.310  26.045  49.422  1.00  0.00    -0.003 C 
ATOM     26  C   UNL     1      25.566  24.925  48.413  1.00  0.00     0.004 C 
ENDBRANCH  24  25
ENDBRANCH  23  24
ENDBRANCH  22  23
ENDBRANCH  21  22
ENDBRANCH  20  21
ENDBRANCH  19  20
ENDBRANCH  18  19
ENDBRANCH  17  18
ENDBRANCH  16  17
ENDBRANCH  15  16
ENDBRANCH   1  15
TORSDOF 22
ENDMDL
MODEL 4
REMARK VINA RESULT:    -2.576      1.932      3.789
REMARK INTER + INTRA:         -10.094
REMARK INTER:                  -6.708
REMARK INTRA:                  -3.386
REMARK UNBOUND:                -4.205
REMARK SMILES CCCCCCCCCCCCCCCCCCCCCCCC(=O)[O-]
REMARK SMILES IDX 13 1 14 2 15 3 16 4 17 5 18 6 19 7 20 8 21 9 22 10 23 11
REMARK SMILES IDX 24 12 25 13 26 14 12 15 11 16 10 17 9 18 8 19 7 20 6 21 5 22
REMARK SMILES IDX 4 23 3 24 2 25 1 26
REMARK H PARENT
REMARK Flexibility Score: inf
ROOT
ATOM      1  C   UNL     1      23.257  29.415  46.107  1.00  0.00     0.000 C 
ENDROOT
BRANCH   1   2
ATOM      2  C   UNL     1      21.993  28.860  46.786  1.00  0.00     0.000 C 
BRANCH   2   3
ATOM      3  C   UNL     1      21.916  27.326  46.714  1.00  0.00     0.000 C 
BRANCH   3   4
ATOM      4  C   UNL     1      23.295  26.660  46.558  1.00  0.00     0.000 C 
BRANCH   4   5
ATOM      5  C   UNL     1      23.770  25.840  47.771  1.00  0.00     0.000 C 
BRANCH   5   6
ATOM      6  C   UNL     1      24.390  26.710  48.878  1.00  0.00     0.000 C 
BRANCH   6   7
ATOM      7  C   UNL     1      23.517  26.765  50.143  1.00  0.00     0.000 C 
BRANCH   7   8
ATOM      8  C   UNL     1      22.962  28.173  50.421  1.00  0.00     0.000 C 
BRANCH   8   9
ATOM      9  C   UNL     1      21.426  28.210  50.437  1.00  0.00     0.000 C 
BRANCH   9  10
ATOM     10  C   UNL     1      20.873  29.630  50.651  1.00  0.00     0.006 C 
BRANCH  10  11
ATOM     11  C   UNL     1      21.769  30.703  50.016  1.00  0.00     0.053 C 
BRANCH  11  12
ATOM     12  C   UNL     1      20.974  31.696  49.225  1.00  0.00     0.041 C 
ATOM     13  O   UNL     1      21.546  32.443  48.388  1.00  0.00    -0.550 OA
ATOM     14  O   UNL     1      19.606  31.817  49.433  1.00  0.00    -0.550 OA
ENDBRANCH  11  12
ENDBRANCH  10  11
ENDBRANCH   9  10
ENDBRANCH   8   9
ENDBRANCH   7   8
ENDBRANCH   6   7
ENDBRANCH   5   6
ENDBRANCH   4   5
ENDBRANCH   3   4
ENDBRANCH   2   3
ENDBRANCH   1   2
BRANCH   1  15
ATOM     15  C   UNL     1      24.095  30.288  47.056  1.00  0.00     0.000 C 
BRANCH  15  16
ATOM     16  C   UNL     1      24.379  31.689  46.485  1.00  0.00     0.000 C 
BRANCH  16  17
ATOM     17  C   UNL     1      24.485  31.759  44.949  1.00  0.00     0.000 C 
BRANCH  17  18
ATOM     18  C   UNL     1      25.922  31.731  44.391  1.00  0.00    -0.000 C 
BRANCH  18  19
ATOM     19  C   UNL     1      26.242  30.530  43.480  1.00  0.00    -0.000 C 
BRANCH  19  20
ATOM     20  C   UNL     1      25.193  30.241  42.392  1.00  0.00    -0.000 C 
BRANCH  20  21
ATOM     21  C   UNL     1      24.332  29.008  42.704  1.00  0.00    -0.000 C 
BRANCH  21  22
ATOM     22  C   UNL     1      24.328  28.028  41.526  1.00  0.00    -0.000 C 
BRANCH  22  23
ATOM     23  C   UNL     1      25.693  27.998  40.830  1.00  0.00    -0.000 C 
BRANCH  23  24
ATOM     24  C   UNL     1      26.569  26.864  41.386  1.00  0.00    -0.000 C 
BRANCH  24  25
ATOM     25  C   UNL     1      28.034  27.287  41.574  1.00  0.00    -0.003 C 
ATOM     26  C   UNL     1      28.368  28.598  40.862  1.00  0.00     0.004 C 
ENDBRANCH  24  25
ENDBRANCH  23  24
ENDBRANCH  22  23
ENDBRANCH  21  22
ENDBRANCH  20  21
ENDBRANCH  19  20
ENDBRANCH  18  19
ENDBRANCH  17  18
ENDBRANCH  16  17
ENDBRANCH  15  16
ENDBRANCH   1  15
TORSDOF 22
ENDMDL
MODEL 5
REMARK VINA RESULT:    -2.571      3.402      6.930
REMARK INTER + INTRA:         -10.082
REMARK INTER:                  -6.451
REMARK INTRA:                  -3.631
REMARK UNBOUND:                -4.205
REMARK SMILES CCCCCCCCCCCCCCCCCCCCCCCC(=O)[O-]
REMARK SMILES IDX 13 1 14 2 15 3 16 4 17 5 18 6 19 7 20 8 21 9 22 10 23 11
REMARK SMILES IDX 24 12 25 13 26 14 12 15 11 16 10 17 9 18 8 19 7 20 6 21 5 22
REMARK SMILES IDX 4 23 3 24 2 25 1 26
REMARK H PARENT
REMARK Flexibility Score: inf
ROOT
ATOM      1  C   UNL     1      23.288  27.607  50.396  1.00  0.00     0.000 C 
ENDROOT
BRANCH   1   2
ATOM      2  C   UNL     1      21.835  28.112  50.412  1.00  0.00     0.000 C 
BRANCH   2   3
ATOM      3  C   UNL     1      21.697  29.474  51.113  1.00  0.00     0.000 C 
BRANCH   3   4
ATOM      4  C   UNL     1      20.632  30.378  50.466  1.00  0.00     0.000 C 
BRANCH   4   5
ATOM      5  C   UNL     1      21.165  31.685  49.851  1.00  0.00     0.000 C 
BRANCH   5   6
ATOM      6  C   UNL     1      21.005  31.737  48.322  1.00  0.00     0.000 C 
BRANCH   6   7
ATOM      7  C   UNL     1      22.354  31.664  47.586  1.00  0.00     0.000 C 
BRANCH   7   8
ATOM      8  C   UNL     1      23.078  30.324  47.801  1.00  0.00     0.000 C 
BRANCH   8   9
ATOM      9  C   UNL     1      23.918  29.903  46.586  1.00  0.00     0.000 C 
BRANCH   9  10
ATOM     10  C   UNL     1      24.451  31.109  45.792  1.00  0.00     0.006 C 
BRANCH  10  11
ATOM     11  C   UNL     1      24.661  30.779  44.308  1.00  0.00     0.053 C 
BRANCH  11  12
ATOM     12  C   UNL     1      26.012  31.210  43.826  1.00  0.00     0.041 C 
ATOM     13  O   UNL     1      26.803  30.371  43.322  1.00  0.00    -0.550 OA
ATOM     14  O   UNL     1      26.408  32.535  43.959  1.00  0.00    -0.550 OA
ENDBRANCH  11  12
ENDBRANCH  10  11
ENDBRANCH   9  10
ENDBRANCH   8   9
ENDBRANCH   7   8
ENDBRANCH   6   7
ENDBRANCH   5   6
ENDBRANCH   4   5
ENDBRANCH   3   4
ENDBRANCH   2   3
ENDBRANCH   1   2
BRANCH   1  15
ATOM     15  C   UNL     1      23.397  26.127  50.801  1.00  0.00     0.000 C 
BRANCH  15  16
ATOM     16  C   UNL     1      24.806  25.549  50.576  1.00  0.00     0.000 C 
BRANCH  16  17
ATOM     17  C   UNL     1      25.467  25.936  49.239  1.00  0.00     0.000 C 
BRANCH  17  18
ATOM     18  C   UNL     1      25.464  24.832  48.164  1.00  0.00    -0.000 C 
BRANCH  18  19
ATOM     19  C   UNL     1      24.213  24.803  47.264  1.00  0.00    -0.000 C 
BRANCH  19  20
ATOM     20  C   UNL     1      23.586  26.179  46.977  1.00  0.00    -0.000 C 
BRANCH  20  21
ATOM     21  C   UNL     1      22.067  26.204  47.206  1.00  0.00    -0.000 C 
BRANCH  21  22
ATOM     22  C   UNL     1      21.563  24.839  47.690  1.00  0.00    -0.000 C 
BRANCH  22  23
ATOM     23  C   UNL     1      20.524  25.001  48.806  1.00  0.00    -0.000 C 
BRANCH  23  24
ATOM     24  C   UNL     1      20.631  23.857  49.826  1.00  0.00    -0.000 C 
BRANCH  24  25
ATOM     25  C   UNL     1      21.957  23.089  49.715  1.00  0.00    -0.003 C 
ATOM     26  C   UNL     1      22.253  22.235  50.948  1.00  0.00     0.004 C 
ENDBRANCH  24  25
ENDBRANCH  23  24
ENDBRANCH  22  23
ENDBRANCH  21  22
ENDBRANCH  20  21
ENDBRANCH  19  20
ENDBRANCH  18  19
ENDBRANCH  17  18
ENDBRANCH  16  17
ENDBRANCH  15  16
ENDBRANCH   1  15
TORSDOF 22
ENDMDL
MODEL 6
REMARK VINA RESULT:    -2.566      1.978      4.275
REMARK INTER + INTRA:         -10.072
REMARK INTER:                  -6.221
REMARK INTRA:                  -3.851
REMARK UNBOUND:                -4.205
REMARK SMILES CCCCCCCCCCCCCCCCCCCCCCCC(=O)[O-]
REMARK SMILES IDX 13 1 14 2 15 3 16 4 17 5 18 6 19 7 20 8 21 9 22 10 23 11
REMARK SMILES IDX 24 12 25 13 26 14 12 15 11 16 10 17 9 18 8 19 7 20 6 21 5 22
REMARK SMILES IDX 4 23 3 24 2 25 1 26
REMARK H PARENT
REMARK Flexibility Score: inf
ROOT
ATOM      1  C   UNL     1      22.344  23.447  47.859  1.00  0.00     0.000 C 
ENDROOT
BRANCH   1   2
ATOM      2  C   UNL     1      23.327  22.730  48.799  1.00  0.00     0.000 C 
BRANCH   2   3
ATOM      3  C   UNL     1      24.359  23.692  49.412  1.00  0.00     0.000 C 
BRANCH   3   4
ATOM      4  C   UNL     1      24.628  24.926  48.531  1.00  0.00     0.000 C 
BRANCH   4   5
ATOM      5  C   UNL     1      24.697  26.268  49.283  1.00  0.00     0.000 C 
BRANCH   5   6
ATOM      6  C   UNL     1      23.651  26.382  50.405  1.00  0.00     0.000 C 
BRANCH   6   7
ATOM      7  C   UNL     1      23.244  27.838  50.686  1.00  0.00     0.000 C 
BRANCH   7   8
ATOM      8  C   UNL     1      21.788  28.137  50.284  1.00  0.00     0.000 C 
BRANCH   8   9
ATOM      9  C   UNL     1      21.212  29.360  51.015  1.00  0.00     0.000 C 
BRANCH   9  10
ATOM     10  C   UNL     1      21.786  30.686  50.487  1.00  0.00     0.006 C 
BRANCH  10  11
ATOM     11  C   UNL     1      20.853  31.873  50.764  1.00  0.00     0.053 C 
BRANCH  11  12
ATOM     12  C   UNL     1      20.516  32.622  49.511  1.00  0.00     0.041 C 
ATOM     13  O   UNL     1      19.823  32.077  48.614  1.00  0.00    -0.550 OA
ATOM     14  O   UNL     1      20.993  33.914  49.323  1.00  0.00    -0.550 OA
ENDBRANCH  11  12
ENDBRANCH  10  11
ENDBRANCH   9  10
ENDBRANCH   8   9
ENDBRANCH   7   8
ENDBRANCH   6   7
ENDBRANCH   5   6
ENDBRANCH   4   5
ENDBRANCH   3   4
ENDBRANCH   2   3
ENDBRANCH   1   2
BRANCH   1  15
ATOM     15  C   UNL     1      21.045  23.858  48.574  1.00  0.00     0.000 C 
BRANCH  15  16
ATOM     16  C   UNL     1      20.678  25.335  48.344  1.00  0.00     0.000 C 
BRANCH  16  17
ATOM     17  C   UNL     1      21.475  26.041  47.230  1.00  0.00     0.000 C 
BRANCH  17  18
ATOM     18  C   UNL     1      20.857  27.356  46.717  1.00  0.00    -0.000 C 
BRANCH  18  19
ATOM     19  C   UNL     1      21.858  28.344  46.086  1.00  0.00    -0.000 C 
BRANCH  19  20
ATOM     20  C   UNL     1      23.290  28.263  46.643  1.00  0.00    -0.000 C 
BRANCH  20  21
ATOM     21  C   UNL     1      23.707  29.528  47.408  1.00  0.00    -0.000 C 
BRANCH  21  22
ATOM     22  C   UNL     1      22.766  30.696  47.091  1.00  0.00    -0.000 C 
BRANCH  22  23
ATOM     23  C   UNL     1      23.558  31.967  46.762  1.00  0.00    -0.000 C 
BRANCH  23  24
ATOM     24  C   UNL     1      24.882  31.623  46.062  1.00  0.00    -0.000 C 
BRANCH  24  25
ATOM     25  C   UNL     1      24.741  31.556  44.533  1.00  0.00    -0.003 C 
ATOM     26  C   UNL     1      26.026  31.106  43.839  1.00  0.00     0.004 C 
ENDBRANCH  24  25
ENDBRANCH  23  24
ENDBRANCH  22  23
ENDBRANCH  21  22
ENDBRANCH  20  21
ENDBRANCH  19  20
ENDBRANCH  18  19
ENDBRANCH  17  18
ENDBRANCH  16  17
ENDBRANCH  15  16
ENDBRANCH   1  15
TORSDOF 22
ENDMDL
MODEL 7
REMARK VINA RESULT:    -2.564      2.652      6.728
REMARK INTER + INTRA:         -10.066
REMARK INTER:                  -6.007
REMARK INTRA:                  -4.059
REMARK UNBOUND:                -4.205
REMARK SMILES CCCCCCCCCCCCCCCCCCCCCCCC(=O)[O-]
REMARK SMILES IDX 13 1 14 2 15 3 16 4 17 5 18 6 19 7 20 8 21 9 22 10 23 11
REMARK SMILES IDX 24 12 25 13 26 14 12 15 11 16 10 17 9 18 8 19 7 20 6 21 5 22
REMARK SMILES IDX 4 23 3 24 2 25 1 26
REMARK H PARENT
REMARK Flexibility Score: inf
ROOT
ATOM      1  C   UNL     1      19.665  30.340  45.039  1.00  0.00     0.000 C 
ENDROOT
BRANCH   1   2
ATOM      2  C   UNL     1      20.206  28.906  45.172  1.00  0.00     0.000 C 
BRANCH   2   3
ATOM      3  C   UNL     1      20.467  28.249  43.807  1.00  0.00     0.000 C 
BRANCH   3   4
ATOM      4  C   UNL     1      21.845  27.568  43.721  1.00  0.00     0.000 C 
BRANCH   4   5
ATOM      5  C   UNL     1      23.052  28.522  43.737  1.00  0.00     0.000 C 
BRANCH   5   6
ATOM      6  C   UNL     1      22.940  29.649  42.695  1.00  0.00     0.000 C 
BRANCH   6   7
ATOM      7  C   UNL     1      24.027  29.560  41.611  1.00  0.00     0.000 C 
BRANCH   7   8
ATOM      8  C   UNL     1      25.393  29.129  42.172  1.00  0.00     0.000 C 
BRANCH   8   9
ATOM      9  C   UNL     1      26.349  30.314  42.379  1.00  0.00     0.000 C 
BRANCH   9  10
ATOM     10  C   UNL     1      26.164  30.986  43.751  1.00  0.00     0.006 C 
BRANCH  10  11
ATOM     11  C   UNL     1      26.091  32.516  43.641  1.00  0.00     0.053 C 
BRANCH  11  12
ATOM     12  C   UNL     1      24.861  32.964  42.912  1.00  0.00     0.041 C 
ATOM     13  O   UNL     1      23.733  32.887  43.464  1.00  0.00    -0.550 OA
ATOM     14  O   UNL     1      24.959  33.441  41.610  1.00  0.00    -0.550 OA
ENDBRANCH  11  12
ENDBRANCH  10  11
ENDBRANCH   9  10
ENDBRANCH   8   9
ENDBRANCH   7   8
ENDBRANCH   6   7
ENDBRANCH   5   6
ENDBRANCH   4   5
ENDBRANCH   3   4
ENDBRANCH   2   3
ENDBRANCH   1   2
BRANCH   1  15
ATOM     15  C   UNL     1      20.528  31.364  45.795  1.00  0.00     0.000 C 
BRANCH  15  16
ATOM     16  C   UNL     1      20.112  31.522  47.269  1.00  0.00     0.000 C 
BRANCH  16  17
ATOM     17  C   UNL     1      20.834  32.649  48.035  1.00  0.00     0.000 C 
BRANCH  17  18
ATOM     18  C   UNL     1      20.715  32.576  49.569  1.00  0.00    -0.000 C 
BRANCH  18  19
ATOM     19  C   UNL     1      20.593  31.151  50.145  1.00  0.00    -0.000 C 
BRANCH  19  20
ATOM     20  C   UNL     1      21.800  30.680  50.976  1.00  0.00    -0.000 C 
BRANCH  20  21
ATOM     21  C   UNL     1      22.525  29.479  50.349  1.00  0.00    -0.000 C 
BRANCH  21  22
ATOM     22  C   UNL     1      21.656  28.813  49.275  1.00  0.00    -0.000 C 
BRANCH  22  23
ATOM     23  C   UNL     1      22.405  28.723  47.940  1.00  0.00    -0.000 C 
BRANCH  23  24
ATOM     24  C   UNL     1      23.729  29.502  47.999  1.00  0.00    -0.000 C 
BRANCH  24  25
ATOM     25  C   UNL     1      24.074  30.182  46.665  1.00  0.00    -0.003 C 
ATOM     26  C   UNL     1      24.077  31.708  46.760  1.00  0.00     0.004 C 
ENDBRANCH  24  25
ENDBRANCH  23  24
ENDBRANCH  22  23
ENDBRANCH  21  22
ENDBRANCH  20  21
ENDBRANCH  19  20
ENDBRANCH  18  19
ENDBRANCH  17  18
ENDBRANCH  16  17
ENDBRANCH  15  16
ENDBRANCH   1  15
TORSDOF 22
ENDMDL
MODEL 8
REMARK VINA RESULT:    -2.519      3.416      6.091
REMARK INTER + INTRA:          -9.965
REMARK INTER:                  -5.431
REMARK INTRA:                  -4.534
REMARK UNBOUND:                -4.205
REMARK SMILES CCCCCCCCCCCCCCCCCCCCCCCC(=O)[O-]
REMARK SMILES IDX 13 1 14 2 15 3 16 4 17 5 18 6 19 7 20 8 21 9 22 10 23 11
REMARK SMILES IDX 24 12 25 13 26 14 12 15 11 16 10 17 9 18 8 19 7 20 6 21 5 22
REMARK SMILES IDX 4 23 3 24 2 25 1 26
REMARK H PARENT
REMARK Flexibility Score: inf
ROOT
ATOM      1  C   UNL     1      23.889  30.489  46.984  1.00  0.00     0.000 C 
ENDROOT
BRANCH   1   2
ATOM      2  C   UNL     1      22.854  31.557  47.374  1.00  0.00     0.000 C 
BRANCH   2   3
ATOM      3  C   UNL     1      21.416  31.011  47.359  1.00  0.00     0.000 C 
BRANCH   3   4
ATOM      4  C   UNL     1      20.376  32.043  47.831  1.00  0.00     0.000 C 
BRANCH   4   5
ATOM      5  C   UNL     1      20.745  32.809  49.114  1.00  0.00     0.000 C 
BRANCH   5   6
ATOM      6  C   UNL     1      20.320  32.072  50.396  1.00  0.00     0.000 C 
BRANCH   6   7
ATOM      7  C   UNL     1      21.508  31.422  51.125  1.00  0.00     0.000 C 
BRANCH   7   8
ATOM      8  C   UNL     1      21.457  29.885  51.093  1.00  0.00     0.000 C 
BRANCH   8   9
ATOM      9  C   UNL     1      22.697  29.265  50.431  1.00  0.00     0.000 C 
BRANCH   9  10
ATOM     10  C   UNL     1      22.349  28.061  49.538  1.00  0.00     0.006 C 
BRANCH  10  11
ATOM     11  C   UNL     1      23.583  27.211  49.204  1.00  0.00     0.053 C 
BRANCH  11  12
ATOM     12  C   UNL     1      23.912  26.249  50.304  1.00  0.00     0.041 C 
ATOM     13  O   UNL     1      25.098  26.131  50.710  1.00  0.00    -0.550 OA
ATOM     14  O   UNL     1      22.913  25.462  50.862  1.00  0.00    -0.550 OA
ENDBRANCH  11  12
ENDBRANCH  10  11
ENDBRANCH   9  10
ENDBRANCH   8   9
ENDBRANCH   7   8
ENDBRANCH   6   7
ENDBRANCH   5   6
ENDBRANCH   4   5
ENDBRANCH   3   4
ENDBRANCH   2   3
ENDBRANCH   1   2
BRANCH   1  15
ATOM     15  C   UNL     1      24.596  30.817  45.657  1.00  0.00     0.000 C 
BRANCH  15  16
ATOM     16  C   UNL     1      23.673  30.665  44.435  1.00  0.00     0.000 C 
BRANCH  16  17
ATOM     17  C   UNL     1      23.723  29.287  43.745  1.00  0.00     0.000 C 
BRANCH  17  18
ATOM     18  C   UNL     1      22.476  28.407  43.953  1.00  0.00    -0.000 C 
BRANCH  18  19
ATOM     19  C   UNL     1      22.486  27.556  45.238  1.00  0.00    -0.000 C 
BRANCH  19  20
ATOM     20  C   UNL     1      21.212  27.658  46.096  1.00  0.00    -0.000 C 
BRANCH  20  21
ATOM     21  C   UNL     1      20.016  28.233  45.323  1.00  0.00    -0.000 C 
BRANCH  21  22
ATOM     22  C   UNL     1      18.762  28.275  46.204  1.00  0.00    -0.000 C 
BRANCH  22  23
ATOM     23  C   UNL     1      19.052  27.715  47.601  1.00  0.00    -0.000 C 
BRANCH  23  24
ATOM     24  C   UNL     1      18.922  28.811  48.670  1.00  0.00    -0.000 C 
BRANCH  24  25
ATOM     25  C   UNL     1      17.526  29.453  48.691  1.00  0.00    -0.003 C 
ATOM     26  C   UNL     1      17.185  30.087  50.040  1.00  0.00     0.004 C 
ENDBRANCH  24  25
ENDBRANCH  23  24
ENDBRANCH  22  23
ENDBRANCH  21  22
ENDBRANCH  20  21
ENDBRANCH  19  20
ENDBRANCH  18  19
ENDBRANCH  17  18
ENDBRANCH  16  17
ENDBRANCH  15  16
ENDBRANCH   1  15
TORSDOF 22
ENDMDL
MODEL 9
REMARK VINA RESULT:    -2.498      3.811      5.958
REMARK INTER + INTRA:          -9.915
REMARK INTER:                  -6.071
REMARK INTRA:                  -3.844
REMARK UNBOUND:                -4.205
REMARK SMILES CCCCCCCCCCCCCCCCCCCCCCCC(=O)[O-]
REMARK SMILES IDX 13 1 14 2 15 3 16 4 17 5 18 6 19 7 20 8 21 9 22 10 23 11
REMARK SMILES IDX 24 12 25 13 26 14 12 15 11 16 10 17 9 18 8 19 7 20 6 21 5 22
REMARK SMILES IDX 4 23 3 24 2 25 1 26
REMARK H PARENT
REMARK Flexibility Score: inf
ROOT
ATOM      1  C   UNL     1      21.925  31.783  46.759  1.00  0.00     0.000 C 
ENDROOT
BRANCH   1   2
ATOM      2  C   UNL     1      21.706  32.472  48.117  1.00  0.00     0.000 C 
BRANCH   2   3
ATOM      3  C   UNL     1      20.219  32.540  48.505  1.00  0.00     0.000 C 
BRANCH   3   4
ATOM      4  C   UNL     1      19.946  32.028  49.931  1.00  0.00     0.000 C 
BRANCH   4   5
ATOM      5  C   UNL     1      21.197  31.660  50.748  1.00  0.00     0.000 C 
BRANCH   5   6
ATOM      6  C   UNL     1      21.303  30.153  51.037  1.00  0.00     0.000 C 
BRANCH   6   7
ATOM      7  C   UNL     1      22.606  29.539  50.497  1.00  0.00     0.000 C 
BRANCH   7   8
ATOM      8  C   UNL     1      22.363  28.278  49.649  1.00  0.00     0.000 C 
BRANCH   8   9
ATOM      9  C   UNL     1      23.648  27.747  48.996  1.00  0.00     0.000 C 
BRANCH   9  10
ATOM     10  C   UNL     1      23.905  26.265  49.321  1.00  0.00     0.006 C 
BRANCH  10  11
ATOM     11  C   UNL     1      24.715  26.087  50.613  1.00  0.00     0.053 C 
BRANCH  11  12
ATOM     12  C   UNL     1      26.079  25.528  50.344  1.00  0.00     0.041 C 
ATOM     13  O   UNL     1      26.915  26.193  49.679  1.00  0.00    -0.550 OA
ATOM     14  O   UNL     1      26.416  24.262  50.804  1.00  0.00    -0.550 OA
ENDBRANCH  11  12
ENDBRANCH  10  11
ENDBRANCH   9  10
ENDBRANCH   8   9
ENDBRANCH   7   8
ENDBRANCH   6   7
ENDBRANCH   5   6
ENDBRANCH   4   5
ENDBRANCH   3   4
ENDBRANCH   2   3
ENDBRANCH   1   2
BRANCH   1  15
ATOM     15  C   UNL     1      22.967  30.654  46.838  1.00  0.00     0.000 C 
BRANCH  15  16
ATOM     16  C   UNL     1      24.414  31.167  46.723  1.00  0.00     0.000 C 
BRANCH  16  17
ATOM     17  C   UNL     1      24.803  31.723  45.339  1.00  0.00     0.000 C 
BRANCH  17  18
ATOM     18  C   UNL     1      25.111  30.657  44.270  1.00  0.00    -0.000 C 
BRANCH  18  19
ATOM     19  C   UNL     1      23.920  30.278  43.367  1.00  0.00    -0.000 C 
BRANCH  19  20
ATOM     20  C   UNL     1      23.645  28.767  43.255  1.00  0.00    -0.000 C 
BRANCH  20  21
ATOM     21  C   UNL     1      22.509  28.297  44.176  1.00  0.00    -0.000 C 
BRANCH  21  22
ATOM     22  C   UNL     1      23.029  27.319  45.235  1.00  0.00    -0.000 C 
BRANCH  22  23
ATOM     23  C   UNL     1      21.882  26.788  46.104  1.00  0.00    -0.000 C 
BRANCH  23  24
ATOM     24  C   UNL     1      20.552  27.458  45.727  1.00  0.00    -0.000 C 
BRANCH  24  25
ATOM     25  C   UNL     1      19.610  27.617  46.931  1.00  0.00    -0.003 C 
ATOM     26  C   UNL     1      19.552  29.053  47.453  1.00  0.00     0.004 C 
ENDBRANCH  24  25
ENDBRANCH  23  24
ENDBRANCH  22  23
ENDBRANCH  21  22
ENDBRANCH  20  21
ENDBRANCH  19  20
ENDBRANCH  18  19
ENDBRANCH  17  18
ENDBRANCH  16  17
ENDBRANCH  15  16
ENDBRANCH   1  15
TORSDOF 22
ENDMDL
