MODEL 1
REMARK VINA RESULT:    -8.186      0.000      0.000
REMARK INTER + INTRA:         -12.640
REMARK INTER:                 -12.015
REMARK INTRA:                  -0.625
REMARK UNBOUND:                -0.625
REMARK SMILES O=c1c(O[C@H]2O[C@H](CO)[C@H](O)[C@@H](O)[C@H]2O)c(-c2ccc(O)c(O)c2)oc2cc(O)cc(O)c12
REMARK SMILES IDX 4 1 3 2 16 3 25 4 2 5 26 6 1 7 33 8 27 9 31 10 28 11 30 12
REMARK SMILES IDX 17 13 18 14 19 15 20 16 24 17 22 18 21 19 23 21 32 23 29 25
REMARK SMILES IDX 5 27 14 28 6 29 12 30 7 31 10 32 15 33 13 35 8 37 9 38 11 40
REMARK H PARENT 21 20 23 22 32 24 29 26 15 34 13 36 9 39 11 41
REMARK Flexibility Score: inf
ROOT
ATOM      1  O   UNL     1     149.382 169.838 152.972  1.00  0.00    -0.454 OA
ENDROOT
BRANCH   1   2
ATOM      2  C   UNL     1     150.615 169.218 153.218  1.00  0.00     0.214 A 
ATOM      3  C   UNL     1     150.701 167.888 153.673  1.00  0.00     0.180 A 
ATOM      4  O   UNL     1     151.889 167.307 153.780  1.00  0.00    -0.452 OA
ATOM      5  C   UNL     1     151.795 169.935 152.989  1.00  0.00     0.239 A 
ATOM      6  C   UNL     1     153.034 167.935 153.542  1.00  0.00     0.146 A 
ATOM      7  O   UNL     1     151.704 171.116 152.569  1.00  0.00    -0.285 OA
ATOM      8  C   UNL     1     153.050 169.308 153.181  1.00  0.00     0.111 A 
ATOM      9  C   UNL     1     154.227 167.218 153.656  1.00  0.00     0.094 A 
ATOM     10  C   UNL     1     154.311 169.949 152.993  1.00  0.00     0.134 A 
ATOM     11  C   UNL     1     155.451 167.838 153.413  1.00  0.00     0.123 A 
ATOM     12  C   UNL     1     155.488 169.194 153.081  1.00  0.00     0.093 A 
BRANCH   3  13
ATOM     13  C   UNL     1     149.505 167.102 154.051  1.00  0.00     0.025 A 
ATOM     14  C   UNL     1     148.774 167.456 155.195  1.00  0.00     0.016 A 
ATOM     15  C   UNL     1     147.639 166.728 155.561  1.00  0.00     0.051 A 
ATOM     16  C   UNL     1     147.212 165.645 154.780  1.00  0.00     0.157 A 
ATOM     17  C   UNL     1     149.060 166.032 153.257  1.00  0.00     0.062 A 
ATOM     18  C   UNL     1     147.925 165.299 153.619  1.00  0.00     0.158 A 
BRANCH  16  19
ATOM     19  O   UNL     1     146.083 164.917 155.149  1.00  0.00    -0.504 OA
ATOM     20  H   UNL     1     145.163 165.146 154.792  1.00  0.00     0.293 HD
ENDBRANCH  16  19
BRANCH  18  21
ATOM     21  O   UNL     1     147.520 164.235 152.815  1.00  0.00    -0.504 OA
ATOM     22  H   UNL     1     146.990 163.454 153.182  1.00  0.00     0.293 HD
ENDBRANCH  18  21
ENDBRANCH   3  13
BRANCH  10  23
ATOM     23  O   UNL     1     154.464 171.316 152.747  1.00  0.00    -0.507 OA
ATOM     24  H   UNL     1     154.588 172.018 153.460  1.00  0.00     0.293 HD
ENDBRANCH  10  23
BRANCH  11  25
ATOM     25  O   UNL     1     156.628 167.098 153.512  1.00  0.00    -0.508 OA
ATOM     26  H   UNL     1     156.924 166.472 152.774  1.00  0.00     0.293 HD
ENDBRANCH  11  25
ENDBRANCH   1   2
BRANCH   1  27
ATOM     27  C   UNL     1     149.053 170.458 151.722  1.00  0.00     0.339 C 
ATOM     28  C   UNL     1     147.524 170.610 151.563  1.00  0.00     0.214 C 
ATOM     29  O   UNL     1     149.614 169.735 150.637  1.00  0.00    -0.332 OA
ATOM     30  C   UNL     1     146.851 169.237 151.377  1.00  0.00     0.180 C 
ATOM     31  C   UNL     1     149.095 168.416 150.567  1.00  0.00     0.179 C 
ATOM     32  C   UNL     1     147.576 168.441 150.276  1.00  0.00     0.177 C 
BRANCH  28  33
ATOM     33  O   UNL     1     146.972 171.269 152.674  1.00  0.00    -0.384 OA
ATOM     34  H   UNL     1     145.988 171.274 152.545  1.00  0.00     0.211 HD
ENDBRANCH  28  33
BRANCH  30  35
ATOM     35  O   UNL     1     146.881 168.502 152.577  1.00  0.00    -0.387 OA
ATOM     36  H   UNL     1     147.644 168.848 153.110  1.00  0.00     0.211 HD
ENDBRANCH  30  35
BRANCH  31  37
ATOM     37  C   UNL     1     149.866 167.649 149.481  1.00  0.00     0.191 C 
BRANCH  37  38
ATOM     38  O   UNL     1     150.048 168.440 148.337  1.00  0.00    -0.394 OA
ATOM     39  H   UNL     1     150.507 167.869 147.666  1.00  0.00     0.210 HD
ENDBRANCH  37  38
ENDBRANCH  31  37
BRANCH  32  40
ATOM     40  O   UNL     1     147.339 169.034 149.023  1.00  0.00    -0.387 OA
ATOM     41  H   UNL     1     147.738 168.432 148.342  1.00  0.00     0.211 HD
ENDBRANCH  32  40
ENDBRANCH   1  27
TORSDOF 12
ENDMDL
MODEL 2
REMARK VINA RESULT:    -8.128      3.251      6.713
REMARK INTER + INTRA:         -12.554
REMARK INTER:                 -11.522
REMARK INTRA:                  -1.032
REMARK UNBOUND:                -0.625
REMARK SMILES O=c1c(O[C@H]2O[C@H](CO)[C@H](O)[C@@H](O)[C@H]2O)c(-c2ccc(O)c(O)c2)oc2cc(O)cc(O)c12
REMARK SMILES IDX 4 1 3 2 16 3 25 4 2 5 26 6 1 7 33 8 27 9 31 10 28 11 30 12
REMARK SMILES IDX 17 13 18 14 19 15 20 16 24 17 22 18 21 19 23 21 32 23 29 25
REMARK SMILES IDX 5 27 14 28 6 29 12 30 7 31 10 32 15 33 13 35 8 37 9 38 11 40
REMARK H PARENT 21 20 23 22 32 24 29 26 15 34 13 36 9 39 11 41
REMARK Flexibility Score: inf
ROOT
ATOM      1  O   UNL     1     146.614 165.463 151.734  1.00  0.00    -0.454 OA
ENDROOT
BRANCH   1   2
ATOM      2  C   UNL     1     147.729 164.615 151.690  1.00  0.00     0.214 A 
ATOM      3  C   UNL     1     148.945 164.951 152.316  1.00  0.00     0.180 A 
ATOM      4  O   UNL     1     149.934 164.066 152.347  1.00  0.00    -0.452 OA
ATOM      5  C   UNL     1     147.627 163.391 151.019  1.00  0.00     0.239 A 
ATOM      6  C   UNL     1     149.872 162.880 151.754  1.00  0.00     0.146 A 
ATOM      7  O   UNL     1     146.532 163.097 150.476  1.00  0.00    -0.285 OA
ATOM      8  C   UNL     1     148.726 162.498 151.008  1.00  0.00     0.111 A 
ATOM      9  C   UNL     1     150.961 162.014 151.875  1.00  0.00     0.094 A 
ATOM     10  C   UNL     1     148.736 161.236 150.342  1.00  0.00     0.134 A 
ATOM     11  C   UNL     1     150.937 160.760 151.270  1.00  0.00     0.123 A 
ATOM     12  C   UNL     1     149.829 160.375 150.511  1.00  0.00     0.093 A 
BRANCH   3  13
ATOM     13  C   UNL     1     149.173 166.272 152.944  1.00  0.00     0.025 A 
ATOM     14  C   UNL     1     149.619 166.343 154.272  1.00  0.00     0.016 A 
ATOM     15  C   UNL     1     149.844 167.582 154.876  1.00  0.00     0.051 A 
ATOM     16  C   UNL     1     149.641 168.767 154.155  1.00  0.00     0.157 A 
ATOM     17  C   UNL     1     148.994 167.461 152.216  1.00  0.00     0.062 A 
ATOM     18  C   UNL     1     149.218 168.704 152.816  1.00  0.00     0.158 A 
BRANCH  16  19
ATOM     19  O   UNL     1     149.862 170.003 154.761  1.00  0.00    -0.504 OA
ATOM     20  H   UNL     1     150.391 170.084 155.621  1.00  0.00     0.293 HD
ENDBRANCH  16  19
BRANCH  18  21
ATOM     21  O   UNL     1     149.018 169.864 152.069  1.00  0.00    -0.504 OA
ATOM     22  H   UNL     1     149.785 170.457 151.779  1.00  0.00     0.293 HD
ENDBRANCH  18  21
ENDBRANCH   3  13
BRANCH  10  23
ATOM     23  O   UNL     1     147.720 160.794 149.490  1.00  0.00    -0.507 OA
ATOM     24  H   UNL     1     147.023 160.107 149.735  1.00  0.00     0.293 HD
ENDBRANCH  10  23
BRANCH  11  25
ATOM     25  O   UNL     1     152.026 159.903 151.421  1.00  0.00    -0.508 OA
ATOM     26  H   UNL     1     152.031 158.976 151.011  1.00  0.00     0.293 HD
ENDBRANCH  11  25
ENDBRANCH   1   2
BRANCH   1  27
ATOM     27  C   UNL     1     145.415 165.142 152.450  1.00  0.00     0.339 C 
ATOM     28  C   UNL     1     144.292 166.156 152.136  1.00  0.00     0.214 C 
ATOM     29  O   UNL     1     145.664 165.069 153.845  1.00  0.00    -0.332 OA
ATOM     30  C   UNL     1     144.614 167.538 152.736  1.00  0.00     0.180 C 
ATOM     31  C   UNL     1     146.107 166.314 154.362  1.00  0.00     0.179 C 
ATOM     32  C   UNL     1     145.002 167.388 154.219  1.00  0.00     0.177 C 
BRANCH  28  33
ATOM     33  O   UNL     1     144.100 166.269 150.748  1.00  0.00    -0.384 OA
ATOM     34  H   UNL     1     144.943 165.973 150.317  1.00  0.00     0.211 HD
ENDBRANCH  28  33
BRANCH  30  35
ATOM     35  O   UNL     1     145.672 168.149 152.039  1.00  0.00    -0.387 OA
ATOM     36  H   UNL     1     145.421 168.156 151.078  1.00  0.00     0.211 HD
ENDBRANCH  30  35
BRANCH  31  37
ATOM     37  C   UNL     1     146.514 166.114 155.830  1.00  0.00     0.191 C 
BRANCH  37  38
ATOM     38  O   UNL     1     145.827 165.031 156.400  1.00  0.00    -0.394 OA
ATOM     39  H   UNL     1     146.040 165.038 157.370  1.00  0.00     0.210 HD
ENDBRANCH  37  38
ENDBRANCH  31  37
BRANCH  32  40
ATOM     40  O   UNL     1     143.875 167.017 154.973  1.00  0.00    -0.387 OA
ATOM     41  H   UNL     1     143.429 166.281 154.480  1.00  0.00     0.211 HD
ENDBRANCH  32  40
ENDBRANCH   1  27
TORSDOF 12
ENDMDL
MODEL 3
REMARK VINA RESULT:    -7.936      2.552      4.939
REMARK INTER + INTRA:         -12.272
REMARK INTER:                 -11.821
REMARK INTRA:                  -0.452
REMARK UNBOUND:                -0.625
REMARK SMILES O=c1c(O[C@H]2O[C@H](CO)[C@H](O)[C@@H](O)[C@H]2O)c(-c2ccc(O)c(O)c2)oc2cc(O)cc(O)c12
REMARK SMILES IDX 4 1 3 2 16 3 25 4 2 5 26 6 1 7 33 8 27 9 31 10 28 11 30 12
REMARK SMILES IDX 17 13 18 14 19 15 20 16 24 17 22 18 21 19 23 21 32 23 29 25
REMARK SMILES IDX 5 27 14 28 6 29 12 30 7 31 10 32 15 33 13 35 8 37 9 38 11 40
REMARK H PARENT 21 20 23 22 32 24 29 26 15 34 13 36 9 39 11 41
REMARK Flexibility Score: inf
ROOT
ATOM      1  O   UNL     1     146.513 167.171 151.968  1.00  0.00    -0.454 OA
ENDROOT
BRANCH   1   2
ATOM      2  C   UNL     1     147.853 167.558 152.098  1.00  0.00     0.214 A 
ATOM      3  C   UNL     1     148.913 166.721 151.699  1.00  0.00     0.180 A 
ATOM      4  O   UNL     1     150.159 167.177 151.733  1.00  0.00    -0.452 OA
ATOM      5  C   UNL     1     148.148 168.821 152.625  1.00  0.00     0.239 A 
ATOM      6  C   UNL     1     150.485 168.379 152.193  1.00  0.00     0.146 A 
ATOM      7  O   UNL     1     147.192 169.565 152.964  1.00  0.00    -0.285 OA
ATOM      8  C   UNL     1     149.494 169.252 152.716  1.00  0.00     0.111 A 
ATOM      9  C   UNL     1     151.825 168.769 152.155  1.00  0.00     0.094 A 
ATOM     10  C   UNL     1     149.907 170.509 153.250  1.00  0.00     0.134 A 
ATOM     11  C   UNL     1     152.210 170.023 152.625  1.00  0.00     0.123 A 
ATOM     12  C   UNL     1     151.254 170.885 153.166  1.00  0.00     0.093 A 
BRANCH   3  13
ATOM     13  C   UNL     1     148.693 165.330 151.244  1.00  0.00     0.025 A 
ATOM     14  C   UNL     1     149.147 164.261 152.031  1.00  0.00     0.016 A 
ATOM     15  C   UNL     1     148.941 162.943 151.618  1.00  0.00     0.051 A 
ATOM     16  C   UNL     1     148.265 162.675 150.419  1.00  0.00     0.157 A 
ATOM     17  C   UNL     1     147.993 165.058 150.056  1.00  0.00     0.062 A 
ATOM     18  C   UNL     1     147.785 163.739 149.637  1.00  0.00     0.158 A 
BRANCH  16  19
ATOM     19  O   UNL     1     148.065 161.359 150.006  1.00  0.00    -0.504 OA
ATOM     20  H   UNL     1     147.135 160.966 149.917  1.00  0.00     0.293 HD
ENDBRANCH  16  19
BRANCH  18  21
ATOM     21  O   UNL     1     147.099 163.506 148.446  1.00  0.00    -0.504 OA
ATOM     22  H   UNL     1     147.074 164.187 147.697  1.00  0.00     0.293 HD
ENDBRANCH  18  21
ENDBRANCH   3  13
BRANCH  10  23
ATOM     23  O   UNL     1     149.048 171.405 153.891  1.00  0.00    -0.507 OA
ATOM     24  H   UNL     1     148.137 171.169 154.255  1.00  0.00     0.293 HD
ENDBRANCH  10  23
BRANCH  11  25
ATOM     25  O   UNL     1     153.550 170.400 152.559  1.00  0.00    -0.508 OA
ATOM     26  H   UNL     1     153.822 171.362 152.399  1.00  0.00     0.293 HD
ENDBRANCH  11  25
ENDBRANCH   1   2
BRANCH   1  27
ATOM     27  C   UNL     1     145.986 165.968 152.544  1.00  0.00     0.339 C 
ATOM     28  C   UNL     1     144.446 166.032 152.651  1.00  0.00     0.214 C 
ATOM     29  O   UNL     1     146.579 165.713 153.808  1.00  0.00    -0.332 OA
ATOM     30  C   UNL     1     144.010 167.062 153.709  1.00  0.00     0.180 C 
ATOM     31  C   UNL     1     146.294 166.748 154.736  1.00  0.00     0.179 C 
ATOM     32  C   UNL     1     144.775 166.821 155.024  1.00  0.00     0.177 C 
BRANCH  28  33
ATOM     33  O   UNL     1     143.875 166.351 151.407  1.00  0.00    -0.384 OA
ATOM     34  H   UNL     1     143.915 165.527 150.854  1.00  0.00     0.211 HD
ENDBRANCH  28  33
BRANCH  30  35
ATOM     35  O   UNL     1     144.259 168.372 153.262  1.00  0.00    -0.387 OA
ATOM     36  H   UNL     1     143.376 168.792 153.088  1.00  0.00     0.211 HD
ENDBRANCH  30  35
BRANCH  31  37
ATOM     37  C   UNL     1     147.101 166.487 156.017  1.00  0.00     0.191 C 
BRANCH  37  38
ATOM     38  O   UNL     1     148.424 166.129 155.716  1.00  0.00    -0.394 OA
ATOM     39  H   UNL     1     148.637 165.334 156.271  1.00  0.00     0.210 HD
ENDBRANCH  37  38
ENDBRANCH  31  37
BRANCH  32  40
ATOM     40  O   UNL     1     144.344 165.620 155.615  1.00  0.00    -0.387 OA
ATOM     41  H   UNL     1     143.356 165.594 155.524  1.00  0.00     0.211 HD
ENDBRANCH  32  40
ENDBRANCH   1  27
TORSDOF 12
ENDMDL
MODEL 4
REMARK VINA RESULT:    -7.774      3.203      6.376
REMARK INTER + INTRA:         -12.035
REMARK INTER:                 -11.154
REMARK INTRA:                  -0.881
REMARK UNBOUND:                -0.625
REMARK SMILES O=c1c(O[C@H]2O[C@H](CO)[C@H](O)[C@@H](O)[C@H]2O)c(-c2ccc(O)c(O)c2)oc2cc(O)cc(O)c12
REMARK SMILES IDX 4 1 3 2 16 3 25 4 2 5 26 6 1 7 33 8 27 9 31 10 28 11 30 12
REMARK SMILES IDX 17 13 18 14 19 15 20 16 24 17 22 18 21 19 23 21 32 23 29 25
REMARK SMILES IDX 5 27 14 28 6 29 12 30 7 31 10 32 15 33 13 35 8 37 9 38 11 40
REMARK H PARENT 21 20 23 22 32 24 29 26 15 34 13 36 9 39 11 41
REMARK Flexibility Score: inf
ROOT
ATOM      1  O   UNL     1     146.780 165.766 151.956  1.00  0.00    -0.454 OA
ENDROOT
BRANCH   1   2
ATOM      2  C   UNL     1     147.871 164.890 151.877  1.00  0.00     0.214 A 
ATOM      3  C   UNL     1     149.132 165.222 152.410  1.00  0.00     0.180 A 
ATOM      4  O   UNL     1     150.101 164.315 152.415  1.00  0.00    -0.452 OA
ATOM      5  C   UNL     1     147.701 163.643 151.264  1.00  0.00     0.239 A 
ATOM      6  C   UNL     1     149.976 163.108 151.877  1.00  0.00     0.146 A 
ATOM      7  O   UNL     1     146.566 163.354 150.804  1.00  0.00    -0.285 OA
ATOM      8  C   UNL     1     148.777 162.724 151.222  1.00  0.00     0.111 A 
ATOM      9  C   UNL     1     151.052 162.222 151.965  1.00  0.00     0.094 A 
ATOM     10  C   UNL     1     148.717 161.436 150.609  1.00  0.00     0.134 A 
ATOM     11  C   UNL     1     150.962 160.945 151.416  1.00  0.00     0.123 A 
ATOM     12  C   UNL     1     149.800 160.557 150.745  1.00  0.00     0.093 A 
BRANCH   3  13
ATOM     13  C   UNL     1     149.428 166.561 152.967  1.00  0.00     0.025 A 
ATOM     14  C   UNL     1     149.957 167.558 152.134  1.00  0.00     0.016 A 
ATOM     15  C   UNL     1     150.236 168.828 152.644  1.00  0.00     0.051 A 
ATOM     16  C   UNL     1     149.974 169.123 153.990  1.00  0.00     0.157 A 
ATOM     17  C   UNL     1     149.143 166.867 154.309  1.00  0.00     0.062 A 
ATOM     18  C   UNL     1     149.421 168.137 154.824  1.00  0.00     0.158 A 
BRANCH  16  19
ATOM     19  O   UNL     1     150.257 170.390 154.497  1.00  0.00    -0.504 OA
ATOM     20  H   UNL     1     149.907 171.230 154.052  1.00  0.00     0.293 HD
ENDBRANCH  16  19
BRANCH  18  21
ATOM     21  O   UNL     1     149.139 168.402 156.164  1.00  0.00    -0.504 OA
ATOM     22  H   UNL     1     149.522 169.206 156.645  1.00  0.00     0.293 HD
ENDBRANCH  18  21
ENDBRANCH   3  13
BRANCH  10  23
ATOM     23  O   UNL     1     147.640 160.985 149.842  1.00  0.00    -0.507 OA
ATOM     24  H   UNL     1     147.553 160.054 149.464  1.00  0.00     0.293 HD
ENDBRANCH  10  23
BRANCH  11  25
ATOM     25  O   UNL     1     152.040 160.069 151.533  1.00  0.00    -0.508 OA
ATOM     26  H   UNL     1     151.951 159.180 152.011  1.00  0.00     0.293 HD
ENDBRANCH  11  25
ENDBRANCH   1   2
BRANCH   1  27
ATOM     27  C   UNL     1     146.028 165.973 153.158  1.00  0.00     0.339 C 
ATOM     28  C   UNL     1     144.510 165.885 152.886  1.00  0.00     0.214 C 
ATOM     29  O   UNL     1     146.371 167.212 153.760  1.00  0.00    -0.332 OA
ATOM     30  C   UNL     1     144.030 167.084 152.048  1.00  0.00     0.180 C 
ATOM     31  C   UNL     1     146.062 168.307 152.912  1.00  0.00     0.179 C 
ATOM     32  C   UNL     1     144.536 168.398 152.672  1.00  0.00     0.177 C 
BRANCH  28  33
ATOM     33  O   UNL     1     144.192 164.683 152.231  1.00  0.00    -0.384 OA
ATOM     34  H   UNL     1     144.739 163.972 152.656  1.00  0.00     0.211 HD
ENDBRANCH  28  33
BRANCH  30  35
ATOM     35  O   UNL     1     144.502 166.988 150.726  1.00  0.00    -0.387 OA
ATOM     36  H   UNL     1     145.493 166.942 150.774  1.00  0.00     0.211 HD
ENDBRANCH  30  35
BRANCH  31  37
ATOM     37  C   UNL     1     146.611 169.590 153.555  1.00  0.00     0.191 C 
BRANCH  37  38
ATOM     38  O   UNL     1     146.343 170.710 152.754  1.00  0.00    -0.394 OA
ATOM     39  H   UNL     1     145.355 170.803 152.718  1.00  0.00     0.210 HD
ENDBRANCH  37  38
ENDBRANCH  31  37
BRANCH  32  40
ATOM     40  O   UNL     1     143.875 168.634 153.891  1.00  0.00    -0.387 OA
ATOM     41  H   UNL     1     143.396 167.797 154.125  1.00  0.00     0.211 HD
ENDBRANCH  32  40
ENDBRANCH   1  27
TORSDOF 12
ENDMDL
MODEL 5
REMARK VINA RESULT:    -7.436      2.104      3.040
REMARK INTER + INTRA:         -11.538
REMARK INTER:                 -10.883
REMARK INTRA:                  -0.655
REMARK UNBOUND:                -0.625
REMARK SMILES O=c1c(O[C@H]2O[C@H](CO)[C@H](O)[C@@H](O)[C@H]2O)c(-c2ccc(O)c(O)c2)oc2cc(O)cc(O)c12
REMARK SMILES IDX 4 1 3 2 16 3 25 4 2 5 26 6 1 7 33 8 27 9 31 10 28 11 30 12
REMARK SMILES IDX 17 13 18 14 19 15 20 16 24 17 22 18 21 19 23 21 32 23 29 25
REMARK SMILES IDX 5 27 14 28 6 29 12 30 7 31 10 32 15 33 13 35 8 37 9 38 11 40
REMARK H PARENT 21 20 23 22 32 24 29 26 15 34 13 36 9 39 11 41
REMARK Flexibility Score: inf
ROOT
ATOM      1  O   UNL     1     147.745 168.077 153.450  1.00  0.00    -0.454 OA
ENDROOT
BRANCH   1   2
ATOM      2  C   UNL     1     149.105 168.267 153.170  1.00  0.00     0.214 A 
ATOM      3  C   UNL     1     149.861 167.310 152.465  1.00  0.00     0.180 A 
ATOM      4  O   UNL     1     151.114 167.587 152.123  1.00  0.00    -0.452 OA
ATOM      5  C   UNL     1     149.727 169.449 153.588  1.00  0.00     0.239 A 
ATOM      6  C   UNL     1     151.735 168.708 152.467  1.00  0.00     0.146 A 
ATOM      7  O   UNL     1     149.037 170.301 154.204  1.00  0.00    -0.285 OA
ATOM      8  C   UNL     1     151.086 169.684 153.269  1.00  0.00     0.111 A 
ATOM      9  C   UNL     1     153.045 168.909 152.027  1.00  0.00     0.094 A 
ATOM     10  C   UNL     1     151.821 170.844 153.659  1.00  0.00     0.134 A 
ATOM     11  C   UNL     1     153.734 170.072 152.363  1.00  0.00     0.123 A 
ATOM     12  C   UNL     1     153.121 171.032 153.172  1.00  0.00     0.093 A 
BRANCH   3  13
ATOM     13  C   UNL     1     149.313 165.988 152.092  1.00  0.00     0.025 A 
ATOM     14  C   UNL     1     149.281 164.955 153.042  1.00  0.00     0.016 A 
ATOM     15  C   UNL     1     148.761 163.703 152.706  1.00  0.00     0.051 A 
ATOM     16  C   UNL     1     148.251 163.471 151.420  1.00  0.00     0.157 A 
ATOM     17  C   UNL     1     148.779 165.759 150.812  1.00  0.00     0.062 A 
ATOM     18  C   UNL     1     148.257 164.507 150.471  1.00  0.00     0.158 A 
BRANCH  16  19
ATOM     19  O   UNL     1     147.737 162.219 151.086  1.00  0.00    -0.504 OA
ATOM     20  H   UNL     1     147.398 162.017 150.153  1.00  0.00     0.293 HD
ENDBRANCH  16  19
BRANCH  18  21
ATOM     21  O   UNL     1     147.748 164.311 149.188  1.00  0.00    -0.504 OA
ATOM     22  H   UNL     1     148.137 164.777 148.378  1.00  0.00     0.293 HD
ENDBRANCH  18  21
ENDBRANCH   3  13
BRANCH  10  23
ATOM     23  O   UNL     1     151.334 171.818 154.534  1.00  0.00    -0.507 OA
ATOM     24  H   UNL     1     151.630 172.783 154.542  1.00  0.00     0.293 HD
ENDBRANCH  10  23
BRANCH  11  25
ATOM     25  O   UNL     1     155.033 170.262 151.896  1.00  0.00    -0.508 OA
ATOM     26  H   UNL     1     155.779 170.563 152.512  1.00  0.00     0.293 HD
ENDBRANCH  11  25
ENDBRANCH   1   2
BRANCH   1  27
ATOM     27  C   UNL     1     146.728 169.008 153.060  1.00  0.00     0.339 C 
ATOM     28  C   UNL     1     145.319 168.397 153.235  1.00  0.00     0.214 C 
ATOM     29  O   UNL     1     146.933 169.451 151.728  1.00  0.00    -0.332 OA
ATOM     30  C   UNL     1     145.075 167.273 152.211  1.00  0.00     0.180 C 
ATOM     31  C   UNL     1     146.855 168.377 150.803  1.00  0.00     0.179 C 
ATOM     32  C   UNL     1     145.434 167.765 150.797  1.00  0.00     0.177 C 
BRANCH  28  33
ATOM     33  O   UNL     1     145.152 167.903 154.540  1.00  0.00    -0.384 OA
ATOM     34  H   UNL     1     144.646 168.592 155.045  1.00  0.00     0.211 HD
ENDBRANCH  28  33
BRANCH  30  35
ATOM     35  O   UNL     1     145.852 166.141 152.519  1.00  0.00    -0.387 OA
ATOM     36  H   UNL     1     146.554 166.436 153.157  1.00  0.00     0.211 HD
ENDBRANCH  30  35
BRANCH  31  37
ATOM     37  C   UNL     1     147.251 168.902 149.414  1.00  0.00     0.191 C 
BRANCH  37  38
ATOM     38  O   UNL     1     147.615 167.848 148.562  1.00  0.00    -0.394 OA
ATOM     39  H   UNL     1     147.644 167.028 149.121  1.00  0.00     0.210 HD
ENDBRANCH  37  38
ENDBRANCH  31  37
BRANCH  32  40
ATOM     40  O   UNL     1     144.501 168.728 150.374  1.00  0.00    -0.387 OA
ATOM     41  H   UNL     1     144.919 169.221 149.621  1.00  0.00     0.211 HD
ENDBRANCH  32  40
ENDBRANCH   1  27
TORSDOF 12
ENDMDL
MODEL 6
REMARK VINA RESULT:    -7.349      3.808      7.062
REMARK INTER + INTRA:         -11.411
REMARK INTER:                  -9.571
REMARK INTRA:                  -1.840
REMARK UNBOUND:                -0.625
REMARK SMILES O=c1c(O[C@H]2O[C@H](CO)[C@H](O)[C@@H](O)[C@H]2O)c(-c2ccc(O)c(O)c2)oc2cc(O)cc(O)c12
REMARK SMILES IDX 4 1 3 2 16 3 25 4 2 5 26 6 1 7 33 8 27 9 31 10 28 11 30 12
REMARK SMILES IDX 17 13 18 14 19 15 20 16 24 17 22 18 21 19 23 21 32 23 29 25
REMARK SMILES IDX 5 27 14 28 6 29 12 30 7 31 10 32 15 33 13 35 8 37 9 38 11 40
REMARK H PARENT 21 20 23 22 32 24 29 26 15 34 13 36 9 39 11 41
REMARK Flexibility Score: inf
ROOT
ATOM      1  O   UNL     1     149.220 164.785 152.887  1.00  0.00    -0.454 OA
ENDROOT
BRANCH   1   2
ATOM      2  C   UNL     1     148.929 163.776 151.959  1.00  0.00     0.214 A 
ATOM      3  C   UNL     1     147.806 163.844 151.112  1.00  0.00     0.180 A 
ATOM      4  O   UNL     1     147.637 162.924 150.170  1.00  0.00    -0.452 OA
ATOM      5  C   UNL     1     149.789 162.676 151.859  1.00  0.00     0.239 A 
ATOM      6  C   UNL     1     148.444 161.881 150.014  1.00  0.00     0.146 A 
ATOM      7  O   UNL     1     150.796 162.634 152.611  1.00  0.00    -0.285 OA
ATOM      8  C   UNL     1     149.542 161.672 150.891  1.00  0.00     0.111 A 
ATOM      9  C   UNL     1     148.190 160.989 148.971  1.00  0.00     0.094 A 
ATOM     10  C   UNL     1     150.341 160.503 150.714  1.00  0.00     0.134 A 
ATOM     11  C   UNL     1     149.012 159.883 148.770  1.00  0.00     0.123 A 
ATOM     12  C   UNL     1     150.082 159.647 149.637  1.00  0.00     0.093 A 
BRANCH   3  13
ATOM     13  C   UNL     1     146.787 164.910 151.235  1.00  0.00     0.025 A 
ATOM     14  C   UNL     1     145.688 164.726 152.086  1.00  0.00     0.016 A 
ATOM     15  C   UNL     1     144.721 165.726 152.217  1.00  0.00     0.051 A 
ATOM     16  C   UNL     1     144.849 166.930 151.510  1.00  0.00     0.157 A 
ATOM     17  C   UNL     1     146.926 166.128 150.546  1.00  0.00     0.062 A 
ATOM     18  C   UNL     1     145.960 167.132 150.673  1.00  0.00     0.158 A 
BRANCH  16  19
ATOM     19  O   UNL     1     143.880 167.924 151.638  1.00  0.00    -0.504 OA
ATOM     20  H   UNL     1     143.469 168.371 150.827  1.00  0.00     0.293 HD
ENDBRANCH  16  19
BRANCH  18  21
ATOM     21  O   UNL     1     146.121 168.322 149.965  1.00  0.00    -0.504 OA
ATOM     22  H   UNL     1     146.783 168.410 149.204  1.00  0.00     0.293 HD
ENDBRANCH  18  21
ENDBRANCH   3  13
BRANCH  10  23
ATOM     23  O   UNL     1     151.376 160.128 151.575  1.00  0.00    -0.507 OA
ATOM     24  H   UNL     1     151.245 159.743 152.498  1.00  0.00     0.293 HD
ENDBRANCH  10  23
BRANCH  11  25
ATOM     25  O   UNL     1     148.752 159.017 147.710  1.00  0.00    -0.508 OA
ATOM     26  H   UNL     1     149.262 158.148 147.598  1.00  0.00     0.293 HD
ENDBRANCH  11  25
ENDBRANCH   1   2
BRANCH   1  27
ATOM     27  C   UNL     1     150.147 165.846 152.626  1.00  0.00     0.339 C 
ATOM     28  C   UNL     1     151.117 166.042 153.812  1.00  0.00     0.214 C 
ATOM     29  O   UNL     1     149.461 167.050 152.319  1.00  0.00    -0.332 OA
ATOM     30  C   UNL     1     150.379 166.612 155.038  1.00  0.00     0.180 C 
ATOM     31  C   UNL     1     148.663 167.488 153.408  1.00  0.00     0.179 C 
ATOM     32  C   UNL     1     149.549 167.842 154.626  1.00  0.00     0.177 C 
BRANCH  28  33
ATOM     33  O   UNL     1     151.740 164.828 154.149  1.00  0.00    -0.384 OA
ATOM     34  H   UNL     1     151.656 164.234 153.358  1.00  0.00     0.211 HD
ENDBRANCH  28  33
BRANCH  30  35
ATOM     35  O   UNL     1     149.527 165.645 155.601  1.00  0.00    -0.387 OA
ATOM     36  H   UNL     1     150.031 165.207 156.336  1.00  0.00     0.211 HD
ENDBRANCH  30  35
BRANCH  31  37
ATOM     37  C   UNL     1     147.829 168.693 152.946  1.00  0.00     0.191 C 
BRANCH  37  38
ATOM     38  O   UNL     1     148.469 169.378 151.902  1.00  0.00    -0.394 OA
ATOM     39  H   UNL     1     147.795 169.491 151.181  1.00  0.00     0.210 HD
ENDBRANCH  37  38
ENDBRANCH  31  37
BRANCH  32  40
ATOM     40  O   UNL     1     150.404 168.909 154.300  1.00  0.00    -0.387 OA
ATOM     41  H   UNL     1     150.854 168.667 153.450  1.00  0.00     0.211 HD
ENDBRANCH  32  40
ENDBRANCH   1  27
TORSDOF 12
ENDMDL
MODEL 7
REMARK VINA RESULT:    -7.007      2.107      3.295
REMARK INTER + INTRA:         -10.909
REMARK INTER:                  -9.545
REMARK INTRA:                  -1.364
REMARK UNBOUND:                -0.625
REMARK SMILES O=c1c(O[C@H]2O[C@H](CO)[C@H](O)[C@@H](O)[C@H]2O)c(-c2ccc(O)c(O)c2)oc2cc(O)cc(O)c12
REMARK SMILES IDX 4 1 3 2 16 3 25 4 2 5 26 6 1 7 33 8 27 9 31 10 28 11 30 12
REMARK SMILES IDX 17 13 18 14 19 15 20 16 24 17 22 18 21 19 23 21 32 23 29 25
REMARK SMILES IDX 5 27 14 28 6 29 12 30 7 31 10 32 15 33 13 35 8 37 9 38 11 40
REMARK H PARENT 21 20 23 22 32 24 29 26 15 34 13 36 9 39 11 41
REMARK Flexibility Score: inf
ROOT
ATOM      1  O   UNL     1     148.619 168.991 153.521  1.00  0.00    -0.454 OA
ENDROOT
BRANCH   1   2
ATOM      2  C   UNL     1     149.939 168.856 153.070  1.00  0.00     0.214 A 
ATOM      3  C   UNL     1     150.370 167.719 152.359  1.00  0.00     0.180 A 
ATOM      4  O   UNL     1     151.596 167.688 151.852  1.00  0.00    -0.452 OA
ATOM      5  C   UNL     1     150.852 169.887 153.320  1.00  0.00     0.239 A 
ATOM      6  C   UNL     1     152.487 168.656 152.033  1.00  0.00     0.146 A 
ATOM      7  O   UNL     1     150.451 170.902 153.944  1.00  0.00    -0.285 OA
ATOM      8  C   UNL     1     152.176 169.792 152.827  1.00  0.00     0.111 A 
ATOM      9  C   UNL     1     153.740 168.534 151.429  1.00  0.00     0.094 A 
ATOM     10  C   UNL     1     153.190 170.774 153.037  1.00  0.00     0.134 A 
ATOM     11  C   UNL     1     154.703 169.528 151.591  1.00  0.00     0.123 A 
ATOM     12  C   UNL     1     154.425 170.640 152.389  1.00  0.00     0.093 A 
BRANCH   3  13
ATOM     13  C   UNL     1     149.503 166.538 152.157  1.00  0.00     0.025 A 
ATOM     14  C   UNL     1     149.180 165.717 153.248  1.00  0.00     0.016 A 
ATOM     15  C   UNL     1     148.358 164.601 153.073  1.00  0.00     0.051 A 
ATOM     16  C   UNL     1     147.835 164.300 151.808  1.00  0.00     0.157 A 
ATOM     17  C   UNL     1     148.957 166.247 150.894  1.00  0.00     0.062 A 
ATOM     18  C   UNL     1     148.133 165.130 150.714  1.00  0.00     0.158 A 
BRANCH  16  19
ATOM     19  O   UNL     1     147.018 163.183 151.635  1.00  0.00    -0.504 OA
ATOM     20  H   UNL     1     147.185 162.321 152.141  1.00  0.00     0.293 HD
ENDBRANCH  16  19
BRANCH  18  21
ATOM     21  O   UNL     1     147.620 164.864 149.446  1.00  0.00    -0.504 OA
ATOM     22  H   UNL     1     147.725 165.512 148.675  1.00  0.00     0.293 HD
ENDBRANCH  18  21
ENDBRANCH   3  13
BRANCH  10  23
ATOM     23  O   UNL     1     153.047 171.876 153.884  1.00  0.00    -0.507 OA
ATOM     24  H   UNL     1     152.552 172.722 153.647  1.00  0.00     0.293 HD
ENDBRANCH  10  23
BRANCH  11  25
ATOM     25  O   UNL     1     155.940 169.396 150.962  1.00  0.00    -0.508 OA
ATOM     26  H   UNL     1     156.712 170.015 151.177  1.00  0.00     0.293 HD
ENDBRANCH  11  25
ENDBRANCH   1   2
BRANCH   1  27
ATOM     27  C   UNL     1     147.485 168.945 152.647  1.00  0.00     0.339 C 
ATOM     28  C   UNL     1     146.710 170.281 152.670  1.00  0.00     0.214 C 
ATOM     29  O   UNL     1     146.638 167.855 152.976  1.00  0.00    -0.332 OA
ATOM     30  C   UNL     1     146.008 170.487 154.025  1.00  0.00     0.180 C 
ATOM     31  C   UNL     1     146.114 167.980 154.289  1.00  0.00     0.179 C 
ATOM     32  C   UNL     1     145.205 169.227 154.398  1.00  0.00     0.177 C 
BRANCH  28  33
ATOM     33  O   UNL     1     147.572 171.359 152.407  1.00  0.00    -0.384 OA
ATOM     34  H   UNL     1     147.416 172.032 153.120  1.00  0.00     0.211 HD
ENDBRANCH  28  33
BRANCH  30  35
ATOM     35  O   UNL     1     146.949 170.754 155.038  1.00  0.00    -0.387 OA
ATOM     36  H   UNL     1     147.842 170.775 154.605  1.00  0.00     0.211 HD
ENDBRANCH  30  35
BRANCH  31  37
ATOM     37  C   UNL     1     145.350 166.691 154.632  1.00  0.00     0.191 C 
BRANCH  37  38
ATOM     38  O   UNL     1     144.743 166.146 153.490  1.00  0.00    -0.394 OA
ATOM     39  H   UNL     1     143.767 166.122 153.671  1.00  0.00     0.210 HD
ENDBRANCH  37  38
ENDBRANCH  31  37
BRANCH  32  40
ATOM     40  O   UNL     1     144.102 169.091 153.536  1.00  0.00    -0.387 OA
ATOM     41  H   UNL     1     143.424 169.752 153.832  1.00  0.00     0.211 HD
ENDBRANCH  32  40
ENDBRANCH   1  27
TORSDOF 12
ENDMDL
MODEL 8
REMARK VINA RESULT:    -6.995      1.829      2.794
REMARK INTER + INTRA:         -10.892
REMARK INTER:                  -8.870
REMARK INTRA:                  -2.022
REMARK UNBOUND:                -0.625
REMARK SMILES O=c1c(O[C@H]2O[C@H](CO)[C@H](O)[C@@H](O)[C@H]2O)c(-c2ccc(O)c(O)c2)oc2cc(O)cc(O)c12
REMARK SMILES IDX 4 1 3 2 16 3 25 4 2 5 26 6 1 7 33 8 27 9 31 10 28 11 30 12
REMARK SMILES IDX 17 13 18 14 19 15 20 16 24 17 22 18 21 19 23 21 32 23 29 25
REMARK SMILES IDX 5 27 14 28 6 29 12 30 7 31 10 32 15 33 13 35 8 37 9 38 11 40
REMARK H PARENT 21 20 23 22 32 24 29 26 15 34 13 36 9 39 11 41
REMARK Flexibility Score: inf
ROOT
ATOM      1  O   UNL     1     149.072 168.046 152.394  1.00  0.00    -0.454 OA
ENDROOT
BRANCH   1   2
ATOM      2  C   UNL     1     150.040 167.295 153.074  1.00  0.00     0.214 A 
ATOM      3  C   UNL     1     149.725 166.082 153.717  1.00  0.00     0.180 A 
ATOM      4  O   UNL     1     150.697 165.349 154.247  1.00  0.00    -0.452 OA
ATOM      5  C   UNL     1     151.362 167.754 153.101  1.00  0.00     0.239 A 
ATOM      6  C   UNL     1     151.969 165.726 154.267  1.00  0.00     0.146 A 
ATOM      7  O   UNL     1     151.633 168.831 152.510  1.00  0.00    -0.285 OA
ATOM      8  C   UNL     1     152.365 166.983 153.737  1.00  0.00     0.111 A 
ATOM      9  C   UNL     1     152.914 164.862 154.824  1.00  0.00     0.094 A 
ATOM     10  C   UNL     1     153.737 167.363 153.838  1.00  0.00     0.134 A 
ATOM     11  C   UNL     1     154.261 165.218 154.864  1.00  0.00     0.123 A 
ATOM     12  C   UNL     1     154.666 166.460 154.370  1.00  0.00     0.093 A 
BRANCH   3  13
ATOM     13  C   UNL     1     148.336 165.588 153.837  1.00  0.00     0.025 A 
ATOM     14  C   UNL     1     147.457 166.197 154.745  1.00  0.00     0.016 A 
ATOM     15  C   UNL     1     146.140 165.745 154.864  1.00  0.00     0.051 A 
ATOM     16  C   UNL     1     145.681 164.688 154.066  1.00  0.00     0.157 A 
ATOM     17  C   UNL     1     147.865 164.545 153.020  1.00  0.00     0.062 A 
ATOM     18  C   UNL     1     146.547 164.088 153.136  1.00  0.00     0.158 A 
BRANCH  16  19
ATOM     19  O   UNL     1     144.368 164.236 154.190  1.00  0.00    -0.504 OA
ATOM     20  H   UNL     1     143.701 164.329 153.433  1.00  0.00     0.293 HD
ENDBRANCH  16  19
BRANCH  18  21
ATOM     21  O   UNL     1     146.118 163.043 152.321  1.00  0.00    -0.504 OA
ATOM     22  H   UNL     1     145.296 162.493 152.539  1.00  0.00     0.293 HD
ENDBRANCH  18  21
ENDBRANCH   3  13
BRANCH  10  23
ATOM     23  O   UNL     1     154.230 168.614 153.456  1.00  0.00    -0.507 OA
ATOM     24  H   UNL     1     153.761 169.250 152.830  1.00  0.00     0.293 HD
ENDBRANCH  10  23
BRANCH  11  25
ATOM     25  O   UNL     1     155.190 164.332 155.406  1.00  0.00    -0.508 OA
ATOM     26  H   UNL     1     155.844 163.826 154.821  1.00  0.00     0.293 HD
ENDBRANCH  11  25
ENDBRANCH   1   2
BRANCH   1  27
ATOM     27  C   UNL     1     148.752 167.843 151.012  1.00  0.00     0.339 C 
ATOM     28  C   UNL     1     148.754 169.182 150.240  1.00  0.00     0.214 C 
ATOM     29  O   UNL     1     147.509 167.173 150.874  1.00  0.00    -0.332 OA
ATOM     30  C   UNL     1     147.571 170.068 150.672  1.00  0.00     0.180 C 
ATOM     31  C   UNL     1     146.442 167.936 151.414  1.00  0.00     0.179 C 
ATOM     32  C   UNL     1     146.263 169.256 150.627  1.00  0.00     0.177 C 
BRANCH  28  33
ATOM     33  O   UNL     1     149.964 169.867 150.437  1.00  0.00    -0.384 OA
ATOM     34  H   UNL     1     150.641 169.425 149.861  1.00  0.00     0.211 HD
ENDBRANCH  28  33
BRANCH  30  35
ATOM     35  O   UNL     1     147.767 170.560 151.976  1.00  0.00    -0.387 OA
ATOM     36  H   UNL     1     146.898 170.933 152.278  1.00  0.00     0.211 HD
ENDBRANCH  30  35
BRANCH  31  37
ATOM     37  C   UNL     1     145.167 167.080 151.381  1.00  0.00     0.191 C 
BRANCH  37  38
ATOM     38  O   UNL     1     144.037 167.869 151.118  1.00  0.00    -0.394 OA
ATOM     39  H   UNL     1     144.302 168.811 151.288  1.00  0.00     0.210 HD
ENDBRANCH  37  38
ENDBRANCH  31  37
BRANCH  32  40
ATOM     40  O   UNL     1     145.920 168.974 149.293  1.00  0.00    -0.387 OA
ATOM     41  H   UNL     1     146.663 169.313 148.728  1.00  0.00     0.211 HD
ENDBRANCH  32  40
ENDBRANCH   1  27
TORSDOF 12
ENDMDL
MODEL 9
REMARK VINA RESULT:    -6.953      2.658      6.686
REMARK INTER + INTRA:         -10.830
REMARK INTER:                 -10.310
REMARK INTRA:                  -0.520
REMARK UNBOUND:                -0.625
REMARK SMILES O=c1c(O[C@H]2O[C@H](CO)[C@H](O)[C@@H](O)[C@H]2O)c(-c2ccc(O)c(O)c2)oc2cc(O)cc(O)c12
REMARK SMILES IDX 4 1 3 2 16 3 25 4 2 5 26 6 1 7 33 8 27 9 31 10 28 11 30 12
REMARK SMILES IDX 17 13 18 14 19 15 20 16 24 17 22 18 21 19 23 21 32 23 29 25
REMARK SMILES IDX 5 27 14 28 6 29 12 30 7 31 10 32 15 33 13 35 8 37 9 38 11 40
REMARK H PARENT 21 20 23 22 32 24 29 26 15 34 13 36 9 39 11 41
REMARK Flexibility Score: inf
ROOT
ATOM      1  O   UNL     1     147.531 166.853 151.089  1.00  0.00    -0.454 OA
ENDROOT
BRANCH   1   2
ATOM      2  C   UNL     1     146.876 166.396 152.241  1.00  0.00     0.214 A 
ATOM      3  C   UNL     1     147.107 165.111 152.768  1.00  0.00     0.180 A 
ATOM      4  O   UNL     1     146.553 164.766 153.924  1.00  0.00    -0.452 OA
ATOM      5  C   UNL     1     145.979 167.247 152.896  1.00  0.00     0.239 A 
ATOM      6  C   UNL     1     145.723 165.552 154.599  1.00  0.00     0.146 A 
ATOM      7  O   UNL     1     145.793 168.398 152.423  1.00  0.00    -0.285 OA
ATOM      8  C   UNL     1     145.348 166.824 154.091  1.00  0.00     0.111 A 
ATOM      9  C   UNL     1     145.221 165.100 155.822  1.00  0.00     0.094 A 
ATOM     10  C   UNL     1     144.406 167.602 154.829  1.00  0.00     0.134 A 
ATOM     11  C   UNL     1     144.348 165.893 156.564  1.00  0.00     0.123 A 
ATOM     12  C   UNL     1     143.948 167.137 156.068  1.00  0.00     0.093 A 
BRANCH   3  13
ATOM     13  C   UNL     1     147.946 164.110 152.073  1.00  0.00     0.025 A 
ATOM     14  C   UNL     1     149.266 163.895 152.496  1.00  0.00     0.016 A 
ATOM     15  C   UNL     1     150.069 162.950 151.854  1.00  0.00     0.051 A 
ATOM     16  C   UNL     1     149.558 162.195 150.789  1.00  0.00     0.157 A 
ATOM     17  C   UNL     1     147.429 163.334 151.021  1.00  0.00     0.062 A 
ATOM     18  C   UNL     1     148.229 162.386 150.374  1.00  0.00     0.158 A 
BRANCH  16  19
ATOM     19  O   UNL     1     150.362 161.255 150.146  1.00  0.00    -0.504 OA
ATOM     20  H   UNL     1     150.208 160.260 150.258  1.00  0.00     0.293 HD
ENDBRANCH  16  19
BRANCH  18  21
ATOM     21  O   UNL     1     147.687 161.644 149.325  1.00  0.00    -0.504 OA
ATOM     22  H   UNL     1     147.011 160.907 149.480  1.00  0.00     0.293 HD
ENDBRANCH  18  21
ENDBRANCH   3  13
BRANCH  10  23
ATOM     23  O   UNL     1     143.875 168.815 154.382  1.00  0.00    -0.507 OA
ATOM     24  H   UNL     1     143.774 169.642 154.951  1.00  0.00     0.293 HD
ENDBRANCH  10  23
BRANCH  11  25
ATOM     25  O   UNL     1     143.875 165.433 157.791  1.00  0.00    -0.508 OA
ATOM     26  H   UNL     1     144.483 165.354 158.597  1.00  0.00     0.293 HD
ENDBRANCH  11  25
ENDBRANCH   1   2
BRANCH   1  27
ATOM     27  C   UNL     1     147.986 168.203 150.930  1.00  0.00     0.339 C 
ATOM     28  C   UNL     1     148.773 168.372 149.612  1.00  0.00     0.214 C 
ATOM     29  O   UNL     1     148.763 168.607 152.047  1.00  0.00    -0.332 OA
ATOM     30  C   UNL     1     150.121 167.629 149.675  1.00  0.00     0.180 C 
ATOM     31  C   UNL     1     149.931 167.814 152.185  1.00  0.00     0.179 C 
ATOM     32  C   UNL     1     150.868 168.005 150.969  1.00  0.00     0.177 C 
BRANCH  28  33
ATOM     33  O   UNL     1     148.020 167.907 148.521  1.00  0.00    -0.384 OA
ATOM     34  H   UNL     1     147.137 167.631 148.880  1.00  0.00     0.211 HD
ENDBRANCH  28  33
BRANCH  30  35
ATOM     35  O   UNL     1     149.924 166.236 149.643  1.00  0.00    -0.387 OA
ATOM     36  H   UNL     1     149.778 165.986 148.693  1.00  0.00     0.211 HD
ENDBRANCH  30  35
BRANCH  31  37
ATOM     37  C   UNL     1     150.627 168.198 153.501  1.00  0.00     0.191 C 
BRANCH  37  38
ATOM     38  O   UNL     1     151.985 167.849 153.473  1.00  0.00    -0.394 OA
ATOM     39  H   UNL     1     152.114 167.155 154.171  1.00  0.00     0.210 HD
ENDBRANCH  37  38
ENDBRANCH  31  37
BRANCH  32  40
ATOM     40  O   UNL     1     151.296 169.343 150.902  1.00  0.00    -0.387 OA
ATOM     41  H   UNL     1     151.239 169.709 151.822  1.00  0.00     0.211 HD
ENDBRANCH  32  40
ENDBRANCH   1  27
TORSDOF 12
ENDMDL
