MODEL 1
REMARK VINA RESULT:    -1.386      0.000      0.000
REMARK INTER + INTRA:          -3.536
REMARK INTER:                  -3.006
REMARK INTRA:                  -0.530
REMARK UNBOUND:                -0.530
REMARK SMILES CCCCCCCCCCCCCCCCCCCCCC(=O)[O-]
REMARK SMILES IDX 12 1 11 2 10 3 9 4 8 5 7 6 6 7 5 8 4 9 3 10 2 11 1 12 13 13
REMARK SMILES IDX 14 14 15 15 16 16 17 17 18 18 19 19 20 20 21 21 22 22 23 23
REMARK SMILES IDX 24 24
REMARK H PARENT
REMARK Flexibility Score: inf
ROOT
ATOM      1  C   UNL     1      12.810 -12.753  -1.175  1.00  0.00     0.000 C 
ENDROOT
BRANCH   1   2
ATOM      2  C   UNL     1      14.274 -12.683  -0.704  1.00  0.00     0.000 C 
BRANCH   2   3
ATOM      3  C   UNL     1      14.422 -12.867   0.813  1.00  0.00     0.000 C 
BRANCH   3   4
ATOM      4  C   UNL     1      14.884 -14.292   1.150  1.00  0.00    -0.000 C 
BRANCH   4   5
ATOM      5  C   UNL     1      13.829 -15.364   0.816  1.00  0.00    -0.000 C 
BRANCH   5   6
ATOM      6  C   UNL     1      14.365 -16.807   0.738  1.00  0.00    -0.000 C 
BRANCH   6   7
ATOM      7  C   UNL     1      15.125 -17.288   1.987  1.00  0.00    -0.000 C 
BRANCH   7   8
ATOM      8  C   UNL     1      14.702 -16.570   3.287  1.00  0.00    -0.000 C 
BRANCH   8   9
ATOM      9  C   UNL     1      13.374 -17.106   3.848  1.00  0.00    -0.000 C 
BRANCH   9  10
ATOM     10  C   UNL     1      13.435 -17.377   5.360  1.00  0.00    -0.000 C 
BRANCH  10  11
ATOM     11  C   UNL     1      14.823 -17.098   5.956  1.00  0.00    -0.003 C 
ATOM     12  C   UNL     1      14.994 -15.617   6.281  1.00  0.00     0.004 C 
ENDBRANCH  10  11
ENDBRANCH   9  10
ENDBRANCH   8   9
ENDBRANCH   7   8
ENDBRANCH   6   7
ENDBRANCH   5   6
ENDBRANCH   4   5
ENDBRANCH   3   4
ENDBRANCH   2   3
ENDBRANCH   1   2
BRANCH   1  13
ATOM     13  C   UNL     1      12.604 -12.561  -2.691  1.00  0.00     0.000 C 
BRANCH  13  14
ATOM     14  C   UNL     1      13.888 -12.281  -3.500  1.00  0.00     0.000 C 
BRANCH  14  15
ATOM     15  C   UNL     1      13.663 -11.888  -4.971  1.00  0.00     0.000 C 
BRANCH  15  16
ATOM     16  C   UNL     1      14.929 -12.040  -5.829  1.00  0.00     0.000 C 
BRANCH  16  17
ATOM     17  C   UNL     1      15.122 -13.471  -6.361  1.00  0.00     0.000 C 
BRANCH  17  18
ATOM     18  C   UNL     1      14.003 -14.467  -5.991  1.00  0.00     0.000 C 
BRANCH  18  19
ATOM     19  C   UNL     1      14.468 -15.717  -5.217  1.00  0.00     0.000 C 
BRANCH  19  20
ATOM     20  C   UNL     1      13.334 -16.657  -4.758  1.00  0.00     0.006 C 
BRANCH  20  21
ATOM     21  C   UNL     1      13.799 -18.069  -4.373  1.00  0.00     0.053 C 
BRANCH  21  22
ATOM     22  C   UNL     1      13.466 -18.400  -2.951  1.00  0.00     0.041 C 
ATOM     23  O   UNL     1      12.949 -17.528  -2.205  1.00  0.00    -0.550 OA
ATOM     24  O   UNL     1      13.762 -19.656  -2.440  1.00  0.00    -0.550 OA
ENDBRANCH  21  22
ENDBRANCH  20  21
ENDBRANCH  19  20
ENDBRANCH  18  19
ENDBRANCH  17  18
ENDBRANCH  16  17
ENDBRANCH  15  16
ENDBRANCH  14  15
ENDBRANCH  13  14
ENDBRANCH   1  13
TORSDOF 20
ENDMDL
MODEL 2
REMARK VINA RESULT:    -1.340      2.755      7.561
REMARK INTER + INTRA:          -3.435
REMARK INTER:                  -1.479
REMARK INTRA:                  -1.957
REMARK UNBOUND:                -0.530
REMARK SMILES CCCCCCCCCCCCCCCCCCCCCC(=O)[O-]
REMARK SMILES IDX 12 1 11 2 10 3 9 4 8 5 7 6 6 7 5 8 4 9 3 10 2 11 1 12 13 13
REMARK SMILES IDX 14 14 15 15 16 16 17 17 18 18 19 19 20 20 21 21 22 22 23 23
REMARK SMILES IDX 24 24
REMARK H PARENT
REMARK Flexibility Score: inf
ROOT
ATOM      1  C   UNL     1      12.755 -17.046  -3.258  1.00  0.00     0.000 C 
ENDROOT
BRANCH   1   2
ATOM      2  C   UNL     1      13.584 -15.801  -3.623  1.00  0.00     0.000 C 
BRANCH   2   3
ATOM      3  C   UNL     1      13.666 -15.560  -5.137  1.00  0.00     0.000 C 
BRANCH   3   4
ATOM      4  C   UNL     1      14.806 -14.587  -5.475  1.00  0.00    -0.000 C 
BRANCH   4   5
ATOM      5  C   UNL     1      14.428 -13.573  -6.572  1.00  0.00    -0.000 C 
BRANCH   5   6
ATOM      6  C   UNL     1      14.213 -12.128  -6.080  1.00  0.00    -0.000 C 
BRANCH   6   7
ATOM      7  C   UNL     1      14.601 -11.875  -4.611  1.00  0.00    -0.000 C 
BRANCH   7   8
ATOM      8  C   UNL     1      13.429 -12.047  -3.620  1.00  0.00    -0.000 C 
BRANCH   8   9
ATOM      9  C   UNL     1      13.898 -12.076  -2.156  1.00  0.00    -0.000 C 
BRANCH   9  10
ATOM     10  C   UNL     1      13.514 -13.378  -1.436  1.00  0.00    -0.000 C 
BRANCH  10  11
ATOM     11  C   UNL     1      13.433 -13.210   0.089  1.00  0.00    -0.003 C 
ATOM     12  C   UNL     1      14.728 -12.629   0.647  1.00  0.00     0.004 C 
ENDBRANCH  10  11
ENDBRANCH   9  10
ENDBRANCH   8   9
ENDBRANCH   7   8
ENDBRANCH   6   7
ENDBRANCH   5   6
ENDBRANCH   4   5
ENDBRANCH   3   4
ENDBRANCH   2   3
ENDBRANCH   1   2
BRANCH   1  13
ATOM     13  C   UNL     1      13.358 -18.388  -3.720  1.00  0.00     0.000 C 
BRANCH  13  14
ATOM     14  C   UNL     1      14.841 -18.604  -3.352  1.00  0.00     0.000 C 
BRANCH  14  15
ATOM     15  C   UNL     1      15.091 -19.575  -2.184  1.00  0.00     0.000 C 
BRANCH  15  16
ATOM     16  C   UNL     1      14.462 -19.095  -0.866  1.00  0.00     0.000 C 
BRANCH  16  17
ATOM     17  C   UNL     1      15.111 -17.806  -0.329  1.00  0.00     0.000 C 
BRANCH  17  18
ATOM     18  C   UNL     1      14.262 -17.018   0.690  1.00  0.00     0.000 C 
BRANCH  18  19
ATOM     19  C   UNL     1      15.052 -16.394   1.859  1.00  0.00     0.000 C 
BRANCH  19  20
ATOM     20  C   UNL     1      14.900 -17.123   3.210  1.00  0.00     0.006 C 
BRANCH  20  21
ATOM     21  C   UNL     1      15.084 -16.222   4.440  1.00  0.00     0.053 C 
BRANCH  21  22
ATOM     22  C   UNL     1      14.614 -16.887   5.696  1.00  0.00     0.041 C 
ATOM     23  O   UNL     1      13.866 -16.268   6.497  1.00  0.00    -0.550 OA
ATOM     24  O   UNL     1      15.033 -18.175   6.002  1.00  0.00    -0.550 OA
ENDBRANCH  21  22
ENDBRANCH  20  21
ENDBRANCH  19  20
ENDBRANCH  18  19
ENDBRANCH  17  18
ENDBRANCH  16  17
ENDBRANCH  15  16
ENDBRANCH  14  15
ENDBRANCH  13  14
ENDBRANCH   1  13
TORSDOF 20
ENDMDL
MODEL 3
REMARK VINA RESULT:    -1.065      2.236      3.991
REMARK INTER + INTRA:          -2.840
REMARK INTER:                  -1.433
REMARK INTRA:                  -1.407
REMARK UNBOUND:                -0.530
REMARK SMILES CCCCCCCCCCCCCCCCCCCCCC(=O)[O-]
REMARK SMILES IDX 12 1 11 2 10 3 9 4 8 5 7 6 6 7 5 8 4 9 3 10 2 11 1 12 13 13
REMARK SMILES IDX 14 14 15 15 16 16 17 17 18 18 19 19 20 20 21 21 22 22 23 23
REMARK SMILES IDX 24 24
REMARK H PARENT
REMARK Flexibility Score: inf
ROOT
ATOM      1  C   UNL     1      11.745 -14.351  -2.230  1.00  0.00     0.000 C 
ENDROOT
BRANCH   1   2
ATOM      2  C   UNL     1      12.428 -12.972  -2.177  1.00  0.00     0.000 C 
BRANCH   2   3
ATOM      3  C   UNL     1      12.929 -12.607  -0.773  1.00  0.00     0.000 C 
BRANCH   3   4
ATOM      4  C   UNL     1      14.458 -12.459  -0.759  1.00  0.00    -0.000 C 
BRANCH   4   5
ATOM      5  C   UNL     1      15.125 -13.192   0.420  1.00  0.00    -0.000 C 
BRANCH   5   6
ATOM      6  C   UNL     1      14.197 -14.130   1.216  1.00  0.00    -0.000 C 
BRANCH   6   7
ATOM      7  C   UNL     1      14.746 -15.550   1.445  1.00  0.00    -0.000 C 
BRANCH   7   8
ATOM      8  C   UNL     1      15.067 -15.862   2.923  1.00  0.00    -0.000 C 
BRANCH   8   9
ATOM      9  C   UNL     1      14.772 -17.326   3.290  1.00  0.00    -0.000 C 
BRANCH   9  10
ATOM     10  C   UNL     1      13.870 -17.456   4.528  1.00  0.00    -0.000 C 
BRANCH  10  11
ATOM     11  C   UNL     1      14.601 -17.107   5.833  1.00  0.00    -0.003 C 
ATOM     12  C   UNL     1      14.455 -15.625   6.164  1.00  0.00     0.004 C 
ENDBRANCH  10  11
ENDBRANCH   9  10
ENDBRANCH   8   9
ENDBRANCH   7   8
ENDBRANCH   6   7
ENDBRANCH   5   6
ENDBRANCH   4   5
ENDBRANCH   3   4
ENDBRANCH   2   3
ENDBRANCH   1   2
BRANCH   1  13
ATOM     13  C   UNL     1      12.369 -15.423  -1.314  1.00  0.00     0.000 C 
BRANCH  13  14
ATOM     14  C   UNL     1      13.458 -16.296  -1.971  1.00  0.00     0.000 C 
BRANCH  14  15
ATOM     15  C   UNL     1      13.082 -17.777  -2.162  1.00  0.00     0.000 C 
BRANCH  15  16
ATOM     16  C   UNL     1      13.310 -18.269  -3.600  1.00  0.00     0.000 C 
BRANCH  16  17
ATOM     17  C   UNL     1      13.144 -17.152  -4.647  1.00  0.00     0.000 C 
BRANCH  17  18
ATOM     18  C   UNL     1      14.461 -16.565  -5.195  1.00  0.00     0.000 C 
BRANCH  18  19
ATOM     19  C   UNL     1      14.573 -15.028  -5.125  1.00  0.00     0.000 C 
BRANCH  19  20
ATOM     20  C   UNL     1      14.524 -14.308  -6.489  1.00  0.00     0.006 C 
BRANCH  20  21
ATOM     21  C   UNL     1      14.811 -12.801  -6.420  1.00  0.00     0.053 C 
BRANCH  21  22
ATOM     22  C   UNL     1      14.306 -12.193  -5.148  1.00  0.00     0.041 C 
ATOM     23  O   UNL     1      15.091 -12.001  -4.184  1.00  0.00    -0.550 OA
ATOM     24  O   UNL     1      12.961 -11.875  -5.014  1.00  0.00    -0.550 OA
ENDBRANCH  21  22
ENDBRANCH  20  21
ENDBRANCH  19  20
ENDBRANCH  18  19
ENDBRANCH  17  18
ENDBRANCH  16  17
ENDBRANCH  15  16
ENDBRANCH  14  15
ENDBRANCH  13  14
ENDBRANCH   1  13
TORSDOF 20
ENDMDL
MODEL 4
REMARK VINA RESULT:    -0.478      2.914      7.860
REMARK INTER + INTRA:          -1.567
REMARK INTER:                  -1.522
REMARK INTRA:                  -0.045
REMARK UNBOUND:                -0.530
REMARK SMILES CCCCCCCCCCCCCCCCCCCCCC(=O)[O-]
REMARK SMILES IDX 12 1 11 2 10 3 9 4 8 5 7 6 6 7 5 8 4 9 3 10 2 11 1 12 13 13
REMARK SMILES IDX 14 14 15 15 16 16 17 17 18 18 19 19 20 20 21 21 22 22 23 23
REMARK SMILES IDX 24 24
REMARK H PARENT
REMARK Flexibility Score: inf
ROOT
ATOM      1  C   UNL     1      12.826 -13.549  -1.047  1.00  0.00     0.000 C 
ENDROOT
BRANCH   1   2
ATOM      2  C   UNL     1      12.348 -13.835  -2.482  1.00  0.00     0.000 C 
BRANCH   2   3
ATOM      3  C   UNL     1      12.488 -12.621  -3.412  1.00  0.00     0.000 C 
BRANCH   3   4
ATOM      4  C   UNL     1      13.934 -12.476  -3.907  1.00  0.00    -0.000 C 
BRANCH   4   5
ATOM      5  C   UNL     1      14.031 -11.875  -5.322  1.00  0.00    -0.000 C 
BRANCH   5   6
ATOM      6  C   UNL     1      14.676 -12.792  -6.379  1.00  0.00    -0.000 C 
BRANCH   6   7
ATOM      7  C   UNL     1      15.111 -14.176  -5.863  1.00  0.00    -0.000 C 
BRANCH   7   8
ATOM      8  C   UNL     1      13.979 -15.226  -5.869  1.00  0.00    -0.000 C 
BRANCH   8   9
ATOM      9  C   UNL     1      14.025 -16.145  -4.636  1.00  0.00    -0.000 C 
BRANCH   9  10
ATOM     10  C   UNL     1      13.324 -17.492  -4.875  1.00  0.00    -0.000 C 
BRANCH  10  11
ATOM     11  C   UNL     1      13.690 -18.545  -3.818  1.00  0.00    -0.003 C 
ATOM     12  C   UNL     1      13.351 -18.054  -2.413  1.00  0.00     0.004 C 
ENDBRANCH  10  11
ENDBRANCH   9  10
ENDBRANCH   8   9
ENDBRANCH   7   8
ENDBRANCH   6   7
ENDBRANCH   5   6
ENDBRANCH   4   5
ENDBRANCH   3   4
ENDBRANCH   2   3
ENDBRANCH   1   2
BRANCH   1  13
ATOM     13  C   UNL     1      13.670 -12.269  -0.885  1.00  0.00     0.000 C 
BRANCH  13  14
ATOM     14  C   UNL     1      14.085 -11.933   0.562  1.00  0.00     0.000 C 
BRANCH  14  15
ATOM     15  C   UNL     1      15.002 -12.969   1.238  1.00  0.00     0.000 C 
BRANCH  15  16
ATOM     16  C   UNL     1      14.565 -14.418   0.966  1.00  0.00     0.000 C 
BRANCH  16  17
ATOM     17  C   UNL     1      15.123 -15.413   2.000  1.00  0.00     0.000 C 
BRANCH  17  18
ATOM     18  C   UNL     1      14.468 -16.810   1.987  1.00  0.00     0.000 C 
BRANCH  18  19
ATOM     19  C   UNL     1      15.123 -17.850   2.918  1.00  0.00     0.000 C 
BRANCH  19  20
ATOM     20  C   UNL     1      14.549 -17.896   4.349  1.00  0.00     0.006 C 
BRANCH  20  21
ATOM     21  C   UNL     1      13.981 -16.559   4.846  1.00  0.00     0.053 C 
BRANCH  21  22
ATOM     22  C   UNL     1      14.290 -16.322   6.292  1.00  0.00     0.041 C 
ATOM     23  O   UNL     1      14.173 -17.260   7.124  1.00  0.00    -0.550 OA
ATOM     24  O   UNL     1      14.670 -15.060   6.727  1.00  0.00    -0.550 OA
ENDBRANCH  21  22
ENDBRANCH  20  21
ENDBRANCH  19  20
ENDBRANCH  18  19
ENDBRANCH  17  18
ENDBRANCH  16  17
ENDBRANCH  15  16
ENDBRANCH  14  15
ENDBRANCH  13  14
ENDBRANCH   1  13
TORSDOF 20
ENDMDL
