MODEL 1
REMARK VINA RESULT:    -7.825      0.000      0.000
REMARK INTER + INTRA:         -11.904
REMARK INTER:                 -10.798
REMARK INTRA:                  -1.105
REMARK UNBOUND:                -1.105
REMARK SMILES CC[C@@H](CC[C@H](C)[C@H]1CC[C@H]2[C@@H]3CC=C4C[C@H](O)CC[C@@]4(C)[C@@H]3CC[C@]12C)C(C)C
REMARK SMILES IDX 5 1 4 2 3 3 2 4 1 5 28 6 29 7 30 8 6 9 7 10 8 11 9 12 26 13
REMARK SMILES IDX 10 14 11 15 25 16 27 17 12 18 24 19 23 20 13 21 21 22 14 23
REMARK SMILES IDX 15 24 20 25 22 26 16 27 19 28 17 29 18 30
REMARK H PARENT 18 31
REMARK Flexibility Score: inf
ROOT
ATOM      1  C   UNL     1     119.129 130.467 131.109  1.00  0.00     0.004 C 
ENDROOT
BRANCH   1   2
ATOM      2  C   UNL     1     120.203 131.539 131.431  1.00  0.00     0.004 C 
BRANCH   2   3
ATOM      3  C   UNL     1     120.042 132.872 130.649  1.00  0.00    -0.009 C 
BRANCH   3   4
ATOM      4  C   UNL     1     118.911 132.763 129.587  1.00  0.00     0.000 C 
ATOM      5  C   UNL     1     118.401 134.102 129.037  1.00  0.00     0.004 C 
ENDBRANCH   3   4
BRANCH   3   6
ATOM      6  C   UNL     1     121.350 133.493 130.044  1.00  0.00    -0.014 C 
ATOM      7  C   UNL     1     122.466 132.472 129.744  1.00  0.00     0.007 C 
ATOM      8  C   UNL     1     121.895 134.638 130.916  1.00  0.00     0.007 C 
ENDBRANCH   3   6
ENDBRANCH   2   3
ENDBRANCH   1   2
BRANCH   1   9
ATOM      9  C   UNL     1     119.711 129.026 130.937  1.00  0.00    -0.011 C 
ATOM     10  C   UNL     1     121.223 129.072 130.603  1.00  0.00     0.008 C 
BRANCH   9  11
ATOM     11  C   UNL     1     118.814 128.145 129.984  1.00  0.00    -0.002 C 
ATOM     12  C   UNL     1     119.328 127.835 128.551  1.00  0.00     0.005 C 
ATOM     13  C   UNL     1     118.331 126.767 130.523  1.00  0.00    -0.026 C 
ATOM     14  C   UNL     1     118.638 126.522 128.124  1.00  0.00     0.005 C 
ATOM     15  C   UNL     1     117.656 126.228 129.254  1.00  0.00    -0.001 C 
ATOM     16  C   UNL     1     117.267 126.845 131.670  1.00  0.00     0.007 C 
ATOM     17  C   UNL     1     119.547 125.894 130.959  1.00  0.00     0.012 C 
ATOM     18  C   UNL     1     117.071 124.795 129.374  1.00  0.00     0.000 C 
ATOM     19  C   UNL     1     116.054 125.893 131.474  1.00  0.00     0.005 C 
ATOM     20  C   UNL     1     116.461 124.540 130.800  1.00  0.00     0.003 C 
ATOM     21  C   UNL     1     115.991 124.631 128.296  1.00  0.00     0.031 C 
ATOM     22  C   UNL     1     115.383 123.344 130.869  1.00  0.00    -0.008 C 
ATOM     23  C   UNL     1     115.417 123.264 128.345  1.00  0.00    -0.027 C 
ATOM     24  C   UNL     1     115.087 122.683 129.502  1.00  0.00    -0.065 C 
ATOM     25  C   UNL     1     115.983 122.228 131.795  1.00  0.00     0.014 C 
ATOM     26  C   UNL     1     114.025 123.814 131.470  1.00  0.00     0.016 C 
ATOM     27  C   UNL     1     114.354 121.354 129.460  1.00  0.00     0.063 C 
ATOM     28  C   UNL     1     115.159 120.931 131.843  1.00  0.00     0.033 C 
ATOM     29  C   UNL     1     114.999 120.343 130.424  1.00  0.00     0.118 C 
BRANCH  29  30
ATOM     30  O   UNL     1     114.252 119.152 130.455  1.00  0.00    -0.393 OA
ATOM     31  H   UNL     1     114.126 118.846 129.513  1.00  0.00     0.210 HD
ENDBRANCH  29  30
ENDBRANCH   9  11
ENDBRANCH   1   9
TORSDOF 7
ENDMDL
MODEL 2
REMARK VINA RESULT:    -7.699      4.431      7.413
REMARK INTER + INTRA:         -11.730
REMARK INTER:                  -9.720
REMARK INTRA:                  -2.010
REMARK UNBOUND:                -1.105
REMARK SMILES CC[C@@H](CC[C@H](C)[C@H]1CC[C@H]2[C@@H]3CC=C4C[C@H](O)CC[C@@]4(C)[C@@H]3CC[C@]12C)C(C)C
REMARK SMILES IDX 5 1 4 2 3 3 2 4 1 5 28 6 29 7 30 8 6 9 7 10 8 11 9 12 26 13
REMARK SMILES IDX 10 14 11 15 25 16 27 17 12 18 24 19 23 20 13 21 21 22 14 23
REMARK SMILES IDX 15 24 20 25 22 26 16 27 19 28 17 29 18 30
REMARK H PARENT 18 31
REMARK Flexibility Score: inf
ROOT
ATOM      1  C   UNL     1     115.593 123.928 128.247  1.00  0.00     0.004 C 
ENDROOT
BRANCH   1   2
ATOM      2  C   UNL     1     115.515 125.353 128.853  1.00  0.00     0.004 C 
BRANCH   2   3
ATOM      3  C   UNL     1     116.888 125.971 129.238  1.00  0.00    -0.009 C 
BRANCH   3   4
ATOM      4  C   UNL     1     118.058 125.167 128.601  1.00  0.00     0.000 C 
ATOM      5  C   UNL     1     118.842 125.910 127.511  1.00  0.00     0.004 C 
ENDBRANCH   3   4
BRANCH   3   6
ATOM      6  C   UNL     1     117.133 126.244 130.763  1.00  0.00    -0.014 C 
ATOM      7  C   UNL     1     118.496 125.754 131.292  1.00  0.00     0.007 C 
ATOM      8  C   UNL     1     115.993 125.686 131.633  1.00  0.00     0.007 C 
ENDBRANCH   3   6
ENDBRANCH   2   3
ENDBRANCH   1   2
BRANCH   1   9
ATOM      9  C   UNL     1     114.495 122.954 128.786  1.00  0.00    -0.011 C 
ATOM     10  C   UNL     1     113.083 123.398 128.328  1.00  0.00     0.008 C 
BRANCH   9  11
ATOM     11  C   UNL     1     114.671 122.673 130.328  1.00  0.00    -0.002 C 
ATOM     12  C   UNL     1     113.441 122.181 131.142  1.00  0.00     0.005 C 
ATOM     13  C   UNL     1     115.821 121.715 130.757  1.00  0.00    -0.026 C 
ATOM     14  C   UNL     1     114.011 121.409 132.352  1.00  0.00     0.005 C 
ATOM     15  C   UNL     1     115.519 121.624 132.260  1.00  0.00    -0.001 C 
ATOM     16  C   UNL     1     117.264 122.293 130.564  1.00  0.00     0.007 C 
ATOM     17  C   UNL     1     115.679 120.336 130.044  1.00  0.00     0.012 C 
ATOM     18  C   UNL     1     116.453 120.682 133.067  1.00  0.00     0.000 C 
ATOM     19  C   UNL     1     118.196 122.090 131.791  1.00  0.00     0.005 C 
ATOM     20  C   UNL     1     117.928 120.735 132.527  1.00  0.00     0.003 C 
ATOM     21  C   UNL     1     116.407 121.114 134.538  1.00  0.00     0.031 C 
ATOM     22  C   UNL     1     119.048 120.248 133.578  1.00  0.00    -0.008 C 
ATOM     23  C   UNL     1     117.261 120.225 135.363  1.00  0.00    -0.027 C 
ATOM     24  C   UNL     1     118.485 119.862 134.966  1.00  0.00    -0.065 C 
ATOM     25  C   UNL     1     119.717 118.958 132.983  1.00  0.00     0.014 C 
ATOM     26  C   UNL     1     120.152 121.325 133.799  1.00  0.00     0.016 C 
ATOM     27  C   UNL     1     119.359 119.089 135.937  1.00  0.00     0.063 C 
ATOM     28  C   UNL     1     120.701 118.256 133.933  1.00  0.00     0.033 C 
ATOM     29  C   UNL     1     119.992 117.866 135.249  1.00  0.00     0.118 C 
BRANCH  29  30
ATOM     30  O   UNL     1     120.879 117.217 136.125  1.00  0.00    -0.393 OA
ATOM     31  H   UNL     1     121.795 117.572 135.950  1.00  0.00     0.210 HD
ENDBRANCH  29  30
ENDBRANCH   9  11
ENDBRANCH   1   9
TORSDOF 7
ENDMDL
MODEL 3
REMARK VINA RESULT:    -7.445      5.270      9.552
REMARK INTER + INTRA:         -11.380
REMARK INTER:                  -9.402
REMARK INTRA:                  -1.978
REMARK UNBOUND:                -1.105
REMARK SMILES CC[C@@H](CC[C@H](C)[C@H]1CC[C@H]2[C@@H]3CC=C4C[C@H](O)CC[C@@]4(C)[C@@H]3CC[C@]12C)C(C)C
REMARK SMILES IDX 5 1 4 2 3 3 2 4 1 5 28 6 29 7 30 8 6 9 7 10 8 11 9 12 26 13
REMARK SMILES IDX 10 14 11 15 25 16 27 17 12 18 24 19 23 20 13 21 21 22 14 23
REMARK SMILES IDX 15 24 20 25 22 26 16 27 19 28 17 29 18 30
REMARK H PARENT 18 31
REMARK Flexibility Score: inf
ROOT
ATOM      1  C   UNL     1     113.842 122.333 131.970  1.00  0.00     0.004 C 
ENDROOT
BRANCH   1   2
ATOM      2  C   UNL     1     113.410 122.375 130.481  1.00  0.00     0.004 C 
BRANCH   2   3
ATOM      3  C   UNL     1     114.406 121.699 129.498  1.00  0.00    -0.009 C 
BRANCH   3   4
ATOM      4  C   UNL     1     114.914 122.714 128.433  1.00  0.00     0.000 C 
ATOM      5  C   UNL     1     114.906 124.183 128.877  1.00  0.00     0.004 C 
ENDBRANCH   3   4
BRANCH   3   6
ATOM      6  C   UNL     1     113.940 120.353 128.841  1.00  0.00    -0.014 C 
ATOM      7  C   UNL     1     114.877 119.155 129.098  1.00  0.00     0.007 C 
ATOM      8  C   UNL     1     113.682 120.513 127.332  1.00  0.00     0.007 C 
ENDBRANCH   3   6
ENDBRANCH   2   3
ENDBRANCH   1   2
BRANCH   1   9
ATOM      9  C   UNL     1     114.620 121.034 132.363  1.00  0.00    -0.011 C 
ATOM     10  C   UNL     1     113.676 120.000 133.027  1.00  0.00     0.008 C 
BRANCH   9  11
ATOM     11  C   UNL     1     115.949 121.365 133.145  1.00  0.00    -0.002 C 
ATOM     12  C   UNL     1     116.401 120.411 134.286  1.00  0.00     0.005 C 
ATOM     13  C   UNL     1     117.239 121.594 132.304  1.00  0.00    -0.026 C 
ATOM     14  C   UNL     1     117.932 120.581 134.403  1.00  0.00     0.005 C 
ATOM     15  C   UNL     1     118.259 121.723 133.445  1.00  0.00    -0.001 C 
ATOM     16  C   UNL     1     117.250 122.915 131.462  1.00  0.00     0.007 C 
ATOM     17  C   UNL     1     117.526 120.359 131.396  1.00  0.00     0.012 C 
ATOM     18  C   UNL     1     119.732 121.915 132.996  1.00  0.00     0.000 C 
ATOM     19  C   UNL     1     118.570 123.727 131.576  1.00  0.00     0.005 C 
ATOM     20  C   UNL     1     119.829 122.805 131.705  1.00  0.00     0.003 C 
ATOM     21  C   UNL     1     120.499 122.570 134.153  1.00  0.00     0.031 C 
ATOM     22  C   UNL     1     121.263 123.501 131.471  1.00  0.00    -0.008 C 
ATOM     23  C   UNL     1     121.926 122.750 133.789  1.00  0.00    -0.027 C 
ATOM     24  C   UNL     1     122.290 123.221 132.592  1.00  0.00    -0.065 C 
ATOM     25  C   UNL     1     121.860 122.907 130.147  1.00  0.00     0.014 C 
ATOM     26  C   UNL     1     121.145 125.047 131.314  1.00  0.00     0.016 C 
ATOM     27  C   UNL     1     123.757 123.533 132.355  1.00  0.00     0.063 C 
ATOM     28  C   UNL     1     123.307 123.337 129.852  1.00  0.00     0.033 C 
ATOM     29  C   UNL     1     124.235 122.936 131.020  1.00  0.00     0.118 C 
BRANCH  29  30
ATOM     30  O   UNL     1     125.563 123.317 130.761  1.00  0.00    -0.393 OA
ATOM     31  H   UNL     1     126.064 123.283 131.623  1.00  0.00     0.210 HD
ENDBRANCH  29  30
ENDBRANCH   9  11
ENDBRANCH   1   9
TORSDOF 7
ENDMDL
MODEL 4
REMARK VINA RESULT:    -7.294      6.405      8.725
REMARK INTER + INTRA:         -11.171
REMARK INTER:                  -9.328
REMARK INTRA:                  -1.843
REMARK UNBOUND:                -1.105
REMARK SMILES CC[C@@H](CC[C@H](C)[C@H]1CC[C@H]2[C@@H]3CC=C4C[C@H](O)CC[C@@]4(C)[C@@H]3CC[C@]12C)C(C)C
REMARK SMILES IDX 5 1 4 2 3 3 2 4 1 5 28 6 29 7 30 8 6 9 7 10 8 11 9 12 26 13
REMARK SMILES IDX 10 14 11 15 25 16 27 17 12 18 24 19 23 20 13 21 21 22 14 23
REMARK SMILES IDX 15 24 20 25 22 26 16 27 19 28 17 29 18 30
REMARK H PARENT 18 31
REMARK Flexibility Score: inf
ROOT
ATOM      1  C   UNL     1     121.098 119.061 125.448  1.00  0.00     0.004 C 
ENDROOT
BRANCH   1   2
ATOM      2  C   UNL     1     122.054 120.068 126.139  1.00  0.00     0.004 C 
BRANCH   2   3
ATOM      3  C   UNL     1     121.562 121.542 126.126  1.00  0.00    -0.009 C 
BRANCH   3   4
ATOM      4  C   UNL     1     121.848 122.237 127.488  1.00  0.00     0.000 C 
ATOM      5  C   UNL     1     123.135 123.072 127.537  1.00  0.00     0.004 C 
ENDBRANCH   3   4
BRANCH   3   6
ATOM      6  C   UNL     1     120.088 121.786 125.647  1.00  0.00    -0.014 C 
ATOM      7  C   UNL     1     119.936 122.016 124.130  1.00  0.00     0.007 C 
ATOM      8  C   UNL     1     119.416 122.929 126.428  1.00  0.00     0.007 C 
ENDBRANCH   3   6
ENDBRANCH   2   3
ENDBRANCH   1   2
BRANCH   1   9
ATOM      9  C   UNL     1     120.416 118.060 126.437  1.00  0.00    -0.011 C 
ATOM     10  C   UNL     1     120.608 116.596 125.968  1.00  0.00     0.008 C 
BRANCH   9  11
ATOM     11  C   UNL     1     118.939 118.493 126.779  1.00  0.00    -0.002 C 
ATOM     12  C   UNL     1     117.769 117.574 126.331  1.00  0.00     0.005 C 
ATOM     13  C   UNL     1     118.614 118.830 128.264  1.00  0.00    -0.026 C 
ATOM     14  C   UNL     1     116.601 117.867 127.299  1.00  0.00     0.005 C 
ATOM     15  C   UNL     1     117.097 119.035 128.145  1.00  0.00    -0.001 C 
ATOM     16  C   UNL     1     119.265 120.151 128.797  1.00  0.00     0.007 C 
ATOM     17  C   UNL     1     118.973 117.626 129.188  1.00  0.00     0.012 C 
ATOM     18  C   UNL     1     116.365 119.348 129.478  1.00  0.00     0.000 C 
ATOM     19  C   UNL     1     118.286 121.067 129.583  1.00  0.00     0.005 C 
ATOM     20  C   UNL     1     117.245 120.249 130.419  1.00  0.00     0.003 C 
ATOM     21  C   UNL     1     115.047 120.058 129.141  1.00  0.00     0.031 C 
ATOM     22  C   UNL     1     116.420 121.060 131.540  1.00  0.00    -0.008 C 
ATOM     23  C   UNL     1     114.290 120.354 130.381  1.00  0.00    -0.027 C 
ATOM     24  C   UNL     1     114.888 120.858 131.465  1.00  0.00    -0.065 C 
ATOM     25  C   UNL     1     116.882 120.522 132.941  1.00  0.00     0.014 C 
ATOM     26  C   UNL     1     116.698 122.592 131.479  1.00  0.00     0.016 C 
ATOM     27  C   UNL     1     114.021 121.289 132.634  1.00  0.00     0.063 C 
ATOM     28  C   UNL     1     116.075 121.068 134.130  1.00  0.00     0.033 C 
ATOM     29  C   UNL     1     114.576 120.738 133.959  1.00  0.00     0.118 C 
BRANCH  29  30
ATOM     30  O   UNL     1     113.827 121.227 135.045  1.00  0.00    -0.393 OA
ATOM     31  H   UNL     1     113.247 120.485 135.373  1.00  0.00     0.210 HD
ENDBRANCH  29  30
ENDBRANCH   9  11
ENDBRANCH   1   9
TORSDOF 7
ENDMDL
MODEL 5
REMARK VINA RESULT:    -7.239      1.219      2.182
REMARK INTER + INTRA:         -11.095
REMARK INTER:                 -11.046
REMARK INTRA:                  -0.049
REMARK UNBOUND:                -1.105
REMARK SMILES CC[C@@H](CC[C@H](C)[C@H]1CC[C@H]2[C@@H]3CC=C4C[C@H](O)CC[C@@]4(C)[C@@H]3CC[C@]12C)C(C)C
REMARK SMILES IDX 5 1 4 2 3 3 2 4 1 5 28 6 29 7 30 8 6 9 7 10 8 11 9 12 26 13
REMARK SMILES IDX 10 14 11 15 25 16 27 17 12 18 24 19 23 20 13 21 21 22 14 23
REMARK SMILES IDX 15 24 20 25 22 26 16 27 19 28 17 29 18 30
REMARK H PARENT 18 31
REMARK Flexibility Score: inf
ROOT
ATOM      1  C   UNL     1     119.381 130.833 130.808  1.00  0.00     0.004 C 
ENDROOT
BRANCH   1   2
ATOM      2  C   UNL     1     118.998 132.072 129.958  1.00  0.00     0.004 C 
BRANCH   2   3
ATOM      3  C   UNL     1     120.166 133.063 129.694  1.00  0.00    -0.009 C 
BRANCH   3   4
ATOM      4  C   UNL     1     121.403 132.713 130.571  1.00  0.00     0.000 C 
ATOM      5  C   UNL     1     122.689 132.408 129.792  1.00  0.00     0.004 C 
ENDBRANCH   3   4
BRANCH   3   6
ATOM      6  C   UNL     1     119.819 134.591 129.762  1.00  0.00    -0.014 C 
ATOM      7  C   UNL     1     120.720 135.412 130.706  1.00  0.00     0.007 C 
ATOM      8  C   UNL     1     118.337 134.826 130.102  1.00  0.00     0.007 C 
ENDBRANCH   3   6
ENDBRANCH   2   3
ENDBRANCH   1   2
BRANCH   1   9
ATOM      9  C   UNL     1     118.204 129.825 131.016  1.00  0.00    -0.011 C 
ATOM     10  C   UNL     1     117.830 129.706 132.515  1.00  0.00     0.008 C 
BRANCH   9  11
ATOM     11  C   UNL     1     118.457 128.468 130.253  1.00  0.00    -0.002 C 
ATOM     12  C   UNL     1     119.875 127.835 130.305  1.00  0.00     0.005 C 
ATOM     13  C   UNL     1     117.497 127.281 130.560  1.00  0.00    -0.026 C 
ATOM     14  C   UNL     1     119.677 126.322 130.070  1.00  0.00     0.005 C 
ATOM     15  C   UNL     1     118.193 126.183 129.743  1.00  0.00    -0.001 C 
ATOM     16  C   UNL     1     116.035 127.461 130.027  1.00  0.00     0.007 C 
ATOM     17  C   UNL     1     117.491 126.964 132.087  1.00  0.00     0.012 C 
ATOM     18  C   UNL     1     117.542 124.776 129.837  1.00  0.00     0.000 C 
ATOM     19  C   UNL     1     115.473 126.214 129.289  1.00  0.00     0.005 C 
ATOM     20  C   UNL     1     115.976 124.871 129.918  1.00  0.00     0.003 C 
ATOM     21  C   UNL     1     117.964 123.975 128.598  1.00  0.00     0.031 C 
ATOM     22  C   UNL     1     115.195 123.531 129.481  1.00  0.00    -0.008 C 
ATOM     23  C   UNL     1     117.393 122.606 128.650  1.00  0.00    -0.027 C 
ATOM     24  C   UNL     1     116.121 122.390 129.000  1.00  0.00    -0.065 C 
ATOM     25  C   UNL     1     114.437 122.999 130.749  1.00  0.00     0.014 C 
ATOM     26  C   UNL     1     114.153 123.801 128.354  1.00  0.00     0.016 C 
ATOM     27  C   UNL     1     115.566 120.983 128.870  1.00  0.00     0.063 C 
ATOM     28  C   UNL     1     113.768 121.628 130.560  1.00  0.00     0.033 C 
ATOM     29  C   UNL     1     114.816 120.571 130.149  1.00  0.00     0.118 C 
BRANCH  29  30
ATOM     30  O   UNL     1     114.218 119.309 129.980  1.00  0.00    -0.393 OA
ATOM     31  H   UNL     1     113.569 119.378 129.226  1.00  0.00     0.210 HD
ENDBRANCH  29  30
ENDBRANCH   9  11
ENDBRANCH   1   9
TORSDOF 7
ENDMDL
MODEL 6
REMARK VINA RESULT:    -7.134      5.911      9.296
REMARK INTER + INTRA:         -10.950
REMARK INTER:                  -9.062
REMARK INTRA:                  -1.888
REMARK UNBOUND:                -1.105
REMARK SMILES CC[C@@H](CC[C@H](C)[C@H]1CC[C@H]2[C@@H]3CC=C4C[C@H](O)CC[C@@]4(C)[C@@H]3CC[C@]12C)C(C)C
REMARK SMILES IDX 5 1 4 2 3 3 2 4 1 5 28 6 29 7 30 8 6 9 7 10 8 11 9 12 26 13
REMARK SMILES IDX 10 14 11 15 25 16 27 17 12 18 24 19 23 20 13 21 21 22 14 23
REMARK SMILES IDX 15 24 20 25 22 26 16 27 19 28 17 29 18 30
REMARK H PARENT 18 31
REMARK Flexibility Score: inf
ROOT
ATOM      1  C   UNL     1     115.041 121.166 133.757  1.00  0.00     0.004 C 
ENDROOT
BRANCH   1   2
ATOM      2  C   UNL     1     114.021 120.958 132.607  1.00  0.00     0.004 C 
BRANCH   2   3
ATOM      3  C   UNL     1     114.397 121.660 131.273  1.00  0.00    -0.009 C 
BRANCH   3   4
ATOM      4  C   UNL     1     114.019 123.168 131.310  1.00  0.00     0.000 C 
ATOM      5  C   UNL     1     115.185 124.125 131.593  1.00  0.00     0.004 C 
ENDBRANCH   3   4
BRANCH   3   6
ATOM      6  C   UNL     1     113.902 120.970 129.953  1.00  0.00    -0.014 C 
ATOM      7  C   UNL     1     114.548 119.600 129.665  1.00  0.00     0.007 C 
ATOM      8  C   UNL     1     114.051 121.897 128.734  1.00  0.00     0.007 C 
ENDBRANCH   3   6
ENDBRANCH   2   3
ENDBRANCH   1   2
BRANCH   1   9
ATOM      9  C   UNL     1     116.382 120.387 133.557  1.00  0.00    -0.011 C 
ATOM     10  C   UNL     1     116.593 119.343 134.682  1.00  0.00     0.008 C 
BRANCH   9  11
ATOM     11  C   UNL     1     117.588 121.366 133.281  1.00  0.00    -0.002 C 
ATOM     12  C   UNL     1     118.682 121.529 134.373  1.00  0.00     0.005 C 
ATOM     13  C   UNL     1     118.391 121.162 131.962  1.00  0.00    -0.026 C 
ATOM     14  C   UNL     1     119.962 121.973 133.631  1.00  0.00     0.005 C 
ATOM     15  C   UNL     1     119.507 122.191 132.191  1.00  0.00    -0.001 C 
ATOM     16  C   UNL     1     117.615 121.538 130.655  1.00  0.00     0.007 C 
ATOM     17  C   UNL     1     118.942 119.706 131.877  1.00  0.00     0.012 C 
ATOM     18  C   UNL     1     120.585 122.257 131.076  1.00  0.00     0.000 C 
ATOM     19  C   UNL     1     118.435 122.406 129.660  1.00  0.00     0.005 C 
ATOM     20  C   UNL     1     119.955 122.032 129.654  1.00  0.00     0.003 C 
ATOM     21  C   UNL     1     121.259 123.634 131.148  1.00  0.00     0.031 C 
ATOM     22  C   UNL     1     120.835 122.599 128.428  1.00  0.00    -0.008 C 
ATOM     23  C   UNL     1     122.323 123.741 130.119  1.00  0.00    -0.027 C 
ATOM     24  C   UNL     1     122.130 123.322 128.865  1.00  0.00    -0.065 C 
ATOM     25  C   UNL     1     121.272 121.367 127.559  1.00  0.00     0.014 C 
ATOM     26  C   UNL     1     120.024 123.580 127.530  1.00  0.00     0.016 C 
ATOM     27  C   UNL     1     123.204 123.617 127.833  1.00  0.00     0.063 C 
ATOM     28  C   UNL     1     122.262 121.704 126.432  1.00  0.00     0.033 C 
ATOM     29  C   UNL     1     123.535 122.357 127.014  1.00  0.00     0.118 C 
BRANCH  29  30
ATOM     30  O   UNL     1     124.454 122.664 125.994  1.00  0.00    -0.393 OA
ATOM     31  H   UNL     1     125.344 122.810 126.419  1.00  0.00     0.210 HD
ENDBRANCH  29  30
ENDBRANCH   9  11
ENDBRANCH   1   9
TORSDOF 7
ENDMDL
MODEL 7
REMARK VINA RESULT:    -7.122      5.552      9.118
REMARK INTER + INTRA:         -10.934
REMARK INTER:                  -9.097
REMARK INTRA:                  -1.837
REMARK UNBOUND:                -1.105
REMARK SMILES CC[C@@H](CC[C@H](C)[C@H]1CC[C@H]2[C@@H]3CC=C4C[C@H](O)CC[C@@]4(C)[C@@H]3CC[C@]12C)C(C)C
REMARK SMILES IDX 5 1 4 2 3 3 2 4 1 5 28 6 29 7 30 8 6 9 7 10 8 11 9 12 26 13
REMARK SMILES IDX 10 14 11 15 25 16 27 17 12 18 24 19 23 20 13 21 21 22 14 23
REMARK SMILES IDX 15 24 20 25 22 26 16 27 19 28 17 29 18 30
REMARK H PARENT 18 31
REMARK Flexibility Score: inf
ROOT
ATOM      1  C   UNL     1     114.248 123.747 129.340  1.00  0.00     0.004 C 
ENDROOT
BRANCH   1   2
ATOM      2  C   UNL     1     113.495 122.537 129.952  1.00  0.00     0.004 C 
BRANCH   2   3
ATOM      3  C   UNL     1     114.410 121.479 130.628  1.00  0.00    -0.009 C 
BRANCH   3   4
ATOM      4  C   UNL     1     114.161 120.064 130.031  1.00  0.00     0.000 C 
ATOM      5  C   UNL     1     114.125 120.000 128.498  1.00  0.00     0.004 C 
ENDBRANCH   3   4
BRANCH   3   6
ATOM      6  C   UNL     1     114.415 121.454 132.197  1.00  0.00    -0.014 C 
ATOM      7  C   UNL     1     115.804 121.652 132.837  1.00  0.00     0.007 C 
ATOM      8  C   UNL     1     113.750 120.182 132.750  1.00  0.00     0.007 C 
ENDBRANCH   3   6
ENDBRANCH   2   3
ENDBRANCH   1   2
BRANCH   1   9
ATOM      9  C   UNL     1     115.759 123.814 129.736  1.00  0.00    -0.011 C 
ATOM     10  C   UNL     1     116.049 125.056 130.616  1.00  0.00     0.008 C 
BRANCH   9  11
ATOM     11  C   UNL     1     116.699 123.612 128.486  1.00  0.00    -0.002 C 
ATOM     12  C   UNL     1     117.342 124.863 127.826  1.00  0.00     0.005 C 
ATOM     13  C   UNL     1     117.879 122.606 128.630  1.00  0.00    -0.026 C 
ATOM     14  C   UNL     1     118.625 124.364 127.125  1.00  0.00     0.005 C 
ATOM     15  C   UNL     1     118.575 122.847 127.283  1.00  0.00    -0.001 C 
ATOM     16  C   UNL     1     117.454 121.101 128.720  1.00  0.00     0.007 C 
ATOM     17  C   UNL     1     118.785 122.996 129.838  1.00  0.00     0.012 C 
ATOM     18  C   UNL     1     119.879 122.035 127.057  1.00  0.00     0.000 C 
ATOM     19  C   UNL     1     118.279 120.155 127.803  1.00  0.00     0.005 C 
ATOM     20  C   UNL     1     119.777 120.597 127.683  1.00  0.00     0.003 C 
ATOM     21  C   UNL     1     120.125 121.942 125.546  1.00  0.00     0.031 C 
ATOM     22  C   UNL     1     120.802 119.518 127.066  1.00  0.00    -0.008 C 
ATOM     23  C   UNL     1     121.380 121.200 125.272  1.00  0.00    -0.027 C 
ATOM     24  C   UNL     1     121.680 120.068 125.918  1.00  0.00    -0.065 C 
ATOM     25  C   UNL     1     121.777 119.089 128.219  1.00  0.00     0.014 C 
ATOM     26  C   UNL     1     120.069 118.250 126.535  1.00  0.00     0.016 C 
ATOM     27  C   UNL     1     122.897 119.281 125.466  1.00  0.00     0.063 C 
ATOM     28  C   UNL     1     122.934 118.183 127.768  1.00  0.00     0.033 C 
ATOM     29  C   UNL     1     123.767 118.881 126.670  1.00  0.00     0.118 C 
BRANCH  29  30
ATOM     30  O   UNL     1     124.834 118.065 126.254  1.00  0.00    -0.393 OA
ATOM     31  H   UNL     1     125.681 118.571 126.405  1.00  0.00     0.210 HD
ENDBRANCH  29  30
ENDBRANCH   9  11
ENDBRANCH   1   9
TORSDOF 7
ENDMDL
MODEL 8
REMARK VINA RESULT:    -7.087      6.045      9.040
REMARK INTER + INTRA:         -10.886
REMARK INTER:                  -8.897
REMARK INTRA:                  -1.989
REMARK UNBOUND:                -1.105
REMARK SMILES CC[C@@H](CC[C@H](C)[C@H]1CC[C@H]2[C@@H]3CC=C4C[C@H](O)CC[C@@]4(C)[C@@H]3CC[C@]12C)C(C)C
REMARK SMILES IDX 5 1 4 2 3 3 2 4 1 5 28 6 29 7 30 8 6 9 7 10 8 11 9 12 26 13
REMARK SMILES IDX 10 14 11 15 25 16 27 17 12 18 24 19 23 20 13 21 21 22 14 23
REMARK SMILES IDX 15 24 20 25 22 26 16 27 19 28 17 29 18 30
REMARK H PARENT 18 31
REMARK Flexibility Score: inf
ROOT
ATOM      1  C   UNL     1     115.160 124.279 131.394  1.00  0.00     0.004 C 
ENDROOT
BRANCH   1   2
ATOM      2  C   UNL     1     115.412 124.591 129.896  1.00  0.00     0.004 C 
BRANCH   2   3
ATOM      3  C   UNL     1     115.610 123.340 128.997  1.00  0.00    -0.009 C 
BRANCH   3   4
ATOM      4  C   UNL     1     116.916 123.456 128.159  1.00  0.00     0.000 C 
ATOM      5  C   UNL     1     117.972 122.380 128.445  1.00  0.00     0.004 C 
ENDBRANCH   3   4
BRANCH   3   6
ATOM      6  C   UNL     1     114.389 122.910 128.112  1.00  0.00    -0.014 C 
ATOM      7  C   UNL     1     113.117 123.758 128.318  1.00  0.00     0.007 C 
ATOM      8  C   UNL     1     114.064 121.415 128.274  1.00  0.00     0.007 C 
ENDBRANCH   3   6
ENDBRANCH   2   3
ENDBRANCH   1   2
BRANCH   1   9
ATOM      9  C   UNL     1     114.504 122.882 131.644  1.00  0.00    -0.011 C 
ATOM     10  C   UNL     1     112.964 123.002 131.764  1.00  0.00     0.008 C 
BRANCH   9  11
ATOM     11  C   UNL     1     115.232 122.094 132.801  1.00  0.00    -0.002 C 
ATOM     12  C   UNL     1     114.420 121.054 133.622  1.00  0.00     0.005 C 
ATOM     13  C   UNL     1     116.554 121.353 132.444  1.00  0.00    -0.026 C 
ATOM     14  C   UNL     1     115.453 120.046 134.173  1.00  0.00     0.005 C 
ATOM     15  C   UNL     1     116.804 120.636 133.778  1.00  0.00    -0.001 C 
ATOM     16  C   UNL     1     117.771 122.289 132.135  1.00  0.00     0.007 C 
ATOM     17  C   UNL     1     116.319 120.350 131.273  1.00  0.00     0.012 C 
ATOM     18  C   UNL     1     118.052 119.714 133.811  1.00  0.00     0.000 C 
ATOM     19  C   UNL     1     119.087 121.872 132.850  1.00  0.00     0.005 C 
ATOM     20  C   UNL     1     119.234 120.317 132.969  1.00  0.00     0.003 C 
ATOM     21  C   UNL     1     118.475 119.539 135.275  1.00  0.00     0.031 C 
ATOM     22  C   UNL     1     120.694 119.757 133.358  1.00  0.00    -0.008 C 
ATOM     23  C   UNL     1     119.651 118.639 135.368  1.00  0.00    -0.027 C 
ATOM     24  C   UNL     1     120.691 118.757 134.538  1.00  0.00    -0.065 C 
ATOM     25  C   UNL     1     121.246 118.986 132.108  1.00  0.00     0.014 C 
ATOM     26  C   UNL     1     121.686 120.904 133.714  1.00  0.00     0.016 C 
ATOM     27  C   UNL     1     121.924 117.910 134.801  1.00  0.00     0.063 C 
ATOM     28  C   UNL     1     122.566 118.237 132.354  1.00  0.00     0.033 C 
ATOM     29  C   UNL     1     122.403 117.225 133.509  1.00  0.00     0.118 C 
BRANCH  29  30
ATOM     30  O   UNL     1     123.602 116.528 133.740  1.00  0.00    -0.393 OA
ATOM     31  H   UNL     1     124.260 117.172 134.125  1.00  0.00     0.210 HD
ENDBRANCH  29  30
ENDBRANCH   9  11
ENDBRANCH   1   9
TORSDOF 7
ENDMDL
MODEL 9
REMARK VINA RESULT:    -7.072      5.057      8.793
REMARK INTER + INTRA:         -10.864
REMARK INTER:                  -8.633
REMARK INTRA:                  -2.231
REMARK UNBOUND:                -1.105
REMARK SMILES CC[C@@H](CC[C@H](C)[C@H]1CC[C@H]2[C@@H]3CC=C4C[C@H](O)CC[C@@]4(C)[C@@H]3CC[C@]12C)C(C)C
REMARK SMILES IDX 5 1 4 2 3 3 2 4 1 5 28 6 29 7 30 8 6 9 7 10 8 11 9 12 26 13
REMARK SMILES IDX 10 14 11 15 25 16 27 17 12 18 24 19 23 20 13 21 21 22 14 23
REMARK SMILES IDX 15 24 20 25 22 26 16 27 19 28 17 29 18 30
REMARK H PARENT 18 31
REMARK Flexibility Score: inf
ROOT
ATOM      1  C   UNL     1     115.210 123.690 131.865  1.00  0.00     0.004 C 
ENDROOT
BRANCH   1   2
ATOM      2  C   UNL     1     114.081 123.331 130.864  1.00  0.00     0.004 C 
BRANCH   2   3
ATOM      3  C   UNL     1     113.885 121.808 130.627  1.00  0.00    -0.009 C 
BRANCH   3   4
ATOM      4  C   UNL     1     114.650 120.975 131.695  1.00  0.00     0.000 C 
ATOM      5  C   UNL     1     113.761 120.239 132.708  1.00  0.00     0.004 C 
ENDBRANCH   3   4
BRANCH   3   6
ATOM      6  C   UNL     1     114.160 121.282 129.175  1.00  0.00    -0.014 C 
ATOM      7  C   UNL     1     115.580 120.722 128.953  1.00  0.00     0.007 C 
ATOM      8  C   UNL     1     113.836 122.346 128.112  1.00  0.00     0.007 C 
ENDBRANCH   3   6
ENDBRANCH   2   3
ENDBRANCH   1   2
BRANCH   1   9
ATOM      9  C   UNL     1     116.341 124.575 131.247  1.00  0.00    -0.011 C 
ATOM     10  C   UNL     1     115.991 126.081 131.352  1.00  0.00     0.008 C 
BRANCH   9  11
ATOM     11  C   UNL     1     116.771 124.059 129.820  1.00  0.00    -0.002 C 
ATOM     12  C   UNL     1     116.420 124.922 128.576  1.00  0.00     0.005 C 
ATOM     13  C   UNL     1     118.268 123.682 129.613  1.00  0.00    -0.026 C 
ATOM     14  C   UNL     1     117.456 124.552 127.493  1.00  0.00     0.005 C 
ATOM     15  C   UNL     1     118.245 123.398 128.105  1.00  0.00    -0.001 C 
ATOM     16  C   UNL     1     118.730 122.388 130.366  1.00  0.00     0.007 C 
ATOM     17  C   UNL     1     119.190 124.888 129.971  1.00  0.00     0.012 C 
ATOM     18  C   UNL     1     119.617 123.025 127.481  1.00  0.00     0.000 C 
ATOM     19  C   UNL     1     119.561 121.410 129.490  1.00  0.00     0.005 C 
ATOM     20  C   UNL     1     120.480 122.158 128.467  1.00  0.00     0.003 C 
ATOM     21  C   UNL     1     119.354 122.252 126.182  1.00  0.00     0.031 C 
ATOM     22  C   UNL     1     121.637 121.286 127.762  1.00  0.00    -0.008 C 
ATOM     23  C   UNL     1     120.636 121.896 125.525  1.00  0.00    -0.027 C 
ATOM     24  C   UNL     1     121.667 121.407 126.221  1.00  0.00    -0.065 C 
ATOM     25  C   UNL     1     123.014 121.825 128.288  1.00  0.00     0.014 C 
ATOM     26  C   UNL     1     121.527 119.772 128.114  1.00  0.00     0.016 C 
ATOM     27  C   UNL     1     122.882 120.913 125.457  1.00  0.00     0.063 C 
ATOM     28  C   UNL     1     124.243 121.217 127.593  1.00  0.00     0.033 C 
ATOM     29  C   UNL     1     124.179 121.470 126.070  1.00  0.00     0.118 C 
BRANCH  29  30
ATOM     30  O   UNL     1     125.301 120.925 125.422  1.00  0.00    -0.393 OA
ATOM     31  H   UNL     1     125.661 121.618 124.801  1.00  0.00     0.210 HD
ENDBRANCH  29  30
ENDBRANCH   9  11
ENDBRANCH   1   9
TORSDOF 7
ENDMDL
