MODEL 1
REMARK VINA RESULT:    -4.653      0.000      0.000
REMARK INTER + INTRA:          -5.471
REMARK INTER:                  -5.333
REMARK INTRA:                  -0.138
REMARK UNBOUND:                -0.138
REMARK SMILES O=C([O-])C=Cc1ccc(O)cc1
REMARK SMILES IDX 6 1 7 2 12 3 8 4 11 5 9 6 5 7 4 8 2 9 1 10 3 11 10 12
REMARK H PARENT 10 13
REMARK Flexibility Score: inf
ROOT
ATOM      1  C   UNL     1      11.138   4.082 -19.166  1.00  0.00    -0.025 A 
ATOM      2  C   UNL     1      11.145   3.324 -20.350  1.00  0.00     0.012 A 
ATOM      3  C   UNL     1       9.926   4.229 -18.461  1.00  0.00     0.012 A 
ATOM      4  C   UNL     1       9.966   2.747 -20.833  1.00  0.00     0.047 A 
ATOM      5  C   UNL     1       8.749   3.650 -18.948  1.00  0.00     0.047 A 
ATOM      6  C   UNL     1       8.767   2.910 -20.136  1.00  0.00     0.115 A 
ENDROOT
BRANCH   1   7
ATOM      7  C   UNL     1      12.416   4.666 -18.690  1.00  0.00     0.010 C 
ATOM      8  C   UNL     1      13.348   3.974 -18.021  1.00  0.00     0.025 C 
BRANCH   8   9
ATOM      9  C   UNL     1      14.597   4.597 -17.557  1.00  0.00     0.064 C 
ATOM     10  O   UNL     1      15.109   5.534 -18.223  1.00  0.00    -0.545 OA
ATOM     11  O   UNL     1      15.222   4.169 -16.391  1.00  0.00    -0.545 OA
ENDBRANCH   8   9
ENDBRANCH   1   7
BRANCH   6  12
ATOM     12  O   UNL     1       7.600   2.329 -20.629  1.00  0.00    -0.508 OA
ATOM     13  H   UNL     1       7.591   1.383 -20.990  1.00  0.00     0.293 HD
ENDBRANCH   6  12
TORSDOF 3
ENDMDL
MODEL 2
REMARK VINA RESULT:    -4.590     15.252     16.076
REMARK INTER + INTRA:          -5.399
REMARK INTER:                  -5.261
REMARK INTRA:                  -0.138
REMARK UNBOUND:                -0.138
REMARK SMILES O=C([O-])C=Cc1ccc(O)cc1
REMARK SMILES IDX 6 1 7 2 12 3 8 4 11 5 9 6 5 7 4 8 2 9 1 10 3 11 10 12
REMARK H PARENT 10 13
REMARK Flexibility Score: inf
ROOT
ATOM      1  C   UNL     1       8.434  -6.489  -7.463  1.00  0.00    -0.025 A 
ATOM      2  C   UNL     1       8.395  -5.550  -6.418  1.00  0.00     0.012 A 
ATOM      3  C   UNL     1       8.030  -7.815  -7.200  1.00  0.00     0.012 A 
ATOM      4  C   UNL     1       7.989  -5.928  -5.135  1.00  0.00     0.047 A 
ATOM      5  C   UNL     1       7.623  -8.188  -5.915  1.00  0.00     0.047 A 
ATOM      6  C   UNL     1       7.604  -7.246  -4.879  1.00  0.00     0.115 A 
ENDROOT
BRANCH   1   7
ATOM      7  C   UNL     1       8.863  -6.037  -8.809  1.00  0.00     0.010 C 
ATOM      8  C   UNL     1       8.046  -5.448  -9.693  1.00  0.00     0.025 C 
BRANCH   8   9
ATOM      9  C   UNL     1       8.513  -5.026 -11.023  1.00  0.00     0.064 C 
ATOM     10  O   UNL     1       9.713  -4.679 -11.179  1.00  0.00    -0.545 OA
ATOM     11  O   UNL     1       7.650  -5.006 -12.113  1.00  0.00    -0.545 OA
ENDBRANCH   8   9
ENDBRANCH   1   7
BRANCH   6  12
ATOM     12  O   UNL     1       7.202  -7.610  -3.596  1.00  0.00    -0.508 OA
ATOM     13  H   UNL     1       6.511  -7.072  -3.086  1.00  0.00     0.293 HD
ENDBRANCH   6  12
TORSDOF 3
ENDMDL
MODEL 3
REMARK VINA RESULT:    -4.513      0.186      1.410
REMARK INTER + INTRA:          -5.311
REMARK INTER:                  -5.174
REMARK INTRA:                  -0.137
REMARK UNBOUND:                -0.138
REMARK SMILES O=C([O-])C=Cc1ccc(O)cc1
REMARK SMILES IDX 6 1 7 2 12 3 8 4 11 5 9 6 5 7 4 8 2 9 1 10 3 11 10 12
REMARK H PARENT 10 13
REMARK Flexibility Score: inf
ROOT
ATOM      1  C   UNL     1      11.261   4.005 -19.220  1.00  0.00    -0.025 A 
ATOM      2  C   UNL     1      10.071   4.201 -18.498  1.00  0.00     0.012 A 
ATOM      3  C   UNL     1      11.211   3.278 -20.428  1.00  0.00     0.012 A 
ATOM      4  C   UNL     1       8.864   3.664 -18.955  1.00  0.00     0.047 A 
ATOM      5  C   UNL     1      10.000   2.744 -20.881  1.00  0.00     0.047 A 
ATOM      6  C   UNL     1       8.826   2.933 -20.145  1.00  0.00     0.115 A 
ENDROOT
BRANCH   1   7
ATOM      7  C   UNL     1      12.515   4.603 -18.699  1.00  0.00     0.010 C 
ATOM      8  C   UNL     1      13.335   3.984 -17.839  1.00  0.00     0.025 C 
BRANCH   8   9
ATOM      9  C   UNL     1      14.563   4.621 -17.339  1.00  0.00     0.064 C 
ATOM     10  O   UNL     1      14.948   5.709 -17.841  1.00  0.00    -0.545 OA
ATOM     11  O   UNL     1      15.307   4.041 -16.318  1.00  0.00    -0.545 OA
ENDBRANCH   8   9
ENDBRANCH   1   7
BRANCH   6  12
ATOM     12  O   UNL     1       7.615   2.404 -20.589  1.00  0.00    -0.508 OA
ATOM     13  H   UNL     1       7.575   1.524 -21.090  1.00  0.00     0.293 HD
ENDBRANCH   6  12
TORSDOF 3
ENDMDL
MODEL 4
REMARK VINA RESULT:    -4.431     11.410     12.491
REMARK INTER + INTRA:          -5.217
REMARK INTER:                  -5.077
REMARK INTRA:                  -0.139
REMARK UNBOUND:                -0.138
REMARK SMILES O=C([O-])C=Cc1ccc(O)cc1
REMARK SMILES IDX 6 1 7 2 12 3 8 4 11 5 9 6 5 7 4 8 2 9 1 10 3 11 10 12
REMARK H PARENT 10 13
REMARK Flexibility Score: inf
ROOT
ATOM      1  C   UNL     1       4.662   5.524  -9.451  1.00  0.00    -0.025 A 
ATOM      2  C   UNL     1       5.791   4.715  -9.666  1.00  0.00     0.012 A 
ATOM      3  C   UNL     1       3.897   5.327  -8.283  1.00  0.00     0.012 A 
ATOM      4  C   UNL     1       6.136   3.716  -8.750  1.00  0.00     0.047 A 
ATOM      5  C   UNL     1       4.247   4.327  -7.369  1.00  0.00     0.047 A 
ATOM      6  C   UNL     1       5.365   3.518  -7.603  1.00  0.00     0.115 A 
ENDROOT
BRANCH   1   7
ATOM      7  C   UNL     1       4.343   6.577 -10.447  1.00  0.00     0.010 C 
ATOM      8  C   UNL     1       4.949   7.771 -10.490  1.00  0.00     0.025 C 
BRANCH   8   9
ATOM      9  C   UNL     1       4.593   8.790 -11.489  1.00  0.00     0.064 C 
ATOM     10  O   UNL     1       3.892   8.467 -12.483  1.00  0.00    -0.545 OA
ATOM     11  O   UNL     1       5.015  10.107 -11.352  1.00  0.00    -0.545 OA
ENDBRANCH   8   9
ENDBRANCH   1   7
BRANCH   6  12
ATOM     12  O   UNL     1       5.720   2.519  -6.699  1.00  0.00    -0.508 OA
ATOM     13  H   UNL     1       6.381   2.692  -5.951  1.00  0.00     0.293 HD
ENDBRANCH   6  12
TORSDOF 3
ENDMDL
MODEL 5
REMARK VINA RESULT:    -4.414      7.974      9.769
REMARK INTER + INTRA:          -5.197
REMARK INTER:                  -5.042
REMARK INTRA:                  -0.154
REMARK UNBOUND:                -0.138
REMARK SMILES O=C([O-])C=Cc1ccc(O)cc1
REMARK SMILES IDX 6 1 7 2 12 3 8 4 11 5 9 6 5 7 4 8 2 9 1 10 3 11 10 12
REMARK H PARENT 10 13
REMARK Flexibility Score: inf
ROOT
ATOM      1  C   UNL     1      19.446   7.384 -21.645  1.00  0.00    -0.025 A 
ATOM      2  C   UNL     1      19.406   7.893 -20.336  1.00  0.00     0.012 A 
ATOM      3  C   UNL     1      18.299   7.505 -22.457  1.00  0.00     0.012 A 
ATOM      4  C   UNL     1      18.241   8.486 -19.838  1.00  0.00     0.047 A 
ATOM      5  C   UNL     1      17.137   8.100 -21.954  1.00  0.00     0.047 A 
ATOM      6  C   UNL     1      17.105   8.589 -20.643  1.00  0.00     0.115 A 
ENDROOT
BRANCH   1   7
ATOM      7  C   UNL     1      20.708   6.772 -22.131  1.00  0.00     0.010 C 
ATOM      8  C   UNL     1      21.753   6.493 -21.341  1.00  0.00     0.025 C 
BRANCH   8   9
ATOM      9  C   UNL     1      22.990   5.897 -21.868  1.00  0.00     0.064 C 
ATOM     10  O   UNL     1      23.120   5.730 -23.109  1.00  0.00    -0.545 OA
ATOM     11  O   UNL     1      24.022   5.515 -21.018  1.00  0.00    -0.545 OA
ENDBRANCH   8   9
ENDBRANCH   1   7
BRANCH   6  12
ATOM     12  O   UNL     1      15.951   9.182 -20.134  1.00  0.00    -0.508 OA
ATOM     13  H   UNL     1      15.045   8.740 -20.225  1.00  0.00     0.293 HD
ENDBRANCH   6  12
TORSDOF 3
ENDMDL
MODEL 6
REMARK VINA RESULT:    -4.380      1.645      2.254
REMARK INTER + INTRA:          -5.159
REMARK INTER:                  -5.021
REMARK INTRA:                  -0.137
REMARK UNBOUND:                -0.138
REMARK SMILES O=C([O-])C=Cc1ccc(O)cc1
REMARK SMILES IDX 6 1 7 2 12 3 8 4 11 5 9 6 5 7 4 8 2 9 1 10 3 11 10 12
REMARK H PARENT 10 13
REMARK Flexibility Score: inf
ROOT
ATOM      1  C   UNL     1      12.433   4.645 -18.585  1.00  0.00    -0.025 A 
ATOM      2  C   UNL     1      12.207   3.275 -18.362  1.00  0.00     0.012 A 
ATOM      3  C   UNL     1      11.757   5.281 -19.648  1.00  0.00     0.012 A 
ATOM      4  C   UNL     1      11.349   2.551 -19.195  1.00  0.00     0.047 A 
ATOM      5  C   UNL     1      10.899   4.551 -20.477  1.00  0.00     0.047 A 
ATOM      6  C   UNL     1      10.695   3.185 -20.254  1.00  0.00     0.115 A 
ENDROOT
BRANCH   1   7
ATOM      7  C   UNL     1      13.345   5.373 -17.668  1.00  0.00     0.010 C 
ATOM      8  C   UNL     1      14.660   5.133 -17.581  1.00  0.00     0.025 C 
BRANCH   8   9
ATOM      9  C   UNL     1      15.525   5.872 -16.648  1.00  0.00     0.064 C 
ATOM     10  O   UNL     1      15.552   5.544 -15.433  1.00  0.00    -0.545 OA
ATOM     11  O   UNL     1      16.318   6.926 -17.087  1.00  0.00    -0.545 OA
ENDBRANCH   8   9
ENDBRANCH   1   7
BRANCH   6  12
ATOM     12  O   UNL     1       9.842   2.450 -21.075  1.00  0.00    -0.508 OA
ATOM     13  H   UNL     1       8.950   2.107 -20.740  1.00  0.00     0.293 HD
ENDBRANCH   6  12
TORSDOF 3
ENDMDL
MODEL 7
REMARK VINA RESULT:    -4.355     14.471     15.102
REMARK INTER + INTRA:          -5.129
REMARK INTER:                  -4.994
REMARK INTRA:                  -0.135
REMARK UNBOUND:                -0.138
REMARK SMILES O=C([O-])C=Cc1ccc(O)cc1
REMARK SMILES IDX 6 1 7 2 12 3 8 4 11 5 9 6 5 7 4 8 2 9 1 10 3 11 10 12
REMARK H PARENT 10 13
REMARK Flexibility Score: inf
ROOT
ATOM      1  C   UNL     1       8.350  -6.552  -9.213  1.00  0.00    -0.025 A 
ATOM      2  C   UNL     1       8.414  -5.371  -9.973  1.00  0.00     0.012 A 
ATOM      3  C   UNL     1       8.110  -7.774  -9.874  1.00  0.00     0.012 A 
ATOM      4  C   UNL     1       8.216  -5.404 -11.357  1.00  0.00     0.047 A 
ATOM      5  C   UNL     1       7.914  -7.802 -11.259  1.00  0.00     0.047 A 
ATOM      6  C   UNL     1       7.964  -6.617 -12.002  1.00  0.00     0.115 A 
ENDROOT
BRANCH   1   7
ATOM      7  C   UNL     1       8.577  -6.466  -7.749  1.00  0.00     0.010 C 
ATOM      8  C   UNL     1       7.675  -5.986  -6.882  1.00  0.00     0.025 C 
BRANCH   8   9
ATOM      9  C   UNL     1       7.947  -5.909  -5.439  1.00  0.00     0.064 C 
ATOM     10  O   UNL     1       8.453  -4.862  -4.956  1.00  0.00    -0.545 OA
ATOM     11  O   UNL     1       7.651  -6.974  -4.595  1.00  0.00    -0.545 OA
ENDBRANCH   8   9
ENDBRANCH   1   7
BRANCH   6  12
ATOM     12  O   UNL     1       7.768  -6.635 -13.382  1.00  0.00    -0.508 OA
ATOM     13  H   UNL     1       6.858  -6.459 -13.790  1.00  0.00     0.293 HD
ENDBRANCH   6  12
TORSDOF 3
ENDMDL
MODEL 8
REMARK VINA RESULT:    -4.273      5.858      8.954
REMARK INTER + INTRA:          -5.036
REMARK INTER:                  -4.897
REMARK INTRA:                  -0.139
REMARK UNBOUND:                -0.138
REMARK SMILES O=C([O-])C=Cc1ccc(O)cc1
REMARK SMILES IDX 6 1 7 2 12 3 8 4 11 5 9 6 5 7 4 8 2 9 1 10 3 11 10 12
REMARK H PARENT 10 13
REMARK Flexibility Score: inf
ROOT
ATOM      1  C   UNL     1      17.852   7.383 -21.172  1.00  0.00    -0.025 A 
ATOM      2  C   UNL     1      18.027   7.413 -22.566  1.00  0.00     0.012 A 
ATOM      3  C   UNL     1      18.920   7.787 -20.344  1.00  0.00     0.012 A 
ATOM      4  C   UNL     1      19.246   7.810 -23.123  1.00  0.00     0.047 A 
ATOM      5  C   UNL     1      20.138   8.185 -20.906  1.00  0.00     0.047 A 
ATOM      6  C   UNL     1      20.304   8.195 -22.296  1.00  0.00     0.115 A 
ENDROOT
BRANCH   1   7
ATOM      7  C   UNL     1      16.536   6.963 -20.630  1.00  0.00     0.010 C 
ATOM      8  C   UNL     1      16.217   7.006 -19.329  1.00  0.00     0.025 C 
BRANCH   8   9
ATOM      9  C   UNL     1      14.903   6.568 -18.835  1.00  0.00     0.064 C 
ATOM     10  O   UNL     1      13.946   7.386 -18.806  1.00  0.00    -0.545 OA
ATOM     11  O   UNL     1      14.698   5.264 -18.401  1.00  0.00    -0.545 OA
ENDBRANCH   8   9
ENDBRANCH   1   7
BRANCH   6  12
ATOM     12  O   UNL     1      21.514   8.589 -22.864  1.00  0.00    -0.508 OA
ATOM     13  H   UNL     1      22.271   7.931 -23.006  1.00  0.00     0.293 HD
ENDBRANCH   6  12
TORSDOF 3
ENDMDL
