MODEL 1
REMARK VINA RESULT:    -1.061      0.000      0.000
REMARK INTER + INTRA:          -6.707
REMARK INTER:                  -2.301
REMARK INTRA:                  -4.405
REMARK UNBOUND:                -4.405
REMARK SMILES CCCCCCCCCCCCCCCCCCCCCC(=O)[O-]
REMARK SMILES IDX 12 1 11 2 10 3 9 4 8 5 7 6 6 7 5 8 4 9 3 10 2 11 1 12 13 13
REMARK SMILES IDX 14 14 15 15 16 16 17 17 18 18 19 19 20 20 21 21 22 22 23 23
REMARK SMILES IDX 24 24
REMARK H PARENT
REMARK Flexibility Score: inf
ROOT
ATOM      1  C   UNL     1     142.051  52.500 -10.033  1.00  0.00     0.000 C 
ENDROOT
BRANCH   1   2
ATOM      2  C   UNL     1     141.042  53.650 -10.197  1.00  0.00     0.000 C 
BRANCH   2   3
ATOM      3  C   UNL     1     140.549  54.202  -8.849  1.00  0.00     0.000 C 
BRANCH   3   4
ATOM      4  C   UNL     1     139.757  55.510  -8.998  1.00  0.00    -0.000 C 
BRANCH   4   5
ATOM      5  C   UNL     1     139.104  55.602 -10.382  1.00  0.00    -0.000 C 
BRANCH   5   6
ATOM      6  C   UNL     1     139.229  57.021 -10.960  1.00  0.00    -0.000 C 
BRANCH   6   7
ATOM      7  C   UNL     1     139.480  57.019 -12.475  1.00  0.00    -0.000 C 
BRANCH   7   8
ATOM      8  C   UNL     1     140.766  56.269 -12.861  1.00  0.00    -0.000 C 
BRANCH   8   9
ATOM      9  C   UNL     1     142.038  57.093 -12.591  1.00  0.00    -0.000 C 
BRANCH   9  10
ATOM     10  C   UNL     1     142.994  56.489 -11.542  1.00  0.00    -0.000 C 
BRANCH  10  11
ATOM     11  C   UNL     1     142.903  57.119 -10.140  1.00  0.00    -0.003 C 
ATOM     12  C   UNL     1     143.565  56.264  -9.060  1.00  0.00     0.004 C 
ENDBRANCH  10  11
ENDBRANCH   9  10
ENDBRANCH   8   9
ENDBRANCH   7   8
ENDBRANCH   6   7
ENDBRANCH   5   6
ENDBRANCH   4   5
ENDBRANCH   3   4
ENDBRANCH   2   3
ENDBRANCH   1   2
BRANCH   1  13
ATOM     13  C   UNL     1     143.405  52.806 -10.709  1.00  0.00     0.000 C 
BRANCH  13  14
ATOM     14  C   UNL     1     143.506  52.277 -12.152  1.00  0.00     0.000 C 
BRANCH  14  15
ATOM     15  C   UNL     1     142.970  53.238 -13.229  1.00  0.00     0.000 C 
BRANCH  15  16
ATOM     16  C   UNL     1     141.851  52.665 -14.125  1.00  0.00     0.000 C 
BRANCH  16  17
ATOM     17  C   UNL     1     140.421  52.799 -13.569  1.00  0.00     0.000 C 
BRANCH  17  18
ATOM     18  C   UNL     1     139.830  51.461 -13.092  1.00  0.00     0.000 C 
BRANCH  18  19
ATOM     19  C   UNL     1     138.727  51.644 -12.032  1.00  0.00     0.000 C 
BRANCH  19  20
ATOM     20  C   UNL     1     138.776  50.637 -10.868  1.00  0.00     0.006 C 
BRANCH  20  21
ATOM     21  C   UNL     1     138.206  51.213  -9.563  1.00  0.00     0.053 C 
BRANCH  21  22
ATOM     22  C   UNL     1     139.069  50.832  -8.402  1.00  0.00     0.041 C 
ATOM     23  O   UNL     1     139.934  49.923  -8.527  1.00  0.00    -0.550 OA
ATOM     24  O   UNL     1     138.956  51.514  -7.199  1.00  0.00    -0.550 OA
ENDBRANCH  21  22
ENDBRANCH  20  21
ENDBRANCH  19  20
ENDBRANCH  18  19
ENDBRANCH  17  18
ENDBRANCH  16  17
ENDBRANCH  15  16
ENDBRANCH  14  15
ENDBRANCH  13  14
ENDBRANCH   1  13
TORSDOF 20
ENDMDL
MODEL 2
REMARK VINA RESULT:    -0.999     13.027     15.826
REMARK INTER + INTRA:          -6.572
REMARK INTER:                  -2.412
REMARK INTRA:                  -4.160
REMARK UNBOUND:                -4.405
REMARK SMILES CCCCCCCCCCCCCCCCCCCCCC(=O)[O-]
REMARK SMILES IDX 12 1 11 2 10 3 9 4 8 5 7 6 6 7 5 8 4 9 3 10 2 11 1 12 13 13
REMARK SMILES IDX 14 14 15 15 16 16 17 17 18 18 19 19 20 20 21 21 22 22 23 23
REMARK SMILES IDX 24 24
REMARK H PARENT
REMARK Flexibility Score: inf
ROOT
ATOM      1  C   UNL     1     143.745  37.481  -8.664  1.00  0.00     0.000 C 
ENDROOT
BRANCH   1   2
ATOM      2  C   UNL     1     143.092  36.876  -9.919  1.00  0.00     0.000 C 
BRANCH   2   3
ATOM      3  C   UNL     1     141.774  37.573 -10.296  1.00  0.00     0.000 C 
BRANCH   3   4
ATOM      4  C   UNL     1     141.397  37.371 -11.771  1.00  0.00    -0.000 C 
BRANCH   4   5
ATOM      5  C   UNL     1     142.602  36.884 -12.585  1.00  0.00    -0.000 C 
BRANCH   5   6
ATOM      6  C   UNL     1     143.182  38.016 -13.446  1.00  0.00    -0.000 C 
BRANCH   6   7
ATOM      7  C   UNL     1     144.451  38.629 -12.834  1.00  0.00    -0.000 C 
BRANCH   7   8
ATOM      8  C   UNL     1     144.275  40.113 -12.469  1.00  0.00    -0.000 C 
BRANCH   8   9
ATOM      9  C   UNL     1     144.204  40.346 -10.949  1.00  0.00    -0.000 C 
BRANCH   9  10
ATOM     10  C   UNL     1     143.062  41.272 -10.485  1.00  0.00    -0.000 C 
BRANCH  10  11
ATOM     11  C   UNL     1     141.910  41.440 -11.492  1.00  0.00    -0.003 C 
ATOM     12  C   UNL     1     140.579  40.900 -10.968  1.00  0.00     0.004 C 
ENDBRANCH  10  11
ENDBRANCH   9  10
ENDBRANCH   8   9
ENDBRANCH   7   8
ENDBRANCH   6   7
ENDBRANCH   5   6
ENDBRANCH   4   5
ENDBRANCH   3   4
ENDBRANCH   2   3
ENDBRANCH   1   2
BRANCH   1  13
ATOM     13  C   UNL     1     145.279  37.589  -8.795  1.00  0.00     0.000 C 
BRANCH  13  14
ATOM     14  C   UNL     1     145.844  36.875 -10.037  1.00  0.00     0.000 C 
BRANCH  14  15
ATOM     15  C   UNL     1     147.141  37.488 -10.598  1.00  0.00     0.000 C 
BRANCH  15  16
ATOM     16  C   UNL     1     147.810  38.548  -9.696  1.00  0.00     0.000 C 
BRANCH  16  17
ATOM     17  C   UNL     1     147.726  39.999 -10.203  1.00  0.00     0.000 C 
BRANCH  17  18
ATOM     18  C   UNL     1     147.675  41.035  -9.067  1.00  0.00     0.000 C 
BRANCH  18  19
ATOM     19  C   UNL     1     147.671  40.383  -7.671  1.00  0.00     0.000 C 
BRANCH  19  20
ATOM     20  C   UNL     1     146.788  41.094  -6.628  1.00  0.00     0.006 C 
BRANCH  20  21
ATOM     21  C   UNL     1     145.311  40.687  -6.727  1.00  0.00     0.053 C 
BRANCH  21  22
ATOM     22  C   UNL     1     144.870  40.005  -5.471  1.00  0.00     0.041 C 
ATOM     23  O   UNL     1     144.531  38.791  -5.494  1.00  0.00    -0.550 OA
ATOM     24  O   UNL     1     144.886  40.691  -4.264  1.00  0.00    -0.550 OA
ENDBRANCH  21  22
ENDBRANCH  20  21
ENDBRANCH  19  20
ENDBRANCH  18  19
ENDBRANCH  17  18
ENDBRANCH  16  17
ENDBRANCH  15  16
ENDBRANCH  14  15
ENDBRANCH  13  14
ENDBRANCH   1  13
TORSDOF 20
ENDMDL
MODEL 3
REMARK VINA RESULT:    -0.996     13.064     15.673
REMARK INTER + INTRA:          -6.566
REMARK INTER:                  -2.299
REMARK INTRA:                  -4.267
REMARK UNBOUND:                -4.405
REMARK SMILES CCCCCCCCCCCCCCCCCCCCCC(=O)[O-]
REMARK SMILES IDX 12 1 11 2 10 3 9 4 8 5 7 6 6 7 5 8 4 9 3 10 2 11 1 12 13 13
REMARK SMILES IDX 14 14 15 15 16 16 17 17 18 18 19 19 20 20 21 21 22 22 23 23
REMARK SMILES IDX 24 24
REMARK H PARENT
REMARK Flexibility Score: inf
ROOT
ATOM      1  C   UNL     1     141.972  38.395 -13.172  1.00  0.00     0.000 C 
ENDROOT
BRANCH   1   2
ATOM      2  C   UNL     1     141.736  37.181 -12.257  1.00  0.00     0.000 C 
BRANCH   2   3
ATOM      3  C   UNL     1     141.701  37.559 -10.767  1.00  0.00     0.000 C 
BRANCH   3   4
ATOM      4  C   UNL     1     142.814  36.878  -9.957  1.00  0.00    -0.000 C 
BRANCH   4   5
ATOM      5  C   UNL     1     143.145  37.684  -8.694  1.00  0.00    -0.000 C 
BRANCH   5   6
ATOM      6  C   UNL     1     143.893  38.980  -9.044  1.00  0.00    -0.000 C 
BRANCH   6   7
ATOM      7  C   UNL     1     143.154  40.235  -8.557  1.00  0.00    -0.000 C 
BRANCH   7   8
ATOM      8  C   UNL     1     144.091  41.443  -8.384  1.00  0.00    -0.000 C 
BRANCH   8   9
ATOM      9  C   UNL     1     145.024  41.650  -9.590  1.00  0.00    -0.000 C 
BRANCH   9  10
ATOM     10  C   UNL     1     146.207  42.608  -9.341  1.00  0.00    -0.000 C 
BRANCH  10  11
ATOM     11  C   UNL     1     147.302  42.583 -10.422  1.00  0.00    -0.003 C 
ATOM     12  C   UNL     1     146.740  42.431 -11.836  1.00  0.00     0.004 C 
ENDBRANCH  10  11
ENDBRANCH   9  10
ENDBRANCH   8   9
ENDBRANCH   7   8
ENDBRANCH   6   7
ENDBRANCH   5   6
ENDBRANCH   4   5
ENDBRANCH   3   4
ENDBRANCH   2   3
ENDBRANCH   1   2
BRANCH   1  13
ATOM     13  C   UNL     1     142.489  39.624 -12.393  1.00  0.00     0.000 C 
BRANCH  13  14
ATOM     14  C   UNL     1     143.966  39.957 -12.677  1.00  0.00     0.000 C 
BRANCH  14  15
ATOM     15  C   UNL     1     144.903  38.736 -12.720  1.00  0.00     0.000 C 
BRANCH  15  16
ATOM     16  C   UNL     1     146.111  38.800 -11.759  1.00  0.00     0.000 C 
BRANCH  16  17
ATOM     17  C   UNL     1     146.581  37.447 -11.194  1.00  0.00     0.000 C 
BRANCH  17  18
ATOM     18  C   UNL     1     147.500  37.591  -9.968  1.00  0.00     0.000 C 
BRANCH  18  19
ATOM     19  C   UNL     1     147.618  39.049  -9.484  1.00  0.00     0.000 C 
BRANCH  19  20
ATOM     20  C   UNL     1     147.499  39.235  -7.959  1.00  0.00     0.006 C 
BRANCH  20  21
ATOM     21  C   UNL     1     146.825  38.040  -7.268  1.00  0.00     0.053 C 
BRANCH  21  22
ATOM     22  C   UNL     1     146.278  38.446  -5.937  1.00  0.00     0.041 C 
ATOM     23  O   UNL     1     146.717  37.913  -4.881  1.00  0.00    -0.550 OA
ATOM     24  O   UNL     1     145.324  39.451  -5.853  1.00  0.00    -0.550 OA
ENDBRANCH  21  22
ENDBRANCH  20  21
ENDBRANCH  19  20
ENDBRANCH  18  19
ENDBRANCH  17  18
ENDBRANCH  16  17
ENDBRANCH  15  16
ENDBRANCH  14  15
ENDBRANCH  13  14
ENDBRANCH   1  13
TORSDOF 20
ENDMDL
MODEL 4
REMARK VINA RESULT:    -0.945     12.991     15.814
REMARK INTER + INTRA:          -6.455
REMARK INTER:                  -2.197
REMARK INTRA:                  -4.258
REMARK UNBOUND:                -4.405
REMARK SMILES CCCCCCCCCCCCCCCCCCCCCC(=O)[O-]
REMARK SMILES IDX 12 1 11 2 10 3 9 4 8 5 7 6 6 7 5 8 4 9 3 10 2 11 1 12 13 13
REMARK SMILES IDX 14 14 15 15 16 16 17 17 18 18 19 19 20 20 21 21 22 22 23 23
REMARK SMILES IDX 24 24
REMARK H PARENT
REMARK Flexibility Score: inf
ROOT
ATOM      1  C   UNL     1     143.161  41.214  -5.590  1.00  0.00     0.000 C 
ENDROOT
BRANCH   1   2
ATOM      2  C   UNL     1     144.630  40.854  -5.310  1.00  0.00     0.000 C 
BRANCH   2   3
ATOM      3  C   UNL     1     144.894  39.341  -5.386  1.00  0.00     0.000 C 
BRANCH   3   4
ATOM      4  C   UNL     1     146.301  39.009  -5.905  1.00  0.00    -0.000 C 
BRANCH   4   5
ATOM      5  C   UNL     1     147.026  40.276  -6.375  1.00  0.00    -0.000 C 
BRANCH   5   6
ATOM      6  C   UNL     1     147.473  40.147  -7.840  1.00  0.00    -0.000 C 
BRANCH   6   7
ATOM      7  C   UNL     1     147.575  38.684  -8.297  1.00  0.00    -0.000 C 
BRANCH   7   8
ATOM      8  C   UNL     1     147.973  38.553  -9.777  1.00  0.00    -0.000 C 
BRANCH   8   9
ATOM      9  C   UNL     1     147.448  37.258 -10.422  1.00  0.00    -0.000 C 
BRANCH   9  10
ATOM     10  C   UNL     1     146.726  37.449 -11.771  1.00  0.00    -0.000 C 
BRANCH  10  11
ATOM     11  C   UNL     1     146.595  38.910 -12.237  1.00  0.00    -0.003 C 
ATOM     12  C   UNL     1     145.329  39.162 -13.057  1.00  0.00     0.004 C 
ENDBRANCH  10  11
ENDBRANCH   9  10
ENDBRANCH   8   9
ENDBRANCH   7   8
ENDBRANCH   6   7
ENDBRANCH   5   6
ENDBRANCH   4   5
ENDBRANCH   3   4
ENDBRANCH   2   3
ENDBRANCH   1   2
BRANCH   1  13
ATOM     13  C   UNL     1     143.020  42.300  -6.678  1.00  0.00     0.000 C 
BRANCH  13  14
ATOM     14  C   UNL     1     144.337  42.608  -7.415  1.00  0.00     0.000 C 
BRANCH  14  15
ATOM     15  C   UNL     1     144.332  42.259  -8.915  1.00  0.00     0.000 C 
BRANCH  15  16
ATOM     16  C   UNL     1     143.503  41.013  -9.297  1.00  0.00     0.000 C 
BRANCH  16  17
ATOM     17  C   UNL     1     144.311  39.723  -9.529  1.00  0.00     0.000 C 
BRANCH  17  18
ATOM     18  C   UNL     1     143.765  38.519  -8.742  1.00  0.00     0.000 C 
BRANCH  18  19
ATOM     19  C   UNL     1     143.782  37.217  -9.565  1.00  0.00     0.000 C 
BRANCH  19  20
ATOM     20  C   UNL     1     142.452  36.878 -10.266  1.00  0.00     0.006 C 
BRANCH  20  21
ATOM     21  C   UNL     1     142.516  37.082 -11.786  1.00  0.00     0.053 C 
BRANCH  21  22
ATOM     22  C   UNL     1     141.656  38.235 -12.196  1.00  0.00     0.041 C 
ATOM     23  O   UNL     1     141.233  39.050 -11.331  1.00  0.00    -0.550 OA
ATOM     24  O   UNL     1     141.365  38.444 -13.537  1.00  0.00    -0.550 OA
ENDBRANCH  21  22
ENDBRANCH  20  21
ENDBRANCH  19  20
ENDBRANCH  18  19
ENDBRANCH  17  18
ENDBRANCH  16  17
ENDBRANCH  15  16
ENDBRANCH  14  15
ENDBRANCH  13  14
ENDBRANCH   1  13
TORSDOF 20
ENDMDL
MODEL 5
REMARK VINA RESULT:    -0.940     13.350     15.561
REMARK INTER + INTRA:          -6.444
REMARK INTER:                  -2.457
REMARK INTRA:                  -3.987
REMARK UNBOUND:                -4.405
REMARK SMILES CCCCCCCCCCCCCCCCCCCCCC(=O)[O-]
REMARK SMILES IDX 12 1 11 2 10 3 9 4 8 5 7 6 6 7 5 8 4 9 3 10 2 11 1 12 13 13
REMARK SMILES IDX 14 14 15 15 16 16 17 17 18 18 19 19 20 20 21 21 22 22 23 23
REMARK SMILES IDX 24 24
REMARK H PARENT
REMARK Flexibility Score: inf
ROOT
ATOM      1  C   UNL     1     143.066  40.853 -10.998  1.00  0.00     0.000 C 
ENDROOT
BRANCH   1   2
ATOM      2  C   UNL     1     144.499  40.355 -10.749  1.00  0.00     0.000 C 
BRANCH   2   3
ATOM      3  C   UNL     1     145.520  40.977 -11.716  1.00  0.00     0.000 C 
BRANCH   3   4
ATOM      4  C   UNL     1     146.545  39.957 -12.234  1.00  0.00    -0.000 C 
BRANCH   4   5
ATOM      5  C   UNL     1     145.921  38.561 -12.349  1.00  0.00    -0.000 C 
BRANCH   5   6
ATOM      6  C   UNL     1     146.819  37.498 -11.697  1.00  0.00    -0.000 C 
BRANCH   6   7
ATOM      7  C   UNL     1     146.554  37.348 -10.192  1.00  0.00    -0.000 C 
BRANCH   7   8
ATOM      8  C   UNL     1     147.629  38.032  -9.330  1.00  0.00    -0.000 C 
BRANCH   8   9
ATOM      9  C   UNL     1     147.101  38.460  -7.949  1.00  0.00    -0.000 C 
BRANCH   9  10
ATOM     10  C   UNL     1     146.948  39.982  -7.754  1.00  0.00    -0.000 C 
BRANCH  10  11
ATOM     11  C   UNL     1     147.789  40.848  -8.709  1.00  0.00    -0.003 C 
ATOM     12  C   UNL     1     147.342  42.310  -8.735  1.00  0.00     0.004 C 
ENDBRANCH  10  11
ENDBRANCH   9  10
ENDBRANCH   8   9
ENDBRANCH   7   8
ENDBRANCH   6   7
ENDBRANCH   5   6
ENDBRANCH   4   5
ENDBRANCH   3   4
ENDBRANCH   2   3
ENDBRANCH   1   2
BRANCH   1  13
ATOM     13  C   UNL     1     142.664  40.766 -12.486  1.00  0.00     0.000 C 
BRANCH  13  14
ATOM     14  C   UNL     1     141.240  40.223 -12.709  1.00  0.00     0.000 C 
BRANCH  14  15
ATOM     15  C   UNL     1     141.171  38.898 -13.491  1.00  0.00     0.000 C 
BRANCH  15  16
ATOM     16  C   UNL     1     142.306  37.896 -13.187  1.00  0.00     0.000 C 
BRANCH  16  17
ATOM     17  C   UNL     1     142.009  36.876 -12.071  1.00  0.00     0.000 C 
BRANCH  17  18
ATOM     18  C   UNL     1     142.867  37.092 -10.812  1.00  0.00     0.000 C 
BRANCH  18  19
ATOM     19  C   UNL     1     142.020  37.409  -9.565  1.00  0.00     0.000 C 
BRANCH  19  20
ATOM     20  C   UNL     1     140.528  37.670  -9.846  1.00  0.00     0.006 C 
BRANCH  20  21
ATOM     21  C   UNL     1     140.089  39.085  -9.443  1.00  0.00     0.053 C 
BRANCH  21  22
ATOM     22  C   UNL     1     139.023  39.024  -8.396  1.00  0.00     0.041 C 
ATOM     23  O   UNL     1     137.899  38.518  -8.664  1.00  0.00    -0.550 OA
ATOM     24  O   UNL     1     139.284  39.474  -7.109  1.00  0.00    -0.550 OA
ENDBRANCH  21  22
ENDBRANCH  20  21
ENDBRANCH  19  20
ENDBRANCH  18  19
ENDBRANCH  17  18
ENDBRANCH  16  17
ENDBRANCH  15  16
ENDBRANCH  14  15
ENDBRANCH  13  14
ENDBRANCH   1  13
TORSDOF 20
ENDMDL
MODEL 6
REMARK VINA RESULT:    -0.932     12.898     15.372
REMARK INTER + INTRA:          -6.428
REMARK INTER:                  -2.273
REMARK INTRA:                  -4.154
REMARK UNBOUND:                -4.405
REMARK SMILES CCCCCCCCCCCCCCCCCCCCCC(=O)[O-]
REMARK SMILES IDX 12 1 11 2 10 3 9 4 8 5 7 6 6 7 5 8 4 9 3 10 2 11 1 12 13 13
REMARK SMILES IDX 14 14 15 15 16 16 17 17 18 18 19 19 20 20 21 21 22 22 23 23
REMARK SMILES IDX 24 24
REMARK H PARENT
REMARK Flexibility Score: inf
ROOT
ATOM      1  C   UNL     1     143.735  40.676 -10.277  1.00  0.00     0.000 C 
ENDROOT
BRANCH   1   2
ATOM      2  C   UNL     1     142.657  41.231  -9.330  1.00  0.00     0.000 C 
BRANCH   2   3
ATOM      3  C   UNL     1     141.277  41.335 -10.000  1.00  0.00     0.000 C 
BRANCH   3   4
ATOM      4  C   UNL     1     141.368  41.482 -11.526  1.00  0.00    -0.000 C 
BRANCH   4   5
ATOM      5  C   UNL     1     140.236  40.713 -12.220  1.00  0.00    -0.000 C 
BRANCH   5   6
ATOM      6  C   UNL     1     140.739  40.021 -13.497  1.00  0.00    -0.000 C 
BRANCH   6   7
ATOM      7  C   UNL     1     142.253  40.182 -13.695  1.00  0.00    -0.000 C 
BRANCH   7   8
ATOM      8  C   UNL     1     142.936  38.871 -14.125  1.00  0.00    -0.000 C 
BRANCH   8   9
ATOM      9  C   UNL     1     142.233  37.623 -13.563  1.00  0.00    -0.000 C 
BRANCH   9  10
ATOM     10  C   UNL     1     142.956  36.944 -12.382  1.00  0.00    -0.000 C 
BRANCH  10  11
ATOM     11  C   UNL     1     142.584  37.489 -10.992  1.00  0.00    -0.003 C 
ATOM     12  C   UNL     1     141.085  37.400 -10.700  1.00  0.00     0.004 C 
ENDBRANCH  10  11
ENDBRANCH   9  10
ENDBRANCH   8   9
ENDBRANCH   7   8
ENDBRANCH   6   7
ENDBRANCH   5   6
ENDBRANCH   4   5
ENDBRANCH   3   4
ENDBRANCH   2   3
ENDBRANCH   1   2
BRANCH   1  13
ATOM     13  C   UNL     1     144.950  41.620 -10.401  1.00  0.00     0.000 C 
BRANCH  13  14
ATOM     14  C   UNL     1     146.126  41.011 -11.188  1.00  0.00     0.000 C 
BRANCH  14  15
ATOM     15  C   UNL     1     145.743  39.840 -12.111  1.00  0.00     0.000 C 
BRANCH  15  16
ATOM     16  C   UNL     1     146.782  38.700 -12.192  1.00  0.00     0.000 C 
BRANCH  16  17
ATOM     17  C   UNL     1     146.483  37.466 -11.320  1.00  0.00     0.000 C 
BRANCH  17  18
ATOM     18  C   UNL     1     146.987  37.613  -9.873  1.00  0.00     0.000 C 
BRANCH  18  19
ATOM     19  C   UNL     1     145.859  37.965  -8.885  1.00  0.00     0.000 C 
BRANCH  19  20
ATOM     20  C   UNL     1     146.336  38.542  -7.538  1.00  0.00     0.006 C 
BRANCH  20  21
ATOM     21  C   UNL     1     146.067  40.048  -7.412  1.00  0.00     0.053 C 
BRANCH  21  22
ATOM     22  C   UNL     1     147.344  40.790  -7.173  1.00  0.00     0.041 C 
ATOM     23  O   UNL     1     147.997  41.257  -8.145  1.00  0.00    -0.550 OA
ATOM     24  O   UNL     1     147.786  41.014  -5.877  1.00  0.00    -0.550 OA
ENDBRANCH  21  22
ENDBRANCH  20  21
ENDBRANCH  19  20
ENDBRANCH  18  19
ENDBRANCH  17  18
ENDBRANCH  16  17
ENDBRANCH  15  16
ENDBRANCH  14  15
ENDBRANCH  13  14
ENDBRANCH   1  13
TORSDOF 20
ENDMDL
MODEL 7
REMARK VINA RESULT:    -0.929     12.827     15.528
REMARK INTER + INTRA:          -6.421
REMARK INTER:                  -2.274
REMARK INTRA:                  -4.147
REMARK UNBOUND:                -4.405
REMARK SMILES CCCCCCCCCCCCCCCCCCCCCC(=O)[O-]
REMARK SMILES IDX 12 1 11 2 10 3 9 4 8 5 7 6 6 7 5 8 4 9 3 10 2 11 1 12 13 13
REMARK SMILES IDX 14 14 15 15 16 16 17 17 18 18 19 19 20 20 21 21 22 22 23 23
REMARK SMILES IDX 24 24
REMARK H PARENT
REMARK Flexibility Score: inf
ROOT
ATOM      1  C   UNL     1     141.635  40.743 -12.943  1.00  0.00     0.000 C 
ENDROOT
BRANCH   1   2
ATOM      2  C   UNL     1     141.871  39.786 -14.124  1.00  0.00     0.000 C 
BRANCH   2   3
ATOM      3  C   UNL     1     141.636  38.313 -13.750  1.00  0.00     0.000 C 
BRANCH   3   4
ATOM      4  C   UNL     1     141.664  38.075 -12.233  1.00  0.00    -0.000 C 
BRANCH   4   5
ATOM      5  C   UNL     1     142.898  37.261 -11.826  1.00  0.00    -0.000 C 
BRANCH   5   6
ATOM      6  C   UNL     1     143.027  37.178 -10.297  1.00  0.00    -0.000 C 
BRANCH   6   7
ATOM      7  C   UNL     1     142.237  38.282  -9.579  1.00  0.00    -0.000 C 
BRANCH   7   8
ATOM      8  C   UNL     1     143.137  39.202  -8.736  1.00  0.00    -0.000 C 
BRANCH   8   9
ATOM      9  C   UNL     1     144.059  40.083  -9.598  1.00  0.00    -0.000 C 
BRANCH   9  10
ATOM     10  C   UNL     1     144.767  41.223  -8.838  1.00  0.00    -0.000 C 
BRANCH  10  11
ATOM     11  C   UNL     1     145.092  42.466  -9.685  1.00  0.00    -0.003 C 
ATOM     12  C   UNL     1     146.566  42.547 -10.083  1.00  0.00     0.004 C 
ENDBRANCH  10  11
ENDBRANCH   9  10
ENDBRANCH   8   9
ENDBRANCH   7   8
ENDBRANCH   6   7
ENDBRANCH   5   6
ENDBRANCH   4   5
ENDBRANCH   3   4
ENDBRANCH   2   3
ENDBRANCH   1   2
BRANCH   1  13
ATOM     13  C   UNL     1     142.902  41.545 -12.575  1.00  0.00     0.000 C 
BRANCH  13  14
ATOM     14  C   UNL     1     144.054  41.373 -13.583  1.00  0.00     0.000 C 
BRANCH  14  15
ATOM     15  C   UNL     1     145.273  40.603 -13.041  1.00  0.00     0.000 C 
BRANCH  15  16
ATOM     16  C   UNL     1     145.526  39.228 -13.697  1.00  0.00     0.000 C 
BRANCH  16  17
ATOM     17  C   UNL     1     146.596  38.355 -13.016  1.00  0.00     0.000 C 
BRANCH  17  18
ATOM     18  C   UNL     1     146.436  38.286 -11.487  1.00  0.00     0.000 C 
BRANCH  18  19
ATOM     19  C   UNL     1     147.549  39.046 -10.739  1.00  0.00     0.000 C 
BRANCH  19  20
ATOM     20  C   UNL     1     148.061  38.351  -9.463  1.00  0.00     0.006 C 
BRANCH  20  21
ATOM     21  C   UNL     1     147.750  39.150  -8.190  1.00  0.00     0.053 C 
BRANCH  21  22
ATOM     22  C   UNL     1     146.737  38.432  -7.356  1.00  0.00     0.041 C 
ATOM     23  O   UNL     1     146.495  38.818  -6.180  1.00  0.00    -0.550 OA
ATOM     24  O   UNL     1     146.019  37.372  -7.892  1.00  0.00    -0.550 OA
ENDBRANCH  21  22
ENDBRANCH  20  21
ENDBRANCH  19  20
ENDBRANCH  18  19
ENDBRANCH  17  18
ENDBRANCH  16  17
ENDBRANCH  15  16
ENDBRANCH  14  15
ENDBRANCH  13  14
ENDBRANCH   1  13
TORSDOF 20
ENDMDL
MODEL 8
REMARK VINA RESULT:    -0.925     12.986     15.657
REMARK INTER + INTRA:          -6.413
REMARK INTER:                  -2.460
REMARK INTRA:                  -3.953
REMARK UNBOUND:                -4.405
REMARK SMILES CCCCCCCCCCCCCCCCCCCCCC(=O)[O-]
REMARK SMILES IDX 12 1 11 2 10 3 9 4 8 5 7 6 6 7 5 8 4 9 3 10 2 11 1 12 13 13
REMARK SMILES IDX 14 14 15 15 16 16 17 17 18 18 19 19 20 20 21 21 22 22 23 23
REMARK SMILES IDX 24 24
REMARK H PARENT
REMARK Flexibility Score: inf
ROOT
ATOM      1  C   UNL     1     145.420  39.746 -12.326  1.00  0.00     0.000 C 
ENDROOT
BRANCH   1   2
ATOM      2  C   UNL     1     144.255  40.751 -12.314  1.00  0.00     0.000 C 
BRANCH   2   3
ATOM      3  C   UNL     1     143.197  40.444 -13.385  1.00  0.00     0.000 C 
BRANCH   3   4
ATOM      4  C   UNL     1     141.760  40.592 -12.860  1.00  0.00    -0.000 C 
BRANCH   4   5
ATOM      5  C   UNL     1     140.889  39.410 -13.302  1.00  0.00    -0.000 C 
BRANCH   5   6
ATOM      6  C   UNL     1     141.709  38.111 -13.363  1.00  0.00    -0.000 C 
BRANCH   6   7
ATOM      7  C   UNL     1     141.582  37.275 -12.081  1.00  0.00    -0.000 C 
BRANCH   7   8
ATOM      8  C   UNL     1     142.801  37.425 -11.154  1.00  0.00    -0.000 C 
BRANCH   8   9
ATOM      9  C   UNL     1     142.408  37.773  -9.707  1.00  0.00    -0.000 C 
BRANCH   9  10
ATOM     10  C   UNL     1     142.095  39.262  -9.457  1.00  0.00    -0.000 C 
BRANCH  10  11
ATOM     11  C   UNL     1     143.252  40.077  -8.851  1.00  0.00    -0.003 C 
ATOM     12  C   UNL     1     143.181  40.166  -7.326  1.00  0.00     0.004 C 
ENDBRANCH  10  11
ENDBRANCH   9  10
ENDBRANCH   8   9
ENDBRANCH   7   8
ENDBRANCH   6   7
ENDBRANCH   5   6
ENDBRANCH   4   5
ENDBRANCH   3   4
ENDBRANCH   2   3
ENDBRANCH   1   2
BRANCH   1  13
ATOM     13  C   UNL     1     146.207  39.742 -10.998  1.00  0.00     0.000 C 
BRANCH  13  14
ATOM     14  C   UNL     1     147.488  38.887 -11.043  1.00  0.00     0.000 C 
BRANCH  14  15
ATOM     15  C   UNL     1     147.504  37.700 -10.062  1.00  0.00     0.000 C 
BRANCH  15  16
ATOM     16  C   UNL     1     146.116  37.233  -9.573  1.00  0.00     0.000 C 
BRANCH  16  17
ATOM     17  C   UNL     1     145.802  37.522  -8.093  1.00  0.00     0.000 C 
BRANCH  17  18
ATOM     18  C   UNL     1     147.013  38.063  -7.314  1.00  0.00     0.000 C 
BRANCH  18  19
ATOM     19  C   UNL     1     146.813  39.515  -6.842  1.00  0.00     0.000 C 
BRANCH  19  20
ATOM     20  C   UNL     1     147.611  40.568  -7.635  1.00  0.00     0.006 C 
BRANCH  20  21
ATOM     21  C   UNL     1     147.449  41.985  -7.065  1.00  0.00     0.053 C 
BRANCH  21  22
ATOM     22  C   UNL     1     146.858  42.898  -8.092  1.00  0.00     0.041 C 
ATOM     23  O   UNL     1     145.849  42.536  -8.756  1.00  0.00    -0.550 OA
ATOM     24  O   UNL     1     147.385  44.169  -8.279  1.00  0.00    -0.550 OA
ENDBRANCH  21  22
ENDBRANCH  20  21
ENDBRANCH  19  20
ENDBRANCH  18  19
ENDBRANCH  17  18
ENDBRANCH  16  17
ENDBRANCH  15  16
ENDBRANCH  14  15
ENDBRANCH  13  14
ENDBRANCH   1  13
TORSDOF 20
ENDMDL
MODEL 9
REMARK VINA RESULT:    -0.890     12.447     15.535
REMARK INTER + INTRA:          -6.337
REMARK INTER:                  -2.186
REMARK INTRA:                  -4.151
REMARK UNBOUND:                -4.405
REMARK SMILES CCCCCCCCCCCCCCCCCCCCCC(=O)[O-]
REMARK SMILES IDX 12 1 11 2 10 3 9 4 8 5 7 6 6 7 5 8 4 9 3 10 2 11 1 12 13 13
REMARK SMILES IDX 14 14 15 15 16 16 17 17 18 18 19 19 20 20 21 21 22 22 23 23
REMARK SMILES IDX 24 24
REMARK H PARENT
REMARK Flexibility Score: inf
ROOT
ATOM      1  C   UNL     1     143.322  41.543  -8.793  1.00  0.00     0.000 C 
ENDROOT
BRANCH   1   2
ATOM      2  C   UNL     1     141.916  42.160  -8.702  1.00  0.00     0.000 C 
BRANCH   2   3
ATOM      3  C   UNL     1     141.010  41.746  -9.873  1.00  0.00     0.000 C 
BRANCH   3   4
ATOM      4  C   UNL     1     140.307  40.401  -9.633  1.00  0.00    -0.000 C 
BRANCH   4   5
ATOM      5  C   UNL     1     140.735  39.363 -10.678  1.00  0.00    -0.000 C 
BRANCH   5   6
ATOM      6  C   UNL     1     140.702  37.943 -10.092  1.00  0.00    -0.000 C 
BRANCH   6   7
ATOM      7  C   UNL     1     141.116  36.875 -11.116  1.00  0.00    -0.000 C 
BRANCH   7   8
ATOM      8  C   UNL     1     141.753  37.481 -12.378  1.00  0.00    -0.000 C 
BRANCH   8   9
ATOM      9  C   UNL     1     143.273  37.249 -12.447  1.00  0.00    -0.000 C 
BRANCH   9  10
ATOM     10  C   UNL     1     144.100  38.475 -12.886  1.00  0.00    -0.000 C 
BRANCH  10  11
ATOM     11  C   UNL     1     144.100  39.649 -11.891  1.00  0.00    -0.003 C 
ATOM     12  C   UNL     1     143.566  40.945 -12.500  1.00  0.00     0.004 C 
ENDBRANCH  10  11
ENDBRANCH   9  10
ENDBRANCH   8   9
ENDBRANCH   7   8
ENDBRANCH   6   7
ENDBRANCH   5   6
ENDBRANCH   4   5
ENDBRANCH   3   4
ENDBRANCH   2   3
ENDBRANCH   1   2
BRANCH   1  13
ATOM     13  C   UNL     1     143.858  41.096  -7.416  1.00  0.00     0.000 C 
BRANCH  13  14
ATOM     14  C   UNL     1     142.857  40.245  -6.612  1.00  0.00     0.000 C 
BRANCH  14  15
ATOM     15  C   UNL     1     142.781  38.768  -7.038  1.00  0.00     0.000 C 
BRANCH  15  16
ATOM     16  C   UNL     1     144.129  38.128  -7.436  1.00  0.00     0.000 C 
BRANCH  16  17
ATOM     17  C   UNL     1     144.216  37.609  -8.883  1.00  0.00     0.000 C 
BRANCH  17  18
ATOM     18  C   UNL     1     145.660  37.355  -9.348  1.00  0.00     0.000 C 
BRANCH  18  19
ATOM     19  C   UNL     1     146.706  37.967  -8.397  1.00  0.00     0.000 C 
BRANCH  19  20
ATOM     20  C   UNL     1     147.676  38.965  -9.057  1.00  0.00     0.006 C 
BRANCH  20  21
ATOM     21  C   UNL     1     146.965  40.222  -9.579  1.00  0.00     0.053 C 
BRANCH  21  22
ATOM     22  C   UNL     1     147.348  41.416  -8.763  1.00  0.00     0.041 C 
ATOM     23  O   UNL     1     148.125  41.288  -7.778  1.00  0.00    -0.550 OA
ATOM     24  O   UNL     1     146.894  42.678  -9.121  1.00  0.00    -0.550 OA
ENDBRANCH  21  22
ENDBRANCH  20  21
ENDBRANCH  19  20
ENDBRANCH  18  19
ENDBRANCH  17  18
ENDBRANCH  16  17
ENDBRANCH  15  16
ENDBRANCH  14  15
ENDBRANCH  13  14
ENDBRANCH   1  13
TORSDOF 20
ENDMDL
