MODEL 1
REMARK VINA RESULT:    -7.797      0.000      0.000
REMARK INTER + INTRA:          -8.765
REMARK INTER:                  -8.480
REMARK INTRA:                  -0.285
REMARK UNBOUND:                -0.285
REMARK SMILES CC1(C)CC[C@@]2(C(=O)[O-])CC[C@]3(C)C(=CC[C@H]4[C@@]5(C)CC[C@H](O)C(C)(C)[C@@H]5CC[C@]43C)[C@H]2C1
REMARK SMILES IDX 6 1 5 2 10 3 32 4 4 5 11 6 14 7 33 8 2 9 12 10 15 11 1 12
REMARK SMILES IDX 3 13 13 14 30 15 16 16 17 17 29 18 31 19 18 20 28 21 27 22
REMARK SMILES IDX 20 23 19 24 24 25 21 26 22 27 25 28 26 29 7 30 8 31 9 32
REMARK SMILES IDX 23 33
REMARK H PARENT 23 34
REMARK Flexibility Score: inf
ROOT
ATOM      1  C   UNL     1     -14.282 -44.258 111.103  1.00  0.00     0.017 C 
ATOM      2  C   UNL     1     -15.036 -42.938 110.775  1.00  0.00     0.014 C 
ATOM      3  C   UNL     1     -14.674 -44.696 112.549  1.00  0.00     0.014 C 
ATOM      4  C   UNL     1     -14.668 -45.411 110.069  1.00  0.00     0.028 C 
ATOM      5  C   UNL     1     -14.863 -42.517 109.304  1.00  0.00     0.007 C 
ATOM      6  C   UNL     1     -14.042 -46.046 112.985  1.00  0.00     0.013 C 
ATOM      7  C   UNL     1     -15.073 -46.706 110.815  1.00  0.00    -0.064 C 
ATOM      8  C   UNL     1     -15.704 -44.939 109.009  1.00  0.00     0.015 C 
ATOM      9  C   UNL     1     -15.302 -43.624 108.283  1.00  0.00    -0.035 C 
ATOM     10  C   UNL     1     -14.113 -47.192 111.898  1.00  0.00    -0.006 C 
ATOM     11  C   UNL     1     -16.350 -47.134 110.822  1.00  0.00    -0.027 C 
ATOM     12  C   UNL     1     -14.168 -43.897 107.263  1.00  0.00     0.011 C 
ATOM     13  C   UNL     1     -16.531 -43.127 107.491  1.00  0.00     0.011 C 
ATOM     14  C   UNL     1     -12.702 -47.357 111.228  1.00  0.00     0.017 C 
ATOM     15  C   UNL     1     -14.559 -48.612 112.523  1.00  0.00    -0.020 C 
ATOM     16  C   UNL     1     -16.998 -47.810 111.994  1.00  0.00     0.032 C 
ATOM     17  C   UNL     1     -16.074 -48.577 113.008  1.00  0.00     0.006 C 
ATOM     18  C   UNL     1     -14.422 -49.734 111.430  1.00  0.00     0.008 C 
ATOM     19  C   UNL     1     -13.587 -48.935 113.717  1.00  0.00     0.012 C 
ATOM     20  C   UNL     1     -16.691 -49.999 113.427  1.00  0.00    -0.025 C 
ATOM     21  C   UNL     1     -15.036 -51.096 111.788  1.00  0.00     0.005 C 
ATOM     22  C   UNL     1     -16.527 -50.975 112.203  1.00  0.00     0.003 C 
ATOM     23  C   UNL     1     -18.203 -49.856 113.824  1.00  0.00     0.010 C 
ATOM     24  C   UNL     1     -15.985 -50.525 114.723  1.00  0.00     0.012 C 
ATOM     25  C   UNL     1     -17.318 -52.344 112.297  1.00  0.00    -0.006 C 
ATOM     26  C   UNL     1     -18.942 -51.197 113.951  1.00  0.00     0.033 C 
ATOM     27  C   UNL     1     -18.805 -52.056 112.685  1.00  0.00     0.120 C 
ATOM     28  C   UNL     1     -17.331 -53.012 110.889  1.00  0.00     0.014 C 
ATOM     29  C   UNL     1     -16.683 -53.372 113.276  1.00  0.00     0.014 C 
ENDROOT
BRANCH   1  30
ATOM     30  C   UNL     1     -12.790 -43.930 111.083  1.00  0.00     0.048 C 
ATOM     31  O   UNL     1     -12.051 -44.272 110.124  1.00  0.00    -0.550 OA
ATOM     32  O   UNL     1     -12.236 -43.150 112.087  1.00  0.00    -0.550 OA
ENDBRANCH   1  30
BRANCH  27  33
ATOM     33  O   UNL     1     -19.499 -53.262 112.886  1.00  0.00    -0.393 OA
ATOM     34  H   UNL     1     -19.614 -53.704 112.005  1.00  0.00     0.210 HD
ENDBRANCH  27  33
TORSDOF 2
ENDMDL
MODEL 2
REMARK VINA RESULT:    -7.624      6.040      8.333
REMARK INTER + INTRA:          -8.577
REMARK INTER:                  -8.295
REMARK INTRA:                  -0.283
REMARK UNBOUND:                -0.285
REMARK SMILES CC1(C)CC[C@@]2(C(=O)[O-])CC[C@]3(C)C(=CC[C@H]4[C@@]5(C)CC[C@H](O)C(C)(C)[C@@H]5CC[C@]43C)[C@H]2C1
REMARK SMILES IDX 6 1 5 2 10 3 32 4 4 5 11 6 14 7 33 8 2 9 12 10 15 11 1 12
REMARK SMILES IDX 3 13 13 14 30 15 16 16 17 17 29 18 31 19 18 20 28 21 27 22
REMARK SMILES IDX 20 23 19 24 24 25 21 26 22 27 25 28 26 29 7 30 8 31 9 32
REMARK SMILES IDX 23 33
REMARK H PARENT 23 34
REMARK Flexibility Score: inf
ROOT
ATOM      1  C   UNL     1     -13.632 -46.173 104.904  1.00  0.00     0.017 C 
ATOM      2  C   UNL     1     -12.479 -46.492 103.910  1.00  0.00     0.014 C 
ATOM      3  C   UNL     1     -14.705 -45.327 104.149  1.00  0.00     0.014 C 
ATOM      4  C   UNL     1     -14.297 -47.512 105.461  1.00  0.00     0.028 C 
ATOM      5  C   UNL     1     -11.456 -47.479 104.501  1.00  0.00     0.007 C 
ATOM      6  C   UNL     1     -15.954 -44.992 105.010  1.00  0.00     0.013 C 
ATOM      7  C   UNL     1     -15.838 -47.461 105.317  1.00  0.00    -0.064 C 
ATOM      8  C   UNL     1     -13.646 -48.794 104.866  1.00  0.00     0.015 C 
ATOM      9  C   UNL     1     -12.097 -48.824 104.991  1.00  0.00    -0.035 C 
ATOM     10  C   UNL     1     -16.527 -46.206 105.845  1.00  0.00    -0.006 C 
ATOM     11  C   UNL     1     -16.479 -48.244 104.427  1.00  0.00    -0.027 C 
ATOM     12  C   UNL     1     -11.680 -49.118 106.454  1.00  0.00     0.011 C 
ATOM     13  C   UNL     1     -11.575 -49.984 104.116  1.00  0.00     0.011 C 
ATOM     14  C   UNL     1     -16.105 -46.042 107.349  1.00  0.00     0.017 C 
ATOM     15  C   UNL     1     -18.136 -46.308 105.766  1.00  0.00    -0.020 C 
ATOM     16  C   UNL     1     -17.700 -47.817 103.667  1.00  0.00     0.032 C 
ATOM     17  C   UNL     1     -18.616 -46.708 104.303  1.00  0.00     0.006 C 
ATOM     18  C   UNL     1     -18.643 -47.409 106.766  1.00  0.00     0.008 C 
ATOM     19  C   UNL     1     -18.725 -44.913 106.195  1.00  0.00     0.012 C 
ATOM     20  C   UNL     1     -20.175 -47.067 104.170  1.00  0.00    -0.025 C 
ATOM     21  C   UNL     1     -20.123 -47.801 106.637  1.00  0.00     0.005 C 
ATOM     22  C   UNL     1     -20.494 -48.223 105.190  1.00  0.00     0.003 C 
ATOM     23  C   UNL     1     -20.523 -47.510 102.704  1.00  0.00     0.010 C 
ATOM     24  C   UNL     1     -21.041 -45.785 104.416  1.00  0.00     0.012 C 
ATOM     25  C   UNL     1     -21.905 -48.923 105.028  1.00  0.00    -0.006 C 
ATOM     26  C   UNL     1     -21.914 -48.149 102.560  1.00  0.00     0.033 C 
ATOM     27  C   UNL     1     -22.115 -49.322 103.530  1.00  0.00     0.120 C 
ATOM     28  C   UNL     1     -21.909 -50.241 105.861  1.00  0.00     0.014 C 
ATOM     29  C   UNL     1     -23.096 -48.064 105.541  1.00  0.00     0.014 C 
ENDROOT
BRANCH   1  30
ATOM     30  C   UNL     1     -13.030 -45.313 106.015  1.00  0.00     0.048 C 
ATOM     31  O   UNL     1     -12.786 -45.784 107.155  1.00  0.00    -0.550 OA
ATOM     32  O   UNL     1     -12.641 -44.009 105.750  1.00  0.00    -0.550 OA
ENDBRANCH   1  30
BRANCH  27  33
ATOM     33  O   UNL     1     -23.407 -49.841 103.341  1.00  0.00    -0.393 OA
ATOM     34  H   UNL     1     -24.042 -49.298 103.876  1.00  0.00     0.210 HD
ENDBRANCH  27  33
TORSDOF 2
ENDMDL
MODEL 3
REMARK VINA RESULT:    -7.555      5.846      9.539
REMARK INTER + INTRA:          -8.502
REMARK INTER:                  -8.217
REMARK INTRA:                  -0.285
REMARK UNBOUND:                -0.285
REMARK SMILES CC1(C)CC[C@@]2(C(=O)[O-])CC[C@]3(C)C(=CC[C@H]4[C@@]5(C)CC[C@H](O)C(C)(C)[C@@H]5CC[C@]43C)[C@H]2C1
REMARK SMILES IDX 6 1 5 2 10 3 32 4 4 5 11 6 14 7 33 8 2 9 12 10 15 11 1 12
REMARK SMILES IDX 3 13 13 14 30 15 16 16 17 17 29 18 31 19 18 20 28 21 27 22
REMARK SMILES IDX 20 23 19 24 24 25 21 26 22 27 25 28 26 29 7 30 8 31 9 32
REMARK SMILES IDX 23 33
REMARK H PARENT 23 34
REMARK Flexibility Score: inf
ROOT
ATOM      1  C   UNL     1     -14.760 -44.588 106.856  1.00  0.00     0.017 C 
ATOM      2  C   UNL     1     -13.864 -43.341 107.104  1.00  0.00     0.014 C 
ATOM      3  C   UNL     1     -16.250 -44.161 107.046  1.00  0.00     0.014 C 
ATOM      4  C   UNL     1     -14.548 -45.162 105.382  1.00  0.00     0.028 C 
ATOM      5  C   UNL     1     -12.386 -43.608 106.762  1.00  0.00     0.007 C 
ATOM      6  C   UNL     1     -17.266 -45.301 106.759  1.00  0.00     0.013 C 
ATOM      7  C   UNL     1     -15.908 -45.365 104.671  1.00  0.00    -0.064 C 
ATOM      8  C   UNL     1     -13.519 -44.332 104.561  1.00  0.00     0.015 C 
ATOM      9  C   UNL     1     -12.167 -44.111 105.293  1.00  0.00    -0.035 C 
ATOM     10  C   UNL     1     -16.972 -46.136 105.448  1.00  0.00    -0.006 C 
ATOM     11  C   UNL     1     -16.281 -44.575 103.645  1.00  0.00    -0.027 C 
ATOM     12  C   UNL     1     -11.332 -45.417 105.289  1.00  0.00     0.011 C 
ATOM     13  C   UNL     1     -11.371 -43.048 104.505  1.00  0.00     0.011 C 
ATOM     14  C   UNL     1     -16.344 -47.519 105.848  1.00  0.00     0.017 C 
ATOM     15  C   UNL     1     -18.301 -46.404 104.573  1.00  0.00    -0.020 C 
ATOM     16  C   UNL     1     -17.696 -44.140 103.397  1.00  0.00     0.032 C 
ATOM     17  C   UNL     1     -18.855 -45.053 103.939  1.00  0.00     0.006 C 
ATOM     18  C   UNL     1     -17.967 -47.394 103.399  1.00  0.00     0.008 C 
ATOM     19  C   UNL     1     -19.370 -47.068 105.517  1.00  0.00     0.012 C 
ATOM     20  C   UNL     1     -20.031 -45.236 102.862  1.00  0.00    -0.025 C 
ATOM     21  C   UNL     1     -19.059 -47.560 102.331  1.00  0.00     0.005 C 
ATOM     22  C   UNL     1     -19.506 -46.199 101.733  1.00  0.00     0.003 C 
ATOM     23  C   UNL     1     -20.453 -43.850 102.256  1.00  0.00     0.010 C 
ATOM     24  C   UNL     1     -21.322 -45.773 103.567  1.00  0.00     0.012 C 
ATOM     25  C   UNL     1     -20.400 -46.293 100.428  1.00  0.00    -0.006 C 
ATOM     26  C   UNL     1     -21.355 -43.962 101.016  1.00  0.00     0.033 C 
ATOM     27  C   UNL     1     -20.734 -44.849  99.928  1.00  0.00     0.120 C 
ATOM     28  C   UNL     1     -19.576 -46.991  99.305  1.00  0.00     0.014 C 
ATOM     29  C   UNL     1     -21.700 -47.125 100.616  1.00  0.00     0.014 C 
ENDROOT
BRANCH   1  30
ATOM     30  C   UNL     1     -14.406 -45.608 107.937  1.00  0.00     0.048 C 
ATOM     31  O   UNL     1     -13.702 -46.620 107.685  1.00  0.00    -0.550 OA
ATOM     32  O   UNL     1     -14.772 -45.380 109.254  1.00  0.00    -0.550 OA
ENDBRANCH   1  30
BRANCH  27  33
ATOM     33  O   UNL     1     -21.621 -44.905  98.838  1.00  0.00    -0.393 OA
ATOM     34  H   UNL     1     -21.690 -43.996  98.446  1.00  0.00     0.210 HD
ENDBRANCH  27  33
TORSDOF 2
ENDMDL
MODEL 4
REMARK VINA RESULT:    -7.387      5.541      8.647
REMARK INTER + INTRA:          -8.319
REMARK INTER:                  -8.041
REMARK INTRA:                  -0.278
REMARK UNBOUND:                -0.285
REMARK SMILES CC1(C)CC[C@@]2(C(=O)[O-])CC[C@]3(C)C(=CC[C@H]4[C@@]5(C)CC[C@H](O)C(C)(C)[C@@H]5CC[C@]43C)[C@H]2C1
REMARK SMILES IDX 6 1 5 2 10 3 32 4 4 5 11 6 14 7 33 8 2 9 12 10 15 11 1 12
REMARK SMILES IDX 3 13 13 14 30 15 16 16 17 17 29 18 31 19 18 20 28 21 27 22
REMARK SMILES IDX 20 23 19 24 24 25 21 26 22 27 25 28 26 29 7 30 8 31 9 32
REMARK SMILES IDX 23 33
REMARK H PARENT 23 34
REMARK Flexibility Score: inf
ROOT
ATOM      1  C   UNL     1     -20.077 -45.973 103.551  1.00  0.00     0.017 C 
ATOM      2  C   UNL     1     -21.578 -45.606 103.728  1.00  0.00     0.014 C 
ATOM      3  C   UNL     1     -19.222 -44.727 103.942  1.00  0.00     0.014 C 
ATOM      4  C   UNL     1     -19.677 -47.211 104.475  1.00  0.00     0.028 C 
ATOM      5  C   UNL     1     -22.502 -46.824 103.546  1.00  0.00     0.007 C 
ATOM      6  C   UNL     1     -17.690 -44.976 103.876  1.00  0.00     0.013 C 
ATOM      7  C   UNL     1     -18.404 -46.894 105.297  1.00  0.00    -0.064 C 
ATOM      8  C   UNL     1     -20.871 -47.730 105.327  1.00  0.00     0.015 C 
ATOM      9  C   UNL     1     -22.152 -48.020 104.498  1.00  0.00    -0.035 C 
ATOM     10  C   UNL     1     -17.214 -46.341 104.517  1.00  0.00    -0.006 C 
ATOM     11  C   UNL     1     -18.465 -46.711 106.630  1.00  0.00    -0.027 C 
ATOM     12  C   UNL     1     -21.982 -49.327 103.682  1.00  0.00     0.011 C 
ATOM     13  C   UNL     1     -23.317 -48.239 105.488  1.00  0.00     0.011 C 
ATOM     14  C   UNL     1     -16.892 -47.366 103.371  1.00  0.00     0.017 C 
ATOM     15  C   UNL     1     -15.901 -46.167 105.440  1.00  0.00    -0.020 C 
ATOM     16  C   UNL     1     -17.611 -45.729 107.378  1.00  0.00     0.032 C 
ATOM     17  C   UNL     1     -16.226 -45.327 106.752  1.00  0.00     0.006 C 
ATOM     18  C   UNL     1     -15.378 -47.582 105.883  1.00  0.00     0.008 C 
ATOM     19  C   UNL     1     -14.796 -45.459 104.571  1.00  0.00     0.012 C 
ATOM     20  C   UNL     1     -15.056 -45.295 107.851  1.00  0.00    -0.025 C 
ATOM     21  C   UNL     1     -14.284 -47.584 106.961  1.00  0.00     0.005 C 
ATOM     22  C   UNL     1     -14.703 -46.784 108.223  1.00  0.00     0.003 C 
ATOM     23  C   UNL     1     -15.509 -44.498 109.125  1.00  0.00     0.010 C 
ATOM     24  C   UNL     1     -13.826 -44.499 107.297  1.00  0.00     0.012 C 
ATOM     25  C   UNL     1     -13.774 -46.980 109.491  1.00  0.00    -0.006 C 
ATOM     26  C   UNL     1     -14.572 -44.668 110.331  1.00  0.00     0.033 C 
ATOM     27  C   UNL     1     -14.345 -46.145 110.683  1.00  0.00     0.120 C 
ATOM     28  C   UNL     1     -13.817 -48.479 109.916  1.00  0.00     0.014 C 
ATOM     29  C   UNL     1     -12.280 -46.627 109.237  1.00  0.00     0.014 C 
ENDROOT
BRANCH   1  30
ATOM     30  C   UNL     1     -19.866 -46.260 102.065  1.00  0.00     0.048 C 
ATOM     31  O   UNL     1     -19.689 -47.429 101.637  1.00  0.00    -0.550 OA
ATOM     32  O   UNL     1     -19.970 -45.235 101.138  1.00  0.00    -0.550 OA
ENDBRANCH   1  30
BRANCH  27  33
ATOM     33  O   UNL     1     -13.475 -46.213 111.786  1.00  0.00    -0.393 OA
ATOM     34  H   UNL     1     -12.677 -45.658 111.587  1.00  0.00     0.210 HD
ENDBRANCH  27  33
TORSDOF 2
ENDMDL
MODEL 5
REMARK VINA RESULT:    -7.366      4.239      6.557
REMARK INTER + INTRA:          -8.297
REMARK INTER:                  -8.015
REMARK INTRA:                  -0.282
REMARK UNBOUND:                -0.285
REMARK SMILES CC1(C)CC[C@@]2(C(=O)[O-])CC[C@]3(C)C(=CC[C@H]4[C@@]5(C)CC[C@H](O)C(C)(C)[C@@H]5CC[C@]43C)[C@H]2C1
REMARK SMILES IDX 6 1 5 2 10 3 32 4 4 5 11 6 14 7 33 8 2 9 12 10 15 11 1 12
REMARK SMILES IDX 3 13 13 14 30 15 16 16 17 17 29 18 31 19 18 20 28 21 27 22
REMARK SMILES IDX 20 23 19 24 24 25 21 26 22 27 25 28 26 29 7 30 8 31 9 32
REMARK SMILES IDX 23 33
REMARK H PARENT 23 34
REMARK Flexibility Score: inf
ROOT
ATOM      1  C   UNL     1     -19.110 -44.722 105.156  1.00  0.00     0.017 C 
ATOM      2  C   UNL     1     -20.612 -44.967 104.836  1.00  0.00     0.014 C 
ATOM      3  C   UNL     1     -19.009 -44.147 106.603  1.00  0.00     0.014 C 
ATOM      4  C   UNL     1     -18.275 -46.078 105.056  1.00  0.00     0.028 C 
ATOM      5  C   UNL     1     -20.812 -45.706 103.500  1.00  0.00     0.007 C 
ATOM      6  C   UNL     1     -17.548 -43.918 107.082  1.00  0.00     0.013 C 
ATOM      7  C   UNL     1     -17.413 -46.288 106.325  1.00  0.00    -0.064 C 
ATOM      8  C   UNL     1     -19.163 -47.300 104.682  1.00  0.00     0.015 C 
ATOM      9  C   UNL     1     -20.043 -47.072 103.422  1.00  0.00    -0.035 C 
ATOM     10  C   UNL     1     -16.553 -45.105 106.763  1.00  0.00    -0.006 C 
ATOM     11  C   UNL     1     -17.708 -47.257 107.213  1.00  0.00    -0.027 C 
ATOM     12  C   UNL     1     -19.175 -47.129 102.140  1.00  0.00     0.011 C 
ATOM     13  C   UNL     1     -21.066 -48.226 103.344  1.00  0.00     0.011 C 
ATOM     14  C   UNL     1     -15.650 -44.708 105.541  1.00  0.00     0.017 C 
ATOM     15  C   UNL     1     -15.600 -45.468 108.015  1.00  0.00    -0.020 C 
ATOM     16  C   UNL     1     -17.522 -47.117 108.695  1.00  0.00     0.032 C 
ATOM     17  C   UNL     1     -16.437 -46.102 109.210  1.00  0.00     0.006 C 
ATOM     18  C   UNL     1     -14.518 -46.515 107.566  1.00  0.00     0.008 C 
ATOM     19  C   UNL     1     -14.879 -44.144 108.466  1.00  0.00     0.012 C 
ATOM     20  C   UNL     1     -15.561 -46.715 110.408  1.00  0.00    -0.025 C 
ATOM     21  C   UNL     1     -13.689 -47.148 108.694  1.00  0.00     0.005 C 
ATOM     22  C   UNL     1     -14.583 -47.784 109.792  1.00  0.00     0.003 C 
ATOM     23  C   UNL     1     -16.484 -47.370 111.496  1.00  0.00     0.010 C 
ATOM     24  C   UNL     1     -14.809 -45.566 111.161  1.00  0.00     0.012 C 
ATOM     25  C   UNL     1     -13.826 -48.712 110.829  1.00  0.00    -0.006 C 
ATOM     26  C   UNL     1     -15.726 -48.232 112.518  1.00  0.00     0.033 C 
ATOM     27  C   UNL     1     -14.860 -49.305 111.841  1.00  0.00     0.120 C 
ATOM     28  C   UNL     1     -13.194 -49.911 110.060  1.00  0.00     0.014 C 
ATOM     29  C   UNL     1     -12.667 -47.999 111.582  1.00  0.00     0.014 C 
ENDROOT
BRANCH   1  30
ATOM     30  C   UNL     1     -18.618 -43.659 104.175  1.00  0.00     0.048 C 
ATOM     31  O   UNL     1     -17.888 -43.953 103.193  1.00  0.00    -0.550 OA
ATOM     32  O   UNL     1     -19.057 -42.349 104.292  1.00  0.00    -0.550 OA
ENDBRANCH   1  30
BRANCH  27  33
ATOM     33  O   UNL     1     -14.198 -50.041 112.840  1.00  0.00    -0.393 OA
ATOM     34  H   UNL     1     -14.878 -50.548 113.354  1.00  0.00     0.210 HD
ENDBRANCH  27  33
TORSDOF 2
ENDMDL
MODEL 6
REMARK VINA RESULT:    -7.340      4.382      7.792
REMARK INTER + INTRA:          -8.269
REMARK INTER:                  -7.986
REMARK INTRA:                  -0.283
REMARK UNBOUND:                -0.285
REMARK SMILES CC1(C)CC[C@@]2(C(=O)[O-])CC[C@]3(C)C(=CC[C@H]4[C@@]5(C)CC[C@H](O)C(C)(C)[C@@H]5CC[C@]43C)[C@H]2C1
REMARK SMILES IDX 6 1 5 2 10 3 32 4 4 5 11 6 14 7 33 8 2 9 12 10 15 11 1 12
REMARK SMILES IDX 3 13 13 14 30 15 16 16 17 17 29 18 31 19 18 20 28 21 27 22
REMARK SMILES IDX 20 23 19 24 24 25 21 26 22 27 25 28 26 29 7 30 8 31 9 32
REMARK SMILES IDX 23 33
REMARK H PARENT 23 34
REMARK Flexibility Score: inf
ROOT
ATOM      1  C   UNL     1     -14.389 -45.736 109.775  1.00  0.00     0.017 C 
ATOM      2  C   UNL     1     -14.734 -45.411 111.257  1.00  0.00     0.014 C 
ATOM      3  C   UNL     1     -15.210 -46.993 109.349  1.00  0.00     0.014 C 
ATOM      4  C   UNL     1     -14.748 -44.509 108.820  1.00  0.00     0.028 C 
ATOM      5  C   UNL     1     -14.118 -44.078 111.721  1.00  0.00     0.007 C 
ATOM      6  C   UNL     1     -15.013 -47.392 107.861  1.00  0.00     0.013 C 
ATOM      7  C   UNL     1     -15.595 -44.982 107.613  1.00  0.00    -0.064 C 
ATOM      8  C   UNL     1     -15.363 -43.309 109.597  1.00  0.00     0.015 C 
ATOM      9  C   UNL     1     -14.521 -42.858 110.822  1.00  0.00    -0.035 C 
ATOM     10  C   UNL     1     -15.060 -46.184 106.840  1.00  0.00    -0.006 C 
ATOM     11  C   UNL     1     -16.896 -44.649 107.504  1.00  0.00    -0.027 C 
ATOM     12  C   UNL     1     -13.257 -42.092 110.354  1.00  0.00     0.011 C 
ATOM     13  C   UNL     1     -15.379 -41.877 111.650  1.00  0.00     0.011 C 
ATOM     14  C   UNL     1     -13.598 -45.833 106.387  1.00  0.00     0.017 C 
ATOM     15  C   UNL     1     -15.943 -46.515 105.530  1.00  0.00    -0.020 C 
ATOM     16  C   UNL     1     -17.943 -45.555 106.926  1.00  0.00     0.032 C 
ATOM     17  C   UNL     1     -17.486 -46.649 105.894  1.00  0.00     0.006 C 
ATOM     18  C   UNL     1     -15.787 -45.353 104.484  1.00  0.00     0.008 C 
ATOM     19  C   UNL     1     -15.389 -47.848 104.904  1.00  0.00     0.012 C 
ATOM     20  C   UNL     1     -18.480 -46.743 104.637  1.00  0.00    -0.025 C 
ATOM     21  C   UNL     1     -16.751 -45.395 103.287  1.00  0.00     0.005 C 
ATOM     22  C   UNL     1     -18.235 -45.477 103.733  1.00  0.00     0.003 C 
ATOM     23  C   UNL     1     -19.975 -46.805 105.111  1.00  0.00     0.010 C 
ATOM     24  C   UNL     1     -18.247 -48.089 103.871  1.00  0.00     0.012 C 
ATOM     25  C   UNL     1     -19.302 -45.223 102.590  1.00  0.00    -0.006 C 
ATOM     26  C   UNL     1     -20.995 -46.599 103.980  1.00  0.00     0.033 C 
ATOM     27  C   UNL     1     -20.740 -45.301 103.200  1.00  0.00     0.120 C 
ATOM     28  C   UNL     1     -19.112 -43.777 102.040  1.00  0.00     0.014 C 
ATOM     29  C   UNL     1     -19.165 -46.187 101.378  1.00  0.00     0.014 C 
ENDROOT
BRANCH   1  30
ATOM     30  C   UNL     1     -12.903 -46.091 109.737  1.00  0.00     0.048 C 
ATOM     31  O   UNL     1     -12.043 -45.288 109.291  1.00  0.00    -0.550 OA
ATOM     32  O   UNL     1     -12.458 -47.279 110.296  1.00  0.00    -0.550 OA
ENDBRANCH   1  30
BRANCH  27  33
ATOM     33  O   UNL     1     -21.706 -45.192 102.184  1.00  0.00    -0.393 OA
ATOM     34  H   UNL     1     -21.325 -45.573 101.351  1.00  0.00     0.210 HD
ENDBRANCH  27  33
TORSDOF 2
ENDMDL
MODEL 7
REMARK VINA RESULT:    -7.159      6.165     10.090
REMARK INTER + INTRA:          -8.071
REMARK INTER:                  -7.809
REMARK INTRA:                  -0.262
REMARK UNBOUND:                -0.285
REMARK SMILES CC1(C)CC[C@@]2(C(=O)[O-])CC[C@]3(C)C(=CC[C@H]4[C@@]5(C)CC[C@H](O)C(C)(C)[C@@H]5CC[C@]43C)[C@H]2C1
REMARK SMILES IDX 6 1 5 2 10 3 32 4 4 5 11 6 14 7 33 8 2 9 12 10 15 11 1 12
REMARK SMILES IDX 3 13 13 14 30 15 16 16 17 17 29 18 31 19 18 20 28 21 27 22
REMARK SMILES IDX 20 23 19 24 24 25 21 26 22 27 25 28 26 29 7 30 8 31 9 32
REMARK SMILES IDX 23 33
REMARK H PARENT 23 34
REMARK Flexibility Score: inf
ROOT
ATOM      1  C   UNL     1     -20.143 -45.776 101.441  1.00  0.00     0.017 C 
ATOM      2  C   UNL     1     -19.927 -45.449  99.936  1.00  0.00     0.014 C 
ATOM      3  C   UNL     1     -19.148 -46.910 101.840  1.00  0.00     0.014 C 
ATOM      4  C   UNL     1     -19.886 -44.489 102.349  1.00  0.00     0.028 C 
ATOM      5  C   UNL     1     -20.731 -44.216  99.484  1.00  0.00     0.007 C 
ATOM      6  C   UNL     1     -19.208 -47.290 103.346  1.00  0.00     0.013 C 
ATOM      7  C   UNL     1     -18.919 -44.822 103.512  1.00  0.00    -0.064 C 
ATOM      8  C   UNL     1     -19.471 -43.243 101.515  1.00  0.00     0.015 C 
ATOM      9  C   UNL     1     -20.432 -42.932 100.334  1.00  0.00    -0.035 C 
ATOM     10  C   UNL     1     -19.253 -46.060 104.338  1.00  0.00    -0.006 C 
ATOM     11  C   UNL     1     -17.665 -44.328 103.536  1.00  0.00    -0.027 C 
ATOM     12  C   UNL     1     -21.753 -42.317 100.863  1.00  0.00     0.011 C 
ATOM     13  C   UNL     1     -19.753 -41.875  99.437  1.00  0.00     0.011 C 
ATOM     14  C   UNL     1     -20.719 -45.881 104.872  1.00  0.00     0.017 C 
ATOM     15  C   UNL     1     -18.262 -46.245 105.599  1.00  0.00    -0.020 C 
ATOM     16  C   UNL     1     -16.481 -45.082 104.067  1.00  0.00     0.032 C 
ATOM     17  C   UNL     1     -16.738 -46.197 105.144  1.00  0.00     0.006 C 
ATOM     18  C   UNL     1     -18.502 -45.084 106.631  1.00  0.00     0.008 C 
ATOM     19  C   UNL     1     -18.608 -47.619 106.282  1.00  0.00     0.012 C 
ATOM     20  C   UNL     1     -15.669 -46.133 106.341  1.00  0.00    -0.025 C 
ATOM     21  C   UNL     1     -17.473 -44.974 107.767  1.00  0.00     0.005 C 
ATOM     22  C   UNL     1     -16.018 -44.884 107.234  1.00  0.00     0.003 C 
ATOM     23  C   UNL     1     -14.208 -46.023 105.779  1.00  0.00     0.010 C 
ATOM     24  C   UNL     1     -15.688 -47.478 107.145  1.00  0.00     0.012 C 
ATOM     25  C   UNL     1     -14.927 -44.470 108.305  1.00  0.00    -0.006 C 
ATOM     26  C   UNL     1     -13.158 -45.662 106.843  1.00  0.00     0.033 C 
ATOM     27  C   UNL     1     -13.528 -44.385 107.611  1.00  0.00     0.120 C 
ATOM     28  C   UNL     1     -15.265 -43.045 108.839  1.00  0.00     0.014 C 
ATOM     29  C   UNL     1     -14.872 -45.412 109.542  1.00  0.00     0.014 C 
ENDROOT
BRANCH   1  30
ATOM     30  C   UNL     1     -21.568 -46.311 101.575  1.00  0.00     0.048 C 
ATOM     31  O   UNL     1     -22.467 -45.656 102.163  1.00  0.00    -0.550 OA
ATOM     32  O   UNL     1     -21.926 -47.497 100.954  1.00  0.00    -0.550 OA
ENDBRANCH   1  30
BRANCH  27  33
ATOM     33  O   UNL     1     -12.527 -44.131 108.565  1.00  0.00    -0.393 OA
ATOM     34  H   UNL     1     -11.924 -43.431 108.203  1.00  0.00     0.210 HD
ENDBRANCH  27  33
TORSDOF 2
ENDMDL
MODEL 8
REMARK VINA RESULT:    -7.157      4.231      8.309
REMARK INTER + INTRA:          -8.069
REMARK INTER:                  -7.785
REMARK INTRA:                  -0.284
REMARK UNBOUND:                -0.285
REMARK SMILES CC1(C)CC[C@@]2(C(=O)[O-])CC[C@]3(C)C(=CC[C@H]4[C@@]5(C)CC[C@H](O)C(C)(C)[C@@H]5CC[C@]43C)[C@H]2C1
REMARK SMILES IDX 6 1 5 2 10 3 32 4 4 5 11 6 14 7 33 8 2 9 12 10 15 11 1 12
REMARK SMILES IDX 3 13 13 14 30 15 16 16 17 17 29 18 31 19 18 20 28 21 27 22
REMARK SMILES IDX 20 23 19 24 24 25 21 26 22 27 25 28 26 29 7 30 8 31 9 32
REMARK SMILES IDX 23 33
REMARK H PARENT 23 34
REMARK Flexibility Score: inf
ROOT
ATOM      1  C   UNL     1     -13.825 -44.047 108.719  1.00  0.00     0.017 C 
ATOM      2  C   UNL     1     -12.687 -44.940 109.289  1.00  0.00     0.014 C 
ATOM      3  C   UNL     1     -13.635 -43.944 107.173  1.00  0.00     0.014 C 
ATOM      4  C   UNL     1     -15.258 -44.669 109.044  1.00  0.00     0.028 C 
ATOM      5  C   UNL     1     -12.886 -45.259 110.782  1.00  0.00     0.007 C 
ATOM      6  C   UNL     1     -14.750 -43.130 106.461  1.00  0.00     0.013 C 
ATOM      7  C   UNL     1     -16.127 -44.746 107.764  1.00  0.00    -0.064 C 
ATOM      8  C   UNL     1     -15.163 -46.009 109.829  1.00  0.00     0.015 C 
ATOM      9  C   UNL     1     -14.269 -45.930 111.097  1.00  0.00    -0.035 C 
ATOM     10  C   UNL     1     -16.221 -43.470 106.931  1.00  0.00    -0.006 C 
ATOM     11  C   UNL     1     -16.425 -45.931 107.197  1.00  0.00    -0.027 C 
ATOM     12  C   UNL     1     -14.999 -45.156 112.224  1.00  0.00     0.011 C 
ATOM     13  C   UNL     1     -14.032 -47.371 111.599  1.00  0.00     0.011 C 
ATOM     14  C   UNL     1     -16.736 -42.331 107.882  1.00  0.00     0.017 C 
ATOM     15  C   UNL     1     -17.249 -43.617 105.695  1.00  0.00    -0.020 C 
ATOM     16  C   UNL     1     -16.542 -46.141 105.716  1.00  0.00     0.032 C 
ATOM     17  C   UNL     1     -16.918 -44.905 104.821  1.00  0.00     0.006 C 
ATOM     18  C   UNL     1     -18.714 -43.763 106.244  1.00  0.00     0.008 C 
ATOM     19  C   UNL     1     -17.150 -42.305 104.834  1.00  0.00     0.012 C 
ATOM     20  C   UNL     1     -18.015 -45.278 103.710  1.00  0.00    -0.025 C 
ATOM     21  C   UNL     1     -19.781 -44.156 105.211  1.00  0.00     0.005 C 
ATOM     22  C   UNL     1     -19.401 -45.448 104.438  1.00  0.00     0.003 C 
ATOM     23  C   UNL     1     -17.620 -46.596 102.956  1.00  0.00     0.010 C 
ATOM     24  C   UNL     1     -18.044 -44.175 102.598  1.00  0.00     0.012 C 
ATOM     25  C   UNL     1     -20.564 -46.090 103.576  1.00  0.00    -0.006 C 
ATOM     26  C   UNL     1     -18.748 -47.181 102.091  1.00  0.00     0.033 C 
ATOM     27  C   UNL     1     -20.040 -47.396 102.894  1.00  0.00     0.120 C 
ATOM     28  C   UNL     1     -21.725 -46.502 104.530  1.00  0.00     0.014 C 
ATOM     29  C   UNL     1     -21.171 -45.123 102.520  1.00  0.00     0.014 C 
ENDROOT
BRANCH   1  30
ATOM     30  C   UNL     1     -13.640 -42.657 109.325  1.00  0.00     0.048 C 
ATOM     31  O   UNL     1     -14.397 -42.226 110.233  1.00  0.00    -0.550 OA
ATOM     32  O   UNL     1     -12.557 -41.876 108.953  1.00  0.00    -0.550 OA
ENDBRANCH   1  30
BRANCH  27  33
ATOM     33  O   UNL     1     -21.019 -47.922 102.033  1.00  0.00    -0.393 OA
ATOM     34  H   UNL     1     -21.240 -48.840 102.338  1.00  0.00     0.210 HD
ENDBRANCH  27  33
TORSDOF 2
ENDMDL
MODEL 9
REMARK VINA RESULT:    -7.040      5.838      8.868
REMARK INTER + INTRA:          -7.942
REMARK INTER:                  -7.657
REMARK INTRA:                  -0.285
REMARK UNBOUND:                -0.285
REMARK SMILES CC1(C)CC[C@@]2(C(=O)[O-])CC[C@]3(C)C(=CC[C@H]4[C@@]5(C)CC[C@H](O)C(C)(C)[C@@H]5CC[C@]43C)[C@H]2C1
REMARK SMILES IDX 6 1 5 2 10 3 32 4 4 5 11 6 14 7 33 8 2 9 12 10 15 11 1 12
REMARK SMILES IDX 3 13 13 14 30 15 16 16 17 17 29 18 31 19 18 20 28 21 27 22
REMARK SMILES IDX 20 23 19 24 24 25 21 26 22 27 25 28 26 29 7 30 8 31 9 32
REMARK SMILES IDX 23 33
REMARK H PARENT 23 34
REMARK Flexibility Score: inf
ROOT
ATOM      1  C   UNL     1     -13.378 -45.222 106.212  1.00  0.00     0.017 C 
ATOM      2  C   UNL     1     -11.963 -45.338 105.576  1.00  0.00     0.014 C 
ATOM      3  C   UNL     1     -14.167 -44.116 105.444  1.00  0.00     0.014 C 
ATOM      4  C   UNL     1     -14.164 -46.607 106.118  1.00  0.00     0.028 C 
ATOM      5  C   UNL     1     -11.166 -46.528 106.139  1.00  0.00     0.007 C 
ATOM      6  C   UNL     1     -15.631 -43.940 105.934  1.00  0.00     0.013 C 
ATOM      7  C   UNL     1     -15.579 -46.397 105.526  1.00  0.00    -0.064 C 
ATOM      8  C   UNL     1     -13.336 -47.717 105.407  1.00  0.00     0.015 C 
ATOM      9  C   UNL     1     -11.908 -47.903 105.991  1.00  0.00    -0.035 C 
ATOM     10  C   UNL     1     -16.421 -45.292 106.157  1.00  0.00    -0.006 C 
ATOM     11  C   UNL     1     -15.890 -46.845 104.293  1.00  0.00    -0.027 C 
ATOM     12  C   UNL     1     -11.975 -48.629 107.358  1.00  0.00     0.011 C 
ATOM     13  C   UNL     1     -11.115 -48.806 105.022  1.00  0.00     0.011 C 
ATOM     14  C   UNL     1     -16.504 -45.593 107.697  1.00  0.00     0.017 C 
ATOM     15  C   UNL     1     -17.919 -45.241 105.558  1.00  0.00    -0.020 C 
ATOM     16  C   UNL     1     -16.812 -46.126 103.352  1.00  0.00     0.032 C 
ATOM     17  C   UNL     1     -17.900 -45.174 103.968  1.00  0.00     0.006 C 
ATOM     18  C   UNL     1     -18.700 -46.536 105.983  1.00  0.00     0.008 C 
ATOM     19  C   UNL     1     -18.636 -43.982 106.171  1.00  0.00     0.012 C 
ATOM     20  C   UNL     1     -19.329 -45.357 103.260  1.00  0.00    -0.025 C 
ATOM     21  C   UNL     1     -20.055 -46.758 105.294  1.00  0.00     0.005 C 
ATOM     22  C   UNL     1     -19.938 -46.725 103.746  1.00  0.00     0.003 C 
ATOM     23  C   UNL     1     -19.184 -45.339 101.697  1.00  0.00     0.010 C 
ATOM     24  C   UNL     1     -20.249 -44.132 103.589  1.00  0.00     0.012 C 
ATOM     25  C   UNL     1     -21.212 -47.238 102.958  1.00  0.00    -0.006 C 
ATOM     26  C   UNL     1     -20.445 -45.800 100.949  1.00  0.00     0.033 C 
ATOM     27  C   UNL     1     -20.926 -47.180 101.421  1.00  0.00     0.120 C 
ATOM     28  C   UNL     1     -21.460 -48.732 103.325  1.00  0.00     0.014 C 
ATOM     29  C   UNL     1     -22.518 -46.467 103.305  1.00  0.00     0.014 C 
ENDROOT
BRANCH   1  30
ATOM     30  C   UNL     1     -13.176 -44.761 107.655  1.00  0.00     0.048 C 
ATOM     31  O   UNL     1     -13.295 -45.553 108.624  1.00  0.00    -0.550 OA
ATOM     32  O   UNL     1     -12.751 -43.468 107.917  1.00  0.00    -0.550 OA
ENDBRANCH   1  30
BRANCH  27  33
ATOM     33  O   UNL     1     -22.082 -47.522 100.698  1.00  0.00    -0.393 OA
ATOM     34  H   UNL     1     -21.997 -47.150  99.782  1.00  0.00     0.210 HD
ENDBRANCH  27  33
TORSDOF 2
ENDMDL
