MODEL 1
REMARK VINA RESULT:    -6.220      0.000      0.000
REMARK INTER + INTRA:          -7.603
REMARK INTER:                  -7.311
REMARK INTRA:                  -0.292
REMARK UNBOUND:                -0.292
REMARK SMILES O=c1c(O)c(-c2ccc(O)cc2)oc2cc(O)cc(O)c12
REMARK SMILES IDX 5 1 3 2 2 3 1 4 21 5 19 6 18 7 16 8 15 9 14 10 13 11 6 12
REMARK SMILES IDX 7 13 8 14 9 15 12 16 11 17 10 18 4 20 20 22 17 24
REMARK H PARENT 10 19 4 21 20 23 17 25
REMARK Flexibility Score: inf
ROOT
ATOM      1  C   UNL     1      11.412  -6.351  -9.545  1.00  0.00     0.180 A 
ATOM      2  C   UNL     1      11.169  -7.708  -9.816  1.00  0.00     0.208 A 
ATOM      3  C   UNL     1      10.242  -8.405  -9.026  1.00  0.00     0.238 A 
ATOM      4  O   UNL     1       9.988  -9.605  -9.308  1.00  0.00    -0.285 OA
ATOM      5  C   UNL     1       9.581  -7.741  -7.965  1.00  0.00     0.111 A 
ATOM      6  C   UNL     1       8.652  -8.360  -7.075  1.00  0.00     0.134 A 
ATOM      7  C   UNL     1       7.961  -7.575  -6.143  1.00  0.00     0.093 A 
ATOM      8  C   UNL     1       8.213  -6.206  -6.027  1.00  0.00     0.123 A 
ATOM      9  C   UNL     1       9.161  -5.605  -6.850  1.00  0.00     0.094 A 
ATOM     10  C   UNL     1       9.841  -6.354  -7.814  1.00  0.00     0.146 A 
ATOM     11  O   UNL     1      10.729  -5.739  -8.585  1.00  0.00    -0.452 OA
ENDROOT
BRANCH   1  12
ATOM     12  C   UNL     1      12.394  -5.557 -10.318  1.00  0.00     0.021 A 
ATOM     13  C   UNL     1      13.765  -5.571  -9.998  1.00  0.00     0.016 A 
ATOM     14  C   UNL     1      14.670  -4.794 -10.727  1.00  0.00     0.047 A 
ATOM     15  C   UNL     1      14.218  -3.983 -11.773  1.00  0.00     0.115 A 
ATOM     16  C   UNL     1      11.946  -4.724 -11.357  1.00  0.00     0.016 A 
ATOM     17  C   UNL     1      12.853  -3.947 -12.085  1.00  0.00     0.047 A 
BRANCH  15  18
ATOM     18  O   UNL     1      15.132  -3.215 -12.491  1.00  0.00    -0.508 OA
ATOM     19  H   UNL     1      15.477  -2.331 -12.133  1.00  0.00     0.293 HD
ENDBRANCH  15  18
ENDBRANCH   1  12
BRANCH   2  20
ATOM     20  O   UNL     1      11.816  -8.339 -10.882  1.00  0.00    -0.502 OA
ATOM     21  H   UNL     1      12.601  -7.921 -11.367  1.00  0.00     0.293 HD
ENDBRANCH   2  20
BRANCH   6  22
ATOM     22  O   UNL     1       8.395  -9.733  -7.046  1.00  0.00    -0.507 OA
ATOM     23  H   UNL     1       8.137 -10.287  -7.849  1.00  0.00     0.293 HD
ENDBRANCH   6  22
BRANCH   8  24
ATOM     24  O   UNL     1       7.531  -5.436  -5.086  1.00  0.00    -0.508 OA
ATOM     25  H   UNL     1       7.407  -4.438  -5.208  1.00  0.00     0.293 HD
ENDBRANCH   8  24
TORSDOF 5
ENDMDL
MODEL 2
REMARK VINA RESULT:    -6.142      8.473     12.191
REMARK INTER + INTRA:          -7.511
REMARK INTER:                  -7.327
REMARK INTRA:                  -0.184
REMARK UNBOUND:                -0.292
REMARK SMILES O=c1c(O)c(-c2ccc(O)cc2)oc2cc(O)cc(O)c12
REMARK SMILES IDX 5 1 3 2 2 3 1 4 21 5 19 6 18 7 16 8 15 9 14 10 13 11 6 12
REMARK SMILES IDX 7 13 8 14 9 15 12 16 11 17 10 18 4 20 20 22 17 24
REMARK H PARENT 10 19 4 21 20 23 17 25
REMARK Flexibility Score: inf
ROOT
ATOM      1  C   UNL     1      18.712  -0.994 -17.113  1.00  0.00     0.180 A 
ATOM      2  C   UNL     1      18.240  -0.144 -16.099  1.00  0.00     0.208 A 
ATOM      3  C   UNL     1      17.550  -0.700 -15.010  1.00  0.00     0.238 A 
ATOM      4  O   UNL     1      17.178   0.060 -14.078  1.00  0.00    -0.285 OA
ATOM      5  C   UNL     1      17.326  -2.097 -14.958  1.00  0.00     0.111 A 
ATOM      6  C   UNL     1      16.604  -2.763 -13.921  1.00  0.00     0.134 A 
ATOM      7  C   UNL     1      16.556  -4.162 -13.904  1.00  0.00     0.093 A 
ATOM      8  C   UNL     1      17.149  -4.916 -14.919  1.00  0.00     0.123 A 
ATOM      9  C   UNL     1      17.804  -4.273 -15.965  1.00  0.00     0.094 A 
ATOM     10  C   UNL     1      17.900  -2.879 -15.992  1.00  0.00     0.146 A 
ATOM     11  O   UNL     1      18.544  -2.306 -17.003  1.00  0.00    -0.452 OA
ENDROOT
BRANCH   1  12
ATOM     12  C   UNL     1      19.426  -0.480 -18.305  1.00  0.00     0.021 A 
ATOM     13  C   UNL     1      20.726   0.050 -18.209  1.00  0.00     0.016 A 
ATOM     14  C   UNL     1      21.370   0.552 -19.343  1.00  0.00     0.047 A 
ATOM     15  C   UNL     1      20.722   0.545 -20.582  1.00  0.00     0.115 A 
ATOM     16  C   UNL     1      18.773  -0.465 -19.549  1.00  0.00     0.016 A 
ATOM     17  C   UNL     1      19.421   0.037 -20.683  1.00  0.00     0.047 A 
BRANCH  15  18
ATOM     18  O   UNL     1      21.378   1.047 -21.704  1.00  0.00    -0.508 OA
ATOM     19  H   UNL     1      21.674   2.015 -21.755  1.00  0.00     0.293 HD
ENDBRANCH  15  18
ENDBRANCH   1  12
BRANCH   2  20
ATOM     20  O   UNL     1      18.492   1.230 -16.160  1.00  0.00    -0.502 OA
ATOM     21  H   UNL     1      18.195   1.870 -15.434  1.00  0.00     0.293 HD
ENDBRANCH   2  20
BRANCH   6  22
ATOM     22  O   UNL     1      15.899  -2.102 -12.912  1.00  0.00    -0.507 OA
ATOM     23  H   UNL     1      14.941  -2.291 -12.661  1.00  0.00     0.293 HD
ENDBRANCH   6  22
BRANCH   8  24
ATOM     24  O   UNL     1      17.083  -6.308 -14.902  1.00  0.00    -0.508 OA
ATOM     25  H   UNL     1      16.526  -6.821 -15.575  1.00  0.00     0.293 HD
ENDBRANCH   8  24
TORSDOF 5
ENDMDL
MODEL 3
REMARK VINA RESULT:    -5.936      4.359      4.866
REMARK INTER + INTRA:          -7.269
REMARK INTER:                  -6.969
REMARK INTRA:                  -0.301
REMARK UNBOUND:                -0.292
REMARK SMILES O=c1c(O)c(-c2ccc(O)cc2)oc2cc(O)cc(O)c12
REMARK SMILES IDX 5 1 3 2 2 3 1 4 21 5 19 6 18 7 16 8 15 9 14 10 13 11 6 12
REMARK SMILES IDX 7 13 8 14 9 15 12 16 11 17 10 18 4 20 20 22 17 24
REMARK H PARENT 10 19 4 21 20 23 17 25
REMARK Flexibility Score: inf
ROOT
ATOM      1  C   UNL     1       7.752  -4.547 -11.595  1.00  0.00     0.180 A 
ATOM      2  C   UNL     1       7.961  -5.843 -12.093  1.00  0.00     0.208 A 
ATOM      3  C   UNL     1       8.117  -6.904 -11.187  1.00  0.00     0.238 A 
ATOM      4  O   UNL     1       8.250  -8.071 -11.640  1.00  0.00    -0.285 OA
ATOM      5  C   UNL     1       8.079  -6.652  -9.795  1.00  0.00     0.111 A 
ATOM      6  C   UNL     1       8.266  -7.646  -8.786  1.00  0.00     0.134 A 
ATOM      7  C   UNL     1       8.077  -7.307  -7.441  1.00  0.00     0.093 A 
ATOM      8  C   UNL     1       7.772  -5.997  -7.064  1.00  0.00     0.123 A 
ATOM      9  C   UNL     1       7.647  -5.009  -8.036  1.00  0.00     0.094 A 
ATOM     10  C   UNL     1       7.793  -5.323  -9.390  1.00  0.00     0.146 A 
ATOM     11  O   UNL     1       7.655  -4.352 -10.285  1.00  0.00    -0.452 OA
ENDROOT
BRANCH   1  12
ATOM     12  C   UNL     1       7.604  -3.374 -12.487  1.00  0.00     0.021 A 
ATOM     13  C   UNL     1       8.719  -2.626 -12.907  1.00  0.00     0.016 A 
ATOM     14  C   UNL     1       8.552  -1.507 -13.730  1.00  0.00     0.047 A 
ATOM     15  C   UNL     1       7.272  -1.114 -14.131  1.00  0.00     0.115 A 
ATOM     16  C   UNL     1       6.319  -2.960 -12.878  1.00  0.00     0.016 A 
ATOM     17  C   UNL     1       6.155  -1.842 -13.702  1.00  0.00     0.047 A 
BRANCH  15  18
ATOM     18  O   UNL     1       7.121   0.001 -14.953  1.00  0.00    -0.508 OA
ATOM     19  H   UNL     1       7.913   0.583 -15.205  1.00  0.00     0.293 HD
ENDBRANCH  15  18
ENDBRANCH   1  12
BRANCH   2  20
ATOM     20  O   UNL     1       7.974  -6.073 -13.472  1.00  0.00    -0.502 OA
ATOM     21  H   UNL     1       7.249  -6.600 -13.942  1.00  0.00     0.293 HD
ENDBRANCH   2  20
BRANCH   6  22
ATOM     22  O   UNL     1       8.660  -8.960  -9.049  1.00  0.00    -0.507 OA
ATOM     23  H   UNL     1       9.615  -9.257  -9.188  1.00  0.00     0.293 HD
ENDBRANCH   6  22
BRANCH   8  24
ATOM     24  O   UNL     1       7.601  -5.665  -5.721  1.00  0.00    -0.508 OA
ATOM     25  H   UNL     1       6.682  -5.626  -5.297  1.00  0.00     0.293 HD
ENDBRANCH   8  24
TORSDOF 5
ENDMDL
MODEL 4
REMARK VINA RESULT:    -5.859      2.399      3.674
REMARK INTER + INTRA:          -7.179
REMARK INTER:                  -6.914
REMARK INTRA:                  -0.265
REMARK UNBOUND:                -0.292
REMARK SMILES O=c1c(O)c(-c2ccc(O)cc2)oc2cc(O)cc(O)c12
REMARK SMILES IDX 5 1 3 2 2 3 1 4 21 5 19 6 18 7 16 8 15 9 14 10 13 11 6 12
REMARK SMILES IDX 7 13 8 14 9 15 12 16 11 17 10 18 4 20 20 22 17 24
REMARK H PARENT 10 19 4 21 20 23 17 25
REMARK Flexibility Score: inf
ROOT
ATOM      1  C   UNL     1      11.352  -6.214 -10.918  1.00  0.00     0.180 A 
ATOM      2  C   UNL     1      11.113  -6.437  -9.552  1.00  0.00     0.208 A 
ATOM      3  C   UNL     1       9.941  -7.105  -9.166  1.00  0.00     0.238 A 
ATOM      4  O   UNL     1       9.758  -7.350  -7.945  1.00  0.00    -0.285 OA
ATOM      5  C   UNL     1       9.014  -7.528 -10.150  1.00  0.00     0.111 A 
ATOM      6  C   UNL     1       7.774  -8.178  -9.869  1.00  0.00     0.134 A 
ATOM      7  C   UNL     1       6.998  -8.668 -10.926  1.00  0.00     0.093 A 
ATOM      8  C   UNL     1       7.385  -8.474 -12.255  1.00  0.00     0.123 A 
ATOM      9  C   UNL     1       8.562  -7.789 -12.539  1.00  0.00     0.094 A 
ATOM     10  C   UNL     1       9.377  -7.319 -11.505  1.00  0.00     0.146 A 
ATOM     11  O   UNL     1      10.497  -6.680 -11.821  1.00  0.00    -0.452 OA
ENDROOT
BRANCH   1  12
ATOM     12  C   UNL     1      12.554  -5.495 -11.401  1.00  0.00     0.021 A 
ATOM     13  C   UNL     1      12.495  -4.141 -11.782  1.00  0.00     0.016 A 
ATOM     14  C   UNL     1      13.636  -3.490 -12.258  1.00  0.00     0.047 A 
ATOM     15  C   UNL     1      14.845  -4.183 -12.373  1.00  0.00     0.115 A 
ATOM     16  C   UNL     1      13.767  -6.190 -11.539  1.00  0.00     0.016 A 
ATOM     17  C   UNL     1      14.908  -5.535 -12.015  1.00  0.00     0.047 A 
BRANCH  15  18
ATOM     18  O   UNL     1      15.975  -3.520 -12.848  1.00  0.00    -0.508 OA
ATOM     19  H   UNL     1      16.748  -4.025 -13.267  1.00  0.00     0.293 HD
ENDBRANCH  15  18
ENDBRANCH   1  12
BRANCH   2  20
ATOM     20  O   UNL     1      12.051  -6.031  -8.599  1.00  0.00    -0.502 OA
ATOM     21  H   UNL     1      12.782  -6.644  -8.259  1.00  0.00     0.293 HD
ENDBRANCH   2  20
BRANCH   6  22
ATOM     22  O   UNL     1       7.252  -8.341  -8.583  1.00  0.00    -0.507 OA
ATOM     23  H   UNL     1       7.685  -8.884  -7.852  1.00  0.00     0.293 HD
ENDBRANCH   6  22
BRANCH   8  24
ATOM     24  O   UNL     1       6.597  -8.952 -13.301  1.00  0.00    -0.508 OA
ATOM     25  H   UNL     1       6.979  -9.098 -14.228  1.00  0.00     0.293 HD
ENDBRANCH   8  24
TORSDOF 5
ENDMDL
MODEL 5
REMARK VINA RESULT:    -5.857      2.043      3.461
REMARK INTER + INTRA:          -7.177
REMARK INTER:                  -6.898
REMARK INTRA:                  -0.279
REMARK UNBOUND:                -0.292
REMARK SMILES O=c1c(O)c(-c2ccc(O)cc2)oc2cc(O)cc(O)c12
REMARK SMILES IDX 5 1 3 2 2 3 1 4 21 5 19 6 18 7 16 8 15 9 14 10 13 11 6 12
REMARK SMILES IDX 7 13 8 14 9 15 12 16 11 17 10 18 4 20 20 22 17 24
REMARK H PARENT 10 19 4 21 20 23 17 25
REMARK Flexibility Score: inf
ROOT
ATOM      1  C   UNL     1      12.880  -5.477 -10.726  1.00  0.00     0.180 A 
ATOM      2  C   UNL     1      11.898  -4.676 -11.333  1.00  0.00     0.208 A 
ATOM      3  C   UNL     1      10.552  -4.869 -10.988  1.00  0.00     0.238 A 
ATOM      4  O   UNL     1       9.683  -4.112 -11.494  1.00  0.00    -0.285 OA
ATOM      5  C   UNL     1      10.202  -5.873 -10.052  1.00  0.00     0.111 A 
ATOM      6  C   UNL     1       8.865  -6.183  -9.658  1.00  0.00     0.134 A 
ATOM      7  C   UNL     1       8.646  -7.106  -8.628  1.00  0.00     0.093 A 
ATOM      8  C   UNL     1       9.711  -7.776  -8.023  1.00  0.00     0.123 A 
ATOM      9  C   UNL     1      11.014  -7.524  -8.441  1.00  0.00     0.094 A 
ATOM     10  C   UNL     1      11.268  -6.582  -9.442  1.00  0.00     0.146 A 
ATOM     11  O   UNL     1      12.527  -6.364  -9.804  1.00  0.00    -0.452 OA
ENDROOT
BRANCH   1  12
ATOM     12  C   UNL     1      14.318  -5.349 -11.057  1.00  0.00     0.021 A 
ATOM     13  C   UNL     1      15.178  -4.541 -10.291  1.00  0.00     0.016 A 
ATOM     14  C   UNL     1      16.527  -4.416 -10.637  1.00  0.00     0.047 A 
ATOM     15  C   UNL     1      17.030  -5.084 -11.758  1.00  0.00     0.115 A 
ATOM     16  C   UNL     1      14.827  -6.000 -12.194  1.00  0.00     0.016 A 
ATOM     17  C   UNL     1      16.176  -5.874 -12.538  1.00  0.00     0.047 A 
BRANCH  15  18
ATOM     18  O   UNL     1      18.377  -4.951 -12.090  1.00  0.00    -0.508 OA
ATOM     19  H   UNL     1      18.680  -4.337 -12.838  1.00  0.00     0.293 HD
ENDBRANCH  15  18
ENDBRANCH   1  12
BRANCH   2  20
ATOM     20  O   UNL     1      12.268  -3.676 -12.238  1.00  0.00    -0.502 OA
ATOM     21  H   UNL     1      11.625  -2.958 -12.547  1.00  0.00     0.293 HD
ENDBRANCH   2  20
BRANCH   6  22
ATOM     22  O   UNL     1       7.728  -5.638 -10.261  1.00  0.00    -0.507 OA
ATOM     23  H   UNL     1       6.778  -5.866 -10.008  1.00  0.00     0.293 HD
ENDBRANCH   6  22
BRANCH   8  24
ATOM     24  O   UNL     1       9.482  -8.705  -7.009  1.00  0.00    -0.508 OA
ATOM     25  H   UNL     1       9.950  -8.638  -6.113  1.00  0.00     0.293 HD
ENDBRANCH   8  24
TORSDOF 5
ENDMDL
MODEL 6
REMARK VINA RESULT:    -5.848      8.072     11.507
REMARK INTER + INTRA:          -7.166
REMARK INTER:                  -6.979
REMARK INTRA:                  -0.187
REMARK UNBOUND:                -0.292
REMARK SMILES O=c1c(O)c(-c2ccc(O)cc2)oc2cc(O)cc(O)c12
REMARK SMILES IDX 5 1 3 2 2 3 1 4 21 5 19 6 18 7 16 8 15 9 14 10 13 11 6 12
REMARK SMILES IDX 7 13 8 14 9 15 12 16 11 17 10 18 4 20 20 22 17 24
REMARK H PARENT 10 19 4 21 20 23 17 25
REMARK Flexibility Score: inf
ROOT
ATOM      1  C   UNL     1      18.606  -2.014 -17.350  1.00  0.00     0.180 A 
ATOM      2  C   UNL     1      18.480  -3.399 -17.551  1.00  0.00     0.208 A 
ATOM      3  C   UNL     1      17.846  -4.175 -16.568  1.00  0.00     0.238 A 
ATOM      4  O   UNL     1      17.688  -5.406 -16.778  1.00  0.00    -0.285 OA
ATOM      5  C   UNL     1      17.361  -3.558 -15.389  1.00  0.00     0.111 A 
ATOM      6  C   UNL     1      16.738  -4.255 -14.309  1.00  0.00     0.134 A 
ATOM      7  C   UNL     1      16.180  -3.527 -13.250  1.00  0.00     0.093 A 
ATOM      8  C   UNL     1      16.279  -2.135 -13.202  1.00  0.00     0.123 A 
ATOM      9  C   UNL     1      16.936  -1.452 -14.221  1.00  0.00     0.094 A 
ATOM     10  C   UNL     1      17.473  -2.147 -15.309  1.00  0.00     0.146 A 
ATOM     11  O   UNL     1      18.083  -1.456 -16.264  1.00  0.00    -0.452 OA
ENDROOT
BRANCH   1  12
ATOM     12  C   UNL     1      19.284  -1.133 -18.329  1.00  0.00     0.021 A 
ATOM     13  C   UNL     1      20.523  -0.532 -18.040  1.00  0.00     0.016 A 
ATOM     14  C   UNL     1      21.133   0.315 -18.971  1.00  0.00     0.047 A 
ATOM     15  C   UNL     1      20.508   0.583 -20.193  1.00  0.00     0.115 A 
ATOM     16  C   UNL     1      18.654  -0.843 -19.550  1.00  0.00     0.016 A 
ATOM     17  C   UNL     1      19.266   0.004 -20.480  1.00  0.00     0.047 A 
BRANCH  15  18
ATOM     18  O   UNL     1      21.129   1.427 -21.111  1.00  0.00    -0.508 OA
ATOM     19  H   UNL     1      20.692   2.291 -21.414  1.00  0.00     0.293 HD
ENDBRANCH  15  18
ENDBRANCH   1  12
BRANCH   2  20
ATOM     20  O   UNL     1      18.946  -3.983 -18.732  1.00  0.00    -0.502 OA
ATOM     21  H   UNL     1      19.882  -3.825 -19.084  1.00  0.00     0.293 HD
ENDBRANCH   2  20
BRANCH   6  22
ATOM     22  O   UNL     1      16.667  -5.647 -14.215  1.00  0.00    -0.507 OA
ATOM     23  H   UNL     1      16.518  -6.269 -14.995  1.00  0.00     0.293 HD
ENDBRANCH   6  22
BRANCH   8  24
ATOM     24  O   UNL     1      15.733  -1.420 -12.136  1.00  0.00    -0.508 OA
ATOM     25  H   UNL     1      14.841  -1.674 -11.730  1.00  0.00     0.293 HD
ENDBRANCH   8  24
TORSDOF 5
ENDMDL
MODEL 7
REMARK VINA RESULT:    -5.717      2.888      4.044
REMARK INTER + INTRA:          -7.012
REMARK INTER:                  -7.053
REMARK INTRA:                   0.042
REMARK UNBOUND:                -0.292
REMARK SMILES O=c1c(O)c(-c2ccc(O)cc2)oc2cc(O)cc(O)c12
REMARK SMILES IDX 5 1 3 2 2 3 1 4 21 5 19 6 18 7 16 8 15 9 14 10 13 11 6 12
REMARK SMILES IDX 7 13 8 14 9 15 12 16 11 17 10 18 4 20 20 22 17 24
REMARK H PARENT 10 19 4 21 20 23 17 25
REMARK Flexibility Score: inf
ROOT
ATOM      1  C   UNL     1      10.711  -7.431 -10.150  1.00  0.00     0.180 A 
ATOM      2  C   UNL     1      10.397  -7.752  -8.819  1.00  0.00     0.208 A 
ATOM      3  C   UNL     1       9.363  -7.053  -8.176  1.00  0.00     0.238 A 
ATOM      4  O   UNL     1       9.049  -7.382  -7.002  1.00  0.00    -0.285 OA
ATOM      5  C   UNL     1       8.669  -6.030  -8.867  1.00  0.00     0.111 A 
ATOM      6  C   UNL     1       7.631  -5.230  -8.299  1.00  0.00     0.134 A 
ATOM      7  C   UNL     1       6.925  -4.336  -9.114  1.00  0.00     0.093 A 
ATOM      8  C   UNL     1       7.262  -4.168 -10.459  1.00  0.00     0.123 A 
ATOM      9  C   UNL     1       8.311  -4.901 -11.006  1.00  0.00     0.094 A 
ATOM     10  C   UNL     1       9.012  -5.827 -10.228  1.00  0.00     0.146 A 
ATOM     11  O   UNL     1       9.999  -6.513 -10.792  1.00  0.00    -0.452 OA
ENDROOT
BRANCH   1  12
ATOM     12  C   UNL     1      11.804  -8.106 -10.887  1.00  0.00     0.021 A 
ATOM     13  C   UNL     1      11.895  -9.510 -10.939  1.00  0.00     0.016 A 
ATOM     14  C   UNL     1      12.950 -10.125 -11.621  1.00  0.00     0.047 A 
ATOM     15  C   UNL     1      13.932  -9.350 -12.244  1.00  0.00     0.115 A 
ATOM     16  C   UNL     1      12.807  -7.335 -11.498  1.00  0.00     0.016 A 
ATOM     17  C   UNL     1      13.860  -7.953 -12.180  1.00  0.00     0.047 A 
BRANCH  15  18
ATOM     18  O   UNL     1      14.976  -9.978 -12.921  1.00  0.00    -0.508 OA
ATOM     19  H   UNL     1      15.033 -10.988 -12.986  1.00  0.00     0.293 HD
ENDBRANCH  15  18
ENDBRANCH   1  12
BRANCH   2  20
ATOM     20  O   UNL     1      11.080  -8.780  -8.163  1.00  0.00    -0.502 OA
ATOM     21  H   UNL     1      11.129  -9.722  -8.531  1.00  0.00     0.293 HD
ENDBRANCH   2  20
BRANCH   6  22
ATOM     22  O   UNL     1       7.278  -5.254  -6.947  1.00  0.00    -0.507 OA
ATOM     23  H   UNL     1       7.558  -5.968  -6.292  1.00  0.00     0.293 HD
ENDBRANCH   6  22
BRANCH   8  24
ATOM     24  O   UNL     1       6.564  -3.265 -11.259  1.00  0.00    -0.508 OA
ATOM     25  H   UNL     1       6.731  -2.268 -11.203  1.00  0.00     0.293 HD
ENDBRANCH   8  24
TORSDOF 5
ENDMDL
MODEL 8
REMARK VINA RESULT:    -5.699      1.975      6.694
REMARK INTER + INTRA:          -6.991
REMARK INTER:                  -6.751
REMARK INTRA:                  -0.240
REMARK UNBOUND:                -0.292
REMARK SMILES O=c1c(O)c(-c2ccc(O)cc2)oc2cc(O)cc(O)c12
REMARK SMILES IDX 5 1 3 2 2 3 1 4 21 5 19 6 18 7 16 8 15 9 14 10 13 11 6 12
REMARK SMILES IDX 7 13 8 14 9 15 12 16 11 17 10 18 4 20 20 22 17 24
REMARK H PARENT 10 19 4 21 20 23 17 25
REMARK Flexibility Score: inf
ROOT
ATOM      1  C   UNL     1      11.693  -6.253 -10.145  1.00  0.00     0.180 A 
ATOM      2  C   UNL     1      11.730  -7.305 -11.076  1.00  0.00     0.208 A 
ATOM      3  C   UNL     1      12.850  -7.434 -11.912  1.00  0.00     0.238 A 
ATOM      4  O   UNL     1      12.902  -8.410 -12.706  1.00  0.00    -0.285 OA
ATOM      5  C   UNL     1      13.911  -6.501 -11.818  1.00  0.00     0.111 A 
ATOM      6  C   UNL     1      15.076  -6.514 -12.644  1.00  0.00     0.134 A 
ATOM      7  C   UNL     1      16.121  -5.621 -12.376  1.00  0.00     0.093 A 
ATOM      8  C   UNL     1      16.015  -4.675 -11.353  1.00  0.00     0.123 A 
ATOM      9  C   UNL     1      14.859  -4.617 -10.581  1.00  0.00     0.094 A 
ATOM     10  C   UNL     1      13.813  -5.517 -10.801  1.00  0.00     0.146 A 
ATOM     11  O   UNL     1      12.732  -5.434 -10.035  1.00  0.00    -0.452 OA
ENDROOT
BRANCH   1  12
ATOM     12  C   UNL     1      10.536  -6.036  -9.246  1.00  0.00     0.021 A 
ATOM     13  C   UNL     1       9.323  -5.509  -9.726  1.00  0.00     0.016 A 
ATOM     14  C   UNL     1       8.252  -5.291  -8.854  1.00  0.00     0.047 A 
ATOM     15  C   UNL     1       8.382  -5.581  -7.493  1.00  0.00     0.115 A 
ATOM     16  C   UNL     1      10.666  -6.307  -7.873  1.00  0.00     0.016 A 
ATOM     17  C   UNL     1       9.593  -6.088  -7.003  1.00  0.00     0.047 A 
BRANCH  15  18
ATOM     18  O   UNL     1       7.306  -5.360  -6.636  1.00  0.00    -0.508 OA
ATOM     19  H   UNL     1       7.132  -5.962  -5.839  1.00  0.00     0.293 HD
ENDBRANCH  15  18
ENDBRANCH   1  12
BRANCH   2  20
ATOM     20  O   UNL     1      10.682  -8.227 -11.137  1.00  0.00    -0.502 OA
ATOM     21  H   UNL     1       9.807  -8.090 -10.646  1.00  0.00     0.293 HD
ENDBRANCH   2  20
BRANCH   6  22
ATOM     22  O   UNL     1      15.242  -7.355 -13.747  1.00  0.00    -0.507 OA
ATOM     23  H   UNL     1      14.822  -7.207 -14.652  1.00  0.00     0.293 HD
ENDBRANCH   6  22
BRANCH   8  24
ATOM     24  O   UNL     1      17.055  -3.780 -11.103  1.00  0.00    -0.508 OA
ATOM     25  H   UNL     1      18.018  -4.016 -11.309  1.00  0.00     0.293 HD
ENDBRANCH   8  24
TORSDOF 5
ENDMDL
MODEL 9
REMARK VINA RESULT:    -5.580      9.472     12.980
REMARK INTER + INTRA:          -6.851
REMARK INTER:                  -6.574
REMARK INTRA:                  -0.276
REMARK UNBOUND:                -0.292
REMARK SMILES O=c1c(O)c(-c2ccc(O)cc2)oc2cc(O)cc(O)c12
REMARK SMILES IDX 5 1 3 2 2 3 1 4 21 5 19 6 18 7 16 8 15 9 14 10 13 11 6 12
REMARK SMILES IDX 7 13 8 14 9 15 12 16 11 17 10 18 4 20 20 22 17 24
REMARK H PARENT 10 19 4 21 20 23 17 25
REMARK Flexibility Score: inf
ROOT
ATOM      1  C   UNL     1      17.968  -4.021 -16.612  1.00  0.00     0.180 A 
ATOM      2  C   UNL     1      17.703  -3.016 -15.667  1.00  0.00     0.208 A 
ATOM      3  C   UNL     1      18.074  -1.693 -15.957  1.00  0.00     0.238 A 
ATOM      4  O   UNL     1      17.785  -0.789 -15.131  1.00  0.00    -0.285 OA
ATOM      5  C   UNL     1      18.721  -1.397 -17.181  1.00  0.00     0.111 A 
ATOM      6  C   UNL     1      19.178  -0.098 -17.562  1.00  0.00     0.134 A 
ATOM      7  C   UNL     1      19.687   0.104 -18.850  1.00  0.00     0.093 A 
ATOM      8  C   UNL     1      19.816  -0.959 -19.748  1.00  0.00     0.123 A 
ATOM      9  C   UNL     1      19.428  -2.239 -19.365  1.00  0.00     0.094 A 
ATOM     10  C   UNL     1      18.883  -2.466 -18.099  1.00  0.00     0.146 A 
ATOM     11  O   UNL     1      18.516  -3.701 -17.778  1.00  0.00    -0.452 OA
ENDROOT
BRANCH   1  12
ATOM     12  C   UNL     1      17.629  -5.442 -16.367  1.00  0.00     0.021 A 
ATOM     13  C   UNL     1      18.591  -6.357 -15.901  1.00  0.00     0.016 A 
ATOM     14  C   UNL     1      18.254  -7.698 -15.700  1.00  0.00     0.047 A 
ATOM     15  C   UNL     1      16.958  -8.147 -15.975  1.00  0.00     0.115 A 
ATOM     16  C   UNL     1      16.335  -5.905 -16.660  1.00  0.00     0.016 A 
ATOM     17  C   UNL     1      15.999  -7.247 -16.458  1.00  0.00     0.047 A 
BRANCH  15  18
ATOM     18  O   UNL     1      16.636  -9.487 -15.769  1.00  0.00    -0.508 OA
ATOM     19  H   UNL     1      15.675  -9.788 -15.654  1.00  0.00     0.293 HD
ENDBRANCH  15  18
ENDBRANCH   1  12
BRANCH   2  20
ATOM     20  O   UNL     1      17.043  -3.328 -14.475  1.00  0.00    -0.502 OA
ATOM     21  H   UNL     1      16.179  -2.879 -14.197  1.00  0.00     0.293 HD
ENDBRANCH   2  20
BRANCH   6  22
ATOM     22  O   UNL     1      19.179   1.010 -16.710  1.00  0.00    -0.507 OA
ATOM     23  H   UNL     1      19.779   1.116 -15.906  1.00  0.00     0.293 HD
ENDBRANCH   6  22
BRANCH   8  24
ATOM     24  O   UNL     1      20.338  -0.751 -21.024  1.00  0.00    -0.508 OA
ATOM     25  H   UNL     1      20.626   0.169 -21.336  1.00  0.00     0.293 HD
ENDBRANCH   8  24
TORSDOF 5
ENDMDL
