MODEL 1
REMARK VINA RESULT:    -5.366      0.000      0.000
REMARK INTER + INTRA:         -16.884
REMARK INTER:                 -13.523
REMARK INTRA:                  -3.361
REMARK UNBOUND:                -3.361
REMARK SMILES CCCCCCCCCCCCCCCCCCCCCCCCCCCC(=O)[O-]
REMARK SMILES IDX 15 1 16 2 17 3 18 4 19 5 20 6 21 7 22 8 23 9 24 10 25 11
REMARK SMILES IDX 26 12 27 13 28 14 29 15 30 16 14 17 13 18 12 19 11 20 10 21
REMARK SMILES IDX 9 22 8 23 7 24 6 25 5 26 4 27 3 28 2 29 1 30
REMARK H PARENT
REMARK Flexibility Score: inf
ROOT
ATOM      1  C   UNL     1      42.625   6.235 127.166  1.00  0.00     0.000 C 
ENDROOT
BRANCH   1   2
ATOM      2  C   UNL     1      42.599   6.385 128.701  1.00  0.00     0.000 C 
BRANCH   2   3
ATOM      3  C   UNL     1      43.748   7.260 129.230  1.00  0.00     0.000 C 
BRANCH   3   4
ATOM      4  C   UNL     1      44.963   6.404 129.619  1.00  0.00     0.000 C 
BRANCH   4   5
ATOM      5  C   UNL     1      46.299   7.105 129.319  1.00  0.00     0.000 C 
BRANCH   5   6
ATOM      6  C   UNL     1      47.507   6.158 129.167  1.00  0.00     0.000 C 
BRANCH   6   7
ATOM      7  C   UNL     1      47.238   4.689 129.551  1.00  0.00     0.000 C 
BRANCH   7   8
ATOM      8  C   UNL     1      48.048   4.172 130.757  1.00  0.00     0.000 C 
BRANCH   8   9
ATOM      9  C   UNL     1      47.205   3.519 131.869  1.00  0.00     0.000 C 
BRANCH   9  10
ATOM     10  C   UNL     1      46.252   4.514 132.553  1.00  0.00     0.000 C 
BRANCH  10  11
ATOM     11  C   UNL     1      44.858   3.903 132.818  1.00  0.00     0.000 C 
BRANCH  11  12
ATOM     12  C   UNL     1      44.901   2.546 133.544  1.00  0.00     0.006 C 
BRANCH  12  13
ATOM     13  C   UNL     1      43.627   1.714 133.350  1.00  0.00     0.053 C 
BRANCH  13  14
ATOM     14  C   UNL     1      43.854   0.647 132.328  1.00  0.00     0.041 C 
ATOM     15  O   UNL     1      42.960   0.381 131.481  1.00  0.00    -0.550 OA
ATOM     16  O   UNL     1      45.075  -0.013 132.270  1.00  0.00    -0.550 OA
ENDBRANCH  13  14
ENDBRANCH  12  13
ENDBRANCH  11  12
ENDBRANCH  10  11
ENDBRANCH   9  10
ENDBRANCH   8   9
ENDBRANCH   7   8
ENDBRANCH   6   7
ENDBRANCH   5   6
ENDBRANCH   4   5
ENDBRANCH   3   4
ENDBRANCH   2   3
ENDBRANCH   1   2
BRANCH   1  17
ATOM     17  C   UNL     1      43.496   5.068 126.658  1.00  0.00     0.000 C 
BRANCH  17  18
ATOM     18  C   UNL     1      44.947   5.432 126.305  1.00  0.00     0.000 C 
BRANCH  18  19
ATOM     19  C   UNL     1      45.120   6.662 125.391  1.00  0.00     0.000 C 
BRANCH  19  20
ATOM     20  C   UNL     1      46.051   7.754 125.963  1.00  0.00     0.000 C 
BRANCH  20  21
ATOM     21  C   UNL     1      47.524   7.539 125.569  1.00  0.00     0.000 C 
BRANCH  21  22
ATOM     22  C   UNL     1      47.875   8.171 124.214  1.00  0.00    -0.000 C 
BRANCH  22  23
ATOM     23  C   UNL     1      46.934   9.324 123.832  1.00  0.00    -0.000 C 
BRANCH  23  24
ATOM     24  C   UNL     1      47.401  10.690 124.366  1.00  0.00    -0.000 C 
BRANCH  24  25
ATOM     25  C   UNL     1      46.481  11.872 123.985  1.00  0.00    -0.000 C 
BRANCH  25  26
ATOM     26  C   UNL     1      44.967  11.566 124.013  1.00  0.00    -0.000 C 
BRANCH  26  27
ATOM     27  C   UNL     1      44.246  11.626 122.653  1.00  0.00    -0.000 C 
BRANCH  27  28
ATOM     28  C   UNL     1      45.140  12.151 121.518  1.00  0.00    -0.000 C 
BRANCH  28  29
ATOM     29  C   UNL     1      45.517  11.050 120.511  1.00  0.00    -0.003 C 
ATOM     30  C   UNL     1      47.021  10.778 120.461  1.00  0.00     0.004 C 
ENDBRANCH  28  29
ENDBRANCH  27  28
ENDBRANCH  26  27
ENDBRANCH  25  26
ENDBRANCH  24  25
ENDBRANCH  23  24
ENDBRANCH  22  23
ENDBRANCH  21  22
ENDBRANCH  20  21
ENDBRANCH  19  20
ENDBRANCH  18  19
ENDBRANCH  17  18
ENDBRANCH   1  17
TORSDOF 26
ENDMDL
MODEL 2
REMARK VINA RESULT:    -5.219      4.517     10.877
REMARK INTER + INTRA:         -16.512
REMARK INTER:                 -13.671
REMARK INTRA:                  -2.841
REMARK UNBOUND:                -3.361
REMARK SMILES CCCCCCCCCCCCCCCCCCCCCCCCCCCC(=O)[O-]
REMARK SMILES IDX 15 1 16 2 17 3 18 4 19 5 20 6 21 7 22 8 23 9 24 10 25 11
REMARK SMILES IDX 26 12 27 13 28 14 29 15 30 16 14 17 13 18 12 19 11 20 10 21
REMARK SMILES IDX 9 22 8 23 7 24 6 25 5 26 4 27 3 28 2 29 1 30
REMARK H PARENT
REMARK Flexibility Score: inf
ROOT
ATOM      1  C   UNL     1      43.616   4.867 126.819  1.00  0.00     0.000 C 
ENDROOT
BRANCH   1   2
ATOM      2  C   UNL     1      44.856   5.345 126.035  1.00  0.00     0.000 C 
BRANCH   2   3
ATOM      3  C   UNL     1      44.712   6.787 125.521  1.00  0.00     0.000 C 
BRANCH   3   4
ATOM      4  C   UNL     1      46.062   7.519 125.536  1.00  0.00     0.000 C 
BRANCH   4   5
ATOM      5  C   UNL     1      46.475   8.026 124.143  1.00  0.00     0.000 C 
BRANCH   5   6
ATOM      6  C   UNL     1      47.659   9.014 124.139  1.00  0.00     0.000 C 
BRANCH   6   7
ATOM      7  C   UNL     1      47.861   9.786 122.820  1.00  0.00     0.000 C 
BRANCH   7   8
ATOM      8  C   UNL     1      47.256  11.204 122.797  1.00  0.00     0.000 C 
BRANCH   8   9
ATOM      9  C   UNL     1      46.565  11.634 124.105  1.00  0.00     0.000 C 
BRANCH   9  10
ATOM     10  C   UNL     1      45.033  11.689 123.976  1.00  0.00     0.000 C 
BRANCH  10  11
ATOM     11  C   UNL     1      44.559  11.490 122.519  1.00  0.00     0.000 C 
BRANCH  11  12
ATOM     12  C   UNL     1      44.354  12.806 121.746  1.00  0.00     0.006 C 
BRANCH  12  13
ATOM     13  C   UNL     1      43.945  12.593 120.284  1.00  0.00     0.053 C 
BRANCH  13  14
ATOM     14  C   UNL     1      45.106  12.085 119.488  1.00  0.00     0.041 C 
ATOM     15  O   UNL     1      45.132  10.887 119.100  1.00  0.00    -0.550 OA
ATOM     16  O   UNL     1      46.130  12.949 119.124  1.00  0.00    -0.550 OA
ENDBRANCH  13  14
ENDBRANCH  12  13
ENDBRANCH  11  12
ENDBRANCH  10  11
ENDBRANCH   9  10
ENDBRANCH   8   9
ENDBRANCH   7   8
ENDBRANCH   6   7
ENDBRANCH   5   6
ENDBRANCH   4   5
ENDBRANCH   3   4
ENDBRANCH   2   3
ENDBRANCH   1   2
BRANCH   1  17
ATOM     17  C   UNL     1      42.603   5.983 127.144  1.00  0.00     0.000 C 
BRANCH  17  18
ATOM     18  C   UNL     1      42.540   6.408 128.620  1.00  0.00     0.000 C 
BRANCH  18  19
ATOM     19  C   UNL     1      43.889   6.415 129.367  1.00  0.00     0.000 C 
BRANCH  19  20
ATOM     20  C   UNL     1      44.798   7.617 129.029  1.00  0.00     0.000 C 
BRANCH  20  21
ATOM     21  C   UNL     1      46.292   7.300 129.223  1.00  0.00     0.000 C 
BRANCH  21  22
ATOM     22  C   UNL     1      46.601   5.800 129.116  1.00  0.00    -0.000 C 
BRANCH  22  23
ATOM     23  C   UNL     1      47.886   5.402 129.860  1.00  0.00    -0.000 C 
BRANCH  23  24
ATOM     24  C   UNL     1      47.734   4.111 130.685  1.00  0.00    -0.000 C 
BRANCH  24  25
ATOM     25  C   UNL     1      46.978   4.294 132.020  1.00  0.00    -0.000 C 
BRANCH  25  26
ATOM     26  C   UNL     1      45.514   3.799 132.024  1.00  0.00    -0.000 C 
BRANCH  26  27
ATOM     27  C   UNL     1      45.060   3.060 133.297  1.00  0.00    -0.000 C 
BRANCH  27  28
ATOM     28  C   UNL     1      43.769   2.248 133.095  1.00  0.00    -0.000 C 
BRANCH  28  29
ATOM     29  C   UNL     1      44.040   0.851 132.511  1.00  0.00    -0.003 C 
ATOM     30  C   UNL     1      42.890   0.334 131.647  1.00  0.00     0.004 C 
ENDBRANCH  28  29
ENDBRANCH  27  28
ENDBRANCH  26  27
ENDBRANCH  25  26
ENDBRANCH  24  25
ENDBRANCH  23  24
ENDBRANCH  22  23
ENDBRANCH  21  22
ENDBRANCH  20  21
ENDBRANCH  19  20
ENDBRANCH  18  19
ENDBRANCH  17  18
ENDBRANCH   1  17
TORSDOF 26
ENDMDL
MODEL 3
REMARK VINA RESULT:    -5.154      1.239      2.193
REMARK INTER + INTRA:         -16.349
REMARK INTER:                 -13.918
REMARK INTRA:                  -2.431
REMARK UNBOUND:                -3.361
REMARK SMILES CCCCCCCCCCCCCCCCCCCCCCCCCCCC(=O)[O-]
REMARK SMILES IDX 15 1 16 2 17 3 18 4 19 5 20 6 21 7 22 8 23 9 24 10 25 11
REMARK SMILES IDX 26 12 27 13 28 14 29 15 30 16 14 17 13 18 12 19 11 20 10 21
REMARK SMILES IDX 9 22 8 23 7 24 6 25 5 26 4 27 3 28 2 29 1 30
REMARK H PARENT
REMARK Flexibility Score: inf
ROOT
ATOM      1  C   UNL     1      43.528   5.870 127.525  1.00  0.00     0.000 C 
ENDROOT
BRANCH   1   2
ATOM      2  C   UNL     1      43.598   6.725 128.808  1.00  0.00     0.000 C 
BRANCH   2   3
ATOM      3  C   UNL     1      44.066   5.919 130.032  1.00  0.00     0.000 C 
BRANCH   3   4
ATOM      4  C   UNL     1      45.115   4.870 129.637  1.00  0.00     0.000 C 
BRANCH   4   5
ATOM      5  C   UNL     1      46.546   5.298 130.006  1.00  0.00     0.000 C 
BRANCH   5   6
ATOM      6  C   UNL     1      47.120   4.617 131.266  1.00  0.00     0.000 C 
BRANCH   6   7
ATOM      7  C   UNL     1      46.161   3.644 131.978  1.00  0.00     0.000 C 
BRANCH   7   8
ATOM      8  C   UNL     1      45.348   4.260 133.135  1.00  0.00     0.000 C 
BRANCH   8   9
ATOM      9  C   UNL     1      45.990   4.109 134.527  1.00  0.00     0.000 C 
BRANCH   9  10
ATOM     10  C   UNL     1      46.246   2.640 134.906  1.00  0.00     0.000 C 
BRANCH  10  11
ATOM     11  C   UNL     1      45.076   2.030 135.711  1.00  0.00     0.000 C 
BRANCH  11  12
ATOM     12  C   UNL     1      44.337   0.898 134.974  1.00  0.00     0.006 C 
BRANCH  12  13
ATOM     13  C   UNL     1      43.429   1.400 133.846  1.00  0.00     0.053 C 
BRANCH  13  14
ATOM     14  C   UNL     1      43.689   0.632 132.589  1.00  0.00     0.041 C 
ATOM     15  O   UNL     1      44.838   0.175 132.351  1.00  0.00    -0.550 OA
ATOM     16  O   UNL     1      42.648   0.368 131.709  1.00  0.00    -0.550 OA
ENDBRANCH  13  14
ENDBRANCH  12  13
ENDBRANCH  11  12
ENDBRANCH  10  11
ENDBRANCH   9  10
ENDBRANCH   8   9
ENDBRANCH   7   8
ENDBRANCH   6   7
ENDBRANCH   5   6
ENDBRANCH   4   5
ENDBRANCH   3   4
ENDBRANCH   2   3
ENDBRANCH   1   2
BRANCH   1  17
ATOM     17  C   UNL     1      44.673   6.131 126.527  1.00  0.00     0.000 C 
BRANCH  17  18
ATOM     18  C   UNL     1      45.564   7.343 126.845  1.00  0.00     0.000 C 
BRANCH  18  19
ATOM     19  C   UNL     1      47.080   7.112 126.687  1.00  0.00     0.000 C 
BRANCH  19  20
ATOM     20  C   UNL     1      47.733   7.924 125.547  1.00  0.00     0.000 C 
BRANCH  20  21
ATOM     21  C   UNL     1      46.786   8.127 124.350  1.00  0.00     0.000 C 
BRANCH  21  22
ATOM     22  C   UNL     1      47.159   9.349 123.497  1.00  0.00    -0.000 C 
BRANCH  22  23
ATOM     23  C   UNL     1      47.320  10.630 124.330  1.00  0.00    -0.000 C 
BRANCH  23  24
ATOM     24  C   UNL     1      46.221  11.673 124.057  1.00  0.00    -0.000 C 
BRANCH  24  25
ATOM     25  C   UNL     1      45.174  11.236 123.009  1.00  0.00    -0.000 C 
BRANCH  25  26
ATOM     26  C   UNL     1      45.038  12.166 121.783  1.00  0.00    -0.000 C 
BRANCH  26  27
ATOM     27  C   UNL     1      45.053  11.470 120.408  1.00  0.00    -0.000 C 
BRANCH  27  28
ATOM     28  C   UNL     1      46.388  10.773 120.099  1.00  0.00    -0.000 C 
BRANCH  28  29
ATOM     29  C   UNL     1      46.602  10.558 118.591  1.00  0.00    -0.003 C 
ATOM     30  C   UNL     1      45.621   9.551 117.988  1.00  0.00     0.004 C 
ENDBRANCH  28  29
ENDBRANCH  27  28
ENDBRANCH  26  27
ENDBRANCH  25  26
ENDBRANCH  24  25
ENDBRANCH  23  24
ENDBRANCH  22  23
ENDBRANCH  21  22
ENDBRANCH  20  21
ENDBRANCH  19  20
ENDBRANCH  18  19
ENDBRANCH  17  18
ENDBRANCH   1  17
TORSDOF 26
ENDMDL
MODEL 4
REMARK VINA RESULT:    -5.140      1.896      4.062
REMARK INTER + INTRA:         -16.314
REMARK INTER:                 -13.851
REMARK INTRA:                  -2.463
REMARK UNBOUND:                -3.361
REMARK SMILES CCCCCCCCCCCCCCCCCCCCCCCCCCCC(=O)[O-]
REMARK SMILES IDX 15 1 16 2 17 3 18 4 19 5 20 6 21 7 22 8 23 9 24 10 25 11
REMARK SMILES IDX 26 12 27 13 28 14 29 15 30 16 14 17 13 18 12 19 11 20 10 21
REMARK SMILES IDX 9 22 8 23 7 24 6 25 5 26 4 27 3 28 2 29 1 30
REMARK H PARENT
REMARK Flexibility Score: inf
ROOT
ATOM      1  C   UNL     1      47.746   8.036 125.416  1.00  0.00     0.000 C 
ENDROOT
BRANCH   1   2
ATOM      2  C   UNL     1      47.244   7.161 126.584  1.00  0.00     0.000 C 
BRANCH   2   3
ATOM      3  C   UNL     1      45.710   7.148 126.697  1.00  0.00     0.000 C 
BRANCH   3   4
ATOM      4  C   UNL     1      45.263   7.056 128.163  1.00  0.00     0.000 C 
BRANCH   4   5
ATOM      5  C   UNL     1      44.555   5.727 128.481  1.00  0.00     0.000 C 
BRANCH   5   6
ATOM      6  C   UNL     1      45.146   4.949 129.675  1.00  0.00     0.000 C 
BRANCH   6   7
ATOM      7  C   UNL     1      46.670   5.092 129.858  1.00  0.00     0.000 C 
BRANCH   7   8
ATOM      8  C   UNL     1      47.175   4.884 131.301  1.00  0.00     0.000 C 
BRANCH   8   9
ATOM      9  C   UNL     1      47.845   3.522 131.562  1.00  0.00     0.000 C 
BRANCH   9  10
ATOM     10  C   UNL     1      46.991   2.602 132.452  1.00  0.00     0.000 C 
BRANCH  10  11
ATOM     11  C   UNL     1      46.123   3.396 133.453  1.00  0.00     0.000 C 
BRANCH  11  12
ATOM     12  C   UNL     1      44.647   2.960 133.480  1.00  0.00     0.006 C 
BRANCH  12  13
ATOM     13  C   UNL     1      44.175   2.334 132.162  1.00  0.00     0.053 C 
BRANCH  13  14
ATOM     14  C   UNL     1      43.738   0.921 132.386  1.00  0.00     0.041 C 
ATOM     15  O   UNL     1      43.067   0.319 131.507  1.00  0.00    -0.550 OA
ATOM     16  O   UNL     1      44.122   0.249 133.539  1.00  0.00    -0.550 OA
ENDBRANCH  13  14
ENDBRANCH  12  13
ENDBRANCH  11  12
ENDBRANCH  10  11
ENDBRANCH   9  10
ENDBRANCH   8   9
ENDBRANCH   7   8
ENDBRANCH   6   7
ENDBRANCH   5   6
ENDBRANCH   4   5
ENDBRANCH   3   4
ENDBRANCH   2   3
ENDBRANCH   1   2
BRANCH   1  17
ATOM     17  C   UNL     1      46.722   8.223 124.278  1.00  0.00     0.000 C 
BRANCH  17  18
ATOM     18  C   UNL     1      46.900   9.494 123.432  1.00  0.00     0.000 C 
BRANCH  18  19
ATOM     19  C   UNL     1      47.045  10.807 124.229  1.00  0.00     0.000 C 
BRANCH  19  20
ATOM     20  C   UNL     1      46.469  12.051 123.517  1.00  0.00     0.000 C 
BRANCH  20  21
ATOM     21  C   UNL     1      45.125  11.765 122.824  1.00  0.00     0.000 C 
BRANCH  21  22
ATOM     22  C   UNL     1      44.818  12.752 121.689  1.00  0.00    -0.000 C 
BRANCH  22  23
ATOM     23  C   UNL     1      44.812  12.084 120.305  1.00  0.00    -0.000 C 
BRANCH  23  24
ATOM     24  C   UNL     1      45.533  10.724 120.285  1.00  0.00    -0.000 C 
BRANCH  24  25
ATOM     25  C   UNL     1      46.743  10.657 119.326  1.00  0.00    -0.000 C 
BRANCH  25  26
ATOM     26  C   UNL     1      46.428  10.154 117.900  1.00  0.00    -0.000 C 
BRANCH  26  27
ATOM     27  C   UNL     1      45.108   9.376 117.740  1.00  0.00    -0.000 C 
BRANCH  27  28
ATOM     28  C   UNL     1      44.567   9.395 116.300  1.00  0.00    -0.000 C 
BRANCH  28  29
ATOM     29  C   UNL     1      43.177  10.045 116.205  1.00  0.00    -0.003 C 
ATOM     30  C   UNL     1      42.930  11.086 117.298  1.00  0.00     0.004 C 
ENDBRANCH  28  29
ENDBRANCH  27  28
ENDBRANCH  26  27
ENDBRANCH  25  26
ENDBRANCH  24  25
ENDBRANCH  23  24
ENDBRANCH  22  23
ENDBRANCH  21  22
ENDBRANCH  20  21
ENDBRANCH  19  20
ENDBRANCH  18  19
ENDBRANCH  17  18
ENDBRANCH   1  17
TORSDOF 26
ENDMDL
MODEL 5
REMARK VINA RESULT:    -5.089      4.824     12.011
REMARK INTER + INTRA:         -16.185
REMARK INTER:                 -13.635
REMARK INTRA:                  -2.550
REMARK UNBOUND:                -3.361
REMARK SMILES CCCCCCCCCCCCCCCCCCCCCCCCCCCC(=O)[O-]
REMARK SMILES IDX 15 1 16 2 17 3 18 4 19 5 20 6 21 7 22 8 23 9 24 10 25 11
REMARK SMILES IDX 26 12 27 13 28 14 29 15 30 16 14 17 13 18 12 19 11 20 10 21
REMARK SMILES IDX 9 22 8 23 7 24 6 25 5 26 4 27 3 28 2 29 1 30
REMARK H PARENT
REMARK Flexibility Score: inf
ROOT
ATOM      1  C   UNL     1      45.276   6.098 126.730  1.00  0.00     0.000 C 
ENDROOT
BRANCH   1   2
ATOM      2  C   UNL     1      45.889   7.509 126.621  1.00  0.00     0.000 C 
BRANCH   2   3
ATOM      3  C   UNL     1      47.416   7.479 126.439  1.00  0.00     0.000 C 
BRANCH   3   4
ATOM      4  C   UNL     1      47.832   8.168 125.131  1.00  0.00     0.000 C 
BRANCH   4   5
ATOM      5  C   UNL     1      46.627   8.532 124.246  1.00  0.00     0.000 C 
BRANCH   5   6
ATOM      6  C   UNL     1      46.815   9.799 123.386  1.00  0.00     0.000 C 
BRANCH   6   7
ATOM      7  C   UNL     1      46.561  11.131 124.119  1.00  0.00     0.000 C 
BRANCH   7   8
ATOM      8  C   UNL     1      45.120  11.670 124.008  1.00  0.00     0.000 C 
BRANCH   8   9
ATOM      9  C   UNL     1      44.374  11.263 122.724  1.00  0.00     0.000 C 
BRANCH   9  10
ATOM     10  C   UNL     1      44.377  12.373 121.658  1.00  0.00     0.000 C 
BRANCH  10  11
ATOM     11  C   UNL     1      45.479  12.162 120.596  1.00  0.00     0.000 C 
BRANCH  11  12
ATOM     12  C   UNL     1      45.571  10.718 120.072  1.00  0.00     0.006 C 
BRANCH  12  13
ATOM     13  C   UNL     1      46.047  10.629 118.618  1.00  0.00     0.053 C 
BRANCH  13  14
ATOM     14  C   UNL     1      45.003  11.171 117.695  1.00  0.00     0.041 C 
ATOM     15  O   UNL     1      43.783  11.073 117.992  1.00  0.00    -0.550 OA
ATOM     16  O   UNL     1      45.378  11.837 116.535  1.00  0.00    -0.550 OA
ENDBRANCH  13  14
ENDBRANCH  12  13
ENDBRANCH  11  12
ENDBRANCH  10  11
ENDBRANCH   9  10
ENDBRANCH   8   9
ENDBRANCH   7   8
ENDBRANCH   6   7
ENDBRANCH   5   6
ENDBRANCH   4   5
ENDBRANCH   3   4
ENDBRANCH   2   3
ENDBRANCH   1   2
BRANCH   1  17
ATOM     17  C   UNL     1      44.242   5.942 127.864  1.00  0.00     0.000 C 
BRANCH  17  18
ATOM     18  C   UNL     1      44.771   5.301 129.157  1.00  0.00     0.000 C 
BRANCH  18  19
ATOM     19  C   UNL     1      46.270   4.936 129.153  1.00  0.00     0.000 C 
BRANCH  19  20
ATOM     20  C   UNL     1      47.012   5.279 130.463  1.00  0.00     0.000 C 
BRANCH  20  21
ATOM     21  C   UNL     1      47.868   4.109 130.980  1.00  0.00     0.000 C 
BRANCH  21  22
ATOM     22  C   UNL     1      47.216   3.370 132.159  1.00  0.00    -0.000 C 
BRANCH  22  23
ATOM     23  C   UNL     1      45.979   4.099 132.707  1.00  0.00    -0.000 C 
BRANCH  23  24
ATOM     24  C   UNL     1      45.874   4.044 134.242  1.00  0.00    -0.000 C 
BRANCH  24  25
ATOM     25  C   UNL     1      46.049   2.630 134.842  1.00  0.00    -0.000 C 
BRANCH  25  26
ATOM     26  C   UNL     1      44.812   2.067 135.577  1.00  0.00    -0.000 C 
BRANCH  26  27
ATOM     27  C   UNL     1      43.944   1.083 134.770  1.00  0.00    -0.000 C 
BRANCH  27  28
ATOM     28  C   UNL     1      43.235   1.743 133.576  1.00  0.00    -0.000 C 
BRANCH  28  29
ATOM     29  C   UNL     1      43.711   1.178 132.226  1.00  0.00    -0.003 C 
ATOM     30  C   UNL     1      44.747   0.063 132.380  1.00  0.00     0.004 C 
ENDBRANCH  28  29
ENDBRANCH  27  28
ENDBRANCH  26  27
ENDBRANCH  25  26
ENDBRANCH  24  25
ENDBRANCH  23  24
ENDBRANCH  22  23
ENDBRANCH  21  22
ENDBRANCH  20  21
ENDBRANCH  19  20
ENDBRANCH  18  19
ENDBRANCH  17  18
ENDBRANCH   1  17
TORSDOF 26
ENDMDL
MODEL 6
REMARK VINA RESULT:    -4.973      5.358     12.411
REMARK INTER + INTRA:         -15.892
REMARK INTER:                 -13.984
REMARK INTRA:                  -1.908
REMARK UNBOUND:                -3.361
REMARK SMILES CCCCCCCCCCCCCCCCCCCCCCCCCCCC(=O)[O-]
REMARK SMILES IDX 15 1 16 2 17 3 18 4 19 5 20 6 21 7 22 8 23 9 24 10 25 11
REMARK SMILES IDX 26 12 27 13 28 14 29 15 30 16 14 17 13 18 12 19 11 20 10 21
REMARK SMILES IDX 9 22 8 23 7 24 6 25 5 26 4 27 3 28 2 29 1 30
REMARK H PARENT
REMARK Flexibility Score: inf
ROOT
ATOM      1  C   UNL     1      45.842   7.393 126.796  1.00  0.00     0.000 C 
ENDROOT
BRANCH   1   2
ATOM      2  C   UNL     1      47.360   7.133 126.702  1.00  0.00     0.000 C 
BRANCH   2   3
ATOM      3  C   UNL     1      48.046   8.011 125.642  1.00  0.00     0.000 C 
BRANCH   3   4
ATOM      4  C   UNL     1      47.043   8.482 124.578  1.00  0.00     0.000 C 
BRANCH   4   5
ATOM      5  C   UNL     1      47.732   9.105 123.352  1.00  0.00     0.000 C 
BRANCH   5   6
ATOM      6  C   UNL     1      47.181  10.482 122.930  1.00  0.00     0.000 C 
BRANCH   6   7
ATOM      7  C   UNL     1      46.677  11.367 124.087  1.00  0.00     0.000 C 
BRANCH   7   8
ATOM      8  C   UNL     1      45.154  11.609 124.107  1.00  0.00     0.000 C 
BRANCH   8   9
ATOM      9  C   UNL     1      44.453  11.426 122.748  1.00  0.00     0.000 C 
BRANCH   9  10
ATOM     10  C   UNL     1      44.395  12.728 121.931  1.00  0.00     0.000 C 
BRANCH  10  11
ATOM     11  C   UNL     1      43.889  12.495 120.490  1.00  0.00     0.000 C 
BRANCH  11  12
ATOM     12  C   UNL     1      43.152  13.703 119.885  1.00  0.00     0.006 C 
BRANCH  12  13
ATOM     13  C   UNL     1      43.711  15.051 120.353  1.00  0.00     0.053 C 
BRANCH  13  14
ATOM     14  C   UNL     1      44.845  15.476 119.476  1.00  0.00     0.041 C 
ATOM     15  O   UNL     1      45.942  15.829 119.985  1.00  0.00    -0.550 OA
ATOM     16  O   UNL     1      44.712  15.426 118.095  1.00  0.00    -0.550 OA
ENDBRANCH  13  14
ENDBRANCH  12  13
ENDBRANCH  11  12
ENDBRANCH  10  11
ENDBRANCH   9  10
ENDBRANCH   8   9
ENDBRANCH   7   8
ENDBRANCH   6   7
ENDBRANCH   5   6
ENDBRANCH   4   5
ENDBRANCH   3   4
ENDBRANCH   2   3
ENDBRANCH   1   2
BRANCH   1  17
ATOM     17  C   UNL     1      44.966   6.192 126.385  1.00  0.00     0.000 C 
BRANCH  17  18
ATOM     18  C   UNL     1      44.246   5.475 127.538  1.00  0.00     0.000 C 
BRANCH  18  19
ATOM     19  C   UNL     1      45.155   4.671 128.491  1.00  0.00     0.000 C 
BRANCH  19  20
ATOM     20  C   UNL     1      45.627   5.457 129.734  1.00  0.00     0.000 C 
BRANCH  20  21
ATOM     21  C   UNL     1      47.084   5.138 130.116  1.00  0.00     0.000 C 
BRANCH  21  22
ATOM     22  C   UNL     1      47.208   4.487 131.501  1.00  0.00    -0.000 C 
BRANCH  22  23
ATOM     23  C   UNL     1      45.845   4.129 132.115  1.00  0.00    -0.000 C 
BRANCH  23  24
ATOM     24  C   UNL     1      45.866   4.086 133.654  1.00  0.00    -0.000 C 
BRANCH  24  25
ATOM     25  C   UNL     1      45.952   2.663 134.250  1.00  0.00    -0.000 C 
BRANCH  25  26
ATOM     26  C   UNL     1      44.615   1.892 134.314  1.00  0.00    -0.000 C 
BRANCH  26  27
ATOM     27  C   UNL     1      44.399   0.833 133.216  1.00  0.00    -0.000 C 
BRANCH  27  28
ATOM     28  C   UNL     1      43.292   1.215 132.218  1.00  0.00    -0.000 C 
BRANCH  28  29
ATOM     29  C   UNL     1      42.201   0.136 132.112  1.00  0.00    -0.003 C 
ATOM     30  C   UNL     1      41.745  -0.387 133.475  1.00  0.00     0.004 C 
ENDBRANCH  28  29
ENDBRANCH  27  28
ENDBRANCH  26  27
ENDBRANCH  25  26
ENDBRANCH  24  25
ENDBRANCH  23  24
ENDBRANCH  22  23
ENDBRANCH  21  22
ENDBRANCH  20  21
ENDBRANCH  19  20
ENDBRANCH  18  19
ENDBRANCH  17  18
ENDBRANCH   1  17
TORSDOF 26
ENDMDL
MODEL 7
REMARK VINA RESULT:    -4.965      4.408     11.245
REMARK INTER + INTRA:         -15.874
REMARK INTER:                 -13.044
REMARK INTRA:                  -2.830
REMARK UNBOUND:                -3.361
REMARK SMILES CCCCCCCCCCCCCCCCCCCCCCCCCCCC(=O)[O-]
REMARK SMILES IDX 15 1 16 2 17 3 18 4 19 5 20 6 21 7 22 8 23 9 24 10 25 11
REMARK SMILES IDX 26 12 27 13 28 14 29 15 30 16 14 17 13 18 12 19 11 20 10 21
REMARK SMILES IDX 9 22 8 23 7 24 6 25 5 26 4 27 3 28 2 29 1 30
REMARK H PARENT
REMARK Flexibility Score: inf
ROOT
ATOM      1  C   UNL     1      43.093   5.602 126.452  1.00  0.00     0.000 C 
ENDROOT
BRANCH   1   2
ATOM      2  C   UNL     1      44.633   5.550 126.362  1.00  0.00     0.000 C 
BRANCH   2   3
ATOM      3  C   UNL     1      45.220   6.730 125.570  1.00  0.00     0.000 C 
BRANCH   3   4
ATOM      4  C   UNL     1      46.297   7.463 126.384  1.00  0.00     0.000 C 
BRANCH   4   5
ATOM      5  C   UNL     1      47.529   7.829 125.539  1.00  0.00     0.000 C 
BRANCH   5   6
ATOM      6  C   UNL     1      47.229   8.141 124.058  1.00  0.00     0.000 C 
BRANCH   6   7
ATOM      7  C   UNL     1      47.794   9.479 123.544  1.00  0.00     0.000 C 
BRANCH   7   8
ATOM      8  C   UNL     1      47.052  10.735 124.044  1.00  0.00     0.000 C 
BRANCH   8   9
ATOM      9  C   UNL     1      45.518  10.605 124.086  1.00  0.00     0.000 C 
BRANCH   9  10
ATOM     10  C   UNL     1      44.801  11.909 123.694  1.00  0.00     0.000 C 
BRANCH  10  11
ATOM     11  C   UNL     1      44.380  11.922 122.208  1.00  0.00     0.000 C 
BRANCH  11  12
ATOM     12  C   UNL     1      45.385  12.632 121.282  1.00  0.00     0.006 C 
BRANCH  12  13
ATOM     13  C   UNL     1      46.126  11.674 120.343  1.00  0.00     0.053 C 
BRANCH  13  14
ATOM     14  C   UNL     1      45.221  11.223 119.241  1.00  0.00     0.041 C 
ATOM     15  O   UNL     1      44.504  12.057 118.628  1.00  0.00    -0.550 OA
ATOM     16  O   UNL     1      45.213   9.890 118.851  1.00  0.00    -0.550 OA
ENDBRANCH  13  14
ENDBRANCH  12  13
ENDBRANCH  11  12
ENDBRANCH  10  11
ENDBRANCH   9  10
ENDBRANCH   8   9
ENDBRANCH   7   8
ENDBRANCH   6   7
ENDBRANCH   5   6
ENDBRANCH   4   5
ENDBRANCH   3   4
ENDBRANCH   2   3
ENDBRANCH   1   2
BRANCH   1  17
ATOM     17  C   UNL     1      42.553   6.048 127.826  1.00  0.00     0.000 C 
BRANCH  17  18
ATOM     18  C   UNL     1      43.589   6.679 128.769  1.00  0.00     0.000 C 
BRANCH  18  19
ATOM     19  C   UNL     1      44.452   5.683 129.571  1.00  0.00     0.000 C 
BRANCH  19  20
ATOM     20  C   UNL     1      45.930   6.105 129.730  1.00  0.00     0.000 C 
BRANCH  20  21
ATOM     21  C   UNL     1      46.900   4.917 129.600  1.00  0.00     0.000 C 
BRANCH  21  22
ATOM     22  C   UNL     1      47.731   4.685 130.871  1.00  0.00    -0.000 C 
BRANCH  22  23
ATOM     23  C   UNL     1      47.122   3.616 131.793  1.00  0.00    -0.000 C 
BRANCH  23  24
ATOM     24  C   UNL     1      46.455   4.207 133.048  1.00  0.00    -0.000 C 
BRANCH  24  25
ATOM     25  C   UNL     1      44.919   4.042 133.091  1.00  0.00    -0.000 C 
BRANCH  25  26
ATOM     26  C   UNL     1      44.333   3.046 132.066  1.00  0.00    -0.000 C 
BRANCH  26  27
ATOM     27  C   UNL     1      44.108   1.611 132.578  1.00  0.00    -0.000 C 
BRANCH  27  28
ATOM     28  C   UNL     1      43.260   1.553 133.860  1.00  0.00    -0.000 C 
BRANCH  28  29
ATOM     29  C   UNL     1      43.959   0.780 134.991  1.00  0.00    -0.003 C 
ATOM     30  C   UNL     1      44.780   1.684 135.911  1.00  0.00     0.004 C 
ENDBRANCH  28  29
ENDBRANCH  27  28
ENDBRANCH  26  27
ENDBRANCH  25  26
ENDBRANCH  24  25
ENDBRANCH  23  24
ENDBRANCH  22  23
ENDBRANCH  21  22
ENDBRANCH  20  21
ENDBRANCH  19  20
ENDBRANCH  18  19
ENDBRANCH  17  18
ENDBRANCH   1  17
TORSDOF 26
ENDMDL
MODEL 8
REMARK VINA RESULT:    -4.938      4.993     12.630
REMARK INTER + INTRA:         -15.806
REMARK INTER:                 -14.155
REMARK INTRA:                  -1.651
REMARK UNBOUND:                -3.361
REMARK SMILES CCCCCCCCCCCCCCCCCCCCCCCCCCCC(=O)[O-]
REMARK SMILES IDX 15 1 16 2 17 3 18 4 19 5 20 6 21 7 22 8 23 9 24 10 25 11
REMARK SMILES IDX 26 12 27 13 28 14 29 15 30 16 14 17 13 18 12 19 11 20 10 21
REMARK SMILES IDX 9 22 8 23 7 24 6 25 5 26 4 27 3 28 2 29 1 30
REMARK H PARENT
REMARK Flexibility Score: inf
ROOT
ATOM      1  C   UNL     1      46.327   6.494 127.131  1.00  0.00     0.000 C 
ENDROOT
BRANCH   1   2
ATOM      2  C   UNL     1      47.687   7.216 127.028  1.00  0.00     0.000 C 
BRANCH   2   3
ATOM      3  C   UNL     1      47.906   7.873 125.655  1.00  0.00     0.000 C 
BRANCH   3   4
ATOM      4  C   UNL     1      46.569   8.129 124.943  1.00  0.00     0.000 C 
BRANCH   4   5
ATOM      5  C   UNL     1      46.705   9.116 123.770  1.00  0.00     0.000 C 
BRANCH   5   6
ATOM      6  C   UNL     1      47.471  10.412 124.102  1.00  0.00     0.000 C 
BRANCH   6   7
ATOM      7  C   UNL     1      46.634  11.704 124.025  1.00  0.00     0.000 C 
BRANCH   7   8
ATOM      8  C   UNL     1      45.107  11.493 124.049  1.00  0.00     0.000 C 
BRANCH   8   9
ATOM      9  C   UNL     1      44.398  11.741 122.704  1.00  0.00     0.000 C 
BRANCH   9  10
ATOM     10  C   UNL     1      45.383  12.026 121.558  1.00  0.00     0.000 C 
BRANCH  10  11
ATOM     11  C   UNL     1      45.476  10.851 120.559  1.00  0.00     0.000 C 
BRANCH  11  12
ATOM     12  C   UNL     1      45.962  11.262 119.157  1.00  0.00     0.006 C 
BRANCH  12  13
ATOM     13  C   UNL     1      46.263  10.068 118.245  1.00  0.00     0.053 C 
BRANCH  13  14
ATOM     14  C   UNL     1      45.409  10.122 117.018  1.00  0.00     0.041 C 
ATOM     15  O   UNL     1      44.663   9.152 116.722  1.00  0.00    -0.550 OA
ATOM     16  O   UNL     1      45.392  11.268 116.234  1.00  0.00    -0.550 OA
ENDBRANCH  13  14
ENDBRANCH  12  13
ENDBRANCH  11  12
ENDBRANCH  10  11
ENDBRANCH   9  10
ENDBRANCH   8   9
ENDBRANCH   7   8
ENDBRANCH   6   7
ENDBRANCH   5   6
ENDBRANCH   4   5
ENDBRANCH   3   4
ENDBRANCH   2   3
ENDBRANCH   1   2
BRANCH   1  17
ATOM     17  C   UNL     1      46.313   5.307 128.116  1.00  0.00     0.000 C 
BRANCH  17  18
ATOM     18  C   UNL     1      47.468   5.277 129.130  1.00  0.00     0.000 C 
BRANCH  18  19
ATOM     19  C   UNL     1      47.075   4.905 130.574  1.00  0.00     0.000 C 
BRANCH  19  20
ATOM     20  C   UNL     1      48.031   3.902 131.256  1.00  0.00     0.000 C 
BRANCH  20  21
ATOM     21  C   UNL     1      47.318   3.023 132.300  1.00  0.00     0.000 C 
BRANCH  21  22
ATOM     22  C   UNL     1      46.089   3.708 132.916  1.00  0.00    -0.000 C 
BRANCH  22  23
ATOM     23  C   UNL     1      45.623   3.036 134.217  1.00  0.00    -0.000 C 
BRANCH  23  24
ATOM     24  C   UNL     1      44.632   1.881 133.980  1.00  0.00    -0.000 C 
BRANCH  24  25
ATOM     25  C   UNL     1      43.890   1.945 132.626  1.00  0.00    -0.000 C 
BRANCH  25  26
ATOM     26  C   UNL     1      43.468   0.580 132.040  1.00  0.00    -0.000 C 
BRANCH  26  27
ATOM     27  C   UNL     1      42.019   0.145 132.329  1.00  0.00    -0.000 C 
BRANCH  27  28
ATOM     28  C   UNL     1      41.884  -0.687 133.616  1.00  0.00    -0.000 C 
BRANCH  28  29
ATOM     29  C   UNL     1      40.416  -0.955 133.990  1.00  0.00    -0.003 C 
ATOM     30  C   UNL     1      40.176  -2.386 134.473  1.00  0.00     0.004 C 
ENDBRANCH  28  29
ENDBRANCH  27  28
ENDBRANCH  26  27
ENDBRANCH  25  26
ENDBRANCH  24  25
ENDBRANCH  23  24
ENDBRANCH  22  23
ENDBRANCH  21  22
ENDBRANCH  20  21
ENDBRANCH  19  20
ENDBRANCH  18  19
ENDBRANCH  17  18
ENDBRANCH   1  17
TORSDOF 26
ENDMDL
MODEL 9
REMARK VINA RESULT:    -4.898      1.935      4.360
REMARK INTER + INTRA:         -15.705
REMARK INTER:                 -13.373
REMARK INTRA:                  -2.332
REMARK UNBOUND:                -3.361
REMARK SMILES CCCCCCCCCCCCCCCCCCCCCCCCCCCC(=O)[O-]
REMARK SMILES IDX 15 1 16 2 17 3 18 4 19 5 20 6 21 7 22 8 23 9 24 10 25 11
REMARK SMILES IDX 26 12 27 13 28 14 29 15 30 16 14 17 13 18 12 19 11 20 10 21
REMARK SMILES IDX 9 22 8 23 7 24 6 25 5 26 4 27 3 28 2 29 1 30
REMARK H PARENT
REMARK Flexibility Score: inf
ROOT
ATOM      1  C   UNL     1      46.871   7.995 125.167  1.00  0.00     0.000 C 
ENDROOT
BRANCH   1   2
ATOM      2  C   UNL     1      47.848   7.506 126.257  1.00  0.00     0.000 C 
BRANCH   2   3
ATOM      3  C   UNL     1      47.125   6.914 127.478  1.00  0.00     0.000 C 
BRANCH   3   4
ATOM      4  C   UNL     1      45.655   7.357 127.520  1.00  0.00     0.000 C 
BRANCH   4   5
ATOM      5  C   UNL     1      44.678   6.178 127.364  1.00  0.00     0.000 C 
BRANCH   5   6
ATOM      6  C   UNL     1      43.586   6.095 128.449  1.00  0.00     0.000 C 
BRANCH   6   7
ATOM      7  C   UNL     1      44.094   5.759 129.865  1.00  0.00     0.000 C 
BRANCH   7   8
ATOM      8  C   UNL     1      45.219   4.706 129.920  1.00  0.00     0.000 C 
BRANCH   8   9
ATOM      9  C   UNL     1      46.518   5.181 130.598  1.00  0.00     0.000 C 
BRANCH   9  10
ATOM     10  C   UNL     1      47.079   4.151 131.593  1.00  0.00     0.000 C 
BRANCH  10  11
ATOM     11  C   UNL     1      46.079   3.822 132.724  1.00  0.00     0.000 C 
BRANCH  11  12
ATOM     12  C   UNL     1      45.618   2.353 132.741  1.00  0.00     0.006 C 
BRANCH  12  13
ATOM     13  C   UNL     1      44.094   2.195 132.715  1.00  0.00     0.053 C 
BRANCH  13  14
ATOM     14  C   UNL     1      43.723   0.754 132.567  1.00  0.00     0.041 C 
ATOM     15  O   UNL     1      43.999  -0.069 133.480  1.00  0.00    -0.550 OA
ATOM     16  O   UNL     1      43.020   0.329 131.448  1.00  0.00    -0.550 OA
ENDBRANCH  13  14
ENDBRANCH  12  13
ENDBRANCH  11  12
ENDBRANCH  10  11
ENDBRANCH   9  10
ENDBRANCH   8   9
ENDBRANCH   7   8
ENDBRANCH   6   7
ENDBRANCH   5   6
ENDBRANCH   4   5
ENDBRANCH   3   4
ENDBRANCH   2   3
ENDBRANCH   1   2
BRANCH   1  17
ATOM     17  C   UNL     1      47.543   8.340 123.822  1.00  0.00     0.000 C 
BRANCH  17  18
ATOM     18  C   UNL     1      47.772   9.838 123.564  1.00  0.00     0.000 C 
BRANCH  18  19
ATOM     19  C   UNL     1      47.776  10.263 122.081  1.00  0.00     0.000 C 
BRANCH  19  20
ATOM     20  C   UNL     1      46.928  11.517 121.776  1.00  0.00     0.000 C 
BRANCH  20  21
ATOM     21  C   UNL     1      45.694  11.632 122.689  1.00  0.00     0.000 C 
BRANCH  21  22
ATOM     22  C   UNL     1      44.432  12.073 121.933  1.00  0.00    -0.000 C 
BRANCH  22  23
ATOM     23  C   UNL     1      44.698  12.351 120.445  1.00  0.00    -0.000 C 
BRANCH  23  24
ATOM     24  C   UNL     1      43.428  12.742 119.666  1.00  0.00    -0.000 C 
BRANCH  24  25
ATOM     25  C   UNL     1      43.574  12.661 118.129  1.00  0.00    -0.000 C 
BRANCH  25  26
ATOM     26  C   UNL     1      43.006  11.380 117.478  1.00  0.00    -0.000 C 
BRANCH  26  27
ATOM     27  C   UNL     1      44.045  10.424 116.863  1.00  0.00    -0.000 C 
BRANCH  27  28
ATOM     28  C   UNL     1      44.746   9.540 117.909  1.00  0.00    -0.000 C 
BRANCH  28  29
ATOM     29  C   UNL     1      46.196   9.981 118.173  1.00  0.00    -0.003 C 
ATOM     30  C   UNL     1      46.844  10.651 116.961  1.00  0.00     0.004 C 
ENDBRANCH  28  29
ENDBRANCH  27  28
ENDBRANCH  26  27
ENDBRANCH  25  26
ENDBRANCH  24  25
ENDBRANCH  23  24
ENDBRANCH  22  23
ENDBRANCH  21  22
ENDBRANCH  20  21
ENDBRANCH  19  20
ENDBRANCH  18  19
ENDBRANCH  17  18
ENDBRANCH   1  17
TORSDOF 26
ENDMDL
