MODEL 1
REMARK VINA RESULT:    -5.698      0.000      0.000
REMARK INTER + INTRA:         -11.844
REMARK INTER:                 -10.695
REMARK INTRA:                  -1.149
REMARK UNBOUND:                -1.149
REMARK SMILES CCCCCCCCC=CCCCCCCCC(=O)[O-]
REMARK SMILES IDX 10 1 9 2 11 3 12 4 13 5 14 6 15 7 16 8 17 9 18 10 19 11
REMARK SMILES IDX 20 12 8 13 7 14 6 15 5 16 4 17 3 18 2 19 1 20
REMARK H PARENT
REMARK Flexibility Score: inf
ROOT
ATOM      1  C   UNL     1      23.111  12.352  34.115  1.00  0.00    -0.031 C 
ATOM      2  C   UNL     1      22.498  12.796  35.221  1.00  0.00    -0.031 C 
ENDROOT
BRANCH   1   3
ATOM      3  C   UNL     1      24.574  11.996  34.138  1.00  0.00     0.027 C 
BRANCH   3   4
ATOM      4  C   UNL     1      25.186  12.111  35.544  1.00  0.00     0.004 C 
BRANCH   4   5
ATOM      5  C   UNL     1      26.093  13.342  35.735  1.00  0.00     0.000 C 
BRANCH   5   6
ATOM      6  C   UNL     1      27.500  13.141  35.154  1.00  0.00     0.000 C 
BRANCH   6   7
ATOM      7  C   UNL     1      27.792  14.167  34.053  1.00  0.00     0.000 C 
BRANCH   7   8
ATOM      8  C   UNL     1      28.149  13.471  32.731  1.00  0.00     0.006 C 
BRANCH   8   9
ATOM      9  C   UNL     1      27.929  11.954  32.795  1.00  0.00     0.053 C 
BRANCH   9  10
ATOM     10  C   UNL     1      27.534  11.393  31.463  1.00  0.00     0.041 C 
ATOM     11  O   UNL     1      28.256  11.592  30.451  1.00  0.00    -0.550 OA
ATOM     12  O   UNL     1      26.344  10.687  31.331  1.00  0.00    -0.550 OA
ENDBRANCH   9  10
ENDBRANCH   8   9
ENDBRANCH   7   8
ENDBRANCH   6   7
ENDBRANCH   5   6
ENDBRANCH   4   5
ENDBRANCH   3   4
ENDBRANCH   1   3
BRANCH   2  13
ATOM     13  C   UNL     1      21.037  13.161  35.223  1.00  0.00     0.027 C 
BRANCH  13  14
ATOM     14  C   UNL     1      20.174  12.107  35.934  1.00  0.00     0.004 C 
BRANCH  14  15
ATOM     15  C   UNL     1      18.881  12.711  36.508  1.00  0.00     0.000 C 
BRANCH  15  16
ATOM     16  C   UNL     1      18.018  11.672  37.241  1.00  0.00     0.000 C 
BRANCH  16  17
ATOM     17  C   UNL     1      18.018  10.305  36.542  1.00  0.00    -0.000 C 
BRANCH  17  18
ATOM     18  C   UNL     1      18.347   9.182  37.532  1.00  0.00    -0.000 C 
BRANCH  18  19
ATOM     19  C   UNL     1      19.516   8.329  37.028  1.00  0.00    -0.003 C 
ATOM     20  C   UNL     1      19.230   6.840  37.208  1.00  0.00     0.004 C 
ENDBRANCH  18  19
ENDBRANCH  17  18
ENDBRANCH  16  17
ENDBRANCH  15  16
ENDBRANCH  14  15
ENDBRANCH  13  14
ENDBRANCH   2  13
TORSDOF 15
ENDMDL
MODEL 2
REMARK VINA RESULT:    -5.693      3.548      8.540
REMARK INTER + INTRA:         -11.833
REMARK INTER:                 -10.013
REMARK INTRA:                  -1.821
REMARK UNBOUND:                -1.149
REMARK SMILES CCCCCCCCC=CCCCCCCCC(=O)[O-]
REMARK SMILES IDX 10 1 9 2 11 3 12 4 13 5 14 6 15 7 16 8 17 9 18 10 19 11
REMARK SMILES IDX 20 12 8 13 7 14 6 15 5 16 4 17 3 18 2 19 1 20
REMARK H PARENT
REMARK Flexibility Score: inf
ROOT
ATOM      1  C   UNL     1      25.160  10.642  31.089  1.00  0.00    -0.031 C 
ATOM      2  C   UNL     1      25.728  11.505  30.234  1.00  0.00    -0.031 C 
ENDROOT
BRANCH   1   3
ATOM      3  C   UNL     1      24.156  11.116  32.105  1.00  0.00     0.027 C 
BRANCH   3   4
ATOM      4  C   UNL     1      24.722  12.208  33.027  1.00  0.00     0.004 C 
BRANCH   4   5
ATOM      5  C   UNL     1      24.854  11.780  34.501  1.00  0.00     0.000 C 
BRANCH   5   6
ATOM      6  C   UNL     1      24.200  12.776  35.471  1.00  0.00     0.000 C 
BRANCH   6   7
ATOM      7  C   UNL     1      22.782  12.330  35.844  1.00  0.00     0.000 C 
BRANCH   7   8
ATOM      8  C   UNL     1      21.745  12.935  34.886  1.00  0.00     0.006 C 
BRANCH   8   9
ATOM      9  C   UNL     1      20.509  13.464  35.625  1.00  0.00     0.053 C 
BRANCH   9  10
ATOM     10  C   UNL     1      19.547  12.365  35.960  1.00  0.00     0.041 C 
ATOM     11  O   UNL     1      18.699  12.523  36.877  1.00  0.00    -0.550 OA
ATOM     12  O   UNL     1      19.616  11.151  35.288  1.00  0.00    -0.550 OA
ENDBRANCH   9  10
ENDBRANCH   8   9
ENDBRANCH   7   8
ENDBRANCH   6   7
ENDBRANCH   5   6
ENDBRANCH   4   5
ENDBRANCH   3   4
ENDBRANCH   1   3
BRANCH   2  13
ATOM     13  C   UNL     1      26.735  11.056  29.210  1.00  0.00     0.027 C 
BRANCH  13  14
ATOM     14  C   UNL     1      28.125  11.663  29.454  1.00  0.00     0.004 C 
BRANCH  14  15
ATOM     15  C   UNL     1      28.045  13.015  30.184  1.00  0.00     0.000 C 
BRANCH  15  16
ATOM     16  C   UNL     1      28.887  13.042  31.469  1.00  0.00     0.000 C 
BRANCH  16  17
ATOM     17  C   UNL     1      28.253  12.231  32.609  1.00  0.00    -0.000 C 
BRANCH  17  18
ATOM     18  C   UNL     1      28.530  12.885  33.968  1.00  0.00    -0.000 C 
BRANCH  18  19
ATOM     19  C   UNL     1      27.703  14.163  34.143  1.00  0.00    -0.003 C 
ATOM     20  C   UNL     1      27.713  14.632  35.595  1.00  0.00     0.004 C 
ENDBRANCH  18  19
ENDBRANCH  17  18
ENDBRANCH  16  17
ENDBRANCH  15  16
ENDBRANCH  14  15
ENDBRANCH  13  14
ENDBRANCH   2  13
TORSDOF 15
ENDMDL
MODEL 3
REMARK VINA RESULT:    -5.574      3.077      5.878
REMARK INTER + INTRA:         -11.611
REMARK INTER:                  -9.656
REMARK INTRA:                  -1.955
REMARK UNBOUND:                -1.149
REMARK SMILES CCCCCCCCC=CCCCCCCCC(=O)[O-]
REMARK SMILES IDX 10 1 9 2 11 3 12 4 13 5 14 6 15 7 16 8 17 9 18 10 19 11
REMARK SMILES IDX 20 12 8 13 7 14 6 15 5 16 4 17 3 18 2 19 1 20
REMARK H PARENT
REMARK Flexibility Score: inf
ROOT
ATOM      1  C   UNL     1      28.679  12.891  32.550  1.00  0.00    -0.031 C 
ATOM      2  C   UNL     1      27.991  13.634  33.429  1.00  0.00    -0.031 C 
ENDROOT
BRANCH   1   3
ATOM      3  C   UNL     1      28.752  13.289  31.100  1.00  0.00     0.027 C 
BRANCH   3   4
ATOM      4  C   UNL     1      28.591  12.090  30.152  1.00  0.00     0.004 C 
BRANCH   4   5
ATOM      5  C   UNL     1      27.254  12.070  29.385  1.00  0.00     0.000 C 
BRANCH   5   6
ATOM      6  C   UNL     1      26.367  13.283  29.706  1.00  0.00     0.000 C 
BRANCH   6   7
ATOM      7  C   UNL     1      25.005  12.838  30.252  1.00  0.00     0.000 C 
BRANCH   7   8
ATOM      8  C   UNL     1      25.126  12.357  31.706  1.00  0.00     0.006 C 
BRANCH   8   9
ATOM      9  C   UNL     1      24.822  10.861  31.851  1.00  0.00     0.053 C 
BRANCH   9  10
ATOM     10  C   UNL     1      23.508  10.497  31.229  1.00  0.00     0.041 C 
ATOM     11  O   UNL     1      22.430  10.884  31.752  1.00  0.00    -0.550 OA
ATOM     12  O   UNL     1      23.474   9.693  30.096  1.00  0.00    -0.550 OA
ENDBRANCH   9  10
ENDBRANCH   8   9
ENDBRANCH   7   8
ENDBRANCH   6   7
ENDBRANCH   5   6
ENDBRANCH   4   5
ENDBRANCH   3   4
ENDBRANCH   1   3
BRANCH   2  13
ATOM     13  C   UNL     1      27.901  13.257  34.884  1.00  0.00     0.027 C 
BRANCH  13  14
ATOM     14  C   UNL     1      27.146  14.307  35.713  1.00  0.00     0.004 C 
BRANCH  14  15
ATOM     15  C   UNL     1      25.868  13.731  36.349  1.00  0.00     0.000 C 
BRANCH  15  16
ATOM     16  C   UNL     1      25.184  12.685  35.455  1.00  0.00     0.000 C 
BRANCH  16  17
ATOM     17  C   UNL     1      23.712  12.458  35.831  1.00  0.00    -0.000 C 
BRANCH  17  18
ATOM     18  C   UNL     1      22.797  12.674  34.620  1.00  0.00    -0.000 C 
BRANCH  18  19
ATOM     19  C   UNL     1      21.322  12.636  35.031  1.00  0.00    -0.003 C 
ATOM     20  C   UNL     1      20.678  14.014  34.903  1.00  0.00     0.004 C 
ENDBRANCH  18  19
ENDBRANCH  17  18
ENDBRANCH  16  17
ENDBRANCH  15  16
ENDBRANCH  14  15
ENDBRANCH  13  14
ENDBRANCH   2  13
TORSDOF 15
ENDMDL
MODEL 4
REMARK VINA RESULT:    -5.566      3.431      8.805
REMARK INTER + INTRA:         -11.597
REMARK INTER:                  -9.958
REMARK INTRA:                  -1.639
REMARK UNBOUND:                -1.149
REMARK SMILES CCCCCCCCC=CCCCCCCCC(=O)[O-]
REMARK SMILES IDX 10 1 9 2 11 3 12 4 13 5 14 6 15 7 16 8 17 9 18 10 19 11
REMARK SMILES IDX 20 12 8 13 7 14 6 15 5 16 4 17 3 18 2 19 1 20
REMARK H PARENT
REMARK Flexibility Score: inf
ROOT
ATOM      1  C   UNL     1      24.292  12.235  33.732  1.00  0.00    -0.031 C 
ATOM      2  C   UNL     1      25.156  11.357  33.203  1.00  0.00    -0.031 C 
ENDROOT
BRANCH   1   3
ATOM      3  C   UNL     1      24.249  12.469  35.218  1.00  0.00     0.027 C 
BRANCH   3   4
ATOM      4  C   UNL     1      22.820  12.698  35.737  1.00  0.00     0.004 C 
BRANCH   4   5
ATOM      5  C   UNL     1      21.744  12.702  34.635  1.00  0.00     0.000 C 
BRANCH   5   6
ATOM      6  C   UNL     1      20.637  13.738  34.888  1.00  0.00     0.000 C 
BRANCH   6   7
ATOM      7  C   UNL     1      19.636  13.229  35.931  1.00  0.00     0.000 C 
BRANCH   7   8
ATOM      8  C   UNL     1      19.072  11.858  35.530  1.00  0.00     0.006 C 
BRANCH   8   9
ATOM      9  C   UNL     1      18.073  11.316  36.560  1.00  0.00     0.053 C 
BRANCH   9  10
ATOM     10  C   UNL     1      18.430   9.931  37.008  1.00  0.00     0.041 C 
ATOM     11  O   UNL     1      19.026   9.146  36.225  1.00  0.00    -0.550 OA
ATOM     12  O   UNL     1      18.064   9.494  38.275  1.00  0.00    -0.550 OA
ENDBRANCH   9  10
ENDBRANCH   8   9
ENDBRANCH   7   8
ENDBRANCH   6   7
ENDBRANCH   5   6
ENDBRANCH   4   5
ENDBRANCH   3   4
ENDBRANCH   1   3
BRANCH   2  13
ATOM     13  C   UNL     1      25.218  11.103  31.720  1.00  0.00     0.027 C 
BRANCH  13  14
ATOM     14  C   UNL     1      26.659  11.103  31.188  1.00  0.00     0.004 C 
BRANCH  14  15
ATOM     15  C   UNL     1      27.136  12.517  30.810  1.00  0.00     0.000 C 
BRANCH  15  16
ATOM     16  C   UNL     1      28.405  12.934  31.568  1.00  0.00     0.000 C 
BRANCH  16  17
ATOM     17  C   UNL     1      28.097  13.612  32.911  1.00  0.00    -0.000 C 
BRANCH  17  18
ATOM     18  C   UNL     1      28.477  12.701  34.085  1.00  0.00    -0.000 C 
BRANCH  18  19
ATOM     19  C   UNL     1      27.817  13.175  35.385  1.00  0.00    -0.003 C 
ATOM     20  C   UNL     1      27.703  14.696  35.422  1.00  0.00     0.004 C 
ENDBRANCH  18  19
ENDBRANCH  17  18
ENDBRANCH  16  17
ENDBRANCH  15  16
ENDBRANCH  14  15
ENDBRANCH  13  14
ENDBRANCH   2  13
TORSDOF 15
ENDMDL
MODEL 5
REMARK VINA RESULT:    -5.555      3.562      7.620
REMARK INTER + INTRA:         -11.576
REMARK INTER:                  -9.777
REMARK INTRA:                  -1.798
REMARK UNBOUND:                -1.149
REMARK SMILES CCCCCCCCC=CCCCCCCCC(=O)[O-]
REMARK SMILES IDX 10 1 9 2 11 3 12 4 13 5 14 6 15 7 16 8 17 9 18 10 19 11
REMARK SMILES IDX 20 12 8 13 7 14 6 15 5 16 4 17 3 18 2 19 1 20
REMARK H PARENT
REMARK Flexibility Score: inf
ROOT
ATOM      1  C   UNL     1      27.801  13.758  33.253  1.00  0.00    -0.031 C 
ATOM      2  C   UNL     1      28.440  12.857  32.492  1.00  0.00    -0.031 C 
ENDROOT
BRANCH   1   3
ATOM      3  C   UNL     1      27.383  13.417  34.658  1.00  0.00     0.027 C 
BRANCH   3   4
ATOM      4  C   UNL     1      27.106  11.917  34.844  1.00  0.00     0.004 C 
BRANCH   4   5
ATOM      5  C   UNL     1      25.671  11.595  35.302  1.00  0.00     0.000 C 
BRANCH   5   6
ATOM      6  C   UNL     1      24.642  12.621  34.805  1.00  0.00     0.000 C 
BRANCH   6   7
ATOM      7  C   UNL     1      23.365  12.576  35.652  1.00  0.00     0.000 C 
BRANCH   7   8
ATOM      8  C   UNL     1      22.113  12.627  34.765  1.00  0.00     0.006 C 
BRANCH   8   9
ATOM      9  C   UNL     1      20.964  13.401  35.424  1.00  0.00     0.053 C 
BRANCH   9  10
ATOM     10  C   UNL     1      19.898  12.482  35.940  1.00  0.00     0.041 C 
ATOM     11  O   UNL     1      18.829  12.953  36.412  1.00  0.00    -0.550 OA
ATOM     12  O   UNL     1      20.103  11.108  35.938  1.00  0.00    -0.550 OA
ENDBRANCH   9  10
ENDBRANCH   8   9
ENDBRANCH   7   8
ENDBRANCH   6   7
ENDBRANCH   5   6
ENDBRANCH   4   5
ENDBRANCH   3   4
ENDBRANCH   1   3
BRANCH   2  13
ATOM     13  C   UNL     1      28.866  13.173  31.083  1.00  0.00     0.027 C 
BRANCH  13  14
ATOM     14  C   UNL     1      28.363  12.129  30.074  1.00  0.00     0.004 C 
BRANCH  14  15
ATOM     15  C   UNL     1      26.832  12.166  29.920  1.00  0.00     0.000 C 
BRANCH  15  16
ATOM     16  C   UNL     1      26.189  10.781  30.081  1.00  0.00     0.000 C 
BRANCH  16  17
ATOM     17  C   UNL     1      25.855  10.450  31.543  1.00  0.00    -0.000 C 
BRANCH  17  18
ATOM     18  C   UNL     1      24.456  10.957  31.915  1.00  0.00    -0.000 C 
BRANCH  18  19
ATOM     19  C   UNL     1      23.411  10.481  30.901  1.00  0.00    -0.003 C 
ATOM     20  C   UNL     1      21.994  10.733  31.411  1.00  0.00     0.004 C 
ENDBRANCH  18  19
ENDBRANCH  17  18
ENDBRANCH  16  17
ENDBRANCH  15  16
ENDBRANCH  14  15
ENDBRANCH  13  14
ENDBRANCH   2  13
TORSDOF 15
ENDMDL
MODEL 6
REMARK VINA RESULT:    -5.519      1.599      3.124
REMARK INTER + INTRA:         -11.507
REMARK INTER:                  -9.455
REMARK INTRA:                  -2.052
REMARK UNBOUND:                -1.149
REMARK SMILES CCCCCCCCC=CCCCCCCCC(=O)[O-]
REMARK SMILES IDX 10 1 9 2 11 3 12 4 13 5 14 6 15 7 16 8 17 9 18 10 19 11
REMARK SMILES IDX 20 12 8 13 7 14 6 15 5 16 4 17 3 18 2 19 1 20
REMARK H PARENT
REMARK Flexibility Score: inf
ROOT
ATOM      1  C   UNL     1      24.179  12.274  34.074  1.00  0.00    -0.031 C 
ATOM      2  C   UNL     1      24.467  11.555  32.980  1.00  0.00    -0.031 C 
ENDROOT
BRANCH   1   3
ATOM      3  C   UNL     1      25.039  12.174  35.306  1.00  0.00     0.027 C 
BRANCH   3   4
ATOM      4  C   UNL     1      26.178  11.154  35.149  1.00  0.00     0.004 C 
BRANCH   4   5
ATOM      5  C   UNL     1      27.569  11.789  34.961  1.00  0.00     0.000 C 
BRANCH   5   6
ATOM      6  C   UNL     1      27.561  13.311  35.167  1.00  0.00     0.000 C 
BRANCH   6   7
ATOM      7  C   UNL     1      27.820  14.046  33.846  1.00  0.00     0.000 C 
BRANCH   7   8
ATOM      8  C   UNL     1      28.408  13.095  32.793  1.00  0.00     0.006 C 
BRANCH   8   9
ATOM      9  C   UNL     1      27.539  13.015  31.531  1.00  0.00     0.053 C 
BRANCH   9  10
ATOM     10  C   UNL     1      27.773  11.743  30.774  1.00  0.00     0.041 C 
ATOM     11  O   UNL     1      27.183  10.684  31.116  1.00  0.00    -0.550 OA
ATOM     12  O   UNL     1      28.675  11.718  29.717  1.00  0.00    -0.550 OA
ENDBRANCH   9  10
ENDBRANCH   8   9
ENDBRANCH   7   8
ENDBRANCH   6   7
ENDBRANCH   5   6
ENDBRANCH   4   5
ENDBRANCH   3   4
ENDBRANCH   1   3
BRANCH   2  13
ATOM     13  C   UNL     1      23.622  11.635  31.736  1.00  0.00     0.027 C 
BRANCH  13  14
ATOM     14  C   UNL     1      22.389  10.721  31.808  1.00  0.00     0.004 C 
BRANCH  14  15
ATOM     15  C   UNL     1      21.085  11.522  31.970  1.00  0.00     0.000 C 
BRANCH  15  16
ATOM     16  C   UNL     1      20.516  11.441  33.396  1.00  0.00     0.000 C 
BRANCH  16  17
ATOM     17  C   UNL     1      20.725  12.739  34.190  1.00  0.00    -0.000 C 
BRANCH  17  18
ATOM     18  C   UNL     1      20.517  12.503  35.691  1.00  0.00    -0.000 C 
BRANCH  18  19
ATOM     19  C   UNL     1      19.954  11.102  35.955  1.00  0.00    -0.003 C 
ATOM     20  C   UNL     1      18.611  11.175  36.676  1.00  0.00     0.004 C 
ENDBRANCH  18  19
ENDBRANCH  17  18
ENDBRANCH  16  17
ENDBRANCH  15  16
ENDBRANCH  14  15
ENDBRANCH  13  14
ENDBRANCH   2  13
TORSDOF 15
ENDMDL
MODEL 7
REMARK VINA RESULT:    -5.502      2.139      3.847
REMARK INTER + INTRA:         -11.475
REMARK INTER:                  -9.875
REMARK INTRA:                  -1.600
REMARK UNBOUND:                -1.149
REMARK SMILES CCCCCCCCC=CCCCCCCCC(=O)[O-]
REMARK SMILES IDX 10 1 9 2 11 3 12 4 13 5 14 6 15 7 16 8 17 9 18 10 19 11
REMARK SMILES IDX 20 12 8 13 7 14 6 15 5 16 4 17 3 18 2 19 1 20
REMARK H PARENT
REMARK Flexibility Score: inf
ROOT
ATOM      1  C   UNL     1      24.949  11.623  32.533  1.00  0.00    -0.031 C 
ATOM      2  C   UNL     1      24.853  11.617  33.870  1.00  0.00    -0.031 C 
ENDROOT
BRANCH   1   3
ATOM      3  C   UNL     1      25.804  10.611  31.819  1.00  0.00     0.027 C 
BRANCH   3   4
ATOM      4  C   UNL     1      26.035  10.971  30.342  1.00  0.00     0.004 C 
BRANCH   4   5
ATOM      5  C   UNL     1      26.789  12.297  30.128  1.00  0.00     0.000 C 
BRANCH   5   6
ATOM      6  C   UNL     1      28.297  12.173  30.391  1.00  0.00     0.000 C 
BRANCH   6   7
ATOM      7  C   UNL     1      28.781  13.270  31.347  1.00  0.00     0.000 C 
BRANCH   7   8
ATOM      8  C   UNL     1      28.494  12.892  32.808  1.00  0.00     0.006 C 
BRANCH   8   9
ATOM      9  C   UNL     1      27.638  13.945  33.523  1.00  0.00     0.053 C 
BRANCH   9  10
ATOM     10  C   UNL     1      27.782  13.862  35.013  1.00  0.00     0.041 C 
ATOM     11  O   UNL     1      27.766  12.742  35.589  1.00  0.00    -0.550 OA
ATOM     12  O   UNL     1      27.889  15.023  35.768  1.00  0.00    -0.550 OA
ENDBRANCH   9  10
ENDBRANCH   8   9
ENDBRANCH   7   8
ENDBRANCH   6   7
ENDBRANCH   5   6
ENDBRANCH   4   5
ENDBRANCH   3   4
ENDBRANCH   1   3
BRANCH   2  13
ATOM     13  C   UNL     1      24.006  12.619  34.608  1.00  0.00     0.027 C 
BRANCH  13  14
ATOM     14  C   UNL     1      22.514  12.486  34.266  1.00  0.00     0.004 C 
BRANCH  14  15
ATOM     15  C   UNL     1      21.618  12.704  35.497  1.00  0.00     0.000 C 
BRANCH  15  16
ATOM     16  C   UNL     1      20.415  13.612  35.199  1.00  0.00     0.000 C 
BRANCH  16  17
ATOM     17  C   UNL     1      19.075  12.865  35.282  1.00  0.00    -0.000 C 
BRANCH  17  18
ATOM     18  C   UNL     1      18.699  12.574  36.740  1.00  0.00    -0.000 C 
BRANCH  18  19
ATOM     19  C   UNL     1      18.272  11.113  36.917  1.00  0.00    -0.003 C 
ATOM     20  C   UNL     1      18.976  10.207  35.909  1.00  0.00     0.004 C 
ENDBRANCH  18  19
ENDBRANCH  17  18
ENDBRANCH  16  17
ENDBRANCH  15  16
ENDBRANCH  14  15
ENDBRANCH  13  14
ENDBRANCH   2  13
TORSDOF 15
ENDMDL
MODEL 8
REMARK VINA RESULT:    -5.498      3.528      8.882
REMARK INTER + INTRA:         -11.468
REMARK INTER:                 -10.024
REMARK INTRA:                  -1.444
REMARK UNBOUND:                -1.149
REMARK SMILES CCCCCCCCC=CCCCCCCCC(=O)[O-]
REMARK SMILES IDX 10 1 9 2 11 3 12 4 13 5 14 6 15 7 16 8 17 9 18 10 19 11
REMARK SMILES IDX 20 12 8 13 7 14 6 15 5 16 4 17 3 18 2 19 1 20
REMARK H PARENT
REMARK Flexibility Score: inf
ROOT
ATOM      1  C   UNL     1      25.357  11.796  35.465  1.00  0.00    -0.031 C 
ATOM      2  C   UNL     1      26.501  12.390  35.096  1.00  0.00    -0.031 C 
ENDROOT
BRANCH   1   3
ATOM      3  C   UNL     1      24.126  12.614  35.753  1.00  0.00     0.027 C 
BRANCH   3   4
ATOM      4  C   UNL     1      23.097  12.550  34.612  1.00  0.00     0.004 C 
BRANCH   4   5
ATOM      5  C   UNL     1      21.703  13.087  34.993  1.00  0.00     0.000 C 
BRANCH   5   6
ATOM      6  C   UNL     1      20.833  12.035  35.697  1.00  0.00     0.000 C 
BRANCH   6   7
ATOM      7  C   UNL     1      19.497  12.638  36.145  1.00  0.00     0.000 C 
BRANCH   7   8
ATOM      8  C   UNL     1      18.580  11.562  36.746  1.00  0.00     0.006 C 
BRANCH   8   9
ATOM      9  C   UNL     1      18.847  10.173  36.152  1.00  0.00     0.053 C 
BRANCH   9  10
ATOM     10  C   UNL     1      18.648   9.086  37.166  1.00  0.00     0.041 C 
ATOM     11  O   UNL     1      17.898   9.276  38.159  1.00  0.00    -0.550 OA
ATOM     12  O   UNL     1      19.326   7.881  37.035  1.00  0.00    -0.550 OA
ENDBRANCH   9  10
ENDBRANCH   8   9
ENDBRANCH   7   8
ENDBRANCH   6   7
ENDBRANCH   5   6
ENDBRANCH   4   5
ENDBRANCH   3   4
ENDBRANCH   1   3
BRANCH   2  13
ATOM     13  C   UNL     1      27.746  11.595  34.805  1.00  0.00     0.027 C 
BRANCH  13  14
ATOM     14  C   UNL     1      28.711  12.344  33.873  1.00  0.00     0.004 C 
BRANCH  14  15
ATOM     15  C   UNL     1      27.970  13.306  32.928  1.00  0.00     0.000 C 
BRANCH  15  16
ATOM     16  C   UNL     1      28.631  13.400  31.543  1.00  0.00     0.000 C 
BRANCH  16  17
ATOM     17  C   UNL     1      28.335  12.176  30.663  1.00  0.00    -0.000 C 
BRANCH  17  18
ATOM     18  C   UNL     1      26.839  12.082  30.339  1.00  0.00    -0.000 C 
BRANCH  18  19
ATOM     19  C   UNL     1      26.278  10.709  30.722  1.00  0.00    -0.003 C 
ATOM     20  C   UNL     1      25.346  10.811  31.926  1.00  0.00     0.004 C 
ENDBRANCH  18  19
ENDBRANCH  17  18
ENDBRANCH  16  17
ENDBRANCH  15  16
ENDBRANCH  14  15
ENDBRANCH  13  14
ENDBRANCH   2  13
TORSDOF 15
ENDMDL
MODEL 9
REMARK VINA RESULT:    -5.492      2.761      4.878
REMARK INTER + INTRA:         -11.458
REMARK INTER:                  -9.536
REMARK INTRA:                  -1.922
REMARK UNBOUND:                -1.149
REMARK SMILES CCCCCCCCC=CCCCCCCCC(=O)[O-]
REMARK SMILES IDX 10 1 9 2 11 3 12 4 13 5 14 6 15 7 16 8 17 9 18 10 19 11
REMARK SMILES IDX 20 12 8 13 7 14 6 15 5 16 4 17 3 18 2 19 1 20
REMARK H PARENT
REMARK Flexibility Score: inf
ROOT
ATOM      1  C   UNL     1      25.396  12.605  30.593  1.00  0.00    -0.031 C 
ATOM      2  C   UNL     1      25.350  11.266  30.656  1.00  0.00    -0.031 C 
ENDROOT
BRANCH   1   3
ATOM      3  C   UNL     1      26.633  13.308  30.103  1.00  0.00     0.027 C 
BRANCH   3   4
ATOM      4  C   UNL     1      27.918  12.520  30.404  1.00  0.00     0.004 C 
BRANCH   4   5
ATOM      5  C   UNL     1      28.775  13.123  31.533  1.00  0.00     0.000 C 
BRANCH   5   6
ATOM      6  C   UNL     1      27.991  13.310  32.841  1.00  0.00     0.000 C 
BRANCH   6   7
ATOM      7  C   UNL     1      28.348  12.219  33.857  1.00  0.00     0.000 C 
BRANCH   7   8
ATOM      8  C   UNL     1      27.083  11.597  34.465  1.00  0.00     0.006 C 
BRANCH   8   9
ATOM      9  C   UNL     1      25.905  12.579  34.488  1.00  0.00     0.053 C 
BRANCH   9  10
ATOM     10  C   UNL     1      25.826  13.325  35.786  1.00  0.00     0.041 C 
ATOM     11  O   UNL     1      24.894  13.088  36.598  1.00  0.00    -0.550 OA
ATOM     12  O   UNL     1      26.759  14.313  36.077  1.00  0.00    -0.550 OA
ENDBRANCH   9  10
ENDBRANCH   8   9
ENDBRANCH   7   8
ENDBRANCH   6   7
ENDBRANCH   5   6
ENDBRANCH   4   5
ENDBRANCH   3   4
ENDBRANCH   1   3
BRANCH   2  13
ATOM     13  C   UNL     1      24.125  10.539  31.144  1.00  0.00     0.027 C 
BRANCH  13  14
ATOM     14  C   UNL     1      23.402  11.300  32.265  1.00  0.00     0.004 C 
BRANCH  14  15
ATOM     15  C   UNL     1      21.872  11.184  32.148  1.00  0.00     0.000 C 
BRANCH  15  16
ATOM     16  C   UNL     1      21.141  11.753  33.374  1.00  0.00     0.000 C 
BRANCH  16  17
ATOM     17  C   UNL     1      22.099  12.396  34.388  1.00  0.00    -0.000 C 
BRANCH  17  18
ATOM     18  C   UNL     1      21.367  12.744  35.689  1.00  0.00    -0.000 C 
BRANCH  18  19
ATOM     19  C   UNL     1      20.256  11.730  35.984  1.00  0.00    -0.003 C 
ATOM     20  C   UNL     1      18.991  12.427  36.479  1.00  0.00     0.004 C 
ENDBRANCH  18  19
ENDBRANCH  17  18
ENDBRANCH  16  17
ENDBRANCH  15  16
ENDBRANCH  14  15
ENDBRANCH  13  14
ENDBRANCH   2  13
TORSDOF 15
ENDMDL
