MODEL 1
REMARK VINA RESULT:    -2.607      0.000      0.000
REMARK INTER + INTRA:          -4.340
REMARK INTER:                  -4.130
REMARK INTRA:                  -0.210
REMARK UNBOUND:                -0.210
REMARK SMILES CCCCCCCCCCCC(=O)[O-]
REMARK SMILES IDX 7 1 8 2 9 3 10 4 11 5 12 6 13 7 14 8 6 9 5 10 4 11 3 12 2 13
REMARK SMILES IDX 1 14
REMARK H PARENT
REMARK Flexibility Score: inf
ROOT
ATOM      1  C   UNL     1      -1.280  -7.852  -5.884  1.00  0.00     0.000 C 
ENDROOT
BRANCH   1   2
ATOM      2  C   UNL     1      -2.775  -7.876  -5.528  1.00  0.00     0.000 C 
BRANCH   2   3
ATOM      3  C   UNL     1      -3.225  -9.225  -4.940  1.00  0.00     0.000 C 
BRANCH   3   4
ATOM      4  C   UNL     1      -4.189  -9.981  -5.867  1.00  0.00     0.006 C 
BRANCH   4   5
ATOM      5  C   UNL     1      -4.627 -11.331  -5.286  1.00  0.00     0.053 C 
BRANCH   5   6
ATOM      6  C   UNL     1      -6.078 -11.572  -5.562  1.00  0.00     0.041 C 
ATOM      7  O   UNL     1      -6.429 -12.471  -6.371  1.00  0.00    -0.550 OA
ATOM      8  O   UNL     1      -7.042 -10.771  -4.963  1.00  0.00    -0.550 OA
ENDBRANCH   5   6
ENDBRANCH   4   5
ENDBRANCH   3   4
ENDBRANCH   2   3
ENDBRANCH   1   2
BRANCH   1   9
ATOM      9  C   UNL     1      -0.477  -6.887  -4.994  1.00  0.00     0.000 C 
BRANCH   9  10
ATOM     10  C   UNL     1       1.003  -7.287  -4.875  1.00  0.00    -0.000 C 
BRANCH  10  11
ATOM     11  C   UNL     1       1.948  -6.077  -4.883  1.00  0.00    -0.000 C 
BRANCH  11  12
ATOM     12  C   UNL     1       3.362  -6.489  -5.311  1.00  0.00    -0.000 C 
BRANCH  12  13
ATOM     13  C   UNL     1       4.353  -5.335  -5.117  1.00  0.00    -0.003 C 
ATOM     14  C   UNL     1       5.778  -5.771  -5.447  1.00  0.00     0.004 C 
ENDBRANCH  12  13
ENDBRANCH  11  12
ENDBRANCH  10  11
ENDBRANCH   9  10
ENDBRANCH   1   9
TORSDOF 10
ENDMDL
MODEL 2
REMARK VINA RESULT:    -1.920      1.004      1.742
REMARK INTER + INTRA:          -3.253
REMARK INTER:                  -3.292
REMARK INTRA:                   0.039
REMARK UNBOUND:                -0.210
REMARK SMILES CCCCCCCCCCCC(=O)[O-]
REMARK SMILES IDX 7 1 8 2 9 3 10 4 11 5 12 6 13 7 14 8 6 9 5 10 4 11 3 12 2 13
REMARK SMILES IDX 1 14
REMARK H PARENT
REMARK Flexibility Score: inf
ROOT
ATOM      1  C   UNL     1      -3.266  -8.483  -5.310  1.00  0.00     0.000 C 
ENDROOT
BRANCH   1   2
ATOM      2  C   UNL     1      -3.653  -9.275  -6.568  1.00  0.00     0.000 C 
BRANCH   2   3
ATOM      3  C   UNL     1      -4.725 -10.345  -6.291  1.00  0.00     0.000 C 
BRANCH   3   4
ATOM      4  C   UNL     1      -4.183 -11.527  -5.473  1.00  0.00     0.006 C 
BRANCH   4   5
ATOM      5  C   UNL     1      -5.300 -12.403  -4.893  1.00  0.00     0.053 C 
BRANCH   5   6
ATOM      6  C   UNL     1      -6.596 -12.123  -5.587  1.00  0.00     0.041 C 
ATOM      7  O   UNL     1      -6.908 -12.758  -6.629  1.00  0.00    -0.550 OA
ATOM      8  O   UNL     1      -7.437 -11.125  -5.112  1.00  0.00    -0.550 OA
ENDBRANCH   5   6
ENDBRANCH   4   5
ENDBRANCH   3   4
ENDBRANCH   2   3
ENDBRANCH   1   2
BRANCH   1   9
ATOM      9  C   UNL     1      -2.234  -7.380  -5.601  1.00  0.00     0.000 C 
BRANCH   9  10
ATOM     10  C   UNL     1      -0.899  -7.613  -4.875  1.00  0.00    -0.000 C 
BRANCH  10  11
ATOM     11  C   UNL     1       0.223  -6.696  -5.383  1.00  0.00    -0.000 C 
BRANCH  11  12
ATOM     12  C   UNL     1       1.597  -7.345  -5.178  1.00  0.00    -0.000 C 
BRANCH  12  13
ATOM     13  C   UNL     1       2.696  -6.282  -5.063  1.00  0.00    -0.003 C 
ATOM     14  C   UNL     1       4.067  -6.924  -4.878  1.00  0.00     0.004 C 
ENDBRANCH  12  13
ENDBRANCH  11  12
ENDBRANCH  10  11
ENDBRANCH   9  10
ENDBRANCH   1   9
TORSDOF 10
ENDMDL
MODEL 3
REMARK VINA RESULT:    -1.480      4.167      8.292
REMARK INTER + INTRA:          -2.555
REMARK INTER:                  -1.953
REMARK INTRA:                  -0.601
REMARK UNBOUND:                -0.210
REMARK SMILES CCCCCCCCCCCC(=O)[O-]
REMARK SMILES IDX 7 1 8 2 9 3 10 4 11 5 12 6 13 7 14 8 6 9 5 10 4 11 3 12 2 13
REMARK SMILES IDX 1 14
REMARK H PARENT
REMARK Flexibility Score: inf
ROOT
ATOM      1  C   UNL     1      -3.487  -8.623  -6.114  1.00  0.00     0.000 C 
ENDROOT
BRANCH   1   2
ATOM      2  C   UNL     1      -2.470  -8.164  -5.057  1.00  0.00     0.000 C 
BRANCH   2   3
ATOM      3  C   UNL     1      -1.865  -6.785  -5.374  1.00  0.00     0.000 C 
BRANCH   3   4
ATOM      4  C   UNL     1      -0.374  -6.863  -5.738  1.00  0.00     0.006 C 
BRANCH   4   5
ATOM      5  C   UNL     1       0.331  -8.056  -5.079  1.00  0.00     0.053 C 
BRANCH   5   6
ATOM      6  C   UNL     1       1.806  -7.814  -5.005  1.00  0.00     0.041 C 
ATOM      7  O   UNL     1       2.262  -6.643  -5.093  1.00  0.00    -0.550 OA
ATOM      8  O   UNL     1       2.680  -8.886  -4.887  1.00  0.00    -0.550 OA
ENDBRANCH   5   6
ENDBRANCH   4   5
ENDBRANCH   3   4
ENDBRANCH   2   3
ENDBRANCH   1   2
BRANCH   1   9
ATOM      9  C   UNL     1      -4.395  -9.757  -5.605  1.00  0.00     0.000 C 
BRANCH   9  10
ATOM     10  C   UNL     1      -3.597 -10.944  -5.043  1.00  0.00    -0.000 C 
BRANCH  10  11
ATOM     11  C   UNL     1      -4.325 -12.285  -5.216  1.00  0.00    -0.000 C 
BRANCH  11  12
ATOM     12  C   UNL     1      -5.841 -12.077  -5.314  1.00  0.00    -0.000 C 
BRANCH  12  13
ATOM     13  C   UNL     1      -6.406 -12.737  -6.578  1.00  0.00    -0.003 C 
ATOM     14  C   UNL     1      -5.365 -12.771  -7.693  1.00  0.00     0.004 C 
ENDBRANCH  12  13
ENDBRANCH  11  12
ENDBRANCH  10  11
ENDBRANCH   9  10
ENDBRANCH   1   9
TORSDOF 10
ENDMDL
MODEL 4
REMARK VINA RESULT:    -1.089      1.751      2.774
REMARK INTER + INTRA:          -1.936
REMARK INTER:                  -1.828
REMARK INTRA:                  -0.108
REMARK UNBOUND:                -0.210
REMARK SMILES CCCCCCCCCCCC(=O)[O-]
REMARK SMILES IDX 7 1 8 2 9 3 10 4 11 5 12 6 13 7 14 8 6 9 5 10 4 11 3 12 2 13
REMARK SMILES IDX 1 14
REMARK H PARENT
REMARK Flexibility Score: inf
ROOT
ATOM      1  C   UNL     1      -3.590  -8.871  -5.909  1.00  0.00     0.000 C 
ENDROOT
BRANCH   1   2
ATOM      2  C   UNL     1      -3.849 -10.185  -5.156  1.00  0.00     0.000 C 
BRANCH   2   3
ATOM      3  C   UNL     1      -5.346 -10.445  -4.911  1.00  0.00     0.000 C 
BRANCH   3   4
ATOM      4  C   UNL     1      -5.687 -11.943  -4.876  1.00  0.00     0.006 C 
BRANCH   4   5
ATOM      5  C   UNL     1      -4.789 -12.772  -5.802  1.00  0.00     0.053 C 
BRANCH   5   6
ATOM      6  C   UNL     1      -5.186 -12.572  -7.231  1.00  0.00     0.041 C 
ATOM      7  O   UNL     1      -4.740 -11.590  -7.881  1.00  0.00    -0.550 OA
ATOM      8  O   UNL     1      -6.088 -13.442  -7.830  1.00  0.00    -0.550 OA
ENDBRANCH   5   6
ENDBRANCH   4   5
ENDBRANCH   3   4
ENDBRANCH   2   3
ENDBRANCH   1   2
BRANCH   1   9
ATOM      9  C   UNL     1      -2.836  -7.838  -5.053  1.00  0.00     0.000 C 
BRANCH   9  10
ATOM     10  C   UNL     1      -1.606  -7.260  -5.773  1.00  0.00    -0.000 C 
BRANCH  10  11
ATOM     11  C   UNL     1      -0.361  -7.211  -4.875  1.00  0.00    -0.000 C 
BRANCH  11  12
ATOM     12  C   UNL     1       0.782  -8.037  -5.478  1.00  0.00    -0.000 C 
BRANCH  12  13
ATOM     13  C   UNL     1       2.139  -7.579  -4.932  1.00  0.00    -0.003 C 
ATOM     14  C   UNL     1       2.252  -6.057  -4.941  1.00  0.00     0.004 C 
ENDBRANCH  12  13
ENDBRANCH  11  12
ENDBRANCH  10  11
ENDBRANCH   9  10
ENDBRANCH   1   9
TORSDOF 10
ENDMDL
MODEL 5
REMARK VINA RESULT:    -0.885     21.458     24.598
REMARK INTER + INTRA:          -1.613
REMARK INTER:                  -1.004
REMARK INTRA:                  -0.609
REMARK UNBOUND:                -0.210
REMARK SMILES CCCCCCCCCCCC(=O)[O-]
REMARK SMILES IDX 7 1 8 2 9 3 10 4 11 5 12 6 13 7 14 8 6 9 5 10 4 11 3 12 2 13
REMARK SMILES IDX 1 14
REMARK H PARENT
REMARK Flexibility Score: inf
ROOT
ATOM      1  C   UNL     1     -10.750 -21.019 -24.564  1.00  0.00     0.000 C 
ENDROOT
BRANCH   1   2
ATOM      2  C   UNL     1     -11.125 -22.448 -24.986  1.00  0.00     0.000 C 
BRANCH   2   3
ATOM      3  C   UNL     1     -11.112 -23.439 -23.808  1.00  0.00     0.000 C 
BRANCH   3   4
ATOM      4  C   UNL     1     -10.754 -24.869 -24.243  1.00  0.00     0.006 C 
BRANCH   4   5
ATOM      5  C   UNL     1      -9.494 -24.919 -25.118  1.00  0.00     0.053 C 
BRANCH   5   6
ATOM      6  C   UNL     1      -8.270 -25.024 -24.263  1.00  0.00     0.041 C 
ATOM      7  O   UNL     1      -7.131 -25.099 -24.795  1.00  0.00    -0.550 OA
ATOM      8  O   UNL     1      -8.390 -25.088 -22.881  1.00  0.00    -0.550 OA
ENDBRANCH   5   6
ENDBRANCH   4   5
ENDBRANCH   3   4
ENDBRANCH   2   3
ENDBRANCH   1   2
BRANCH   1   9
ATOM      9  C   UNL     1      -9.383 -20.580 -25.116  1.00  0.00     0.000 C 
BRANCH   9  10
ATOM     10  C   UNL     1      -9.197 -19.054 -25.089  1.00  0.00    -0.000 C 
BRANCH  10  11
ATOM     11  C   UNL     1      -7.722 -18.636 -24.991  1.00  0.00    -0.000 C 
BRANCH  11  12
ATOM     12  C   UNL     1      -7.298 -18.461 -23.528  1.00  0.00    -0.000 C 
BRANCH  12  13
ATOM     13  C   UNL     1      -8.341 -17.652 -22.746  1.00  0.00    -0.003 C 
ATOM     14  C   UNL     1      -8.658 -18.309 -21.407  1.00  0.00     0.004 C 
ENDBRANCH  12  13
ENDBRANCH  11  12
ENDBRANCH  10  11
ENDBRANCH   9  10
ENDBRANCH   1   9
TORSDOF 10
ENDMDL
