MODEL 1
REMARK VINA RESULT:    -5.537      0.000      0.000
REMARK INTER + INTRA:         -11.797
REMARK INTER:                 -10.069
REMARK INTRA:                  -1.728
REMARK UNBOUND:                -1.728
REMARK SMILES CCCCCCCCCCCCCCCC(=O)[O-]
REMARK SMILES IDX 9 1 10 2 11 3 12 4 13 5 14 6 15 7 16 8 17 9 18 10 8 11 7 12
REMARK SMILES IDX 6 13 5 14 4 15 3 16 2 17 1 18
REMARK H PARENT
REMARK Flexibility Score: inf
ROOT
ATOM      1  C   UNL     1       4.456   7.338  22.370  1.00  0.00     0.000 C 
ENDROOT
BRANCH   1   2
ATOM      2  C   UNL     1       3.550   6.111  22.164  1.00  0.00     0.000 C 
BRANCH   2   3
ATOM      3  C   UNL     1       3.146   5.918  20.693  1.00  0.00     0.000 C 
BRANCH   3   4
ATOM      4  C   UNL     1       2.820   4.452  20.355  1.00  0.00     0.000 C 
BRANCH   4   5
ATOM      5  C   UNL     1       1.580   4.317  19.456  1.00  0.00     0.000 C 
BRANCH   5   6
ATOM      6  C   UNL     1       1.793   4.926  18.059  1.00  0.00     0.006 C 
BRANCH   6   7
ATOM      7  C   UNL     1       0.544   5.655  17.549  1.00  0.00     0.053 C 
BRANCH   7   8
ATOM      8  C   UNL     1       0.425   7.030  18.131  1.00  0.00     0.041 C 
ATOM      9  O   UNL     1      -0.532   7.313  18.899  1.00  0.00    -0.550 OA
ATOM     10  O   UNL     1       1.390   7.990  17.852  1.00  0.00    -0.550 OA
ENDBRANCH   7   8
ENDBRANCH   6   7
ENDBRANCH   5   6
ENDBRANCH   4   5
ENDBRANCH   3   4
ENDBRANCH   2   3
ENDBRANCH   1   2
BRANCH   1  11
ATOM     11  C   UNL     1       5.697   7.017  23.218  1.00  0.00     0.000 C 
BRANCH  11  12
ATOM     12  C   UNL     1       6.996   7.025  22.397  1.00  0.00    -0.000 C 
BRANCH  12  13
ATOM     13  C   UNL     1       6.856   7.919  21.158  1.00  0.00    -0.000 C 
BRANCH  13  14
ATOM     14  C   UNL     1       7.913   7.563  20.101  1.00  0.00    -0.000 C 
BRANCH  14  15
ATOM     15  C   UNL     1       7.360   7.594  18.665  1.00  0.00    -0.000 C 
BRANCH  15  16
ATOM     16  C   UNL     1       6.000   8.298  18.506  1.00  0.00    -0.000 C 
BRANCH  16  17
ATOM     17  C   UNL     1       4.876   7.341  18.085  1.00  0.00    -0.003 C 
ATOM     18  C   UNL     1       5.433   5.975  17.698  1.00  0.00     0.004 C 
ENDBRANCH  16  17
ENDBRANCH  15  16
ENDBRANCH  14  15
ENDBRANCH  13  14
ENDBRANCH  12  13
ENDBRANCH  11  12
ENDBRANCH   1  11
TORSDOF 14
ENDMDL
MODEL 2
REMARK VINA RESULT:    -5.455      1.142      2.486
REMARK INTER + INTRA:         -11.647
REMARK INTER:                  -9.385
REMARK INTRA:                  -2.263
REMARK UNBOUND:                -1.728
REMARK SMILES CCCCCCCCCCCCCCCC(=O)[O-]
REMARK SMILES IDX 9 1 10 2 11 3 12 4 13 5 14 6 15 7 16 8 17 9 18 10 8 11 7 12
REMARK SMILES IDX 6 13 5 14 4 15 3 16 2 17 1 18
REMARK H PARENT
REMARK Flexibility Score: inf
ROOT
ATOM      1  C   UNL     1       6.873   7.073  22.023  1.00  0.00     0.000 C 
ENDROOT
BRANCH   1   2
ATOM      2  C   UNL     1       5.704   7.031  23.022  1.00  0.00     0.000 C 
BRANCH   2   3
ATOM      3  C   UNL     1       4.336   7.150  22.333  1.00  0.00     0.000 C 
BRANCH   3   4
ATOM      4  C   UNL     1       3.764   5.785  21.907  1.00  0.00     0.000 C 
BRANCH   4   5
ATOM      5  C   UNL     1       2.744   5.904  20.763  1.00  0.00     0.000 C 
BRANCH   5   6
ATOM      6  C   UNL     1       2.750   4.675  19.837  1.00  0.00     0.006 C 
BRANCH   6   7
ATOM      7  C   UNL     1       1.454   4.557  19.024  1.00  0.00     0.053 C 
BRANCH   7   8
ATOM      8  C   UNL     1       1.290   5.701  18.070  1.00  0.00     0.041 C 
ATOM      9  O   UNL     1       2.064   5.819  17.083  1.00  0.00    -0.550 OA
ATOM     10  O   UNL     1       0.261   6.617  18.251  1.00  0.00    -0.550 OA
ENDBRANCH   7   8
ENDBRANCH   6   7
ENDBRANCH   5   6
ENDBRANCH   4   5
ENDBRANCH   3   4
ENDBRANCH   2   3
ENDBRANCH   1   2
BRANCH   1  11
ATOM     11  C   UNL     1       7.325   8.507  21.703  1.00  0.00     0.000 C 
BRANCH  11  12
ATOM     12  C   UNL     1       8.125   8.600  20.395  1.00  0.00    -0.000 C 
BRANCH  12  13
ATOM     13  C   UNL     1       7.964   7.321  19.562  1.00  0.00    -0.000 C 
BRANCH  13  14
ATOM     14  C   UNL     1       7.006   7.550  18.382  1.00  0.00    -0.000 C 
BRANCH  14  15
ATOM     15  C   UNL     1       5.579   7.044  18.661  1.00  0.00    -0.000 C 
BRANCH  15  16
ATOM     16  C   UNL     1       4.463   8.076  18.416  1.00  0.00    -0.000 C 
BRANCH  16  17
ATOM     17  C   UNL     1       4.938   9.526  18.593  1.00  0.00    -0.003 C 
ATOM     18  C   UNL     1       4.624  10.040  19.995  1.00  0.00     0.004 C 
ENDBRANCH  16  17
ENDBRANCH  15  16
ENDBRANCH  14  15
ENDBRANCH  13  14
ENDBRANCH  12  13
ENDBRANCH  11  12
ENDBRANCH   1  11
TORSDOF 14
ENDMDL
MODEL 3
REMARK VINA RESULT:    -5.451      2.072      5.137
REMARK INTER + INTRA:         -11.641
REMARK INTER:                 -10.110
REMARK INTRA:                  -1.531
REMARK UNBOUND:                -1.728
REMARK SMILES CCCCCCCCCCCCCCCC(=O)[O-]
REMARK SMILES IDX 9 1 10 2 11 3 12 4 13 5 14 6 15 7 16 8 17 9 18 10 8 11 7 12
REMARK SMILES IDX 6 13 5 14 4 15 3 16 2 17 1 18
REMARK H PARENT
REMARK Flexibility Score: inf
ROOT
ATOM      1  C   UNL     1       5.644   7.002  23.344  1.00  0.00     0.000 C 
ENDROOT
BRANCH   1   2
ATOM      2  C   UNL     1       6.878   6.998  22.426  1.00  0.00     0.000 C 
BRANCH   2   3
ATOM      3  C   UNL     1       6.731   7.961  21.237  1.00  0.00     0.000 C 
BRANCH   3   4
ATOM      4  C   UNL     1       7.778   7.710  20.136  1.00  0.00     0.000 C 
BRANCH   4   5
ATOM      5  C   UNL     1       7.195   7.866  18.722  1.00  0.00     0.000 C 
BRANCH   5   6
ATOM      6  C   UNL     1       5.790   7.253  18.591  1.00  0.00     0.006 C 
BRANCH   6   7
ATOM      7  C   UNL     1       5.790   5.986  17.726  1.00  0.00     0.053 C 
BRANCH   7   8
ATOM      8  C   UNL     1       6.231   6.271  16.323  1.00  0.00     0.041 C 
ATOM      9  O   UNL     1       5.478   6.909  15.539  1.00  0.00    -0.550 OA
ATOM     10  O   UNL     1       7.487   5.864  15.891  1.00  0.00    -0.550 OA
ENDBRANCH   7   8
ENDBRANCH   6   7
ENDBRANCH   5   6
ENDBRANCH   4   5
ENDBRANCH   3   4
ENDBRANCH   2   3
ENDBRANCH   1   2
BRANCH   1  11
ATOM     11  C   UNL     1       4.344   7.306  22.581  1.00  0.00     0.000 C 
BRANCH  11  12
ATOM     12  C   UNL     1       3.548   6.038  22.236  1.00  0.00    -0.000 C 
BRANCH  12  13
ATOM     13  C   UNL     1       3.370   5.899  20.718  1.00  0.00    -0.000 C 
BRANCH  13  14
ATOM     14  C   UNL     1       2.464   4.705  20.378  1.00  0.00    -0.000 C 
BRANCH  14  15
ATOM     15  C   UNL     1       2.176   4.581  18.871  1.00  0.00    -0.000 C 
BRANCH  15  16
ATOM     16  C   UNL     1       0.719   4.863  18.462  1.00  0.00    -0.000 C 
BRANCH  16  17
ATOM     17  C   UNL     1       0.381   6.361  18.442  1.00  0.00    -0.003 C 
ATOM     18  C   UNL     1       1.505   7.170  17.800  1.00  0.00     0.004 C 
ENDBRANCH  16  17
ENDBRANCH  15  16
ENDBRANCH  14  15
ENDBRANCH  13  14
ENDBRANCH  12  13
ENDBRANCH  11  12
ENDBRANCH   1  11
TORSDOF 14
ENDMDL
MODEL 4
REMARK VINA RESULT:    -5.430      2.802      5.720
REMARK INTER + INTRA:         -11.602
REMARK INTER:                  -9.720
REMARK INTRA:                  -1.883
REMARK UNBOUND:                -1.728
REMARK SMILES CCCCCCCCCCCCCCCC(=O)[O-]
REMARK SMILES IDX 9 1 10 2 11 3 12 4 13 5 14 6 15 7 16 8 17 9 18 10 8 11 7 12
REMARK SMILES IDX 6 13 5 14 4 15 3 16 2 17 1 18
REMARK H PARENT
REMARK Flexibility Score: inf
ROOT
ATOM      1  C   UNL     1       2.760   4.575  20.336  1.00  0.00     0.000 C 
ENDROOT
BRANCH   1   2
ATOM      2  C   UNL     1       2.862   5.952  21.014  1.00  0.00     0.000 C 
BRANCH   2   3
ATOM      3  C   UNL     1       3.672   5.907  22.319  1.00  0.00     0.000 C 
BRANCH   3   4
ATOM      4  C   UNL     1       4.380   7.240  22.625  1.00  0.00     0.000 C 
BRANCH   4   5
ATOM      5  C   UNL     1       5.675   7.048  23.432  1.00  0.00     0.000 C 
BRANCH   5   6
ATOM      6  C   UNL     1       6.903   7.654  22.730  1.00  0.00     0.006 C 
BRANCH   6   7
ATOM      7  C   UNL     1       6.830   7.505  21.205  1.00  0.00     0.053 C 
BRANCH   7   8
ATOM      8  C   UNL     1       7.838   8.372  20.513  1.00  0.00     0.041 C 
ATOM      9  O   UNL     1       8.275   9.409  21.078  1.00  0.00    -0.550 OA
ATOM     10  O   UNL     1       8.320   8.016  19.260  1.00  0.00    -0.550 OA
ENDBRANCH   7   8
ENDBRANCH   6   7
ENDBRANCH   5   6
ENDBRANCH   4   5
ENDBRANCH   3   4
ENDBRANCH   2   3
ENDBRANCH   1   2
BRANCH   1  11
ATOM     11  C   UNL     1       1.416   4.369  19.619  1.00  0.00     0.000 C 
BRANCH  11  12
ATOM     12  C   UNL     1       1.527   4.516  18.094  1.00  0.00    -0.000 C 
BRANCH  12  13
ATOM     13  C   UNL     1       1.276   5.967  17.664  1.00  0.00    -0.000 C 
BRANCH  13  14
ATOM     14  C   UNL     1       2.538   6.581  17.039  1.00  0.00    -0.000 C 
BRANCH  14  15
ATOM     15  C   UNL     1       3.084   7.778  17.839  1.00  0.00    -0.000 C 
BRANCH  15  16
ATOM     16  C   UNL     1       4.558   7.658  18.266  1.00  0.00    -0.000 C 
BRANCH  16  17
ATOM     17  C   UNL     1       5.112   6.234  18.112  1.00  0.00    -0.003 C 
ATOM     18  C   UNL     1       6.169   6.171  17.012  1.00  0.00     0.004 C 
ENDBRANCH  16  17
ENDBRANCH  15  16
ENDBRANCH  14  15
ENDBRANCH  13  14
ENDBRANCH  12  13
ENDBRANCH  11  12
ENDBRANCH   1  11
TORSDOF 14
ENDMDL
MODEL 5
REMARK VINA RESULT:    -5.425      2.256      5.273
REMARK INTER + INTRA:         -11.593
REMARK INTER:                  -9.769
REMARK INTRA:                  -1.824
REMARK UNBOUND:                -1.728
REMARK SMILES CCCCCCCCCCCCCCCC(=O)[O-]
REMARK SMILES IDX 9 1 10 2 11 3 12 4 13 5 14 6 15 7 16 8 17 9 18 10 8 11 7 12
REMARK SMILES IDX 6 13 5 14 4 15 3 16 2 17 1 18
REMARK H PARENT
REMARK Flexibility Score: inf
ROOT
ATOM      1  C   UNL     1       5.334   6.974  23.308  1.00  0.00     0.000 C 
ENDROOT
BRANCH   1   2
ATOM      2  C   UNL     1       6.734   6.847  22.682  1.00  0.00     0.000 C 
BRANCH   2   3
ATOM      3  C   UNL     1       7.124   8.086  21.860  1.00  0.00     0.000 C 
BRANCH   3   4
ATOM      4  C   UNL     1       7.390   7.756  20.379  1.00  0.00     0.000 C 
BRANCH   4   5
ATOM      5  C   UNL     1       6.971   8.896  19.437  1.00  0.00     0.000 C 
BRANCH   5   6
ATOM      6  C   UNL     1       6.503  10.149  20.197  1.00  0.00     0.006 C 
BRANCH   6   7
ATOM      7  C   UNL     1       5.003  10.412  20.012  1.00  0.00     0.053 C 
BRANCH   7   8
ATOM      8  C   UNL     1       4.744  11.437  18.951  1.00  0.00     0.041 C 
ATOM      9  O   UNL     1       3.604  11.960  18.840  1.00  0.00    -0.550 OA
ATOM     10  O   UNL     1       5.771  11.841  18.107  1.00  0.00    -0.550 OA
ENDBRANCH   7   8
ENDBRANCH   6   7
ENDBRANCH   5   6
ENDBRANCH   4   5
ENDBRANCH   3   4
ENDBRANCH   2   3
ENDBRANCH   1   2
BRANCH   1  11
ATOM     11  C   UNL     1       4.293   7.520  22.318  1.00  0.00     0.000 C 
BRANCH  11  12
ATOM     12  C   UNL     1       3.675   6.421  21.439  1.00  0.00    -0.000 C 
BRANCH  12  13
ATOM     13  C   UNL     1       3.851   6.747  19.950  1.00  0.00    -0.000 C 
BRANCH  13  14
ATOM     14  C   UNL     1       3.611   5.502  19.082  1.00  0.00    -0.000 C 
BRANCH  14  15
ATOM     15  C   UNL     1       2.747   4.438  19.784  1.00  0.00    -0.000 C 
BRANCH  15  16
ATOM     16  C   UNL     1       1.285   4.368  19.306  1.00  0.00    -0.000 C 
BRANCH  16  17
ATOM     17  C   UNL     1       1.024   5.213  18.051  1.00  0.00    -0.003 C 
ATOM     18  C   UNL     1       0.138   6.413  18.371  1.00  0.00     0.004 C 
ENDBRANCH  16  17
ENDBRANCH  15  16
ENDBRANCH  14  15
ENDBRANCH  13  14
ENDBRANCH  12  13
ENDBRANCH  11  12
ENDBRANCH   1  11
TORSDOF 14
ENDMDL
MODEL 6
REMARK VINA RESULT:    -5.413      1.326      4.342
REMARK INTER + INTRA:         -11.571
REMARK INTER:                  -9.490
REMARK INTRA:                  -2.080
REMARK UNBOUND:                -1.728
REMARK SMILES CCCCCCCCCCCCCCCC(=O)[O-]
REMARK SMILES IDX 9 1 10 2 11 3 12 4 13 5 14 6 15 7 16 8 17 9 18 10 8 11 7 12
REMARK SMILES IDX 6 13 5 14 4 15 3 16 2 17 1 18
REMARK H PARENT
REMARK Flexibility Score: inf
ROOT
ATOM      1  C   UNL     1       7.142   7.365  22.327  1.00  0.00     0.000 C 
ENDROOT
BRANCH   1   2
ATOM      2  C   UNL     1       6.859   8.254  21.104  1.00  0.00     0.000 C 
BRANCH   2   3
ATOM      3  C   UNL     1       7.913   8.087  19.999  1.00  0.00     0.000 C 
BRANCH   3   4
ATOM      4  C   UNL     1       7.337   7.456  18.718  1.00  0.00     0.000 C 
BRANCH   4   5
ATOM      5  C   UNL     1       5.877   7.008  18.888  1.00  0.00     0.000 C 
BRANCH   5   6
ATOM      6  C   UNL     1       4.910   7.789  17.981  1.00  0.00     0.006 C 
BRANCH   6   7
ATOM      7  C   UNL     1       3.995   8.725  18.781  1.00  0.00     0.053 C 
BRANCH   7   8
ATOM      8  C   UNL     1       3.092   9.519  17.887  1.00  0.00     0.041 C 
ATOM      9  O   UNL     1       2.693  10.660  18.241  1.00  0.00    -0.550 OA
ATOM     10  O   UNL     1       2.719   9.014  16.647  1.00  0.00    -0.550 OA
ENDBRANCH   7   8
ENDBRANCH   6   7
ENDBRANCH   5   6
ENDBRANCH   4   5
ENDBRANCH   3   4
ENDBRANCH   2   3
ENDBRANCH   1   2
BRANCH   1  11
ATOM     11  C   UNL     1       5.866   7.012  23.108  1.00  0.00     0.000 C 
BRANCH  11  12
ATOM     12  C   UNL     1       4.589   7.197  22.274  1.00  0.00    -0.000 C 
BRANCH  12  13
ATOM     13  C   UNL     1       3.798   5.886  22.184  1.00  0.00    -0.000 C 
BRANCH  13  14
ATOM     14  C   UNL     1       2.739   5.957  21.073  1.00  0.00    -0.000 C 
BRANCH  14  15
ATOM     15  C   UNL     1       3.014   4.978  19.917  1.00  0.00    -0.000 C 
BRANCH  15  16
ATOM     16  C   UNL     1       1.806   4.689  19.008  1.00  0.00    -0.000 C 
BRANCH  16  17
ATOM     17  C   UNL     1       1.579   5.777  17.949  1.00  0.00    -0.003 C 
ATOM     18  C   UNL     1       0.326   6.592  18.258  1.00  0.00     0.004 C 
ENDBRANCH  16  17
ENDBRANCH  15  16
ENDBRANCH  14  15
ENDBRANCH  13  14
ENDBRANCH  12  13
ENDBRANCH  11  12
ENDBRANCH   1  11
TORSDOF 14
ENDMDL
MODEL 7
REMARK VINA RESULT:    -5.409      2.326      5.442
REMARK INTER + INTRA:         -11.563
REMARK INTER:                  -9.628
REMARK INTRA:                  -1.935
REMARK UNBOUND:                -1.728
REMARK SMILES CCCCCCCCCCCCCCCC(=O)[O-]
REMARK SMILES IDX 9 1 10 2 11 3 12 4 13 5 14 6 15 7 16 8 17 9 18 10 8 11 7 12
REMARK SMILES IDX 6 13 5 14 4 15 3 16 2 17 1 18
REMARK H PARENT
REMARK Flexibility Score: inf
ROOT
ATOM      1  C   UNL     1       3.634   5.981  22.371  1.00  0.00     0.000 C 
ENDROOT
BRANCH   1   2
ATOM      2  C   UNL     1       4.421   7.276  22.639  1.00  0.00     0.000 C 
BRANCH   2   3
ATOM      3  C   UNL     1       5.777   7.012  23.313  1.00  0.00     0.000 C 
BRANCH   3   4
ATOM      4  C   UNL     1       6.959   7.124  22.334  1.00  0.00     0.000 C 
BRANCH   4   5
ATOM      5  C   UNL     1       6.903   8.404  21.485  1.00  0.00     0.000 C 
BRANCH   5   6
ATOM      6  C   UNL     1       8.005   8.452  20.412  1.00  0.00     0.006 C 
BRANCH   6   7
ATOM      7  C   UNL     1       7.760   7.439  19.286  1.00  0.00     0.053 C 
BRANCH   7   8
ATOM      8  C   UNL     1       7.403   8.116  17.998  1.00  0.00     0.041 C 
ATOM      9  O   UNL     1       7.892   7.709  16.911  1.00  0.00    -0.550 OA
ATOM     10  O   UNL     1       6.502   9.174  17.993  1.00  0.00    -0.550 OA
ENDBRANCH   7   8
ENDBRANCH   6   7
ENDBRANCH   5   6
ENDBRANCH   4   5
ENDBRANCH   3   4
ENDBRANCH   2   3
ENDBRANCH   1   2
BRANCH   1  11
ATOM     11  C   UNL     1       3.176   5.862  20.909  1.00  0.00     0.000 C 
BRANCH  11  12
ATOM     12  C   UNL     1       3.938   6.808  19.968  1.00  0.00    -0.000 C 
BRANCH  12  13
ATOM     13  C   UNL     1       4.339   6.088  18.674  1.00  0.00    -0.000 C 
BRANCH  13  14
ATOM     14  C   UNL     1       3.806   6.836  17.441  1.00  0.00    -0.000 C 
BRANCH  14  15
ATOM     15  C   UNL     1       2.387   6.396  17.040  1.00  0.00    -0.000 C 
BRANCH  15  16
ATOM     16  C   UNL     1       1.247   7.158  17.742  1.00  0.00    -0.000 C 
BRANCH  16  17
ATOM     17  C   UNL     1       0.288   6.232  18.504  1.00  0.00    -0.003 C 
ATOM     18  C   UNL     1       0.713   4.772  18.374  1.00  0.00     0.004 C 
ENDBRANCH  16  17
ENDBRANCH  15  16
ENDBRANCH  14  15
ENDBRANCH  13  14
ENDBRANCH  12  13
ENDBRANCH  11  12
ENDBRANCH   1  11
TORSDOF 14
ENDMDL
MODEL 8
REMARK VINA RESULT:    -5.341      1.909      4.316
REMARK INTER + INTRA:         -11.440
REMARK INTER:                  -9.585
REMARK INTRA:                  -1.855
REMARK UNBOUND:                -1.728
REMARK SMILES CCCCCCCCCCCCCCCC(=O)[O-]
REMARK SMILES IDX 9 1 10 2 11 3 12 4 13 5 14 6 15 7 16 8 17 9 18 10 8 11 7 12
REMARK SMILES IDX 6 13 5 14 4 15 3 16 2 17 1 18
REMARK H PARENT
REMARK Flexibility Score: inf
ROOT
ATOM      1  C   UNL     1       6.555   8.003  21.077  1.00  0.00     0.000 C 
ENDROOT
BRANCH   1   2
ATOM      2  C   UNL     1       7.725   7.679  20.133  1.00  0.00     0.000 C 
BRANCH   2   3
ATOM      3  C   UNL     1       7.267   7.461  18.682  1.00  0.00     0.000 C 
BRANCH   3   4
ATOM      4  C   UNL     1       5.757   7.183  18.571  1.00  0.00     0.000 C 
BRANCH   4   5
ATOM      5  C   UNL     1       5.452   5.875  17.823  1.00  0.00     0.000 C 
BRANCH   5   6
ATOM      6  C   UNL     1       4.612   6.102  16.554  1.00  0.00     0.006 C 
BRANCH   6   7
ATOM      7  C   UNL     1       3.781   7.390  16.633  1.00  0.00     0.053 C 
BRANCH   7   8
ATOM      8  C   UNL     1       4.104   8.329  15.512  1.00  0.00     0.041 C 
ATOM      9  O   UNL     1       4.821   9.344  15.722  1.00  0.00    -0.550 OA
ATOM     10  O   UNL     1       3.642   8.068  14.228  1.00  0.00    -0.550 OA
ENDBRANCH   7   8
ENDBRANCH   6   7
ENDBRANCH   5   6
ENDBRANCH   4   5
ENDBRANCH   3   4
ENDBRANCH   2   3
ENDBRANCH   1   2
BRANCH   1  11
ATOM     11  C   UNL     1       6.768   7.445  22.494  1.00  0.00     0.000 C 
BRANCH  11  12
ATOM     12  C   UNL     1       5.457   7.004  23.162  1.00  0.00    -0.000 C 
BRANCH  12  13
ATOM     13  C   UNL     1       4.255   7.294  22.254  1.00  0.00    -0.000 C 
BRANCH  13  14
ATOM     14  C   UNL     1       3.472   6.007  21.951  1.00  0.00    -0.000 C 
BRANCH  14  15
ATOM     15  C   UNL     1       2.961   5.942  20.500  1.00  0.00    -0.000 C 
BRANCH  15  16
ATOM     16  C   UNL     1       2.488   4.552  20.038  1.00  0.00    -0.000 C 
BRANCH  16  17
ATOM     17  C   UNL     1       1.522   4.614  18.846  1.00  0.00    -0.003 C 
ATOM     18  C   UNL     1       0.982   6.027  18.648  1.00  0.00     0.004 C 
ENDBRANCH  16  17
ENDBRANCH  15  16
ENDBRANCH  14  15
ENDBRANCH  13  14
ENDBRANCH  12  13
ENDBRANCH  11  12
ENDBRANCH   1  11
TORSDOF 14
ENDMDL
MODEL 9
REMARK VINA RESULT:    -5.331      1.802      2.642
REMARK INTER + INTRA:         -11.422
REMARK INTER:                  -9.504
REMARK INTRA:                  -1.918
REMARK UNBOUND:                -1.728
REMARK SMILES CCCCCCCCCCCCCCCC(=O)[O-]
REMARK SMILES IDX 9 1 10 2 11 3 12 4 13 5 14 6 15 7 16 8 17 9 18 10 8 11 7 12
REMARK SMILES IDX 6 13 5 14 4 15 3 16 2 17 1 18
REMARK H PARENT
REMARK Flexibility Score: inf
ROOT
ATOM      1  C   UNL     1       3.819   5.878  22.165  1.00  0.00     0.000 C 
ENDROOT
BRANCH   1   2
ATOM      2  C   UNL     1       3.162   5.995  20.779  1.00  0.00     0.000 C 
BRANCH   2   3
ATOM      3  C   UNL     1       2.442   4.704  20.358  1.00  0.00     0.000 C 
BRANCH   3   4
ATOM      4  C   UNL     1       1.705   4.846  19.014  1.00  0.00     0.000 C 
BRANCH   4   5
ATOM      5  C   UNL     1       1.228   6.284  18.752  1.00  0.00     0.000 C 
BRANCH   5   6
ATOM      6  C   UNL     1       1.953   6.940  17.564  1.00  0.00     0.006 C 
BRANCH   6   7
ATOM      7  C   UNL     1       2.780   5.928  16.760  1.00  0.00     0.053 C 
BRANCH   7   8
ATOM      8  C   UNL     1       4.030   6.543  16.209  1.00  0.00     0.041 C 
ATOM      9  O   UNL     1       4.000   7.701  15.712  1.00  0.00    -0.550 OA
ATOM     10  O   UNL     1       5.234   5.854  16.276  1.00  0.00    -0.550 OA
ENDBRANCH   7   8
ENDBRANCH   6   7
ENDBRANCH   5   6
ENDBRANCH   4   5
ENDBRANCH   3   4
ENDBRANCH   2   3
ENDBRANCH   1   2
BRANCH   1  11
ATOM     11  C   UNL     1       4.425   7.208  22.644  1.00  0.00     0.000 C 
BRANCH  11  12
ATOM     12  C   UNL     1       5.689   7.012  23.495  1.00  0.00    -0.000 C 
BRANCH  12  13
ATOM     13  C   UNL     1       6.942   6.961  22.612  1.00  0.00    -0.000 C 
BRANCH  13  14
ATOM     14  C   UNL     1       6.963   8.134  21.619  1.00  0.00    -0.000 C 
BRANCH  14  15
ATOM     15  C   UNL     1       7.389   7.713  20.201  1.00  0.00    -0.000 C 
BRANCH  15  16
ATOM     16  C   UNL     1       6.232   7.346  19.255  1.00  0.00    -0.000 C 
BRANCH  16  17
ATOM     17  C   UNL     1       5.200   8.473  19.106  1.00  0.00    -0.003 C 
ATOM     18  C   UNL     1       5.762   9.628  18.282  1.00  0.00     0.004 C 
ENDBRANCH  16  17
ENDBRANCH  15  16
ENDBRANCH  14  15
ENDBRANCH  13  14
ENDBRANCH  12  13
ENDBRANCH  11  12
ENDBRANCH   1  11
TORSDOF 14
ENDMDL
