MODEL 1
REMARK VINA RESULT:    -1.573      0.000      0.000
REMARK INTER + INTRA:          -1.819
REMARK INTER:                  -1.895
REMARK INTRA:                   0.076
REMARK UNBOUND:                 0.076
REMARK SMILES O=c1c(O)c(-c2ccc(O)c(O)c2)oc2cc(O)cc(O)c12
REMARK SMILES IDX 5 1 3 2 2 3 1 4 22 5 20 6 19 7 17 8 16 9 15 10 14 11 6 12
REMARK SMILES IDX 7 13 8 14 9 15 13 16 11 17 10 18 12 20 4 22 21 24 18 26
REMARK H PARENT 10 19 12 21 4 23 21 25 18 27
REMARK Flexibility Score: inf
ROOT
ATOM      1  C   UNL     1       0.032  59.845  -5.709  1.00  0.00     0.180 A 
ATOM      2  C   UNL     1      -0.211  60.032  -4.337  1.00  0.00     0.208 A 
ATOM      3  C   UNL     1      -1.522  59.903  -3.852  1.00  0.00     0.238 A 
ATOM      4  O   UNL     1      -1.740  60.125  -2.633  1.00  0.00    -0.285 OA
ATOM      5  C   UNL     1      -2.573  59.572  -4.742  1.00  0.00     0.111 A 
ATOM      6  C   UNL     1      -3.932  59.376  -4.354  1.00  0.00     0.134 A 
ATOM      7  C   UNL     1      -4.909  59.181  -5.337  1.00  0.00     0.093 A 
ATOM      8  C   UNL     1      -4.569  59.108  -6.687  1.00  0.00     0.123 A 
ATOM      9  C   UNL     1      -3.234  59.238  -7.073  1.00  0.00     0.094 A 
ATOM     10  C   UNL     1      -2.241  59.470  -6.118  1.00  0.00     0.146 A 
ATOM     11  O   UNL     1      -0.985  59.599  -6.528  1.00  0.00    -0.452 OA
ENDROOT
BRANCH   1  12
ATOM     12  C   UNL     1       1.390  59.939  -6.289  1.00  0.00     0.025 A 
ATOM     13  C   UNL     1       1.568  60.567  -7.532  1.00  0.00     0.016 A 
ATOM     14  C   UNL     1       2.838  60.650  -8.108  1.00  0.00     0.051 A 
ATOM     15  C   UNL     1       3.946  60.091  -7.458  1.00  0.00     0.157 A 
ATOM     16  C   UNL     1       2.502  59.362  -5.649  1.00  0.00     0.062 A 
ATOM     17  C   UNL     1       3.777  59.442  -6.228  1.00  0.00     0.158 A 
BRANCH  15  18
ATOM     18  O   UNL     1       5.216  60.173  -8.028  1.00  0.00    -0.504 OA
ATOM     19  H   UNL     1       5.590  59.422  -8.596  1.00  0.00     0.293 HD
ENDBRANCH  15  18
BRANCH  17  20
ATOM     20  O   UNL     1       4.879  58.876  -5.589  1.00  0.00    -0.504 OA
ATOM     21  H   UNL     1       4.979  57.872  -5.495  1.00  0.00     0.293 HD
ENDBRANCH  17  20
ENDBRANCH   1  12
BRANCH   2  22
ATOM     22  O   UNL     1       0.838  60.379  -3.480  1.00  0.00    -0.502 OA
ATOM     23  H   UNL     1       1.388  61.221  -3.607  1.00  0.00     0.293 HD
ENDBRANCH   2  22
BRANCH   6  24
ATOM     24  O   UNL     1      -4.367  59.338  -3.026  1.00  0.00    -0.507 OA
ATOM     25  H   UNL     1      -5.329  59.423  -2.734  1.00  0.00     0.293 HD
ENDBRANCH   6  24
BRANCH   8  26
ATOM     26  O   UNL     1      -5.565  58.896  -7.638  1.00  0.00    -0.508 OA
ATOM     27  H   UNL     1      -6.077  59.668  -8.051  1.00  0.00     0.293 HD
ENDBRANCH   8  26
TORSDOF 6
ENDMDL
MODEL 2
REMARK VINA RESULT:    -0.892      0.906      1.519
REMARK INTER + INTRA:          -0.999
REMARK INTER:                  -0.759
REMARK INTRA:                  -0.240
REMARK UNBOUND:                 0.076
REMARK SMILES O=c1c(O)c(-c2ccc(O)c(O)c2)oc2cc(O)cc(O)c12
REMARK SMILES IDX 5 1 3 2 2 3 1 4 22 5 20 6 19 7 17 8 16 9 15 10 14 11 6 12
REMARK SMILES IDX 7 13 8 14 9 15 13 16 11 17 10 18 12 20 4 22 21 24 18 26
REMARK H PARENT 10 19 12 21 4 23 21 25 18 27
REMARK Flexibility Score: inf
ROOT
ATOM      1  C   UNL     1      -0.016  59.823  -5.196  1.00  0.00     0.180 A 
ATOM      2  C   UNL     1      -0.145  60.030  -3.812  1.00  0.00     0.208 A 
ATOM      3  C   UNL     1      -1.412  59.912  -3.220  1.00  0.00     0.238 A 
ATOM      4  O   UNL     1      -1.529  60.151  -1.989  1.00  0.00    -0.285 OA
ATOM      5  C   UNL     1      -2.533  59.574  -4.016  1.00  0.00     0.111 A 
ATOM      6  C   UNL     1      -3.857  59.389  -3.516  1.00  0.00     0.134 A 
ATOM      7  C   UNL     1      -4.912  59.186  -4.413  1.00  0.00     0.093 A 
ATOM      8  C   UNL     1      -4.683  59.094  -5.785  1.00  0.00     0.123 A 
ATOM      9  C   UNL     1      -3.384  59.214  -6.280  1.00  0.00     0.094 A 
ATOM     10  C   UNL     1      -2.316  59.454  -5.413  1.00  0.00     0.146 A 
ATOM     11  O   UNL     1      -1.097  59.572  -5.926  1.00  0.00    -0.452 OA
ENDROOT
BRANCH   1  12
ATOM     12  C   UNL     1       1.291  59.905  -5.887  1.00  0.00     0.025 A 
ATOM     13  C   UNL     1       2.240  58.890  -5.690  1.00  0.00     0.016 A 
ATOM     14  C   UNL     1       3.488  58.956  -6.316  1.00  0.00     0.051 A 
ATOM     15  C   UNL     1       3.810  60.047  -7.134  1.00  0.00     0.157 A 
ATOM     16  C   UNL     1       1.626  61.008  -6.694  1.00  0.00     0.062 A 
ATOM     17  C   UNL     1       2.879  61.076  -7.320  1.00  0.00     0.158 A 
BRANCH  15  18
ATOM     18  O   UNL     1       5.052  60.116  -7.763  1.00  0.00    -0.504 OA
ATOM     19  H   UNL     1       5.257  60.829  -8.454  1.00  0.00     0.293 HD
ENDBRANCH  15  18
BRANCH  17  20
ATOM     20  O   UNL     1       3.207  62.167  -8.125  1.00  0.00    -0.504 OA
ATOM     21  H   UNL     1       3.442  62.051  -9.104  1.00  0.00     0.293 HD
ENDBRANCH  17  20
ENDBRANCH   1  12
BRANCH   2  22
ATOM     22  O   UNL     1       0.972  60.383  -3.048  1.00  0.00    -0.502 OA
ATOM     23  H   UNL     1       1.739  59.743  -2.878  1.00  0.00     0.293 HD
ENDBRANCH   2  22
BRANCH   6  24
ATOM     24  O   UNL     1      -4.181  59.370  -2.156  1.00  0.00    -0.507 OA
ATOM     25  H   UNL     1      -4.789  58.693  -1.720  1.00  0.00     0.293 HD
ENDBRANCH   6  24
BRANCH   8  26
ATOM     26  O   UNL     1      -5.755  58.875  -6.648  1.00  0.00    -0.508 OA
ATOM     27  H   UNL     1      -5.704  58.190  -7.393  1.00  0.00     0.293 HD
ENDBRANCH   8  26
TORSDOF 6
ENDMDL
MODEL 3
REMARK VINA RESULT:     0.041      1.682      3.205
REMARK INTER + INTRA:           0.125
REMARK INTER:                   0.046
REMARK INTRA:                   0.079
REMARK UNBOUND:                 0.076
REMARK SMILES O=c1c(O)c(-c2ccc(O)c(O)c2)oc2cc(O)cc(O)c12
REMARK SMILES IDX 5 1 3 2 2 3 1 4 22 5 20 6 19 7 17 8 16 9 15 10 14 11 6 12
REMARK SMILES IDX 7 13 8 14 9 15 13 16 11 17 10 18 12 20 4 22 21 24 18 26
REMARK H PARENT 10 19 12 21 4 23 21 25 18 27
REMARK Flexibility Score: inf
ROOT
ATOM      1  C   UNL     1      -0.866  59.502  -5.796  1.00  0.00     0.180 A 
ATOM      2  C   UNL     1      -1.974  59.304  -6.639  1.00  0.00     0.208 A 
ATOM      3  C   UNL     1      -3.240  59.106  -6.065  1.00  0.00     0.238 A 
ATOM      4  O   UNL     1      -4.218  58.875  -6.823  1.00  0.00    -0.285 OA
ATOM      5  C   UNL     1      -3.386  59.124  -4.656  1.00  0.00     0.111 A 
ATOM      6  C   UNL     1      -4.627  58.975  -3.968  1.00  0.00     0.134 A 
ATOM      7  C   UNL     1      -4.635  58.878  -2.572  1.00  0.00     0.093 A 
ATOM      8  C   UNL     1      -3.457  58.992  -1.835  1.00  0.00     0.123 A 
ATOM      9  C   UNL     1      -2.244  59.198  -2.495  1.00  0.00     0.094 A 
ATOM     10  C   UNL     1      -2.200  59.262  -3.889  1.00  0.00     0.146 A 
ATOM     11  O   UNL     1      -1.025  59.449  -4.479  1.00  0.00    -0.452 OA
ENDROOT
BRANCH   1  12
ATOM     12  C   UNL     1       0.495  59.742  -6.327  1.00  0.00     0.025 A 
ATOM     13  C   UNL     1       1.005  58.898  -7.326  1.00  0.00     0.016 A 
ATOM     14  C   UNL     1       2.295  59.094  -7.828  1.00  0.00     0.051 A 
ATOM     15  C   UNL     1       3.098  60.126  -7.326  1.00  0.00     0.157 A 
ATOM     16  C   UNL     1       1.312  60.765  -5.813  1.00  0.00     0.062 A 
ATOM     17  C   UNL     1       2.607  60.961  -6.314  1.00  0.00     0.158 A 
BRANCH  15  18
ATOM     18  O   UNL     1       4.384  60.327  -7.825  1.00  0.00    -0.504 OA
ATOM     19  H   UNL     1       4.662  61.213  -8.231  1.00  0.00     0.293 HD
ENDBRANCH  15  18
BRANCH  17  20
ATOM     20  O   UNL     1       3.414  61.979  -5.807  1.00  0.00    -0.504 OA
ATOM     21  H   UNL     1       3.475  62.161  -4.813  1.00  0.00     0.293 HD
ENDBRANCH  17  20
ENDBRANCH   1  12
BRANCH   2  22
ATOM     22  O   UNL     1      -1.804  59.268  -8.026  1.00  0.00    -0.502 OA
ATOM     23  H   UNL     1      -1.034  58.778  -8.467  1.00  0.00     0.293 HD
ENDBRANCH   2  22
BRANCH   6  24
ATOM     24  O   UNL     1      -5.872  58.943  -4.603  1.00  0.00    -0.507 OA
ATOM     25  H   UNL     1      -6.398  59.759  -4.878  1.00  0.00     0.293 HD
ENDBRANCH   6  24
BRANCH   8  26
ATOM     26  O   UNL     1      -3.503  58.907  -0.445  1.00  0.00    -0.508 OA
ATOM     27  H   UNL     1      -2.801  58.397   0.079  1.00  0.00     0.293 HD
ENDBRANCH   8  26
TORSDOF 6
ENDMDL
