MODEL 1
REMARK VINA RESULT:    -2.810      0.000      0.000
REMARK INTER + INTRA:          -9.753
REMARK INTER:                  -6.096
REMARK INTRA:                  -3.657
REMARK UNBOUND:                -3.657
REMARK SMILES CCCCCCCCCCCCCCCCCCCCCC(=O)[O-]
REMARK SMILES IDX 12 1 11 2 10 3 9 4 8 5 7 6 6 7 5 8 4 9 3 10 2 11 1 12 13 13
REMARK SMILES IDX 14 14 15 15 16 16 17 17 18 18 19 19 20 20 21 21 22 22 23 23
REMARK SMILES IDX 24 24
REMARK H PARENT
REMARK Flexibility Score: inf
ROOT
ATOM      1  C   UNL     1       7.236  -1.989  -3.368  1.00  0.00     0.000 C 
ENDROOT
BRANCH   1   2
ATOM      2  C   UNL     1       7.987  -3.304  -3.066  1.00  0.00     0.000 C 
BRANCH   2   3
ATOM      3  C   UNL     1       8.367  -3.433  -1.581  1.00  0.00     0.000 C 
BRANCH   3   4
ATOM      4  C   UNL     1       9.852  -3.782  -1.388  1.00  0.00    -0.000 C 
BRANCH   4   5
ATOM      5  C   UNL     1      10.194  -4.095   0.079  1.00  0.00    -0.000 C 
BRANCH   5   6
ATOM      6  C   UNL     1       8.990  -4.661   0.853  1.00  0.00    -0.000 C 
BRANCH   6   7
ATOM      7  C   UNL     1       8.640  -3.821   2.094  1.00  0.00    -0.000 C 
BRANCH   7   8
ATOM      8  C   UNL     1       9.467  -2.520   2.174  1.00  0.00    -0.000 C 
BRANCH   8   9
ATOM      9  C   UNL     1       8.632  -1.244   1.966  1.00  0.00    -0.000 C 
BRANCH   9  10
ATOM     10  C   UNL     1       9.047  -0.456   0.715  1.00  0.00    -0.000 C 
BRANCH  10  11
ATOM     11  C   UNL     1      10.569  -0.283   0.653  1.00  0.00    -0.003 C 
ATOM     12  C   UNL     1      11.073  -0.355  -0.786  1.00  0.00     0.004 C 
ENDBRANCH  10  11
ENDBRANCH   9  10
ENDBRANCH   8   9
ENDBRANCH   7   8
ENDBRANCH   6   7
ENDBRANCH   5   6
ENDBRANCH   4   5
ENDBRANCH   3   4
ENDBRANCH   2   3
ENDBRANCH   1   2
BRANCH   1  13
ATOM     13  C   UNL     1       7.569  -0.852  -2.383  1.00  0.00     0.000 C 
BRANCH  13  14
ATOM     14  C   UNL     1       8.118   0.431  -3.037  1.00  0.00     0.000 C 
BRANCH  14  15
ATOM     15  C   UNL     1       7.243   1.684  -2.844  1.00  0.00     0.000 C 
BRANCH  15  16
ATOM     16  C   UNL     1       7.488   2.383  -1.499  1.00  0.00     0.000 C 
BRANCH  16  17
ATOM     17  C   UNL     1       8.951   2.834  -1.364  1.00  0.00     0.000 C 
BRANCH  17  18
ATOM     18  C   UNL     1       9.334   3.189   0.081  1.00  0.00     0.000 C 
BRANCH  18  19
ATOM     19  C   UNL     1       8.142   3.131   1.049  1.00  0.00     0.000 C 
BRANCH  19  20
ATOM     20  C   UNL     1       8.598   2.708   2.453  1.00  0.00     0.006 C 
BRANCH  20  21
ATOM     21  C   UNL     1       7.432   2.225   3.328  1.00  0.00     0.053 C 
BRANCH  21  22
ATOM     22  C   UNL     1       7.232   3.105   4.524  1.00  0.00     0.041 C 
ATOM     23  O   UNL     1       7.687   2.761   5.646  1.00  0.00    -0.550 OA
ATOM     24  O   UNL     1       6.580   4.323   4.391  1.00  0.00    -0.550 OA
ENDBRANCH  21  22
ENDBRANCH  20  21
ENDBRANCH  19  20
ENDBRANCH  18  19
ENDBRANCH  17  18
ENDBRANCH  16  17
ENDBRANCH  15  16
ENDBRANCH  14  15
ENDBRANCH  13  14
ENDBRANCH   1  13
TORSDOF 20
ENDMDL
MODEL 2
REMARK VINA RESULT:    -2.696      5.794      8.483
REMARK INTER + INTRA:          -9.505
REMARK INTER:                  -6.330
REMARK INTRA:                  -3.175
REMARK UNBOUND:                -3.657
REMARK SMILES CCCCCCCCCCCCCCCCCCCCCC(=O)[O-]
REMARK SMILES IDX 12 1 11 2 10 3 9 4 8 5 7 6 6 7 5 8 4 9 3 10 2 11 1 12 13 13
REMARK SMILES IDX 14 14 15 15 16 16 17 17 18 18 19 19 20 20 21 21 22 22 23 23
REMARK SMILES IDX 24 24
REMARK H PARENT
REMARK Flexibility Score: inf
ROOT
ATOM      1  C   UNL     1       5.244  -0.119  -5.095  1.00  0.00     0.000 C 
ENDROOT
BRANCH   1   2
ATOM      2  C   UNL     1       5.382  -1.642  -4.881  1.00  0.00     0.000 C 
BRANCH   2   3
ATOM      3  C   UNL     1       6.356  -2.287  -5.882  1.00  0.00     0.000 C 
BRANCH   3   4
ATOM      4  C   UNL     1       6.561  -3.787  -5.611  1.00  0.00    -0.000 C 
BRANCH   4   5
ATOM      5  C   UNL     1       6.399  -4.139  -4.121  1.00  0.00    -0.000 C 
BRANCH   5   6
ATOM      6  C   UNL     1       7.570  -4.984  -3.589  1.00  0.00    -0.000 C 
BRANCH   6   7
ATOM      7  C   UNL     1       8.359  -4.263  -2.480  1.00  0.00    -0.000 C 
BRANCH   7   8
ATOM      8  C   UNL     1       8.658  -2.792  -2.835  1.00  0.00    -0.000 C 
BRANCH   8   9
ATOM      9  C   UNL     1       8.182  -1.790  -1.768  1.00  0.00    -0.000 C 
BRANCH   9  10
ATOM     10  C   UNL     1       7.581  -0.513  -2.373  1.00  0.00    -0.000 C 
BRANCH  10  11
ATOM     11  C   UNL     1       8.037   0.730  -1.600  1.00  0.00    -0.003 C 
ATOM     12  C   UNL     1       7.410   1.997  -2.176  1.00  0.00     0.004 C 
ENDBRANCH  10  11
ENDBRANCH   9  10
ENDBRANCH   8   9
ENDBRANCH   7   8
ENDBRANCH   6   7
ENDBRANCH   5   6
ENDBRANCH   4   5
ENDBRANCH   3   4
ENDBRANCH   2   3
ENDBRANCH   1   2
BRANCH   1  13
ATOM     13  C   UNL     1       3.782   0.365  -5.133  1.00  0.00     0.000 C 
BRANCH  13  14
ATOM     14  C   UNL     1       2.788  -0.629  -5.764  1.00  0.00     0.000 C 
BRANCH  14  15
ATOM     15  C   UNL     1       1.661  -1.103  -4.828  1.00  0.00     0.000 C 
BRANCH  15  16
ATOM     16  C   UNL     1       1.530  -2.633  -4.778  1.00  0.00     0.000 C 
BRANCH  16  17
ATOM     17  C   UNL     1       2.281  -3.294  -5.945  1.00  0.00     0.000 C 
BRANCH  17  18
ATOM     18  C   UNL     1       2.884  -4.656  -5.568  1.00  0.00     0.000 C 
BRANCH  18  19
ATOM     19  C   UNL     1       2.434  -5.150  -4.185  1.00  0.00     0.000 C 
BRANCH  19  20
ATOM     20  C   UNL     1       2.768  -6.639  -4.000  1.00  0.00     0.006 C 
BRANCH  20  21
ATOM     21  C   UNL     1       4.108  -6.855  -3.282  1.00  0.00     0.053 C 
BRANCH  21  22
ATOM     22  C   UNL     1       5.063  -7.654  -4.114  1.00  0.00     0.041 C 
ATOM     23  O   UNL     1       5.672  -8.635  -3.612  1.00  0.00    -0.550 OA
ATOM     24  O   UNL     1       5.248  -7.343  -5.454  1.00  0.00    -0.550 OA
ENDBRANCH  21  22
ENDBRANCH  20  21
ENDBRANCH  19  20
ENDBRANCH  18  19
ENDBRANCH  17  18
ENDBRANCH  16  17
ENDBRANCH  15  16
ENDBRANCH  14  15
ENDBRANCH  13  14
ENDBRANCH   1  13
TORSDOF 20
ENDMDL
MODEL 3
REMARK VINA RESULT:    -2.660      2.154      5.526
REMARK INTER + INTRA:          -9.428
REMARK INTER:                  -6.501
REMARK INTRA:                  -2.927
REMARK UNBOUND:                -3.657
REMARK SMILES CCCCCCCCCCCCCCCCCCCCCC(=O)[O-]
REMARK SMILES IDX 12 1 11 2 10 3 9 4 8 5 7 6 6 7 5 8 4 9 3 10 2 11 1 12 13 13
REMARK SMILES IDX 14 14 15 15 16 16 17 17 18 18 19 19 20 20 21 21 22 22 23 23
REMARK SMILES IDX 24 24
REMARK H PARENT
REMARK Flexibility Score: inf
ROOT
ATOM      1  C   UNL     1       8.789  -5.354   1.200  1.00  0.00     0.000 C 
ENDROOT
BRANCH   1   2
ATOM      2  C   UNL     1       8.318  -4.307   2.231  1.00  0.00     0.000 C 
BRANCH   2   3
ATOM      3  C   UNL     1       9.472  -3.428   2.742  1.00  0.00     0.000 C 
BRANCH   3   4
ATOM      4  C   UNL     1       9.115  -1.932   2.726  1.00  0.00    -0.000 C 
BRANCH   4   5
ATOM      5  C   UNL     1       8.837  -1.412   1.305  1.00  0.00    -0.000 C 
BRANCH   5   6
ATOM      6  C   UNL     1      10.101  -0.855   0.628  1.00  0.00    -0.000 C 
BRANCH   6   7
ATOM      7  C   UNL     1      10.096   0.683   0.545  1.00  0.00    -0.000 C 
BRANCH   7   8
ATOM      8  C   UNL     1       8.703   1.281   0.831  1.00  0.00    -0.000 C 
BRANCH   8   9
ATOM      9  C   UNL     1       8.746   2.738   1.325  1.00  0.00    -0.000 C 
BRANCH   9  10
ATOM     10  C   UNL     1       8.044   2.932   2.677  1.00  0.00    -0.000 C 
BRANCH  10  11
ATOM     11  C   UNL     1       7.520   1.598   3.221  1.00  0.00    -0.003 C 
ATOM     12  C   UNL     1       7.874   1.428   4.696  1.00  0.00     0.004 C 
ENDBRANCH  10  11
ENDBRANCH   9  10
ENDBRANCH   8   9
ENDBRANCH   7   8
ENDBRANCH   6   7
ENDBRANCH   5   6
ENDBRANCH   4   5
ENDBRANCH   3   4
ENDBRANCH   2   3
ENDBRANCH   1   2
BRANCH   1  13
ATOM     13  C   UNL     1      10.176  -5.048   0.603  1.00  0.00     0.000 C 
BRANCH  13  14
ATOM     14  C   UNL     1      10.153  -4.464  -0.822  1.00  0.00     0.000 C 
BRANCH  14  15
ATOM     15  C   UNL     1       8.756  -4.368  -1.463  1.00  0.00     0.000 C 
BRANCH  15  16
ATOM     16  C   UNL     1       8.388  -2.936  -1.883  1.00  0.00     0.000 C 
BRANCH  16  17
ATOM     17  C   UNL     1       7.576  -2.932  -3.188  1.00  0.00     0.000 C 
BRANCH  17  18
ATOM     18  C   UNL     1       6.975  -1.554  -3.509  1.00  0.00     0.000 C 
BRANCH  18  19
ATOM     19  C   UNL     1       7.493  -0.443  -2.583  1.00  0.00     0.000 C 
BRANCH  19  20
ATOM     20  C   UNL     1       6.934   0.925  -3.006  1.00  0.00     0.006 C 
BRANCH  20  21
ATOM     21  C   UNL     1       7.572   2.084  -2.227  1.00  0.00     0.053 C 
BRANCH  21  22
ATOM     22  C   UNL     1       6.687   3.293  -2.204  1.00  0.00     0.041 C 
ATOM     23  O   UNL     1       6.986   4.283  -1.486  1.00  0.00    -0.550 OA
ATOM     24  O   UNL     1       5.555   3.343  -3.007  1.00  0.00    -0.550 OA
ENDBRANCH  21  22
ENDBRANCH  20  21
ENDBRANCH  19  20
ENDBRANCH  18  19
ENDBRANCH  17  18
ENDBRANCH  16  17
ENDBRANCH  15  16
ENDBRANCH  14  15
ENDBRANCH  13  14
ENDBRANCH   1  13
TORSDOF 20
ENDMDL
MODEL 4
REMARK VINA RESULT:    -2.659      1.340      4.271
REMARK INTER + INTRA:          -9.426
REMARK INTER:                  -5.902
REMARK INTRA:                  -3.524
REMARK UNBOUND:                -3.657
REMARK SMILES CCCCCCCCCCCCCCCCCCCCCC(=O)[O-]
REMARK SMILES IDX 12 1 11 2 10 3 9 4 8 5 7 6 6 7 5 8 4 9 3 10 2 11 1 12 13 13
REMARK SMILES IDX 14 14 15 15 16 16 17 17 18 18 19 19 20 20 21 21 22 22 23 23
REMARK SMILES IDX 24 24
REMARK H PARENT
REMARK Flexibility Score: inf
ROOT
ATOM      1  C   UNL     1       9.530  -3.560  -1.992  1.00  0.00     0.000 C 
ENDROOT
BRANCH   1   2
ATOM      2  C   UNL     1       8.056  -3.114  -2.091  1.00  0.00     0.000 C 
BRANCH   2   3
ATOM      3  C   UNL     1       7.602  -2.913  -3.547  1.00  0.00     0.000 C 
BRANCH   3   4
ATOM      4  C   UNL     1       7.374  -1.430  -3.887  1.00  0.00    -0.000 C 
BRANCH   4   5
ATOM      5  C   UNL     1       7.079  -0.583  -2.637  1.00  0.00    -0.000 C 
BRANCH   5   6
ATOM      6  C   UNL     1       7.131   0.927  -2.927  1.00  0.00    -0.000 C 
BRANCH   6   7
ATOM      7  C   UNL     1       7.843   1.716  -1.814  1.00  0.00    -0.000 C 
BRANCH   7   8
ATOM      8  C   UNL     1       8.534   0.792  -0.789  1.00  0.00    -0.000 C 
BRANCH   8   9
ATOM      9  C   UNL     1      10.030   1.094  -0.595  1.00  0.00    -0.000 C 
BRANCH   9  10
ATOM     10  C   UNL     1      10.940  -0.022  -1.129  1.00  0.00    -0.000 C 
BRANCH  10  11
ATOM     11  C   UNL     1      11.474   0.324  -2.523  1.00  0.00    -0.003 C 
ATOM     12  C   UNL     1      10.793  -0.519  -3.599  1.00  0.00     0.004 C 
ENDBRANCH  10  11
ENDBRANCH   9  10
ENDBRANCH   8   9
ENDBRANCH   7   8
ENDBRANCH   6   7
ENDBRANCH   5   6
ENDBRANCH   4   5
ENDBRANCH   3   4
ENDBRANCH   2   3
ENDBRANCH   1   2
BRANCH   1  13
ATOM     13  C   UNL     1      10.055  -3.628  -0.544  1.00  0.00     0.000 C 
BRANCH  13  14
ATOM     14  C   UNL     1       9.126  -4.356   0.447  1.00  0.00     0.000 C 
BRANCH  14  15
ATOM     15  C   UNL     1       8.831  -3.586   1.747  1.00  0.00     0.000 C 
BRANCH  15  16
ATOM     16  C   UNL     1       8.763  -2.065   1.538  1.00  0.00     0.000 C 
BRANCH  16  17
ATOM     17  C   UNL     1       9.792  -1.337   2.418  1.00  0.00     0.000 C 
BRANCH  17  18
ATOM     18  C   UNL     1       9.141  -0.358   3.408  1.00  0.00     0.000 C 
BRANCH  18  19
ATOM     19  C   UNL     1       9.114   1.089   2.891  1.00  0.00     0.000 C 
BRANCH  19  20
ATOM     20  C   UNL     1       7.715   1.703   3.057  1.00  0.00     0.006 C 
BRANCH  20  21
ATOM     21  C   UNL     1       7.587   3.064   2.360  1.00  0.00     0.053 C 
BRANCH  21  22
ATOM     22  C   UNL     1       7.602   4.196   3.342  1.00  0.00     0.041 C 
ATOM     23  O   UNL     1       6.630   4.370   4.123  1.00  0.00    -0.550 OA
ATOM     24  O   UNL     1       8.707   5.033   3.423  1.00  0.00    -0.550 OA
ENDBRANCH  21  22
ENDBRANCH  20  21
ENDBRANCH  19  20
ENDBRANCH  18  19
ENDBRANCH  17  18
ENDBRANCH  16  17
ENDBRANCH  15  16
ENDBRANCH  14  15
ENDBRANCH  13  14
ENDBRANCH   1  13
TORSDOF 20
ENDMDL
MODEL 5
REMARK VINA RESULT:    -2.600      2.876      5.955
REMARK INTER + INTRA:          -9.297
REMARK INTER:                  -5.585
REMARK INTRA:                  -3.712
REMARK UNBOUND:                -3.657
REMARK SMILES CCCCCCCCCCCCCCCCCCCCCC(=O)[O-]
REMARK SMILES IDX 12 1 11 2 10 3 9 4 8 5 7 6 6 7 5 8 4 9 3 10 2 11 1 12 13 13
REMARK SMILES IDX 14 14 15 15 16 16 17 17 18 18 19 19 20 20 21 21 22 22 23 23
REMARK SMILES IDX 24 24
REMARK H PARENT
REMARK Flexibility Score: inf
ROOT
ATOM      1  C   UNL     1       7.364   2.011  -2.062  1.00  0.00     0.000 C 
ENDROOT
BRANCH   1   2
ATOM      2  C   UNL     1       8.338   1.662  -0.917  1.00  0.00     0.000 C 
BRANCH   2   3
ATOM      3  C   UNL     1       9.548   2.611  -0.868  1.00  0.00     0.000 C 
BRANCH   3   4
ATOM      4  C   UNL     1      10.879   1.851  -0.737  1.00  0.00    -0.000 C 
BRANCH   4   5
ATOM      5  C   UNL     1      10.711   0.336  -0.949  1.00  0.00    -0.000 C 
BRANCH   5   6
ATOM      6  C   UNL     1      11.528  -0.491   0.059  1.00  0.00    -0.000 C 
BRANCH   6   7
ATOM      7  C   UNL     1      10.801  -1.777   0.491  1.00  0.00    -0.000 C 
BRANCH   7   8
ATOM      8  C   UNL     1       9.268  -1.605   0.514  1.00  0.00    -0.000 C 
BRANCH   8   9
ATOM      9  C   UNL     1       8.664  -1.636   1.930  1.00  0.00    -0.000 C 
BRANCH   9  10
ATOM     10  C   UNL     1       9.248  -0.556   2.852  1.00  0.00    -0.000 C 
BRANCH  10  11
ATOM     11  C   UNL     1       8.475   0.760   2.717  1.00  0.00    -0.003 C 
ATOM     12  C   UNL     1       9.417   1.961   2.763  1.00  0.00     0.004 C 
ENDBRANCH  10  11
ENDBRANCH   9  10
ENDBRANCH   8   9
ENDBRANCH   7   8
ENDBRANCH   6   7
ENDBRANCH   5   6
ENDBRANCH   4   5
ENDBRANCH   3   4
ENDBRANCH   2   3
ENDBRANCH   1   2
BRANCH   1  13
ATOM     13  C   UNL     1       7.030   0.812  -2.970  1.00  0.00     0.000 C 
BRANCH  13  14
ATOM     14  C   UNL     1       7.392  -0.566  -2.382  1.00  0.00     0.000 C 
BRANCH  14  15
ATOM     15  C   UNL     1       8.253  -1.457  -3.297  1.00  0.00     0.000 C 
BRANCH  15  16
ATOM     16  C   UNL     1       7.781  -2.918  -3.325  1.00  0.00     0.000 C 
BRANCH  16  17
ATOM     17  C   UNL     1       8.270  -3.685  -2.085  1.00  0.00     0.000 C 
BRANCH  17  18
ATOM     18  C   UNL     1       9.730  -4.144  -2.208  1.00  0.00     0.000 C 
BRANCH  18  19
ATOM     19  C   UNL     1      10.058  -5.349  -1.312  1.00  0.00     0.000 C 
BRANCH  19  20
ATOM     20  C   UNL     1       9.112  -5.404  -0.103  1.00  0.00     0.006 C 
BRANCH  20  21
ATOM     21  C   UNL     1       9.853  -5.220   1.229  1.00  0.00     0.053 C 
BRANCH  21  22
ATOM     22  C   UNL     1       8.938  -5.389   2.403  1.00  0.00     0.041 C 
ATOM     23  O   UNL     1       7.779  -4.897   2.380  1.00  0.00    -0.550 OA
ATOM     24  O   UNL     1       9.349  -6.125   3.506  1.00  0.00    -0.550 OA
ENDBRANCH  21  22
ENDBRANCH  20  21
ENDBRANCH  19  20
ENDBRANCH  18  19
ENDBRANCH  17  18
ENDBRANCH  16  17
ENDBRANCH  15  16
ENDBRANCH  14  15
ENDBRANCH  13  14
ENDBRANCH   1  13
TORSDOF 20
ENDMDL
MODEL 6
REMARK VINA RESULT:    -2.566      3.058      6.197
REMARK INTER + INTRA:          -9.224
REMARK INTER:                  -5.729
REMARK INTRA:                  -3.495
REMARK UNBOUND:                -3.657
REMARK SMILES CCCCCCCCCCCCCCCCCCCCCC(=O)[O-]
REMARK SMILES IDX 12 1 11 2 10 3 9 4 8 5 7 6 6 7 5 8 4 9 3 10 2 11 1 12 13 13
REMARK SMILES IDX 14 14 15 15 16 16 17 17 18 18 19 19 20 20 21 21 22 22 23 23
REMARK SMILES IDX 24 24
REMARK H PARENT
REMARK Flexibility Score: inf
ROOT
ATOM      1  C   UNL     1       7.317   0.106  -2.461  1.00  0.00     0.000 C 
ENDROOT
BRANCH   1   2
ATOM      2  C   UNL     1       6.977   1.546  -2.901  1.00  0.00     0.000 C 
BRANCH   2   3
ATOM      3  C   UNL     1       7.588   2.604  -1.966  1.00  0.00     0.000 C 
BRANCH   3   4
ATOM      4  C   UNL     1       8.046   2.002  -0.627  1.00  0.00    -0.000 C 
BRANCH   4   5
ATOM      5  C   UNL     1       9.436   2.509  -0.203  1.00  0.00    -0.000 C 
BRANCH   5   6
ATOM      6  C   UNL     1       9.776   2.140   1.251  1.00  0.00    -0.000 C 
BRANCH   6   7
ATOM      7  C   UNL     1       8.691   1.265   1.906  1.00  0.00    -0.000 C 
BRANCH   7   8
ATOM      8  C   UNL     1       9.282   0.024   2.607  1.00  0.00    -0.000 C 
BRANCH   8   9
ATOM      9  C   UNL     1       8.817  -1.310   1.996  1.00  0.00    -0.000 C 
BRANCH   9  10
ATOM     10  C   UNL     1       8.985  -1.359   0.470  1.00  0.00    -0.000 C 
BRANCH  10  11
ATOM     11  C   UNL     1      10.467  -1.418   0.082  1.00  0.00    -0.003 C 
ATOM     12  C   UNL     1      10.687  -0.886  -1.333  1.00  0.00     0.004 C 
ENDBRANCH  10  11
ENDBRANCH   9  10
ENDBRANCH   8   9
ENDBRANCH   7   8
ENDBRANCH   6   7
ENDBRANCH   5   6
ENDBRANCH   4   5
ENDBRANCH   3   4
ENDBRANCH   2   3
ENDBRANCH   1   2
BRANCH   1  13
ATOM     13  C   UNL     1       7.259  -0.917  -3.612  1.00  0.00     0.000 C 
BRANCH  13  14
ATOM     14  C   UNL     1       7.288  -2.393  -3.167  1.00  0.00     0.000 C 
BRANCH  14  15
ATOM     15  C   UNL     1       8.634  -3.110  -3.381  1.00  0.00     0.000 C 
BRANCH  15  16
ATOM     16  C   UNL     1       8.666  -4.518  -2.767  1.00  0.00     0.000 C 
BRANCH  16  17
ATOM     17  C   UNL     1       8.711  -4.454  -1.232  1.00  0.00     0.000 C 
BRANCH  17  18
ATOM     18  C   UNL     1      10.077  -4.862  -0.660  1.00  0.00     0.000 C 
BRANCH  18  19
ATOM     19  C   UNL     1      10.000  -5.330   0.802  1.00  0.00     0.000 C 
BRANCH  19  20
ATOM     20  C   UNL     1       8.553  -5.280   1.316  1.00  0.00     0.006 C 
BRANCH  20  21
ATOM     21  C   UNL     1       8.469  -4.847   2.787  1.00  0.00     0.053 C 
BRANCH  21  22
ATOM     22  C   UNL     1       9.137  -5.832   3.697  1.00  0.00     0.041 C 
ATOM     23  O   UNL     1       8.722  -7.019   3.760  1.00  0.00    -0.550 OA
ATOM     24  O   UNL     1      10.244  -5.450   4.444  1.00  0.00    -0.550 OA
ENDBRANCH  21  22
ENDBRANCH  20  21
ENDBRANCH  19  20
ENDBRANCH  18  19
ENDBRANCH  17  18
ENDBRANCH  16  17
ENDBRANCH  15  16
ENDBRANCH  14  15
ENDBRANCH  13  14
ENDBRANCH   1  13
TORSDOF 20
ENDMDL
MODEL 7
REMARK VINA RESULT:    -2.566      3.882      7.022
REMARK INTER + INTRA:          -9.224
REMARK INTER:                  -5.537
REMARK INTRA:                  -3.687
REMARK UNBOUND:                -3.657
REMARK SMILES CCCCCCCCCCCCCCCCCCCCCC(=O)[O-]
REMARK SMILES IDX 12 1 11 2 10 3 9 4 8 5 7 6 6 7 5 8 4 9 3 10 2 11 1 12 13 13
REMARK SMILES IDX 14 14 15 15 16 16 17 17 18 18 19 19 20 20 21 21 22 22 23 23
REMARK SMILES IDX 24 24
REMARK H PARENT
REMARK Flexibility Score: inf
ROOT
ATOM      1  C   UNL     1       7.214  -1.991  -3.215  1.00  0.00     0.000 C 
ENDROOT
BRANCH   1   2
ATOM      2  C   UNL     1       7.900  -1.228  -2.062  1.00  0.00     0.000 C 
BRANCH   2   3
ATOM      3  C   UNL     1       7.582   0.277  -2.084  1.00  0.00     0.000 C 
BRANCH   3   4
ATOM      4  C   UNL     1       8.380   1.056  -1.025  1.00  0.00    -0.000 C 
BRANCH   4   5
ATOM      5  C   UNL     1       9.645   0.304  -0.575  1.00  0.00    -0.000 C 
BRANCH   5   6
ATOM      6  C   UNL     1       9.879   0.407   0.942  1.00  0.00    -0.000 C 
BRANCH   6   7
ATOM      7  C   UNL     1       8.867  -0.422   1.753  1.00  0.00    -0.000 C 
BRANCH   7   8
ATOM      8  C   UNL     1       9.386  -1.842   2.061  1.00  0.00    -0.000 C 
BRANCH   8   9
ATOM      9  C   UNL     1       8.502  -2.962   1.484  1.00  0.00    -0.000 C 
BRANCH   9  10
ATOM     10  C   UNL     1       9.049  -3.538   0.170  1.00  0.00    -0.000 C 
BRANCH  10  11
ATOM     11  C   UNL     1      10.566  -3.337   0.070  1.00  0.00    -0.003 C 
ATOM     12  C   UNL     1      10.992  -3.061  -1.370  1.00  0.00     0.004 C 
ENDBRANCH  10  11
ENDBRANCH   9  10
ENDBRANCH   8   9
ENDBRANCH   7   8
ENDBRANCH   6   7
ENDBRANCH   5   6
ENDBRANCH   4   5
ENDBRANCH   3   4
ENDBRANCH   2   3
ENDBRANCH   1   2
BRANCH   1  13
ATOM     13  C   UNL     1       7.990  -3.241  -3.672  1.00  0.00     0.000 C 
BRANCH  13  14
ATOM     14  C   UNL     1       7.201  -4.562  -3.580  1.00  0.00     0.000 C 
BRANCH  14  15
ATOM     15  C   UNL     1       7.836  -5.636  -2.678  1.00  0.00     0.000 C 
BRANCH  15  16
ATOM     16  C   UNL     1       9.289  -5.957  -3.062  1.00  0.00     0.000 C 
BRANCH  16  17
ATOM     17  C   UNL     1      10.044  -6.602  -1.889  1.00  0.00     0.000 C 
BRANCH  17  18
ATOM     18  C   UNL     1       9.105  -7.266  -0.870  1.00  0.00     0.000 C 
BRANCH  18  19
ATOM     19  C   UNL     1       9.600  -7.133   0.578  1.00  0.00     0.000 C 
BRANCH  19  20
ATOM     20  C   UNL     1       8.420  -6.952   1.545  1.00  0.00     0.006 C 
BRANCH  20  21
ATOM     21  C   UNL     1       8.867  -6.472   2.933  1.00  0.00     0.053 C 
BRANCH  21  22
ATOM     22  C   UNL     1       8.983  -7.606   3.904  1.00  0.00     0.041 C 
ATOM     23  O   UNL     1       8.046  -8.440   4.020  1.00  0.00    -0.550 OA
ATOM     24  O   UNL     1      10.142  -7.768   4.652  1.00  0.00    -0.550 OA
ENDBRANCH  21  22
ENDBRANCH  20  21
ENDBRANCH  19  20
ENDBRANCH  18  19
ENDBRANCH  17  18
ENDBRANCH  16  17
ENDBRANCH  15  16
ENDBRANCH  14  15
ENDBRANCH  13  14
ENDBRANCH   1  13
TORSDOF 20
ENDMDL
MODEL 8
REMARK VINA RESULT:    -2.564      5.437      8.244
REMARK INTER + INTRA:          -9.219
REMARK INTER:                  -6.401
REMARK INTRA:                  -2.818
REMARK UNBOUND:                -3.657
REMARK SMILES CCCCCCCCCCCCCCCCCCCCCC(=O)[O-]
REMARK SMILES IDX 12 1 11 2 10 3 9 4 8 5 7 6 6 7 5 8 4 9 3 10 2 11 1 12 13 13
REMARK SMILES IDX 14 14 15 15 16 16 17 17 18 18 19 19 20 20 21 21 22 22 23 23
REMARK SMILES IDX 24 24
REMARK H PARENT
REMARK Flexibility Score: inf
ROOT
ATOM      1  C   UNL     1       7.635   0.034  -2.036  1.00  0.00     0.000 C 
ENDROOT
BRANCH   1   2
ATOM      2  C   UNL     1       7.760  -1.438  -2.484  1.00  0.00     0.000 C 
BRANCH   2   3
ATOM      3  C   UNL     1       6.809  -1.779  -3.644  1.00  0.00     0.000 C 
BRANCH   3   4
ATOM      4  C   UNL     1       7.187  -3.099  -4.337  1.00  0.00    -0.000 C 
BRANCH   4   5
ATOM      5  C   UNL     1       5.950  -3.900  -4.782  1.00  0.00    -0.000 C 
BRANCH   5   6
ATOM      6  C   UNL     1       5.570  -3.626  -6.248  1.00  0.00    -0.000 C 
BRANCH   6   7
ATOM      7  C   UNL     1       4.047  -3.544  -6.455  1.00  0.00    -0.000 C 
BRANCH   7   8
ATOM      8  C   UNL     1       3.262  -3.845  -5.162  1.00  0.00    -0.000 C 
BRANCH   8   9
ATOM      9  C   UNL     1       2.477  -5.169  -5.210  1.00  0.00    -0.000 C 
BRANCH   9  10
ATOM     10  C   UNL     1       2.391  -5.861  -3.842  1.00  0.00    -0.000 C 
BRANCH  10  11
ATOM     11  C   UNL     1       3.186  -7.172  -3.838  1.00  0.00    -0.003 C 
ATOM     12  C   UNL     1       4.574  -6.973  -3.233  1.00  0.00     0.004 C 
ENDBRANCH  10  11
ENDBRANCH   9  10
ENDBRANCH   8   9
ENDBRANCH   7   8
ENDBRANCH   6   7
ENDBRANCH   5   6
ENDBRANCH   4   5
ENDBRANCH   3   4
ENDBRANCH   2   3
ENDBRANCH   1   2
BRANCH   1  13
ATOM     13  C   UNL     1       7.725   1.040  -3.199  1.00  0.00     0.000 C 
BRANCH  13  14
ATOM     14  C   UNL     1       6.621   2.115  -3.211  1.00  0.00     0.000 C 
BRANCH  14  15
ATOM     15  C   UNL     1       5.459   1.841  -4.184  1.00  0.00     0.000 C 
BRANCH  15  16
ATOM     16  C   UNL     1       5.909   1.131  -5.469  1.00  0.00     0.000 C 
BRANCH  16  17
ATOM     17  C   UNL     1       4.754   0.336  -6.099  1.00  0.00     0.000 C 
BRANCH  17  18
ATOM     18  C   UNL     1       3.759  -0.195  -5.056  1.00  0.00     0.000 C 
BRANCH  18  19
ATOM     19  C   UNL     1       2.321  -0.284  -5.589  1.00  0.00     0.000 C 
BRANCH  19  20
ATOM     20  C   UNL     1       1.331  -0.568  -4.448  1.00  0.00     0.006 C 
BRANCH  20  21
ATOM     21  C   UNL     1       0.990   0.693  -3.641  1.00  0.00     0.053 C 
BRANCH  21  22
ATOM     22  C   UNL     1      -0.427   1.126  -3.857  1.00  0.00     0.041 C 
ATOM     23  O   UNL     1      -0.814   2.253  -3.449  1.00  0.00    -0.550 OA
ATOM     24  O   UNL     1      -1.309   0.305  -4.546  1.00  0.00    -0.550 OA
ENDBRANCH  21  22
ENDBRANCH  20  21
ENDBRANCH  19  20
ENDBRANCH  18  19
ENDBRANCH  17  18
ENDBRANCH  16  17
ENDBRANCH  15  16
ENDBRANCH  14  15
ENDBRANCH  13  14
ENDBRANCH   1  13
TORSDOF 20
ENDMDL
MODEL 9
REMARK VINA RESULT:    -2.540      5.336      8.024
REMARK INTER + INTRA:          -9.166
REMARK INTER:                  -6.871
REMARK INTRA:                  -2.295
REMARK UNBOUND:                -3.657
REMARK SMILES CCCCCCCCCCCCCCCCCCCCCC(=O)[O-]
REMARK SMILES IDX 12 1 11 2 10 3 9 4 8 5 7 6 6 7 5 8 4 9 3 10 2 11 1 12 13 13
REMARK SMILES IDX 14 14 15 15 16 16 17 17 18 18 19 19 20 20 21 21 22 22 23 23
REMARK SMILES IDX 24 24
REMARK H PARENT
REMARK Flexibility Score: inf
ROOT
ATOM      1  C   UNL     1       7.569  -1.751  -2.749  1.00  0.00     0.000 C 
ENDROOT
BRANCH   1   2
ATOM      2  C   UNL     1       7.334  -2.124  -4.228  1.00  0.00     0.000 C 
BRANCH   2   3
ATOM      3  C   UNL     1       6.528  -3.426  -4.383  1.00  0.00     0.000 C 
BRANCH   3   4
ATOM      4  C   UNL     1       5.246  -3.222  -5.206  1.00  0.00    -0.000 C 
BRANCH   4   5
ATOM      5  C   UNL     1       5.147  -1.802  -5.793  1.00  0.00    -0.000 C 
BRANCH   5   6
ATOM      6  C   UNL     1       3.884  -1.060  -5.321  1.00  0.00    -0.000 C 
BRANCH   6   7
ATOM      7  C   UNL     1       2.592  -1.685  -5.876  1.00  0.00    -0.000 C 
BRANCH   7   8
ATOM      8  C   UNL     1       1.663  -2.202  -4.757  1.00  0.00    -0.000 C 
BRANCH   8   9
ATOM      9  C   UNL     1       0.911  -3.494  -5.125  1.00  0.00    -0.000 C 
BRANCH   9  10
ATOM     10  C   UNL     1       1.853  -4.659  -5.461  1.00  0.00    -0.000 C 
BRANCH  10  11
ATOM     11  C   UNL     1       1.741  -5.775  -4.416  1.00  0.00    -0.003 C 
ATOM     12  C   UNL     1       3.043  -5.931  -3.634  1.00  0.00     0.004 C 
ENDBRANCH  10  11
ENDBRANCH   9  10
ENDBRANCH   8   9
ENDBRANCH   7   8
ENDBRANCH   6   7
ENDBRANCH   5   6
ENDBRANCH   4   5
ENDBRANCH   3   4
ENDBRANCH   2   3
ENDBRANCH   1   2
BRANCH   1  13
ATOM     13  C   UNL     1       7.553  -0.232  -2.488  1.00  0.00     0.000 C 
BRANCH  13  14
ATOM     14  C   UNL     1       6.795   0.597  -3.543  1.00  0.00     0.000 C 
BRANCH  14  15
ATOM     15  C   UNL     1       6.659   2.095  -3.216  1.00  0.00     0.000 C 
BRANCH  15  16
ATOM     16  C   UNL     1       5.800   2.855  -4.238  1.00  0.00     0.000 C 
BRANCH  16  17
ATOM     17  C   UNL     1       4.420   3.203  -3.656  1.00  0.00     0.000 C 
BRANCH  17  18
ATOM     18  C   UNL     1       3.293   2.338  -4.241  1.00  0.00     0.000 C 
BRANCH  18  19
ATOM     19  C   UNL     1       1.920   2.643  -3.621  1.00  0.00     0.000 C 
BRANCH  19  20
ATOM     20  C   UNL     1       1.094   1.357  -3.463  1.00  0.00     0.006 C 
BRANCH  20  21
ATOM     21  C   UNL     1      -0.398   1.642  -3.239  1.00  0.00     0.053 C 
BRANCH  21  22
ATOM     22  C   UNL     1      -0.737   1.722  -1.782  1.00  0.00     0.041 C 
ATOM     23  O   UNL     1      -0.183   2.584  -1.049  1.00  0.00    -0.550 OA
ATOM     24  O   UNL     1      -1.694   0.874  -1.242  1.00  0.00    -0.550 OA
ENDBRANCH  21  22
ENDBRANCH  20  21
ENDBRANCH  19  20
ENDBRANCH  18  19
ENDBRANCH  17  18
ENDBRANCH  16  17
ENDBRANCH  15  16
ENDBRANCH  14  15
ENDBRANCH  13  14
ENDBRANCH   1  13
TORSDOF 20
ENDMDL
