MODEL 1
REMARK VINA RESULT:     0.818      0.000      0.000
REMARK INTER + INTRA:           0.659
REMARK INTER:                   1.775
REMARK INTRA:                  -1.116
REMARK UNBOUND:                -1.116
REMARK SMILES CCCCCCCCCCCCCCCCCCCCCC(=O)[O-]
REMARK SMILES IDX 12 1 11 2 10 3 9 4 8 5 7 6 6 7 5 8 4 9 3 10 2 11 1 12 13 13
REMARK SMILES IDX 14 14 15 15 16 16 17 17 18 18 19 19 20 20 21 21 22 22 23 23
REMARK SMILES IDX 24 24
REMARK H PARENT
REMARK Flexibility Score: inf
ROOT
ATOM      1  C   UNL     1     -30.173 -22.320 -33.450  1.00  0.00     0.000 C 
ENDROOT
BRANCH   1   2
ATOM      2  C   UNL     1     -29.558 -21.098 -34.154  1.00  0.00     0.000 C 
BRANCH   2   3
ATOM      3  C   UNL     1     -29.419 -19.886 -33.217  1.00  0.00     0.000 C 
BRANCH   3   4
ATOM      4  C   UNL     1     -28.119 -19.915 -32.393  1.00  0.00    -0.000 C 
BRANCH   4   5
ATOM      5  C   UNL     1     -28.316 -19.895 -30.863  1.00  0.00    -0.000 C 
BRANCH   5   6
ATOM      6  C   UNL     1     -29.784 -19.876 -30.395  1.00  0.00    -0.000 C 
BRANCH   6   7
ATOM      7  C   UNL     1     -30.577 -21.163 -30.692  1.00  0.00    -0.000 C 
BRANCH   7   8
ATOM      8  C   UNL     1     -30.850 -22.057 -29.466  1.00  0.00    -0.000 C 
BRANCH   8   9
ATOM      9  C   UNL     1     -30.224 -23.465 -29.534  1.00  0.00    -0.000 C 
BRANCH   9  10
ATOM     10  C   UNL     1     -29.189 -23.774 -28.433  1.00  0.00    -0.000 C 
BRANCH  10  11
ATOM     11  C   UNL     1     -28.931 -22.621 -27.446  1.00  0.00    -0.003 C 
ATOM     12  C   UNL     1     -27.636 -21.864 -27.739  1.00  0.00     0.004 C 
ENDBRANCH  10  11
ENDBRANCH   9  10
ENDBRANCH   8   9
ENDBRANCH   7   8
ENDBRANCH   6   7
ENDBRANCH   5   6
ENDBRANCH   4   5
ENDBRANCH   3   4
ENDBRANCH   2   3
ENDBRANCH   1   2
BRANCH   1  13
ATOM     13  C   UNL     1     -31.325 -22.944 -34.255  1.00  0.00     0.000 C 
BRANCH  13  14
ATOM     14  C   UNL     1     -32.369 -21.886 -34.632  1.00  0.00     0.000 C 
BRANCH  14  15
ATOM     15  C   UNL     1     -33.586 -22.535 -35.311  1.00  0.00     0.000 C 
BRANCH  15  16
ATOM     16  C   UNL     1     -33.211 -23.304 -36.587  1.00  0.00     0.000 C 
BRANCH  16  17
ATOM     17  C   UNL     1     -32.521 -22.413 -37.638  1.00  0.00     0.000 C 
BRANCH  17  18
ATOM     18  C   UNL     1     -31.219 -23.043 -38.178  1.00  0.00     0.000 C 
BRANCH  18  19
ATOM     19  C   UNL     1     -31.447 -24.287 -39.058  1.00  0.00     0.000 C 
BRANCH  19  20
ATOM     20  C   UNL     1     -31.453 -25.626 -38.301  1.00  0.00     0.006 C 
BRANCH  20  21
ATOM     21  C   UNL     1     -32.799 -26.357 -38.394  1.00  0.00     0.053 C 
BRANCH  21  22
ATOM     22  C   UNL     1     -32.587 -27.833 -38.520  1.00  0.00     0.041 C 
ATOM     23  O   UNL     1     -31.424 -28.297 -38.667  1.00  0.00    -0.550 OA
ATOM     24  O   UNL     1     -33.671 -28.702 -38.454  1.00  0.00    -0.550 OA
ENDBRANCH  21  22
ENDBRANCH  20  21
ENDBRANCH  19  20
ENDBRANCH  18  19
ENDBRANCH  17  18
ENDBRANCH  16  17
ENDBRANCH  15  16
ENDBRANCH  14  15
ENDBRANCH  13  14
ENDBRANCH   1  13
TORSDOF 20
ENDMDL
MODEL 2
REMARK VINA RESULT:     0.830      1.210      2.063
REMARK INTER + INTRA:           0.686
REMARK INTER:                   1.392
REMARK INTRA:                  -0.707
REMARK UNBOUND:                -1.116
REMARK SMILES CCCCCCCCCCCCCCCCCCCCCC(=O)[O-]
REMARK SMILES IDX 12 1 11 2 10 3 9 4 8 5 7 6 6 7 5 8 4 9 3 10 2 11 1 12 13 13
REMARK SMILES IDX 14 14 15 15 16 16 17 17 18 18 19 19 20 20 21 21 22 22 23 23
REMARK SMILES IDX 24 24
REMARK H PARENT
REMARK Flexibility Score: inf
ROOT
ATOM      1  C   UNL     1     -31.540 -21.698 -33.676  1.00  0.00     0.000 C 
ENDROOT
BRANCH   1   2
ATOM      2  C   UNL     1     -31.637 -20.283 -33.083  1.00  0.00     0.000 C 
BRANCH   2   3
ATOM      3  C   UNL     1     -30.427 -19.929 -32.200  1.00  0.00     0.000 C 
BRANCH   3   4
ATOM      4  C   UNL     1     -29.106 -20.511 -32.736  1.00  0.00    -0.000 C 
BRANCH   4   5
ATOM      5  C   UNL     1     -27.852 -20.146 -31.916  1.00  0.00    -0.000 C 
BRANCH   5   6
ATOM      6  C   UNL     1     -28.107 -19.876 -30.420  1.00  0.00    -0.000 C 
BRANCH   6   7
ATOM      7  C   UNL     1     -28.603 -21.094 -29.616  1.00  0.00    -0.000 C 
BRANCH   7   8
ATOM      8  C   UNL     1     -30.107 -21.401 -29.762  1.00  0.00    -0.000 C 
BRANCH   8   9
ATOM      9  C   UNL     1     -30.475 -22.896 -29.700  1.00  0.00    -0.000 C 
BRANCH   9  10
ATOM     10  C   UNL     1     -30.853 -23.533 -31.053  1.00  0.00    -0.000 C 
BRANCH  10  11
ATOM     11  C   UNL     1     -31.209 -25.029 -30.987  1.00  0.00    -0.003 C 
ATOM     12  C   UNL     1     -30.479 -25.767 -29.866  1.00  0.00     0.004 C 
ENDBRANCH  10  11
ENDBRANCH   9  10
ENDBRANCH   8   9
ENDBRANCH   7   8
ENDBRANCH   6   7
ENDBRANCH   5   6
ENDBRANCH   4   5
ENDBRANCH   3   4
ENDBRANCH   2   3
ENDBRANCH   1   2
BRANCH   1  13
ATOM     13  C   UNL     1     -32.000 -21.755 -35.141  1.00  0.00     0.000 C 
BRANCH  13  14
ATOM     14  C   UNL     1     -32.668 -23.099 -35.456  1.00  0.00     0.000 C 
BRANCH  14  15
ATOM     15  C   UNL     1     -33.512 -23.006 -36.737  1.00  0.00     0.000 C 
BRANCH  15  16
ATOM     16  C   UNL     1     -32.891 -22.071 -37.787  1.00  0.00     0.000 C 
BRANCH  16  17
ATOM     17  C   UNL     1     -31.597 -22.640 -38.400  1.00  0.00     0.000 C 
BRANCH  17  18
ATOM     18  C   UNL     1     -31.777 -24.084 -38.914  1.00  0.00     0.000 C 
BRANCH  18  19
ATOM     19  C   UNL     1     -30.794 -25.095 -38.293  1.00  0.00     0.000 C 
BRANCH  19  20
ATOM     20  C   UNL     1     -31.404 -26.464 -37.945  1.00  0.00     0.006 C 
BRANCH  20  21
ATOM     21  C   UNL     1     -32.508 -26.889 -38.922  1.00  0.00     0.053 C 
BRANCH  21  22
ATOM     22  C   UNL     1     -32.659 -28.378 -38.930  1.00  0.00     0.041 C 
ATOM     23  O   UNL     1     -31.638 -29.118 -38.971  1.00  0.00    -0.550 OA
ATOM     24  O   UNL     1     -33.924 -28.952 -38.870  1.00  0.00    -0.550 OA
ENDBRANCH  21  22
ENDBRANCH  20  21
ENDBRANCH  19  20
ENDBRANCH  18  19
ENDBRANCH  17  18
ENDBRANCH  16  17
ENDBRANCH  15  16
ENDBRANCH  14  15
ENDBRANCH  13  14
ENDBRANCH   1  13
TORSDOF 20
ENDMDL
MODEL 3
REMARK VINA RESULT:     0.854      2.828      8.697
REMARK INTER + INTRA:           0.738
REMARK INTER:                   0.066
REMARK INTRA:                   0.672
REMARK UNBOUND:                -1.116
REMARK SMILES CCCCCCCCCCCCCCCCCCCCCC(=O)[O-]
REMARK SMILES IDX 12 1 11 2 10 3 9 4 8 5 7 6 6 7 5 8 4 9 3 10 2 11 1 12 13 13
REMARK SMILES IDX 14 14 15 15 16 16 17 17 18 18 19 19 20 20 21 21 22 22 23 23
REMARK SMILES IDX 24 24
REMARK H PARENT
REMARK Flexibility Score: inf
ROOT
ATOM      1  C   UNL     1     -31.437 -21.929 -33.378  1.00  0.00     0.000 C 
ENDROOT
BRANCH   1   2
ATOM      2  C   UNL     1     -31.595 -22.763 -34.661  1.00  0.00     0.000 C 
BRANCH   2   3
ATOM      3  C   UNL     1     -33.064 -22.905 -35.094  1.00  0.00     0.000 C 
BRANCH   3   4
ATOM      4  C   UNL     1     -33.214 -23.439 -36.530  1.00  0.00    -0.000 C 
BRANCH   4   5
ATOM      5  C   UNL     1     -33.266 -22.355 -37.627  1.00  0.00    -0.000 C 
BRANCH   5   6
ATOM      6  C   UNL     1     -32.102 -22.395 -38.638  1.00  0.00    -0.000 C 
BRANCH   6   7
ATOM      7  C   UNL     1     -31.121 -23.569 -38.453  1.00  0.00    -0.000 C 
BRANCH   7   8
ATOM      8  C   UNL     1     -31.556 -24.891 -39.115  1.00  0.00    -0.000 C 
BRANCH   8   9
ATOM      9  C   UNL     1     -31.951 -26.012 -38.133  1.00  0.00    -0.000 C 
BRANCH   9  10
ATOM     10  C   UNL     1     -31.601 -27.441 -38.597  1.00  0.00    -0.000 C 
BRANCH  10  11
ATOM     11  C   UNL     1     -32.799 -28.272 -39.091  1.00  0.00    -0.003 C 
ATOM     12  C   UNL     1     -34.062 -28.049 -38.261  1.00  0.00     0.004 C 
ENDBRANCH  10  11
ENDBRANCH   9  10
ENDBRANCH   8   9
ENDBRANCH   7   8
ENDBRANCH   6   7
ENDBRANCH   5   6
ENDBRANCH   4   5
ENDBRANCH   3   4
ENDBRANCH   2   3
ENDBRANCH   1   2
BRANCH   1  13
ATOM     13  C   UNL     1     -31.463 -20.417 -33.652  1.00  0.00     0.000 C 
BRANCH  13  14
ATOM     14  C   UNL     1     -30.228 -19.981 -34.450  1.00  0.00     0.000 C 
BRANCH  14  15
ATOM     15  C   UNL     1     -28.957 -20.083 -33.592  1.00  0.00     0.000 C 
BRANCH  15  16
ATOM     16  C   UNL     1     -29.250 -19.979 -32.087  1.00  0.00     0.000 C 
BRANCH  16  17
ATOM     17  C   UNL     1     -27.969 -19.875 -31.238  1.00  0.00     0.000 C 
BRANCH  17  18
ATOM     18  C   UNL     1     -28.242 -20.089 -29.734  1.00  0.00     0.000 C 
BRANCH  18  19
ATOM     19  C   UNL     1     -29.732 -19.998 -29.351  1.00  0.00     0.000 C 
BRANCH  19  20
ATOM     20  C   UNL     1     -30.607 -21.151 -29.871  1.00  0.00     0.006 C 
BRANCH  20  21
ATOM     21  C   UNL     1     -30.138 -22.526 -29.376  1.00  0.00     0.053 C 
BRANCH  21  22
ATOM     22  C   UNL     1     -30.564 -23.601 -30.325  1.00  0.00     0.041 C 
ATOM     23  O   UNL     1     -30.957 -23.302 -31.486  1.00  0.00    -0.550 OA
ATOM     24  O   UNL     1     -30.509 -24.936 -29.938  1.00  0.00    -0.550 OA
ENDBRANCH  21  22
ENDBRANCH  20  21
ENDBRANCH  19  20
ENDBRANCH  18  19
ENDBRANCH  17  18
ENDBRANCH  16  17
ENDBRANCH  15  16
ENDBRANCH  14  15
ENDBRANCH  13  14
ENDBRANCH   1  13
TORSDOF 20
ENDMDL
MODEL 4
REMARK VINA RESULT:     0.877      3.982      9.171
REMARK INTER + INTRA:           0.787
REMARK INTER:                   1.263
REMARK INTRA:                  -0.476
REMARK UNBOUND:                -1.116
REMARK SMILES CCCCCCCCCCCCCCCCCCCCCC(=O)[O-]
REMARK SMILES IDX 12 1 11 2 10 3 9 4 8 5 7 6 6 7 5 8 4 9 3 10 2 11 1 12 13 13
REMARK SMILES IDX 14 14 15 15 16 16 17 17 18 18 19 19 20 20 21 21 22 22 23 23
REMARK SMILES IDX 24 24
REMARK H PARENT
REMARK Flexibility Score: inf
ROOT
ATOM      1  C   UNL     1     -30.946 -22.300 -34.595  1.00  0.00     0.000 C 
ENDROOT
BRANCH   1   2
ATOM      2  C   UNL     1     -31.966 -23.023 -35.490  1.00  0.00     0.000 C 
BRANCH   2   3
ATOM      3  C   UNL     1     -33.313 -22.284 -35.565  1.00  0.00     0.000 C 
BRANCH   3   4
ATOM      4  C   UNL     1     -33.953 -22.349 -36.964  1.00  0.00    -0.000 C 
BRANCH   4   5
ATOM      5  C   UNL     1     -33.237 -21.520 -38.049  1.00  0.00    -0.000 C 
BRANCH   5   6
ATOM      6  C   UNL     1     -32.209 -22.300 -38.893  1.00  0.00    -0.000 C 
BRANCH   6   7
ATOM      7  C   UNL     1     -32.542 -23.788 -39.110  1.00  0.00    -0.000 C 
BRANCH   7   8
ATOM      8  C   UNL     1     -31.736 -24.770 -38.236  1.00  0.00    -0.000 C 
BRANCH   8   9
ATOM      9  C   UNL     1     -31.778 -26.239 -38.699  1.00  0.00    -0.000 C 
BRANCH   9  10
ATOM     10  C   UNL     1     -33.048 -27.016 -38.294  1.00  0.00    -0.000 C 
BRANCH  10  11
ATOM     11  C   UNL     1     -32.973 -28.538 -38.512  1.00  0.00    -0.003 C 
ATOM     12  C   UNL     1     -31.580 -29.013 -38.922  1.00  0.00     0.004 C 
ENDBRANCH  10  11
ENDBRANCH   9  10
ENDBRANCH   8   9
ENDBRANCH   7   8
ENDBRANCH   6   7
ENDBRANCH   5   6
ENDBRANCH   4   5
ENDBRANCH   3   4
ENDBRANCH   2   3
ENDBRANCH   1   2
BRANCH   1  13
ATOM     13  C   UNL     1     -31.609 -21.293 -33.642  1.00  0.00     0.000 C 
BRANCH  13  14
ATOM     14  C   UNL     1     -31.035 -19.886 -33.843  1.00  0.00     0.000 C 
BRANCH  14  15
ATOM     15  C   UNL     1     -29.501 -19.900 -33.748  1.00  0.00     0.000 C 
BRANCH  15  16
ATOM     16  C   UNL     1     -28.998 -19.911 -32.296  1.00  0.00     0.000 C 
BRANCH  16  17
ATOM     17  C   UNL     1     -28.822 -21.336 -31.738  1.00  0.00     0.000 C 
BRANCH  17  18
ATOM     18  C   UNL     1     -30.159 -21.959 -31.284  1.00  0.00     0.000 C 
BRANCH  18  19
ATOM     19  C   UNL     1     -30.929 -21.105 -30.259  1.00  0.00     0.000 C 
BRANCH  19  20
ATOM     20  C   UNL     1     -30.732 -21.519 -28.791  1.00  0.00     0.006 C 
BRANCH  20  21
ATOM     21  C   UNL     1     -30.030 -22.875 -28.643  1.00  0.00     0.053 C 
BRANCH  21  22
ATOM     22  C   UNL     1     -28.783 -22.736 -27.827  1.00  0.00     0.041 C 
ATOM     23  O   UNL     1     -28.536 -23.557 -26.903  1.00  0.00    -0.550 OA
ATOM     24  O   UNL     1     -27.882 -21.713 -28.100  1.00  0.00    -0.550 OA
ENDBRANCH  21  22
ENDBRANCH  20  21
ENDBRANCH  19  20
ENDBRANCH  18  19
ENDBRANCH  17  18
ENDBRANCH  16  17
ENDBRANCH  15  16
ENDBRANCH  14  15
ENDBRANCH  13  14
ENDBRANCH   1  13
TORSDOF 20
ENDMDL
MODEL 5
REMARK VINA RESULT:     0.949      0.982      1.676
REMARK INTER + INTRA:           0.942
REMARK INTER:                   1.905
REMARK INTRA:                  -0.963
REMARK UNBOUND:                -1.116
REMARK SMILES CCCCCCCCCCCCCCCCCCCCCC(=O)[O-]
REMARK SMILES IDX 12 1 11 2 10 3 9 4 8 5 7 6 6 7 5 8 4 9 3 10 2 11 1 12 13 13
REMARK SMILES IDX 14 14 15 15 16 16 17 17 18 18 19 19 20 20 21 21 22 22 23 23
REMARK SMILES IDX 24 24
REMARK H PARENT
REMARK Flexibility Score: inf
ROOT
ATOM      1  C   UNL     1     -31.415 -22.425 -33.836  1.00  0.00     0.000 C 
ENDROOT
BRANCH   1   2
ATOM      2  C   UNL     1     -30.371 -21.352 -34.189  1.00  0.00     0.000 C 
BRANCH   2   3
ATOM      3  C   UNL     1     -30.629 -20.018 -33.468  1.00  0.00     0.000 C 
BRANCH   3   4
ATOM      4  C   UNL     1     -31.680 -20.137 -32.349  1.00  0.00    -0.000 C 
BRANCH   4   5
ATOM      5  C   UNL     1     -31.149 -19.875 -30.925  1.00  0.00    -0.000 C 
BRANCH   5   6
ATOM      6  C   UNL     1     -29.614 -19.907 -30.784  1.00  0.00    -0.000 C 
BRANCH   6   7
ATOM      7  C   UNL     1     -29.079 -20.902 -29.736  1.00  0.00    -0.000 C 
BRANCH   7   8
ATOM      8  C   UNL     1     -29.951 -22.155 -29.524  1.00  0.00    -0.000 C 
BRANCH   8   9
ATOM      9  C   UNL     1     -29.688 -22.916 -28.209  1.00  0.00    -0.000 C 
BRANCH   9  10
ATOM     10  C   UNL     1     -28.231 -22.865 -27.705  1.00  0.00    -0.000 C 
BRANCH  10  11
ATOM     11  C   UNL     1     -27.768 -21.485 -27.203  1.00  0.00    -0.003 C 
ATOM     12  C   UNL     1     -26.325 -21.164 -27.587  1.00  0.00     0.004 C 
ENDBRANCH  10  11
ENDBRANCH   9  10
ENDBRANCH   8   9
ENDBRANCH   7   8
ENDBRANCH   6   7
ENDBRANCH   5   6
ENDBRANCH   4   5
ENDBRANCH   3   4
ENDBRANCH   2   3
ENDBRANCH   1   2
BRANCH   1  13
ATOM     13  C   UNL     1     -32.621 -22.408 -34.788  1.00  0.00     0.000 C 
BRANCH  13  14
ATOM     14  C   UNL     1     -32.631 -23.652 -35.685  1.00  0.00     0.000 C 
BRANCH  14  15
ATOM     15  C   UNL     1     -33.528 -23.434 -36.914  1.00  0.00     0.000 C 
BRANCH  15  16
ATOM     16  C   UNL     1     -33.086 -22.231 -37.763  1.00  0.00     0.000 C 
BRANCH  16  17
ATOM     17  C   UNL     1     -31.799 -22.508 -38.562  1.00  0.00     0.000 C 
BRANCH  17  18
ATOM     18  C   UNL     1     -31.747 -23.949 -39.112  1.00  0.00     0.000 C 
BRANCH  18  19
ATOM     19  C   UNL     1     -30.735 -24.858 -38.387  1.00  0.00     0.000 C 
BRANCH  19  20
ATOM     20  C   UNL     1     -31.273 -26.244 -37.995  1.00  0.00     0.006 C 
BRANCH  20  21
ATOM     21  C   UNL     1     -32.509 -26.655 -38.806  1.00  0.00     0.053 C 
BRANCH  21  22
ATOM     22  C   UNL     1     -32.632 -28.146 -38.857  1.00  0.00     0.041 C 
ATOM     23  O   UNL     1     -33.771 -28.687 -38.864  1.00  0.00    -0.550 OA
ATOM     24  O   UNL     1     -31.492 -28.939 -38.919  1.00  0.00    -0.550 OA
ENDBRANCH  21  22
ENDBRANCH  20  21
ENDBRANCH  19  20
ENDBRANCH  18  19
ENDBRANCH  17  18
ENDBRANCH  16  17
ENDBRANCH  15  16
ENDBRANCH  14  15
ENDBRANCH  13  14
ENDBRANCH   1  13
TORSDOF 20
ENDMDL
MODEL 6
REMARK VINA RESULT:     1.040      2.857      8.444
REMARK INTER + INTRA:           1.140
REMARK INTER:                   0.002
REMARK INTRA:                   1.139
REMARK UNBOUND:                -1.116
REMARK SMILES CCCCCCCCCCCCCCCCCCCCCC(=O)[O-]
REMARK SMILES IDX 12 1 11 2 10 3 9 4 8 5 7 6 6 7 5 8 4 9 3 10 2 11 1 12 13 13
REMARK SMILES IDX 14 14 15 15 16 16 17 17 18 18 19 19 20 20 21 21 22 22 23 23
REMARK SMILES IDX 24 24
REMARK H PARENT
REMARK Flexibility Score: inf
ROOT
ATOM      1  C   UNL     1     -31.568 -20.200 -33.624  1.00  0.00     0.000 C 
ENDROOT
BRANCH   1   2
ATOM      2  C   UNL     1     -32.660 -20.883 -34.465  1.00  0.00     0.000 C 
BRANCH   2   3
ATOM      3  C   UNL     1     -33.391 -19.898 -35.394  1.00  0.00     0.000 C 
BRANCH   3   4
ATOM      4  C   UNL     1     -33.729 -20.510 -36.765  1.00  0.00    -0.000 C 
BRANCH   4   5
ATOM      5  C   UNL     1     -33.707 -22.051 -36.816  1.00  0.00    -0.000 C 
BRANCH   5   6
ATOM      6  C   UNL     1     -32.446 -22.665 -37.458  1.00  0.00    -0.000 C 
BRANCH   6   7
ATOM      7  C   UNL     1     -31.768 -23.772 -36.629  1.00  0.00    -0.000 C 
BRANCH   7   8
ATOM      8  C   UNL     1     -30.966 -24.801 -37.450  1.00  0.00    -0.000 C 
BRANCH   8   9
ATOM      9  C   UNL     1     -31.553 -25.126 -38.838  1.00  0.00    -0.000 C 
BRANCH   9  10
ATOM     10  C   UNL     1     -32.624 -26.236 -38.852  1.00  0.00    -0.000 C 
BRANCH  10  11
ATOM     11  C   UNL     1     -32.071 -27.667 -38.977  1.00  0.00    -0.003 C 
ATOM     12  C   UNL     1     -33.036 -28.727 -38.449  1.00  0.00     0.004 C 
ENDBRANCH  10  11
ENDBRANCH   9  10
ENDBRANCH   8   9
ENDBRANCH   7   8
ENDBRANCH   6   7
ENDBRANCH   5   6
ENDBRANCH   4   5
ENDBRANCH   3   4
ENDBRANCH   2   3
ENDBRANCH   1   2
BRANCH   1  13
ATOM     13  C   UNL     1     -30.163 -20.394 -34.215  1.00  0.00     0.000 C 
BRANCH  13  14
ATOM     14  C   UNL     1     -29.081 -19.994 -33.203  1.00  0.00     0.000 C 
BRANCH  14  15
ATOM     15  C   UNL     1     -29.242 -20.777 -31.891  1.00  0.00     0.000 C 
BRANCH  15  16
ATOM     16  C   UNL     1     -29.812 -19.915 -30.754  1.00  0.00     0.000 C 
BRANCH  16  17
ATOM     17  C   UNL     1     -31.352 -19.876 -30.751  1.00  0.00     0.000 C 
BRANCH  17  18
ATOM     18  C   UNL     1     -31.946 -20.211 -29.367  1.00  0.00     0.000 C 
BRANCH  18  19
ATOM     19  C   UNL     1     -31.336 -21.466 -28.714  1.00  0.00     0.000 C 
BRANCH  19  20
ATOM     20  C   UNL     1     -30.092 -22.027 -29.423  1.00  0.00     0.006 C 
BRANCH  20  21
ATOM     21  C   UNL     1     -30.036 -23.561 -29.404  1.00  0.00     0.053 C 
BRANCH  21  22
ATOM     22  C   UNL     1     -30.748 -24.127 -30.592  1.00  0.00     0.041 C 
ATOM     23  O   UNL     1     -31.363 -25.224 -30.499  1.00  0.00    -0.550 OA
ATOM     24  O   UNL     1     -30.752 -23.435 -31.799  1.00  0.00    -0.550 OA
ENDBRANCH  21  22
ENDBRANCH  20  21
ENDBRANCH  19  20
ENDBRANCH  18  19
ENDBRANCH  17  18
ENDBRANCH  16  17
ENDBRANCH  15  16
ENDBRANCH  14  15
ENDBRANCH  13  14
ENDBRANCH   1  13
TORSDOF 20
ENDMDL
MODEL 7
REMARK VINA RESULT:     1.700      3.675      9.065
REMARK INTER + INTRA:           2.573
REMARK INTER:                   2.400
REMARK INTRA:                   0.173
REMARK UNBOUND:                -1.116
REMARK SMILES CCCCCCCCCCCCCCCCCCCCCC(=O)[O-]
REMARK SMILES IDX 12 1 11 2 10 3 9 4 8 5 7 6 6 7 5 8 4 9 3 10 2 11 1 12 13 13
REMARK SMILES IDX 14 14 15 15 16 16 17 17 18 18 19 19 20 20 21 21 22 22 23 23
REMARK SMILES IDX 24 24
REMARK H PARENT
REMARK Flexibility Score: inf
ROOT
ATOM      1  C   UNL     1     -30.986 -23.043 -33.306  1.00  0.00     0.000 C 
ENDROOT
BRANCH   1   2
ATOM      2  C   UNL     1     -31.767 -23.375 -34.589  1.00  0.00     0.000 C 
BRANCH   2   3
ATOM      3  C   UNL     1     -32.613 -22.191 -35.088  1.00  0.00     0.000 C 
BRANCH   3   4
ATOM      4  C   UNL     1     -33.454 -22.539 -36.329  1.00  0.00    -0.000 C 
BRANCH   4   5
ATOM      5  C   UNL     1     -33.480 -21.454 -37.425  1.00  0.00    -0.000 C 
BRANCH   5   6
ATOM      6  C   UNL     1     -33.533 -21.988 -38.871  1.00  0.00    -0.000 C 
BRANCH   6   7
ATOM      7  C   UNL     1     -32.954 -23.403 -39.061  1.00  0.00    -0.000 C 
BRANCH   7   8
ATOM      8  C   UNL     1     -31.431 -23.517 -38.849  1.00  0.00    -0.000 C 
BRANCH   8   9
ATOM      9  C   UNL     1     -30.960 -24.839 -38.212  1.00  0.00    -0.000 C 
BRANCH   9  10
ATOM     10  C   UNL     1     -32.087 -25.832 -37.858  1.00  0.00    -0.000 C 
BRANCH  10  11
ATOM     11  C   UNL     1     -32.303 -26.958 -38.885  1.00  0.00    -0.003 C 
ATOM     12  C   UNL     1     -33.004 -28.179 -38.292  1.00  0.00     0.004 C 
ENDBRANCH  10  11
ENDBRANCH   9  10
ENDBRANCH   8   9
ENDBRANCH   7   8
ENDBRANCH   6   7
ENDBRANCH   5   6
ENDBRANCH   4   5
ENDBRANCH   3   4
ENDBRANCH   2   3
ENDBRANCH   1   2
BRANCH   1  13
ATOM     13  C   UNL     1     -30.880 -21.530 -33.057  1.00  0.00     0.000 C 
BRANCH  13  14
ATOM     14  C   UNL     1     -29.961 -20.866 -34.088  1.00  0.00     0.000 C 
BRANCH  14  15
ATOM     15  C   UNL     1     -29.001 -19.875 -33.410  1.00  0.00     0.000 C 
BRANCH  15  16
ATOM     16  C   UNL     1     -29.099 -19.913 -31.877  1.00  0.00     0.000 C 
BRANCH  16  17
ATOM     17  C   UNL     1     -27.826 -20.472 -31.213  1.00  0.00     0.000 C 
BRANCH  17  18
ATOM     18  C   UNL     1     -27.677 -20.010 -29.748  1.00  0.00     0.000 C 
BRANCH  18  19
ATOM     19  C   UNL     1     -28.559 -20.789 -28.754  1.00  0.00     0.000 C 
BRANCH  19  20
ATOM     20  C   UNL     1     -29.564 -21.758 -29.400  1.00  0.00     0.006 C 
BRANCH  20  21
ATOM     21  C   UNL     1     -30.976 -21.630 -28.812  1.00  0.00     0.053 C 
BRANCH  21  22
ATOM     22  C   UNL     1     -31.730 -20.528 -29.488  1.00  0.00     0.041 C 
ATOM     23  O   UNL     1     -32.848 -20.156 -29.038  1.00  0.00    -0.550 OA
ATOM     24  O   UNL     1     -31.190 -19.895 -30.603  1.00  0.00    -0.550 OA
ENDBRANCH  21  22
ENDBRANCH  20  21
ENDBRANCH  19  20
ENDBRANCH  18  19
ENDBRANCH  17  18
ENDBRANCH  16  17
ENDBRANCH  15  16
ENDBRANCH  14  15
ENDBRANCH  13  14
ENDBRANCH   1  13
TORSDOF 20
ENDMDL
MODEL 8
REMARK VINA RESULT:     1.961      4.466      9.756
REMARK INTER + INTRA:           3.138
REMARK INTER:                   3.543
REMARK INTRA:                  -0.404
REMARK UNBOUND:                -1.116
REMARK SMILES CCCCCCCCCCCCCCCCCCCCCC(=O)[O-]
REMARK SMILES IDX 12 1 11 2 10 3 9 4 8 5 7 6 6 7 5 8 4 9 3 10 2 11 1 12 13 13
REMARK SMILES IDX 14 14 15 15 16 16 17 17 18 18 19 19 20 20 21 21 22 22 23 23
REMARK SMILES IDX 24 24
REMARK H PARENT
REMARK Flexibility Score: inf
ROOT
ATOM      1  C   UNL     1     -31.514 -21.748 -34.777  1.00  0.00     0.000 C 
ENDROOT
BRANCH   1   2
ATOM      2  C   UNL     1     -32.080 -23.171 -34.918  1.00  0.00     0.000 C 
BRANCH   2   3
ATOM      3  C   UNL     1     -33.312 -23.227 -35.838  1.00  0.00     0.000 C 
BRANCH   3   4
ATOM      4  C   UNL     1     -33.297 -22.135 -36.923  1.00  0.00    -0.000 C 
BRANCH   4   5
ATOM      5  C   UNL     1     -32.623 -22.543 -38.250  1.00  0.00    -0.000 C 
BRANCH   5   6
ATOM      6  C   UNL     1     -31.204 -23.128 -38.107  1.00  0.00    -0.000 C 
BRANCH   6   7
ATOM      7  C   UNL     1     -30.888 -24.302 -39.055  1.00  0.00    -0.000 C 
BRANCH   7   8
ATOM      8  C   UNL     1     -31.975 -25.393 -39.125  1.00  0.00    -0.000 C 
BRANCH   8   9
ATOM      9  C   UNL     1     -32.610 -25.766 -37.771  1.00  0.00    -0.000 C 
BRANCH   9  10
ATOM     10  C   UNL     1     -33.311 -27.140 -37.735  1.00  0.00    -0.000 C 
BRANCH  10  11
ATOM     11  C   UNL     1     -33.464 -27.824 -39.106  1.00  0.00    -0.003 C 
ATOM     12  C   UNL     1     -33.967 -29.263 -39.001  1.00  0.00     0.004 C 
ENDBRANCH  10  11
ENDBRANCH   9  10
ENDBRANCH   8   9
ENDBRANCH   7   8
ENDBRANCH   6   7
ENDBRANCH   5   6
ENDBRANCH   4   5
ENDBRANCH   3   4
ENDBRANCH   2   3
ENDBRANCH   1   2
BRANCH   1  13
ATOM     13  C   UNL     1     -32.240 -20.931 -33.695  1.00  0.00     0.000 C 
BRANCH  13  14
ATOM     14  C   UNL     1     -31.306 -19.881 -33.080  1.00  0.00     0.000 C 
BRANCH  14  15
ATOM     15  C   UNL     1     -29.847 -20.139 -33.490  1.00  0.00     0.000 C 
BRANCH  15  16
ATOM     16  C   UNL     1     -29.113 -21.068 -32.511  1.00  0.00     0.000 C 
BRANCH  16  17
ATOM     17  C   UNL     1     -30.065 -21.750 -31.511  1.00  0.00     0.000 C 
BRANCH  17  18
ATOM     18  C   UNL     1     -30.192 -20.962 -30.189  1.00  0.00     0.000 C 
BRANCH  18  19
ATOM     19  C   UNL     1     -29.115 -19.876 -30.005  1.00  0.00     0.000 C 
BRANCH  19  20
ATOM     20  C   UNL     1     -27.744 -20.394 -29.540  1.00  0.00     0.006 C 
BRANCH  20  21
ATOM     21  C   UNL     1     -27.808 -21.120 -28.189  1.00  0.00     0.053 C 
BRANCH  21  22
ATOM     22  C   UNL     1     -26.532 -20.931 -27.430  1.00  0.00     0.041 C 
ATOM     23  O   UNL     1     -25.424 -20.973 -28.031  1.00  0.00    -0.550 OA
ATOM     24  O   UNL     1     -26.565 -20.686 -26.061  1.00  0.00    -0.550 OA
ENDBRANCH  21  22
ENDBRANCH  20  21
ENDBRANCH  19  20
ENDBRANCH  18  19
ENDBRANCH  17  18
ENDBRANCH  16  17
ENDBRANCH  15  16
ENDBRANCH  14  15
ENDBRANCH  13  14
ENDBRANCH   1  13
TORSDOF 20
ENDMDL
MODEL 9
REMARK VINA RESULT:     2.331      3.859      8.884
REMARK INTER + INTRA:           3.941
REMARK INTER:                   2.368
REMARK INTRA:                   1.573
REMARK UNBOUND:                -1.116
REMARK SMILES CCCCCCCCCCCCCCCCCCCCCC(=O)[O-]
REMARK SMILES IDX 12 1 11 2 10 3 9 4 8 5 7 6 6 7 5 8 4 9 3 10 2 11 1 12 13 13
REMARK SMILES IDX 14 14 15 15 16 16 17 17 18 18 19 19 20 20 21 21 22 22 23 23
REMARK SMILES IDX 24 24
REMARK H PARENT
REMARK Flexibility Score: inf
ROOT
ATOM      1  C   UNL     1     -30.294 -21.162 -33.857  1.00  0.00     0.000 C 
ENDROOT
BRANCH   1   2
ATOM      2  C   UNL     1     -31.570 -20.879 -34.667  1.00  0.00     0.000 C 
BRANCH   2   3
ATOM      3  C   UNL     1     -32.706 -21.864 -34.341  1.00  0.00     0.000 C 
BRANCH   3   4
ATOM      4  C   UNL     1     -32.436 -23.283 -34.873  1.00  0.00    -0.000 C 
BRANCH   4   5
ATOM      5  C   UNL     1     -33.154 -23.633 -36.193  1.00  0.00    -0.000 C 
BRANCH   5   6
ATOM      6  C   UNL     1     -33.450 -22.431 -37.112  1.00  0.00    -0.000 C 
BRANCH   6   7
ATOM      7  C   UNL     1     -32.745 -22.474 -38.483  1.00  0.00    -0.000 C 
BRANCH   7   8
ATOM      8  C   UNL     1     -31.336 -23.098 -38.470  1.00  0.00    -0.000 C 
BRANCH   8   9
ATOM      9  C   UNL     1     -31.282 -24.577 -38.039  1.00  0.00    -0.000 C 
BRANCH   9  10
ATOM     10  C   UNL     1     -31.798 -25.582 -39.090  1.00  0.00    -0.000 C 
BRANCH  10  11
ATOM     11  C   UNL     1     -32.003 -27.016 -38.566  1.00  0.00    -0.003 C 
ATOM     12  C   UNL     1     -33.420 -27.267 -38.053  1.00  0.00     0.004 C 
ENDBRANCH  10  11
ENDBRANCH   9  10
ENDBRANCH   8   9
ENDBRANCH   7   8
ENDBRANCH   6   7
ENDBRANCH   5   6
ENDBRANCH   4   5
ENDBRANCH   3   4
ENDBRANCH   2   3
ENDBRANCH   1   2
BRANCH   1  13
ATOM     13  C   UNL     1     -29.537 -19.877 -33.483  1.00  0.00     0.000 C 
BRANCH  13  14
ATOM     14  C   UNL     1     -28.294 -20.196 -32.644  1.00  0.00     0.000 C 
BRANCH  14  15
ATOM     15  C   UNL     1     -28.536 -19.875 -31.161  1.00  0.00     0.000 C 
BRANCH  15  16
ATOM     16  C   UNL     1     -30.028 -19.875 -30.792  1.00  0.00     0.000 C 
BRANCH  16  17
ATOM     17  C   UNL     1     -30.506 -21.234 -30.246  1.00  0.00     0.000 C 
BRANCH  17  18
ATOM     18  C   UNL     1     -30.477 -22.342 -31.321  1.00  0.00     0.000 C 
BRANCH  18  19
ATOM     19  C   UNL     1     -30.798 -23.747 -30.777  1.00  0.00     0.000 C 
BRANCH  19  20
ATOM     20  C   UNL     1     -30.143 -24.086 -29.428  1.00  0.00     0.006 C 
BRANCH  20  21
ATOM     21  C   UNL     1     -29.625 -22.845 -28.688  1.00  0.00     0.053 C 
BRANCH  21  22
ATOM     22  C   UNL     1     -28.726 -23.242 -27.559  1.00  0.00     0.041 C 
ATOM     23  O   UNL     1     -28.668 -24.447 -27.189  1.00  0.00    -0.550 OA
ATOM     24  O   UNL     1     -27.935 -22.288 -26.928  1.00  0.00    -0.550 OA
ENDBRANCH  21  22
ENDBRANCH  20  21
ENDBRANCH  19  20
ENDBRANCH  18  19
ENDBRANCH  17  18
ENDBRANCH  16  17
ENDBRANCH  15  16
ENDBRANCH  14  15
ENDBRANCH  13  14
ENDBRANCH   1  13
TORSDOF 20
ENDMDL
