MODEL 1
REMARK VINA RESULT:    -5.938      0.000      0.000
REMARK INTER + INTRA:         -13.789
REMARK INTER:                 -11.146
REMARK INTRA:                  -2.643
REMARK UNBOUND:                -2.643
REMARK SMILES CCCCCCCCC=CCCCCCCCC(=O)[O-]
REMARK SMILES IDX 10 1 9 2 11 3 12 4 13 5 14 6 15 7 16 8 17 9 18 10 19 11
REMARK SMILES IDX 20 12 8 13 7 14 6 15 5 16 4 17 3 18 2 19 1 20
REMARK H PARENT
REMARK Flexibility Score: inf
ROOT
ATOM      1  C   UNL     1      21.601 -23.391 -12.382  1.00  0.00    -0.031 C 
ATOM      2  C   UNL     1      22.907 -23.336 -12.707  1.00  0.00    -0.031 C 
ENDROOT
BRANCH   1   3
ATOM      3  C   UNL     1      21.059 -23.218 -10.985  1.00  0.00     0.027 C 
BRANCH   3   4
ATOM      4  C   UNL     1      20.173 -24.411 -10.601  1.00  0.00     0.004 C 
BRANCH   4   5
ATOM      5  C   UNL     1      20.989 -25.627 -10.134  1.00  0.00     0.000 C 
BRANCH   5   6
ATOM      6  C   UNL     1      22.308 -25.226  -9.449  1.00  0.00     0.000 C 
BRANCH   6   7
ATOM      7  C   UNL     1      22.185 -25.182  -7.918  1.00  0.00     0.000 C 
BRANCH   7   8
ATOM      8  C   UNL     1      23.525 -24.889  -7.228  1.00  0.00     0.006 C 
BRANCH   8   9
ATOM      9  C   UNL     1      24.698 -25.417  -8.060  1.00  0.00     0.053 C 
BRANCH   9  10
ATOM     10  C   UNL     1      25.647 -26.186  -7.197  1.00  0.00     0.041 C 
ATOM     11  O   UNL     1      26.407 -27.050  -7.706  1.00  0.00    -0.550 OA
ATOM     12  O   UNL     1      25.732 -25.911  -5.840  1.00  0.00    -0.550 OA
ENDBRANCH   9  10
ENDBRANCH   8   9
ENDBRANCH   7   8
ENDBRANCH   6   7
ENDBRANCH   5   6
ENDBRANCH   4   5
ENDBRANCH   3   4
ENDBRANCH   1   3
BRANCH   2  13
ATOM     13  C   UNL     1      24.015 -23.007 -11.736  1.00  0.00     0.027 C 
BRANCH  13  14
ATOM     14  C   UNL     1      24.416 -21.520 -11.793  1.00  0.00     0.004 C 
BRANCH  14  15
ATOM     15  C   UNL     1      24.913 -20.963 -10.447  1.00  0.00     0.000 C 
BRANCH  15  16
ATOM     16  C   UNL     1      24.810 -21.986  -9.303  1.00  0.00     0.000 C 
BRANCH  16  17
ATOM     17  C   UNL     1      23.886 -21.515  -8.167  1.00  0.00    -0.000 C 
BRANCH  17  18
ATOM     18  C   UNL     1      22.460 -21.210  -8.655  1.00  0.00    -0.000 C 
BRANCH  18  19
ATOM     19  C   UNL     1      21.396 -21.512  -7.589  1.00  0.00    -0.003 C 
ATOM     20  C   UNL     1      20.000 -21.039  -7.993  1.00  0.00     0.004 C 
ENDBRANCH  18  19
ENDBRANCH  17  18
ENDBRANCH  16  17
ENDBRANCH  15  16
ENDBRANCH  14  15
ENDBRANCH  13  14
ENDBRANCH   2  13
TORSDOF 15
ENDMDL
MODEL 2
REMARK VINA RESULT:    -5.620      2.455      4.756
REMARK INTER + INTRA:         -13.190
REMARK INTER:                 -10.167
REMARK INTRA:                  -3.024
REMARK UNBOUND:                -2.643
REMARK SMILES CCCCCCCCC=CCCCCCCCC(=O)[O-]
REMARK SMILES IDX 10 1 9 2 11 3 12 4 13 5 14 6 15 7 16 8 17 9 18 10 19 11
REMARK SMILES IDX 20 12 8 13 7 14 6 15 5 16 4 17 3 18 2 19 1 20
REMARK H PARENT
REMARK Flexibility Score: inf
ROOT
ATOM      1  C   UNL     1      24.096 -20.712  -8.906  1.00  0.00    -0.031 C 
ATOM      2  C   UNL     1      24.795 -20.943 -10.034  1.00  0.00    -0.031 C 
ENDROOT
BRANCH   1   3
ATOM      3  C   UNL     1      23.842 -21.740  -7.832  1.00  0.00     0.027 C 
BRANCH   3   4
ATOM      4  C   UNL     1      22.492 -21.480  -7.148  1.00  0.00     0.004 C 
BRANCH   4   5
ATOM      5  C   UNL     1      21.372 -21.167  -8.153  1.00  0.00     0.000 C 
BRANCH   5   6
ATOM      6  C   UNL     1      21.038 -22.366  -9.058  1.00  0.00     0.000 C 
BRANCH   6   7
ATOM      7  C   UNL     1      21.270 -22.062 -10.546  1.00  0.00     0.000 C 
BRANCH   7   8
ATOM      8  C   UNL     1      20.826 -23.214 -11.459  1.00  0.00     0.006 C 
BRANCH   8   9
ATOM      9  C   UNL     1      20.195 -24.348 -10.645  1.00  0.00     0.053 C 
BRANCH   9  10
ATOM     10  C   UNL     1      20.631 -25.678 -11.175  1.00  0.00     0.041 C 
ATOM     11  O   UNL     1      20.440 -26.722 -10.499  1.00  0.00    -0.550 OA
ATOM     12  O   UNL     1      21.197 -25.771 -12.438  1.00  0.00    -0.550 OA
ENDBRANCH   9  10
ENDBRANCH   8   9
ENDBRANCH   7   8
ENDBRANCH   6   7
ENDBRANCH   5   6
ENDBRANCH   4   5
ENDBRANCH   3   4
ENDBRANCH   1   3
BRANCH   2  13
ATOM     13  C   UNL     1      25.502 -22.240 -10.350  1.00  0.00     0.027 C 
BRANCH  13  14
ATOM     14  C   UNL     1      24.829 -23.001 -11.510  1.00  0.00     0.004 C 
BRANCH  14  15
ATOM     15  C   UNL     1      24.095 -24.277 -11.065  1.00  0.00     0.000 C 
BRANCH  15  16
ATOM     16  C   UNL     1      24.571 -24.794  -9.697  1.00  0.00     0.000 C 
BRANCH  16  17
ATOM     17  C   UNL     1      23.409 -25.261  -8.802  1.00  0.00    -0.000 C 
BRANCH  17  18
ATOM     18  C   UNL     1      23.793 -25.305  -7.313  1.00  0.00    -0.000 C 
BRANCH  18  19
ATOM     19  C   UNL     1      22.581 -25.125  -6.387  1.00  0.00    -0.003 C 
ATOM     20  C   UNL     1      22.960 -24.570  -5.014  1.00  0.00     0.004 C 
ENDBRANCH  18  19
ENDBRANCH  17  18
ENDBRANCH  16  17
ENDBRANCH  15  16
ENDBRANCH  14  15
ENDBRANCH  13  14
ENDBRANCH   2  13
TORSDOF 15
ENDMDL
MODEL 3
REMARK VINA RESULT:    -5.616      3.209      4.916
REMARK INTER + INTRA:         -13.183
REMARK INTER:                 -10.786
REMARK INTRA:                  -2.396
REMARK UNBOUND:                -2.643
REMARK SMILES CCCCCCCCC=CCCCCCCCC(=O)[O-]
REMARK SMILES IDX 10 1 9 2 11 3 12 4 13 5 14 6 15 7 16 8 17 9 18 10 19 11
REMARK SMILES IDX 20 12 8 13 7 14 6 15 5 16 4 17 3 18 2 19 1 20
REMARK H PARENT
REMARK Flexibility Score: inf
ROOT
ATOM      1  C   UNL     1      24.218 -24.850  -9.885  1.00  0.00    -0.031 C 
ATOM      2  C   UNL     1      24.495 -23.652 -10.435  1.00  0.00    -0.031 C 
ENDROOT
BRANCH   1   3
ATOM      3  C   UNL     1      24.480 -25.210  -8.444  1.00  0.00     0.027 C 
BRANCH   3   4
ATOM      4  C   UNL     1      23.160 -25.316  -7.667  1.00  0.00     0.004 C 
BRANCH   4   5
ATOM      5  C   UNL     1      22.972 -24.167  -6.665  1.00  0.00     0.000 C 
BRANCH   5   6
ATOM      6  C   UNL     1      23.174 -24.615  -5.206  1.00  0.00     0.000 C 
BRANCH   6   7
ATOM      7  C   UNL     1      22.416 -23.726  -4.208  1.00  0.00     0.000 C 
BRANCH   7   8
ATOM      8  C   UNL     1      22.601 -22.229  -4.492  1.00  0.00     0.006 C 
BRANCH   8   9
ATOM      9  C   UNL     1      23.546 -21.589  -3.471  1.00  0.00     0.053 C 
BRANCH   9  10
ATOM     10  C   UNL     1      22.779 -21.100  -2.283  1.00  0.00     0.041 C 
ATOM     11  O   UNL     1      21.616 -20.639  -2.426  1.00  0.00    -0.550 OA
ATOM     12  O   UNL     1      23.325 -21.204  -1.012  1.00  0.00    -0.550 OA
ENDBRANCH   9  10
ENDBRANCH   8   9
ENDBRANCH   7   8
ENDBRANCH   6   7
ENDBRANCH   5   6
ENDBRANCH   4   5
ENDBRANCH   3   4
ENDBRANCH   1   3
BRANCH   2  13
ATOM     13  C   UNL     1      25.029 -22.465  -9.670  1.00  0.00     0.027 C 
BRANCH  13  14
ATOM     14  C   UNL     1      23.900 -21.616  -9.051  1.00  0.00     0.004 C 
BRANCH  14  15
ATOM     15  C   UNL     1      22.739 -21.333 -10.021  1.00  0.00     0.000 C 
BRANCH  15  16
ATOM     16  C   UNL     1      21.363 -21.382  -9.335  1.00  0.00     0.000 C 
BRANCH  16  17
ATOM     17  C   UNL     1      20.824 -22.816  -9.189  1.00  0.00    -0.000 C 
BRANCH  17  18
ATOM     18  C   UNL     1      20.795 -23.574 -10.527  1.00  0.00    -0.000 C 
BRANCH  18  19
ATOM     19  C   UNL     1      20.399 -25.048 -10.360  1.00  0.00    -0.003 C 
ATOM     20  C   UNL     1      21.075 -25.964 -11.380  1.00  0.00     0.004 C 
ENDBRANCH  18  19
ENDBRANCH  17  18
ENDBRANCH  16  17
ENDBRANCH  15  16
ENDBRANCH  14  15
ENDBRANCH  13  14
ENDBRANCH   2  13
TORSDOF 15
ENDMDL
MODEL 4
REMARK VINA RESULT:    -5.593      2.325      4.266
REMARK INTER + INTRA:         -13.141
REMARK INTER:                 -10.704
REMARK INTRA:                  -2.437
REMARK UNBOUND:                -2.643
REMARK SMILES CCCCCCCCC=CCCCCCCCC(=O)[O-]
REMARK SMILES IDX 10 1 9 2 11 3 12 4 13 5 14 6 15 7 16 8 17 9 18 10 19 11
REMARK SMILES IDX 20 12 8 13 7 14 6 15 5 16 4 17 3 18 2 19 1 20
REMARK H PARENT
REMARK Flexibility Score: inf
ROOT
ATOM      1  C   UNL     1      25.257 -22.709 -10.691  1.00  0.00    -0.031 C 
ATOM      2  C   UNL     1      24.945 -21.418 -10.471  1.00  0.00    -0.031 C 
ENDROOT
BRANCH   1   3
ATOM      3  C   UNL     1      24.253 -23.789 -11.008  1.00  0.00     0.027 C 
BRANCH   3   4
ATOM      4  C   UNL     1      24.347 -24.928  -9.983  1.00  0.00     0.004 C 
BRANCH   4   5
ATOM      5  C   UNL     1      24.746 -24.432  -8.584  1.00  0.00     0.000 C 
BRANCH   5   6
ATOM      6  C   UNL     1      23.815 -24.965  -7.480  1.00  0.00     0.000 C 
BRANCH   6   7
ATOM      7  C   UNL     1      23.080 -23.839  -6.737  1.00  0.00     0.000 C 
BRANCH   7   8
ATOM      8  C   UNL     1      22.724 -24.220  -5.293  1.00  0.00     0.006 C 
BRANCH   8   9
ATOM      9  C   UNL     1      22.437 -22.973  -4.451  1.00  0.00     0.053 C 
BRANCH   9  10
ATOM     10  C   UNL     1      23.505 -22.780  -3.421  1.00  0.00     0.041 C 
ATOM     11  O   UNL     1      24.235 -23.746  -3.078  1.00  0.00    -0.550 OA
ATOM     12  O   UNL     1      23.731 -21.522  -2.881  1.00  0.00    -0.550 OA
ENDBRANCH   9  10
ENDBRANCH   8   9
ENDBRANCH   7   8
ENDBRANCH   6   7
ENDBRANCH   5   6
ENDBRANCH   4   5
ENDBRANCH   3   4
ENDBRANCH   1   3
BRANCH   2  13
ATOM     13  C   UNL     1      23.555 -20.842 -10.596  1.00  0.00     0.027 C 
BRANCH  13  14
ATOM     14  C   UNL     1      22.675 -21.177  -9.375  1.00  0.00     0.004 C 
BRANCH  14  15
ATOM     15  C   UNL     1      21.184 -21.347  -9.718  1.00  0.00     0.000 C 
BRANCH  15  16
ATOM     16  C   UNL     1      20.515 -22.483  -8.925  1.00  0.00     0.000 C 
BRANCH  16  17
ATOM     17  C   UNL     1      20.774 -23.869  -9.541  1.00  0.00    -0.000 C 
BRANCH  17  18
ATOM     18  C   UNL     1      20.653 -23.864 -11.075  1.00  0.00    -0.000 C 
BRANCH  18  19
ATOM     19  C   UNL     1      20.881 -25.254 -11.687  1.00  0.00    -0.003 C 
ATOM     20  C   UNL     1      20.717 -26.384 -10.672  1.00  0.00     0.004 C 
ENDBRANCH  18  19
ENDBRANCH  17  18
ENDBRANCH  16  17
ENDBRANCH  15  16
ENDBRANCH  14  15
ENDBRANCH  13  14
ENDBRANCH   2  13
TORSDOF 15
ENDMDL
MODEL 5
REMARK VINA RESULT:    -5.514      3.009      5.095
REMARK INTER + INTRA:         -12.991
REMARK INTER:                 -10.386
REMARK INTRA:                  -2.605
REMARK UNBOUND:                -2.643
REMARK SMILES CCCCCCCCC=CCCCCCCCC(=O)[O-]
REMARK SMILES IDX 10 1 9 2 11 3 12 4 13 5 14 6 15 7 16 8 17 9 18 10 19 11
REMARK SMILES IDX 20 12 8 13 7 14 6 15 5 16 4 17 3 18 2 19 1 20
REMARK H PARENT
REMARK Flexibility Score: inf
ROOT
ATOM      1  C   UNL     1      23.892 -22.140 -10.811  1.00  0.00    -0.031 C 
ATOM      2  C   UNL     1      24.670 -23.155 -10.388  1.00  0.00    -0.031 C 
ENDROOT
BRANCH   1   3
ATOM      3  C   UNL     1      23.259 -21.113  -9.907  1.00  0.00     0.027 C 
BRANCH   3   4
ATOM      4  C   UNL     1      21.785 -21.456  -9.652  1.00  0.00     0.004 C 
BRANCH   4   5
ATOM      5  C   UNL     1      21.425 -21.443  -8.158  1.00  0.00     0.000 C 
BRANCH   5   6
ATOM      6  C   UNL     1      22.668 -21.393  -7.251  1.00  0.00     0.000 C 
BRANCH   6   7
ATOM      7  C   UNL     1      22.623 -22.446  -6.133  1.00  0.00     0.000 C 
BRANCH   7   8
ATOM      8  C   UNL     1      23.207 -21.929  -4.812  1.00  0.00     0.006 C 
BRANCH   8   9
ATOM      9  C   UNL     1      22.240 -22.174  -3.650  1.00  0.00     0.053 C 
BRANCH   9  10
ATOM     10  C   UNL     1      22.563 -21.273  -2.500  1.00  0.00     0.041 C 
ATOM     11  O   UNL     1      23.591 -21.479  -1.804  1.00  0.00    -0.550 OA
ATOM     12  O   UNL     1      21.760 -20.174  -2.231  1.00  0.00    -0.550 OA
ENDBRANCH   9  10
ENDBRANCH   8   9
ENDBRANCH   7   8
ENDBRANCH   6   7
ENDBRANCH   5   6
ENDBRANCH   4   5
ENDBRANCH   3   4
ENDBRANCH   1   3
BRANCH   2  13
ATOM     13  C   UNL     1      25.094 -23.364  -8.954  1.00  0.00     0.027 C 
BRANCH  13  14
ATOM     14  C   UNL     1      24.602 -24.714  -8.393  1.00  0.00     0.004 C 
BRANCH  14  15
ATOM     15  C   UNL     1      23.412 -25.306  -9.167  1.00  0.00     0.000 C 
BRANCH  15  16
ATOM     16  C   UNL     1      22.075 -25.144  -8.422  1.00  0.00     0.000 C 
BRANCH  16  17
ATOM     17  C   UNL     1      20.896 -24.872  -9.371  1.00  0.00    -0.000 C 
BRANCH  17  18
ATOM     18  C   UNL     1      20.662 -26.022 -10.365  1.00  0.00    -0.000 C 
BRANCH  18  19
ATOM     19  C   UNL     1      21.029 -25.637 -11.807  1.00  0.00    -0.003 C 
ATOM     20  C   UNL     1      21.118 -24.125 -12.013  1.00  0.00     0.004 C 
ENDBRANCH  18  19
ENDBRANCH  17  18
ENDBRANCH  16  17
ENDBRANCH  15  16
ENDBRANCH  14  15
ENDBRANCH  13  14
ENDBRANCH   2  13
TORSDOF 15
ENDMDL
MODEL 6
REMARK VINA RESULT:    -5.507      1.445      1.895
REMARK INTER + INTRA:         -12.978
REMARK INTER:                 -10.276
REMARK INTRA:                  -2.701
REMARK UNBOUND:                -2.643
REMARK SMILES CCCCCCCCC=CCCCCCCCC(=O)[O-]
REMARK SMILES IDX 10 1 9 2 11 3 12 4 13 5 14 6 15 7 16 8 17 9 18 10 19 11
REMARK SMILES IDX 20 12 8 13 7 14 6 15 5 16 4 17 3 18 2 19 1 20
REMARK H PARENT
REMARK Flexibility Score: inf
ROOT
ATOM      1  C   UNL     1      21.523 -23.383 -12.261  1.00  0.00    -0.031 C 
ATOM      2  C   UNL     1      22.818 -23.380 -12.629  1.00  0.00    -0.031 C 
ENDROOT
BRANCH   1   3
ATOM      3  C   UNL     1      21.034 -23.171 -10.850  1.00  0.00     0.027 C 
BRANCH   3   4
ATOM      4  C   UNL     1      20.451 -24.473 -10.282  1.00  0.00     0.004 C 
BRANCH   4   5
ATOM      5  C   UNL     1      21.536 -25.508  -9.945  1.00  0.00     0.000 C 
BRANCH   5   6
ATOM      6  C   UNL     1      22.588 -24.963  -8.962  1.00  0.00     0.000 C 
BRANCH   6   7
ATOM      7  C   UNL     1      22.246 -25.281  -7.499  1.00  0.00     0.000 C 
BRANCH   7   8
ATOM      8  C   UNL     1      23.373 -24.893  -6.532  1.00  0.00     0.006 C 
BRANCH   8   9
ATOM      9  C   UNL     1      22.849 -23.988  -5.412  1.00  0.00     0.053 C 
BRANCH   9  10
ATOM     10  C   UNL     1      23.594 -24.245  -4.140  1.00  0.00     0.041 C 
ATOM     11  O   UNL     1      24.164 -25.351  -3.953  1.00  0.00    -0.550 OA
ATOM     12  O   UNL     1      23.706 -23.244  -3.186  1.00  0.00    -0.550 OA
ENDBRANCH   9  10
ENDBRANCH   8   9
ENDBRANCH   7   8
ENDBRANCH   6   7
ENDBRANCH   5   6
ENDBRANCH   4   5
ENDBRANCH   3   4
ENDBRANCH   1   3
BRANCH   2  13
ATOM     13  C   UNL     1      23.969 -23.080 -11.700  1.00  0.00     0.027 C 
BRANCH  13  14
ATOM     14  C   UNL     1      24.366 -21.590 -11.729  1.00  0.00     0.004 C 
BRANCH  14  15
ATOM     15  C   UNL     1      24.954 -21.083 -10.400  1.00  0.00     0.000 C 
BRANCH  15  16
ATOM     16  C   UNL     1      24.783 -22.090  -9.249  1.00  0.00     0.000 C 
BRANCH  16  17
ATOM     17  C   UNL     1      23.900 -21.548  -8.112  1.00  0.00    -0.000 C 
BRANCH  17  18
ATOM     18  C   UNL     1      22.492 -21.159  -8.594  1.00  0.00    -0.000 C 
BRANCH  18  19
ATOM     19  C   UNL     1      21.415 -21.413  -7.528  1.00  0.00    -0.003 C 
ATOM     20  C   UNL     1      20.025 -20.957  -7.969  1.00  0.00     0.004 C 
ENDBRANCH  18  19
ENDBRANCH  17  18
ENDBRANCH  16  17
ENDBRANCH  15  16
ENDBRANCH  14  15
ENDBRANCH  13  14
ENDBRANCH   2  13
TORSDOF 15
ENDMDL
MODEL 7
REMARK VINA RESULT:    -5.491      2.494      4.283
REMARK INTER + INTRA:         -12.949
REMARK INTER:                 -10.351
REMARK INTRA:                  -2.599
REMARK UNBOUND:                -2.643
REMARK SMILES CCCCCCCCC=CCCCCCCCC(=O)[O-]
REMARK SMILES IDX 10 1 9 2 11 3 12 4 13 5 14 6 15 7 16 8 17 9 18 10 19 11
REMARK SMILES IDX 20 12 8 13 7 14 6 15 5 16 4 17 3 18 2 19 1 20
REMARK H PARENT
REMARK Flexibility Score: inf
ROOT
ATOM      1  C   UNL     1      21.382 -21.956 -10.253  1.00  0.00    -0.031 C 
ATOM      2  C   UNL     1      21.104 -22.888 -11.185  1.00  0.00    -0.031 C 
ENDROOT
BRANCH   1   3
ATOM      3  C   UNL     1      21.095 -22.107  -8.780  1.00  0.00     0.027 C 
BRANCH   3   4
ATOM      4  C   UNL     1      22.041 -21.224  -7.955  1.00  0.00     0.004 C 
BRANCH   4   5
ATOM      5  C   UNL     1      22.930 -22.040  -7.003  1.00  0.00     0.000 C 
BRANCH   5   6
ATOM      6  C   UNL     1      22.557 -23.533  -6.980  1.00  0.00     0.000 C 
BRANCH   6   7
ATOM      7  C   UNL     1      23.015 -24.233  -5.691  1.00  0.00     0.000 C 
BRANCH   7   8
ATOM      8  C   UNL     1      22.536 -23.509  -4.424  1.00  0.00     0.006 C 
BRANCH   8   9
ATOM      9  C   UNL     1      23.572 -23.624  -3.302  1.00  0.00     0.053 C 
BRANCH   9  10
ATOM     10  C   UNL     1      23.255 -24.786  -2.415  1.00  0.00     0.041 C 
ATOM     11  O   UNL     1      23.576 -25.953  -2.762  1.00  0.00    -0.550 OA
ATOM     12  O   UNL     1      22.656 -24.576  -1.181  1.00  0.00    -0.550 OA
ENDBRANCH   9  10
ENDBRANCH   8   9
ENDBRANCH   7   8
ENDBRANCH   6   7
ENDBRANCH   5   6
ENDBRANCH   4   5
ENDBRANCH   3   4
ENDBRANCH   1   3
BRANCH   2  13
ATOM     13  C   UNL     1      20.544 -24.257 -10.882  1.00  0.00     0.027 C 
BRANCH  13  14
ATOM     14  C   UNL     1      21.583 -25.373 -11.106  1.00  0.00     0.004 C 
BRANCH  14  15
ATOM     15  C   UNL     1      22.579 -25.529  -9.944  1.00  0.00     0.000 C 
BRANCH  15  16
ATOM     16  C   UNL     1      24.035 -25.267 -10.366  1.00  0.00     0.000 C 
BRANCH  16  17
ATOM     17  C   UNL     1      24.618 -23.994  -9.728  1.00  0.00    -0.000 C 
BRANCH  17  18
ATOM     18  C   UNL     1      24.853 -22.874 -10.756  1.00  0.00    -0.000 C 
BRANCH  18  19
ATOM     19  C   UNL     1      25.129 -21.516 -10.094  1.00  0.00    -0.003 C 
ATOM     20  C   UNL     1      24.722 -20.333 -10.972  1.00  0.00     0.004 C 
ENDBRANCH  18  19
ENDBRANCH  17  18
ENDBRANCH  16  17
ENDBRANCH  15  16
ENDBRANCH  14  15
ENDBRANCH  13  14
ENDBRANCH   2  13
TORSDOF 15
ENDMDL
MODEL 8
REMARK VINA RESULT:    -5.487      2.794      5.376
REMARK INTER + INTRA:         -12.941
REMARK INTER:                 -10.276
REMARK INTRA:                  -2.665
REMARK UNBOUND:                -2.643
REMARK SMILES CCCCCCCCC=CCCCCCCCC(=O)[O-]
REMARK SMILES IDX 10 1 9 2 11 3 12 4 13 5 14 6 15 7 16 8 17 9 18 10 19 11
REMARK SMILES IDX 20 12 8 13 7 14 6 15 5 16 4 17 3 18 2 19 1 20
REMARK H PARENT
REMARK Flexibility Score: inf
ROOT
ATOM      1  C   UNL     1      22.926 -23.397  -4.253  1.00  0.00    -0.031 C 
ATOM      2  C   UNL     1      22.570 -22.225  -4.812  1.00  0.00    -0.031 C 
ENDROOT
BRANCH   1   3
ATOM      3  C   UNL     1      22.663 -24.751  -4.864  1.00  0.00     0.027 C 
BRANCH   3   4
ATOM      4  C   UNL     1      23.713 -25.069  -5.938  1.00  0.00     0.004 C 
BRANCH   4   5
ATOM      5  C   UNL     1      23.084 -25.362  -7.309  1.00  0.00     0.000 C 
BRANCH   5   6
ATOM      6  C   UNL     1      24.137 -25.654  -8.393  1.00  0.00     0.000 C 
BRANCH   6   7
ATOM      7  C   UNL     1      24.990 -24.421  -8.731  1.00  0.00     0.000 C 
BRANCH   7   8
ATOM      8  C   UNL     1      24.509 -23.701  -9.999  1.00  0.00     0.006 C 
BRANCH   8   9
ATOM      9  C   UNL     1      25.272 -22.390 -10.209  1.00  0.00     0.053 C 
BRANCH   9  10
ATOM     10  C   UNL     1      24.716 -21.643 -11.380  1.00  0.00     0.041 C 
ATOM     11  O   UNL     1      24.759 -20.386 -11.407  1.00  0.00    -0.550 OA
ATOM     12  O   UNL     1      24.202 -22.337 -12.466  1.00  0.00    -0.550 OA
ENDBRANCH   9  10
ENDBRANCH   8   9
ENDBRANCH   7   8
ENDBRANCH   6   7
ENDBRANCH   5   6
ENDBRANCH   4   5
ENDBRANCH   3   4
ENDBRANCH   1   3
BRANCH   2  13
ATOM     13  C   UNL     1      21.934 -22.088  -6.175  1.00  0.00     0.027 C 
BRANCH  13  14
ATOM     14  C   UNL     1      22.946 -21.632  -7.245  1.00  0.00     0.004 C 
BRANCH  14  15
ATOM     15  C   UNL     1      22.289 -21.176  -8.560  1.00  0.00     0.000 C 
BRANCH  15  16
ATOM     16  C   UNL     1      21.281 -22.201  -9.110  1.00  0.00     0.000 C 
BRANCH  16  17
ATOM     17  C   UNL     1      21.171 -22.160 -10.644  1.00  0.00    -0.000 C 
BRANCH  17  18
ATOM     18  C   UNL     1      21.032 -23.561 -11.263  1.00  0.00    -0.000 C 
BRANCH  18  19
ATOM     19  C   UNL     1      20.386 -24.568 -10.300  1.00  0.00    -0.003 C 
ATOM     20  C   UNL     1      20.783 -26.014 -10.598  1.00  0.00     0.004 C 
ENDBRANCH  18  19
ENDBRANCH  17  18
ENDBRANCH  16  17
ENDBRANCH  15  16
ENDBRANCH  14  15
ENDBRANCH  13  14
ENDBRANCH   2  13
TORSDOF 15
ENDMDL
MODEL 9
REMARK VINA RESULT:    -5.465      2.357      4.220
REMARK INTER + INTRA:         -12.899
REMARK INTER:                 -10.381
REMARK INTRA:                  -2.518
REMARK UNBOUND:                -2.643
REMARK SMILES CCCCCCCCC=CCCCCCCCC(=O)[O-]
REMARK SMILES IDX 10 1 9 2 11 3 12 4 13 5 14 6 15 7 16 8 17 9 18 10 19 11
REMARK SMILES IDX 20 12 8 13 7 14 6 15 5 16 4 17 3 18 2 19 1 20
REMARK H PARENT
REMARK Flexibility Score: inf
ROOT
ATOM      1  C   UNL     1      24.679 -24.283 -10.761  1.00  0.00    -0.031 C 
ATOM      2  C   UNL     1      24.662 -22.945 -10.613  1.00  0.00    -0.031 C 
ENDROOT
BRANCH   1   3
ATOM      3  C   UNL     1      24.037 -25.258  -9.806  1.00  0.00     0.027 C 
BRANCH   3   4
ATOM      4  C   UNL     1      25.061 -25.756  -8.777  1.00  0.00     0.004 C 
BRANCH   4   5
ATOM      5  C   UNL     1      24.658 -25.418  -7.333  1.00  0.00     0.000 C 
BRANCH   5   6
ATOM      6  C   UNL     1      23.165 -25.067  -7.202  1.00  0.00     0.000 C 
BRANCH   6   7
ATOM      7  C   UNL     1      22.893 -24.067  -6.068  1.00  0.00     0.000 C 
BRANCH   7   8
ATOM      8  C   UNL     1      22.707 -24.753  -4.708  1.00  0.00     0.006 C 
BRANCH   8   9
ATOM      9  C   UNL     1      23.591 -24.103  -3.639  1.00  0.00     0.053 C 
BRANCH   9  10
ATOM     10  C   UNL     1      23.751 -25.018  -2.466  1.00  0.00     0.041 C 
ATOM     11  O   UNL     1      23.542 -26.252  -2.592  1.00  0.00    -0.550 OA
ATOM     12  O   UNL     1      24.183 -24.515  -1.247  1.00  0.00    -0.550 OA
ENDBRANCH   9  10
ENDBRANCH   8   9
ENDBRANCH   7   8
ENDBRANCH   6   7
ENDBRANCH   5   6
ENDBRANCH   4   5
ENDBRANCH   3   4
ENDBRANCH   1   3
BRANCH   2  13
ATOM     13  C   UNL     1      23.922 -22.217  -9.516  1.00  0.00     0.027 C 
BRANCH  13  14
ATOM     14  C   UNL     1      22.974 -21.136 -10.072  1.00  0.00     0.004 C 
BRANCH  14  15
ATOM     15  C   UNL     1      21.486 -21.519  -9.986  1.00  0.00     0.000 C 
BRANCH  15  16
ATOM     16  C   UNL     1      21.233 -22.734  -9.076  1.00  0.00     0.000 C 
BRANCH  16  17
ATOM     17  C   UNL     1      20.441 -23.848  -9.781  1.00  0.00    -0.000 C 
BRANCH  17  18
ATOM     18  C   UNL     1      20.734 -23.917 -11.289  1.00  0.00    -0.000 C 
BRANCH  18  19
ATOM     19  C   UNL     1      21.030 -25.346 -11.767  1.00  0.00    -0.003 C 
ATOM     20  C   UNL     1      20.679 -26.406 -10.724  1.00  0.00     0.004 C 
ENDBRANCH  18  19
ENDBRANCH  17  18
ENDBRANCH  16  17
ENDBRANCH  15  16
ENDBRANCH  14  15
ENDBRANCH  13  14
ENDBRANCH   2  13
TORSDOF 15
ENDMDL
