MODEL 1
REMARK VINA RESULT:    -6.153      0.000      0.000
REMARK INTER + INTRA:          -7.113
REMARK INTER:                  -7.412
REMARK INTRA:                   0.299
REMARK UNBOUND:                 0.299
REMARK SMILES O=c1c(O)c(-c2ccc(O)c(O)c2)oc2cc(O)cc(O)c12
REMARK SMILES IDX 5 1 3 2 2 3 1 4 22 5 20 6 19 7 17 8 16 9 15 10 14 11 6 12
REMARK SMILES IDX 7 13 8 14 9 15 13 16 11 17 10 18 12 20 4 22 21 24 18 26
REMARK H PARENT 10 19 12 21 4 23 21 25 18 27
REMARK Flexibility Score: inf
ROOT
ATOM      1  C   UNL     1       0.102 -18.096  -7.701  1.00  0.00     0.180 A 
ATOM      2  C   UNL     1       1.366 -18.690  -7.541  1.00  0.00     0.208 A 
ATOM      3  C   UNL     1       1.568 -19.997  -8.008  1.00  0.00     0.238 A 
ATOM      4  O   UNL     1       2.716 -20.503  -7.910  1.00  0.00    -0.285 OA
ATOM      5  C   UNL     1       0.502 -20.702  -8.616  1.00  0.00     0.111 A 
ATOM      6  C   UNL     1       0.583 -22.046  -9.090  1.00  0.00     0.134 A 
ATOM      7  C   UNL     1      -0.496 -22.597  -9.792  1.00  0.00     0.093 A 
ATOM      8  C   UNL     1      -1.678 -21.875  -9.980  1.00  0.00     0.123 A 
ATOM      9  C   UNL     1      -1.788 -20.584  -9.469  1.00  0.00     0.094 A 
ATOM     10  C   UNL     1      -0.716 -19.995  -8.796  1.00  0.00     0.146 A 
ATOM     11  O   UNL     1      -0.860 -18.758  -8.334  1.00  0.00    -0.452 OA
ENDROOT
BRANCH   1  12
ATOM     12  C   UNL     1      -0.195 -16.731  -7.211  1.00  0.00     0.025 A 
ATOM     13  C   UNL     1       0.520 -16.165  -6.142  1.00  0.00     0.016 A 
ATOM     14  C   UNL     1       0.205 -14.883  -5.681  1.00  0.00     0.051 A 
ATOM     15  C   UNL     1      -0.836 -14.154  -6.272  1.00  0.00     0.157 A 
ATOM     16  C   UNL     1      -1.251 -16.004  -7.787  1.00  0.00     0.062 A 
ATOM     17  C   UNL     1      -1.569 -14.721  -7.328  1.00  0.00     0.158 A 
BRANCH  15  18
ATOM     18  O   UNL     1      -1.145 -12.876  -5.812  1.00  0.00    -0.504 OA
ATOM     19  H   UNL     1      -2.029 -12.675  -5.357  1.00  0.00     0.293 HD
ENDBRANCH  15  18
BRANCH  17  20
ATOM     20  O   UNL     1      -2.615 -14.025  -7.933  1.00  0.00    -0.504 OA
ATOM     21  H   UNL     1      -2.451 -13.269  -8.586  1.00  0.00     0.293 HD
ENDBRANCH  17  20
ENDBRANCH   1  12
BRANCH   2  22
ATOM     22  O   UNL     1       2.412 -17.969  -6.957  1.00  0.00    -0.502 OA
ATOM     23  H   UNL     1       2.438 -16.957  -6.952  1.00  0.00     0.293 HD
ENDBRANCH   2  22
BRANCH   6  24
ATOM     24  O   UNL     1       1.682 -22.883  -8.876  1.00  0.00    -0.507 OA
ATOM     25  H   UNL     1       1.623 -23.875  -8.704  1.00  0.00     0.293 HD
ENDBRANCH   6  24
BRANCH   8  26
ATOM     26  O   UNL     1      -2.753 -22.437 -10.666  1.00  0.00    -0.508 OA
ATOM     27  H   UNL     1      -3.056 -22.076 -11.563  1.00  0.00     0.293 HD
ENDBRANCH   8  26
TORSDOF 6
ENDMDL
MODEL 2
REMARK VINA RESULT:    -6.068      1.545      1.850
REMARK INTER + INTRA:          -7.011
REMARK INTER:                  -6.959
REMARK INTRA:                  -0.052
REMARK UNBOUND:                 0.299
REMARK SMILES O=c1c(O)c(-c2ccc(O)c(O)c2)oc2cc(O)cc(O)c12
REMARK SMILES IDX 5 1 3 2 2 3 1 4 22 5 20 6 19 7 17 8 16 9 15 10 14 11 6 12
REMARK SMILES IDX 7 13 8 14 9 15 13 16 11 17 10 18 12 20 4 22 21 24 18 26
REMARK H PARENT 10 19 12 21 4 23 21 25 18 27
REMARK Flexibility Score: inf
ROOT
ATOM      1  C   UNL     1       0.144 -18.949  -8.017  1.00  0.00     0.180 A 
ATOM      2  C   UNL     1       1.283 -19.230  -7.243  1.00  0.00     0.208 A 
ATOM      3  C   UNL     1       1.859 -20.507  -7.317  1.00  0.00     0.238 A 
ATOM      4  O   UNL     1       2.909 -20.736  -6.662  1.00  0.00    -0.285 OA
ATOM      5  C   UNL     1       1.282 -21.494  -8.152  1.00  0.00     0.111 A 
ATOM      6  C   UNL     1       1.759 -22.834  -8.274  1.00  0.00     0.134 A 
ATOM      7  C   UNL     1       1.190 -23.685  -9.229  1.00  0.00     0.093 A 
ATOM      8  C   UNL     1       0.117 -23.266 -10.020  1.00  0.00     0.123 A 
ATOM      9  C   UNL     1      -0.394 -21.979  -9.867  1.00  0.00     0.094 A 
ATOM     10  C   UNL     1       0.177 -21.095  -8.948  1.00  0.00     0.146 A 
ATOM     11  O   UNL     1      -0.335 -19.875  -8.841  1.00  0.00    -0.452 OA
ENDROOT
BRANCH   1  12
ATOM     12  C   UNL     1      -0.534 -17.634  -7.974  1.00  0.00     0.025 A 
ATOM     13  C   UNL     1       0.164 -16.442  -8.230  1.00  0.00     0.016 A 
ATOM     14  C   UNL     1      -0.492 -15.209  -8.159  1.00  0.00     0.051 A 
ATOM     15  C   UNL     1      -1.850 -15.149  -7.819  1.00  0.00     0.157 A 
ATOM     16  C   UNL     1      -1.891 -17.567  -7.613  1.00  0.00     0.062 A 
ATOM     17  C   UNL     1      -2.550 -16.335  -7.542  1.00  0.00     0.158 A 
BRANCH  15  18
ATOM     18  O   UNL     1      -2.502 -13.920  -7.752  1.00  0.00    -0.504 OA
ATOM     19  H   UNL     1      -2.840 -13.451  -8.585  1.00  0.00     0.293 HD
ENDBRANCH  15  18
BRANCH  17  20
ATOM     20  O   UNL     1      -3.900 -16.310  -7.194  1.00  0.00    -0.504 OA
ATOM     21  H   UNL     1      -4.429 -15.447  -7.152  1.00  0.00     0.293 HD
ENDBRANCH  17  20
ENDBRANCH   1  12
BRANCH   2  22
ATOM     22  O   UNL     1       1.850 -18.235  -6.441  1.00  0.00    -0.502 OA
ATOM     23  H   UNL     1       1.408 -17.335  -6.297  1.00  0.00     0.293 HD
ENDBRANCH   2  22
BRANCH   6  24
ATOM     24  O   UNL     1       2.763 -23.380  -7.470  1.00  0.00    -0.507 OA
ATOM     25  H   UNL     1       2.600 -23.889  -6.614  1.00  0.00     0.293 HD
ENDBRANCH   6  24
BRANCH   8  26
ATOM     26  O   UNL     1      -0.454 -24.125 -10.957  1.00  0.00    -0.508 OA
ATOM     27  H   UNL     1       0.015 -24.973 -11.254  1.00  0.00     0.293 HD
ENDBRANCH   8  26
TORSDOF 6
ENDMDL
MODEL 3
REMARK VINA RESULT:    -6.043      3.062      6.915
REMARK INTER + INTRA:          -6.981
REMARK INTER:                  -6.727
REMARK INTRA:                  -0.254
REMARK UNBOUND:                 0.299
REMARK SMILES O=c1c(O)c(-c2ccc(O)c(O)c2)oc2cc(O)cc(O)c12
REMARK SMILES IDX 5 1 3 2 2 3 1 4 22 5 20 6 19 7 17 8 16 9 15 10 14 11 6 12
REMARK SMILES IDX 7 13 8 14 9 15 13 16 11 17 10 18 12 20 4 22 21 24 18 26
REMARK H PARENT 10 19 12 21 4 23 21 25 18 27
REMARK Flexibility Score: inf
ROOT
ATOM      1  C   UNL     1       1.973 -17.310  -5.816  1.00  0.00     0.180 A 
ATOM      2  C   UNL     1       1.509 -17.812  -7.044  1.00  0.00     0.208 A 
ATOM      3  C   UNL     1       0.446 -17.161  -7.688  1.00  0.00     0.238 A 
ATOM      4  O   UNL     1       0.070 -17.583  -8.812  1.00  0.00    -0.285 OA
ATOM      5  C   UNL     1      -0.151 -16.025  -7.090  1.00  0.00     0.111 A 
ATOM      6  C   UNL     1      -1.261 -15.311  -7.635  1.00  0.00     0.134 A 
ATOM      7  C   UNL     1      -1.685 -14.124  -7.024  1.00  0.00     0.093 A 
ATOM      8  C   UNL     1      -1.082 -13.662  -5.851  1.00  0.00     0.123 A 
ATOM      9  C   UNL     1      -0.038 -14.384  -5.279  1.00  0.00     0.094 A 
ATOM     10  C   UNL     1       0.431 -15.552  -5.885  1.00  0.00     0.146 A 
ATOM     11  O   UNL     1       1.436 -16.204  -5.313  1.00  0.00    -0.452 OA
ENDROOT
BRANCH   1  12
ATOM     12  C   UNL     1       3.073 -17.957  -5.065  1.00  0.00     0.025 A 
ATOM     13  C   UNL     1       2.890 -19.189  -4.415  1.00  0.00     0.016 A 
ATOM     14  C   UNL     1       3.936 -19.769  -3.692  1.00  0.00     0.051 A 
ATOM     15  C   UNL     1       5.174 -19.121  -3.596  1.00  0.00     0.157 A 
ATOM     16  C   UNL     1       4.310 -17.301  -4.949  1.00  0.00     0.062 A 
ATOM     17  C   UNL     1       5.360 -17.879  -4.226  1.00  0.00     0.158 A 
BRANCH  15  18
ATOM     18  O   UNL     1       6.216 -19.703  -2.876  1.00  0.00    -0.504 OA
ATOM     19  H   UNL     1       6.267 -19.634  -1.866  1.00  0.00     0.293 HD
ENDBRANCH  15  18
BRANCH  17  20
ATOM     20  O   UNL     1       6.577 -17.205  -4.143  1.00  0.00    -0.504 OA
ATOM     21  H   UNL     1       7.443 -17.683  -3.926  1.00  0.00     0.293 HD
ENDBRANCH  17  20
ENDBRANCH   1  12
BRANCH   2  22
ATOM     22  O   UNL     1       2.127 -18.922  -7.628  1.00  0.00    -0.502 OA
ATOM     23  H   UNL     1       1.640 -19.545  -8.260  1.00  0.00     0.293 HD
ENDBRANCH   2  22
BRANCH   6  24
ATOM     24  O   UNL     1      -1.991 -15.735  -8.749  1.00  0.00    -0.507 OA
ATOM     25  H   UNL     1      -1.585 -16.104  -9.595  1.00  0.00     0.293 HD
ENDBRANCH   6  24
BRANCH   8  26
ATOM     26  O   UNL     1      -1.521 -12.489  -5.241  1.00  0.00    -0.508 OA
ATOM     27  H   UNL     1      -2.130 -11.837  -5.721  1.00  0.00     0.293 HD
ENDBRANCH   8  26
TORSDOF 6
ENDMDL
MODEL 4
REMARK VINA RESULT:    -6.015      3.617      5.451
REMARK INTER + INTRA:          -6.947
REMARK INTER:                  -6.660
REMARK INTRA:                  -0.287
REMARK UNBOUND:                 0.299
REMARK SMILES O=c1c(O)c(-c2ccc(O)c(O)c2)oc2cc(O)cc(O)c12
REMARK SMILES IDX 5 1 3 2 2 3 1 4 22 5 20 6 19 7 17 8 16 9 15 10 14 11 6 12
REMARK SMILES IDX 7 13 8 14 9 15 13 16 11 17 10 18 12 20 4 22 21 24 18 26
REMARK H PARENT 10 19 12 21 4 23 21 25 18 27
REMARK Flexibility Score: inf
ROOT
ATOM      1  C   UNL     1      -0.445 -14.655  -5.187  1.00  0.00     0.180 A 
ATOM      2  C   UNL     1      -0.399 -14.893  -6.572  1.00  0.00     0.208 A 
ATOM      3  C   UNL     1       0.377 -15.958  -7.054  1.00  0.00     0.238 A 
ATOM      4  O   UNL     1       0.372 -16.198  -8.289  1.00  0.00    -0.285 OA
ATOM      5  C   UNL     1       1.110 -16.763  -6.149  1.00  0.00     0.111 A 
ATOM      6  C   UNL     1       1.961 -17.844  -6.531  1.00  0.00     0.134 A 
ATOM      7  C   UNL     1       2.533 -18.653  -5.542  1.00  0.00     0.093 A 
ATOM      8  C   UNL     1       2.339 -18.382  -4.186  1.00  0.00     0.123 A 
ATOM      9  C   UNL     1       1.559 -17.293  -3.804  1.00  0.00     0.094 A 
ATOM     10  C   UNL     1       0.945 -16.489  -4.766  1.00  0.00     0.146 A 
ATOM     11  O   UNL     1       0.201 -15.467  -4.358  1.00  0.00    -0.452 OA
ENDROOT
BRANCH   1  12
ATOM     12  C   UNL     1      -1.220 -13.536  -4.605  1.00  0.00     0.025 A 
ATOM     13  C   UNL     1      -0.591 -12.357  -4.170  1.00  0.00     0.016 A 
ATOM     14  C   UNL     1      -1.340 -11.324  -3.601  1.00  0.00     0.051 A 
ATOM     15  C   UNL     1      -2.726 -11.457  -3.446  1.00  0.00     0.157 A 
ATOM     16  C   UNL     1      -2.608 -13.673  -4.429  1.00  0.00     0.062 A 
ATOM     17  C   UNL     1      -3.361 -12.640  -3.860  1.00  0.00     0.158 A 
BRANCH  15  18
ATOM     18  O   UNL     1      -3.471 -10.424  -2.881  1.00  0.00    -0.504 OA
ATOM     19  H   UNL     1      -4.485 -10.445  -2.868  1.00  0.00     0.293 HD
ENDBRANCH  15  18
BRANCH  17  20
ATOM     20  O   UNL     1      -4.738 -12.808  -3.714  1.00  0.00    -0.504 OA
ATOM     21  H   UNL     1      -5.297 -13.293  -4.404  1.00  0.00     0.293 HD
ENDBRANCH  17  20
ENDBRANCH   1  12
BRANCH   2  22
ATOM     22  O   UNL     1      -1.147 -14.099  -7.446  1.00  0.00    -0.502 OA
ATOM     23  H   UNL     1      -2.152 -14.003  -7.368  1.00  0.00     0.293 HD
ENDBRANCH   2  22
BRANCH   6  24
ATOM     24  O   UNL     1       2.294 -18.144  -7.855  1.00  0.00    -0.507 OA
ATOM     25  H   UNL     1       1.639 -18.162  -8.622  1.00  0.00     0.293 HD
ENDBRANCH   6  24
BRANCH   8  26
ATOM     26  O   UNL     1       2.926 -19.183  -3.209  1.00  0.00    -0.508 OA
ATOM     27  H   UNL     1       3.412 -20.040  -3.448  1.00  0.00     0.293 HD
ENDBRANCH   8  26
TORSDOF 6
ENDMDL
MODEL 5
REMARK VINA RESULT:    -5.883      3.522      4.777
REMARK INTER + INTRA:          -6.788
REMARK INTER:                  -6.709
REMARK INTRA:                  -0.079
REMARK UNBOUND:                 0.299
REMARK SMILES O=c1c(O)c(-c2ccc(O)c(O)c2)oc2cc(O)cc(O)c12
REMARK SMILES IDX 5 1 3 2 2 3 1 4 22 5 20 6 19 7 17 8 16 9 15 10 14 11 6 12
REMARK SMILES IDX 7 13 8 14 9 15 13 16 11 17 10 18 12 20 4 22 21 24 18 26
REMARK H PARENT 10 19 12 21 4 23 21 25 18 27
REMARK Flexibility Score: inf
ROOT
ATOM      1  C   UNL     1       1.543 -17.196  -5.758  1.00  0.00     0.180 A 
ATOM      2  C   UNL     1       2.818 -16.660  -5.509  1.00  0.00     0.208 A 
ATOM      3  C   UNL     1       3.799 -17.477  -4.927  1.00  0.00     0.238 A 
ATOM      4  O   UNL     1       4.954 -17.006  -4.757  1.00  0.00    -0.285 OA
ATOM      5  C   UNL     1       3.491 -18.816  -4.587  1.00  0.00     0.111 A 
ATOM      6  C   UNL     1       4.396 -19.722  -3.957  1.00  0.00     0.134 A 
ATOM      7  C   UNL     1       4.025 -21.061  -3.786  1.00  0.00     0.093 A 
ATOM      8  C   UNL     1       2.758 -21.512  -4.163  1.00  0.00     0.123 A 
ATOM      9  C   UNL     1       1.846 -20.621  -4.724  1.00  0.00     0.094 A 
ATOM     10  C   UNL     1       2.199 -19.288  -4.940  1.00  0.00     0.146 A 
ATOM     11  O   UNL     1       1.303 -18.475  -5.488  1.00  0.00    -0.452 OA
ENDROOT
BRANCH   1  12
ATOM     12  C   UNL     1       0.448 -16.390  -6.345  1.00  0.00     0.025 A 
ATOM     13  C   UNL     1      -0.156 -16.752  -7.561  1.00  0.00     0.016 A 
ATOM     14  C   UNL     1      -1.171 -15.961  -8.108  1.00  0.00     0.051 A 
ATOM     15  C   UNL     1      -1.587 -14.793  -7.457  1.00  0.00     0.157 A 
ATOM     16  C   UNL     1       0.042 -15.207  -5.706  1.00  0.00     0.062 A 
ATOM     17  C   UNL     1      -0.974 -14.413  -6.251  1.00  0.00     0.158 A 
BRANCH  15  18
ATOM     18  O   UNL     1      -2.600 -14.009  -8.004  1.00  0.00    -0.504 OA
ATOM     19  H   UNL     1      -3.070 -14.272  -8.863  1.00  0.00     0.293 HD
ENDBRANCH  15  18
BRANCH  17  20
ATOM     20  O   UNL     1      -1.360 -13.253  -5.582  1.00  0.00    -0.504 OA
ATOM     21  H   UNL     1      -0.686 -12.575  -5.248  1.00  0.00     0.293 HD
ENDBRANCH  17  20
ENDBRANCH   1  12
BRANCH   2  22
ATOM     22  O   UNL     1       3.108 -15.341  -5.873  1.00  0.00    -0.502 OA
ATOM     23  H   UNL     1       2.406 -14.713  -6.244  1.00  0.00     0.293 HD
ENDBRANCH   2  22
BRANCH   6  24
ATOM     24  O   UNL     1       5.650 -19.352  -3.461  1.00  0.00    -0.507 OA
ATOM     25  H   UNL     1       6.528 -19.734  -3.776  1.00  0.00     0.293 HD
ENDBRANCH   6  24
BRANCH   8  26
ATOM     26  O   UNL     1       2.391 -22.843  -3.974  1.00  0.00    -0.508 OA
ATOM     27  H   UNL     1       3.032 -23.602  -4.175  1.00  0.00     0.293 HD
ENDBRANCH   8  26
TORSDOF 6
ENDMDL
MODEL 6
REMARK VINA RESULT:    -5.882      1.579      7.256
REMARK INTER + INTRA:          -6.787
REMARK INTER:                  -6.968
REMARK INTRA:                   0.181
REMARK UNBOUND:                 0.299
REMARK SMILES O=c1c(O)c(-c2ccc(O)c(O)c2)oc2cc(O)cc(O)c12
REMARK SMILES IDX 5 1 3 2 2 3 1 4 22 5 20 6 19 7 17 8 16 9 15 10 14 11 6 12
REMARK SMILES IDX 7 13 8 14 9 15 13 16 11 17 10 18 12 20 4 22 21 24 18 26
REMARK H PARENT 10 19 12 21 4 23 21 25 18 27
REMARK Flexibility Score: inf
ROOT
ATOM      1  C   UNL     1      -0.976 -18.420  -8.066  1.00  0.00     0.180 A 
ATOM      2  C   UNL     1      -1.793 -17.422  -8.625  1.00  0.00     0.208 A 
ATOM      3  C   UNL     1      -1.977 -16.221  -7.923  1.00  0.00     0.238 A 
ATOM      4  O   UNL     1      -2.666 -15.311  -8.454  1.00  0.00    -0.285 OA
ATOM      5  C   UNL     1      -1.355 -16.037  -6.665  1.00  0.00     0.111 A 
ATOM      6  C   UNL     1      -1.504 -14.875  -5.849  1.00  0.00     0.134 A 
ATOM      7  C   UNL     1      -0.738 -14.748  -4.684  1.00  0.00     0.093 A 
ATOM      8  C   UNL     1       0.123 -15.768  -4.271  1.00  0.00     0.123 A 
ATOM      9  C   UNL     1       0.230 -16.931  -5.030  1.00  0.00     0.094 A 
ATOM     10  C   UNL     1      -0.494 -17.072  -6.216  1.00  0.00     0.146 A 
ATOM     11  O   UNL     1      -0.354 -18.192  -6.915  1.00  0.00    -0.452 OA
ENDROOT
BRANCH   1  12
ATOM     12  C   UNL     1      -0.755 -19.723  -8.734  1.00  0.00     0.025 A 
ATOM     13  C   UNL     1      -1.772 -20.347  -9.477  1.00  0.00     0.016 A 
ATOM     14  C   UNL     1      -1.548 -21.589 -10.078  1.00  0.00     0.051 A 
ATOM     15  C   UNL     1      -0.311 -22.231  -9.936  1.00  0.00     0.157 A 
ATOM     16  C   UNL     1       0.477 -20.381  -8.577  1.00  0.00     0.062 A 
ATOM     17  C   UNL     1       0.704 -21.624  -9.178  1.00  0.00     0.158 A 
BRANCH  15  18
ATOM     18  O   UNL     1      -0.090 -23.467 -10.538  1.00  0.00    -0.504 OA
ATOM     19  H   UNL     1      -0.046 -23.567 -11.546  1.00  0.00     0.293 HD
ENDBRANCH  15  18
BRANCH  17  20
ATOM     20  O   UNL     1       1.944 -22.240  -9.010  1.00  0.00    -0.504 OA
ATOM     21  H   UNL     1       2.697 -22.124  -9.678  1.00  0.00     0.293 HD
ENDBRANCH  17  20
ENDBRANCH   1  12
BRANCH   2  22
ATOM     22  O   UNL     1      -2.381 -17.616  -9.879  1.00  0.00    -0.502 OA
ATOM     23  H   UNL     1      -3.325 -17.319 -10.088  1.00  0.00     0.293 HD
ENDBRANCH   2  22
BRANCH   6  24
ATOM     24  O   UNL     1      -2.403 -13.840  -6.122  1.00  0.00    -0.507 OA
ATOM     25  H   UNL     1      -3.311 -13.740  -5.694  1.00  0.00     0.293 HD
ENDBRANCH   6  24
BRANCH   8  26
ATOM     26  O   UNL     1       0.869 -15.639  -3.102  1.00  0.00    -0.508 OA
ATOM     27  H   UNL     1       0.988 -14.743  -2.645  1.00  0.00     0.293 HD
ENDBRANCH   8  26
TORSDOF 6
ENDMDL
MODEL 7
REMARK VINA RESULT:    -5.833      1.183      6.585
REMARK INTER + INTRA:          -6.728
REMARK INTER:                  -6.930
REMARK INTRA:                   0.202
REMARK UNBOUND:                 0.299
REMARK SMILES O=c1c(O)c(-c2ccc(O)c(O)c2)oc2cc(O)cc(O)c12
REMARK SMILES IDX 5 1 3 2 2 3 1 4 22 5 20 6 19 7 17 8 16 9 15 10 14 11 6 12
REMARK SMILES IDX 7 13 8 14 9 15 13 16 11 17 10 18 12 20 4 22 21 24 18 26
REMARK H PARENT 10 19 12 21 4 23 21 25 18 27
REMARK Flexibility Score: inf
ROOT
ATOM      1  C   UNL     1      -0.057 -19.336  -8.157  1.00  0.00     0.180 A 
ATOM      2  C   UNL     1       0.968 -19.198  -7.206  1.00  0.00     0.208 A 
ATOM      3  C   UNL     1       1.131 -17.965  -6.555  1.00  0.00     0.238 A 
ATOM      4  O   UNL     1       2.016 -17.864  -5.666  1.00  0.00    -0.285 OA
ATOM      5  C   UNL     1       0.279 -16.881  -6.874  1.00  0.00     0.111 A 
ATOM      6  C   UNL     1       0.379 -15.576  -6.305  1.00  0.00     0.134 A 
ATOM      7  C   UNL     1      -0.599 -14.618  -6.598  1.00  0.00     0.093 A 
ATOM      8  C   UNL     1      -1.638 -14.898  -7.490  1.00  0.00     0.123 A 
ATOM      9  C   UNL     1      -1.711 -16.150  -8.095  1.00  0.00     0.094 A 
ATOM     10  C   UNL     1      -0.770 -17.137  -7.796  1.00  0.00     0.146 A 
ATOM     11  O   UNL     1      -0.882 -18.321  -8.387  1.00  0.00    -0.452 OA
ENDROOT
BRANCH   1  12
ATOM     12  C   UNL     1      -0.276 -20.597  -8.903  1.00  0.00     0.025 A 
ATOM     13  C   UNL     1       0.796 -21.435  -9.253  1.00  0.00     0.016 A 
ATOM     14  C   UNL     1       0.569 -22.608  -9.979  1.00  0.00     0.051 A 
ATOM     15  C   UNL     1      -0.730 -22.954 -10.376  1.00  0.00     0.157 A 
ATOM     16  C   UNL     1      -1.573 -20.937  -9.321  1.00  0.00     0.062 A 
ATOM     17  C   UNL     1      -1.805 -22.110 -10.047  1.00  0.00     0.158 A 
BRANCH  15  18
ATOM     18  O   UNL     1      -0.954 -24.125 -11.097  1.00  0.00    -0.504 OA
ATOM     19  H   UNL     1      -0.215 -24.801 -11.255  1.00  0.00     0.293 HD
ENDBRANCH  15  18
BRANCH  17  20
ATOM     20  O   UNL     1      -3.108 -22.421 -10.434  1.00  0.00    -0.504 OA
ATOM     21  H   UNL     1      -3.767 -21.710 -10.725  1.00  0.00     0.293 HD
ENDBRANCH  17  20
ENDBRANCH   1  12
BRANCH   2  22
ATOM     22  O   UNL     1       1.785 -20.287  -6.890  1.00  0.00    -0.502 OA
ATOM     23  H   UNL     1       2.546 -20.587  -7.486  1.00  0.00     0.293 HD
ENDBRANCH   2  22
BRANCH   6  24
ATOM     24  O   UNL     1       1.427 -15.165  -5.476  1.00  0.00    -0.507 OA
ATOM     25  H   UNL     1       2.177 -14.552  -5.759  1.00  0.00     0.293 HD
ENDBRANCH   6  24
BRANCH   8  26
ATOM     26  O   UNL     1      -2.599 -13.933  -7.787  1.00  0.00    -0.508 OA
ATOM     27  H   UNL     1      -2.721 -13.580  -8.729  1.00  0.00     0.293 HD
ENDBRANCH   8  26
TORSDOF 6
ENDMDL
MODEL 8
REMARK VINA RESULT:    -5.742      2.063      3.086
REMARK INTER + INTRA:          -6.618
REMARK INTER:                  -6.576
REMARK INTRA:                  -0.042
REMARK UNBOUND:                 0.299
REMARK SMILES O=c1c(O)c(-c2ccc(O)c(O)c2)oc2cc(O)cc(O)c12
REMARK SMILES IDX 5 1 3 2 2 3 1 4 22 5 20 6 19 7 17 8 16 9 15 10 14 11 6 12
REMARK SMILES IDX 7 13 8 14 9 15 13 16 11 17 10 18 12 20 4 22 21 24 18 26
REMARK H PARENT 10 19 12 21 4 23 21 25 18 27
REMARK Flexibility Score: inf
ROOT
ATOM      1  C   UNL     1       0.103 -16.937  -5.628  1.00  0.00     0.180 A 
ATOM      2  C   UNL     1       1.329 -17.113  -4.964  1.00  0.00     0.208 A 
ATOM      3  C   UNL     1       2.142 -18.202  -5.314  1.00  0.00     0.238 A 
ATOM      4  O   UNL     1       3.263 -18.323  -4.753  1.00  0.00    -0.285 OA
ATOM      5  C   UNL     1       1.715 -19.110  -6.311  1.00  0.00     0.111 A 
ATOM      6  C   UNL     1       2.440 -20.271  -6.717  1.00  0.00     0.134 A 
ATOM      7  C   UNL     1       1.983 -21.025  -7.804  1.00  0.00     0.093 A 
ATOM      8  C   UNL     1       0.793 -20.699  -8.459  1.00  0.00     0.123 A 
ATOM      9  C   UNL     1       0.047 -19.603  -8.032  1.00  0.00     0.094 A 
ATOM     10  C   UNL     1       0.495 -18.810  -6.973  1.00  0.00     0.146 A 
ATOM     11  O   UNL     1      -0.241 -17.769  -6.605  1.00  0.00    -0.452 OA
ENDROOT
BRANCH   1  12
ATOM     12  C   UNL     1      -0.821 -15.828  -5.297  1.00  0.00     0.025 A 
ATOM     13  C   UNL     1      -2.161 -16.070  -4.952  1.00  0.00     0.016 A 
ATOM     14  C   UNL     1      -3.021 -15.005  -4.667  1.00  0.00     0.051 A 
ATOM     15  C   UNL     1      -2.559 -13.684  -4.736  1.00  0.00     0.157 A 
ATOM     16  C   UNL     1      -0.367 -14.501  -5.385  1.00  0.00     0.062 A 
ATOM     17  C   UNL     1      -1.225 -13.433  -5.100  1.00  0.00     0.158 A 
BRANCH  15  18
ATOM     18  O   UNL     1      -3.418 -12.626  -4.449  1.00  0.00    -0.504 OA
ATOM     19  H   UNL     1      -4.202 -12.734  -3.816  1.00  0.00     0.293 HD
ENDBRANCH  15  18
BRANCH  17  20
ATOM     20  O   UNL     1      -0.736 -12.130  -5.185  1.00  0.00    -0.504 OA
ATOM     21  H   UNL     1      -0.875 -11.555  -6.007  1.00  0.00     0.293 HD
ENDBRANCH  17  20
ENDBRANCH   1  12
BRANCH   2  22
ATOM     22  O   UNL     1       1.743 -16.192  -3.997  1.00  0.00    -0.502 OA
ATOM     23  H   UNL     1       2.431 -16.419  -3.290  1.00  0.00     0.293 HD
ENDBRANCH   2  22
BRANCH   6  24
ATOM     24  O   UNL     1       3.590 -20.736  -6.073  1.00  0.00    -0.507 OA
ATOM     25  H   UNL     1       4.045 -21.614  -6.271  1.00  0.00     0.293 HD
ENDBRANCH   6  24
BRANCH   8  26
ATOM     26  O   UNL     1       0.337 -21.465  -9.530  1.00  0.00    -0.508 OA
ATOM     27  H   UNL     1       0.932 -22.150  -9.982  1.00  0.00     0.293 HD
ENDBRANCH   8  26
TORSDOF 6
ENDMDL
MODEL 9
REMARK VINA RESULT:    -5.677      2.923      5.941
REMARK INTER + INTRA:          -6.540
REMARK INTER:                  -6.252
REMARK INTRA:                  -0.288
REMARK UNBOUND:                 0.299
REMARK SMILES O=c1c(O)c(-c2ccc(O)c(O)c2)oc2cc(O)cc(O)c12
REMARK SMILES IDX 5 1 3 2 2 3 1 4 22 5 20 6 19 7 17 8 16 9 15 10 14 11 6 12
REMARK SMILES IDX 7 13 8 14 9 15 13 16 11 17 10 18 12 20 4 22 21 24 18 26
REMARK H PARENT 10 19 12 21 4 23 21 25 18 27
REMARK Flexibility Score: inf
ROOT
ATOM      1  C   UNL     1       1.037 -17.123  -5.585  1.00  0.00     0.180 A 
ATOM      2  C   UNL     1       0.417 -15.929  -5.176  1.00  0.00     0.208 A 
ATOM      3  C   UNL     1      -0.686 -15.451  -5.900  1.00  0.00     0.238 A 
ATOM      4  O   UNL     1      -1.268 -14.412  -5.496  1.00  0.00    -0.285 OA
ATOM      5  C   UNL     1      -1.147 -16.163  -7.033  1.00  0.00     0.111 A 
ATOM      6  C   UNL     1      -2.232 -15.749  -7.864  1.00  0.00     0.134 A 
ATOM      7  C   UNL     1      -2.685 -16.598  -8.881  1.00  0.00     0.093 A 
ATOM      8  C   UNL     1      -2.051 -17.816  -9.139  1.00  0.00     0.123 A 
ATOM      9  C   UNL     1      -0.954 -18.201  -8.372  1.00  0.00     0.094 A 
ATOM     10  C   UNL     1      -0.502 -17.392  -7.327  1.00  0.00     0.146 A 
ATOM     11  O   UNL     1       0.540 -17.802  -6.613  1.00  0.00    -0.452 OA
ENDROOT
BRANCH   1  12
ATOM     12  C   UNL     1       2.220 -17.677  -4.888  1.00  0.00     0.025 A 
ATOM     13  C   UNL     1       2.098 -18.725  -3.960  1.00  0.00     0.016 A 
ATOM     14  C   UNL     1       3.226 -19.215  -3.296  1.00  0.00     0.051 A 
ATOM     15  C   UNL     1       4.488 -18.658  -3.539  1.00  0.00     0.157 A 
ATOM     16  C   UNL     1       3.485 -17.107  -5.113  1.00  0.00     0.062 A 
ATOM     17  C   UNL     1       4.616 -17.596  -4.450  1.00  0.00     0.158 A 
BRANCH  15  18
ATOM     18  O   UNL     1       5.611 -19.151  -2.877  1.00  0.00    -0.504 OA
ATOM     19  H   UNL     1       5.591 -20.037  -2.384  1.00  0.00     0.293 HD
ENDBRANCH  15  18
BRANCH  17  20
ATOM     20  O   UNL     1       5.856 -17.014  -4.709  1.00  0.00    -0.504 OA
ATOM     21  H   UNL     1       6.081 -16.072  -4.413  1.00  0.00     0.293 HD
ENDBRANCH  17  20
ENDBRANCH   1  12
BRANCH   2  22
ATOM     22  O   UNL     1       0.875 -15.254  -4.040  1.00  0.00    -0.502 OA
ATOM     23  H   UNL     1       1.058 -14.258  -4.037  1.00  0.00     0.293 HD
ENDBRANCH   2  22
BRANCH   6  24
ATOM     24  O   UNL     1      -2.874 -14.512  -7.750  1.00  0.00    -0.507 OA
ATOM     25  H   UNL     1      -3.795 -14.377  -7.362  1.00  0.00     0.293 HD
ENDBRANCH   6  24
BRANCH   8  26
ATOM     26  O   UNL     1      -2.499 -18.647 -10.164  1.00  0.00    -0.508 OA
ATOM     27  H   UNL     1      -2.224 -18.496 -11.127  1.00  0.00     0.293 HD
ENDBRANCH   8  26
TORSDOF 6
ENDMDL
