MODEL 1
REMARK VINA RESULT:    -4.084      0.000      0.000
REMARK INTER + INTRA:         -15.851
REMARK INTER:                 -10.291
REMARK INTRA:                  -5.560
REMARK UNBOUND:                -5.560
REMARK SMILES CCCCCCCCCCCCCCCCCCCCCCCCCCCC(=O)[O-]
REMARK SMILES IDX 15 1 16 2 17 3 18 4 19 5 20 6 21 7 22 8 23 9 24 10 25 11
REMARK SMILES IDX 26 12 27 13 28 14 29 15 30 16 14 17 13 18 12 19 11 20 10 21
REMARK SMILES IDX 9 22 8 23 7 24 6 25 5 26 4 27 3 28 2 29 1 30
REMARK H PARENT
REMARK Flexibility Score: inf
ROOT
ATOM      1  C   UNL     1      47.465  -7.057  78.344  1.00  0.00     0.000 C 
ENDROOT
BRANCH   1   2
ATOM      2  C   UNL     1      47.106  -8.537  78.567  1.00  0.00     0.000 C 
BRANCH   2   3
ATOM      3  C   UNL     1      48.315  -9.479  78.384  1.00  0.00     0.000 C 
BRANCH   3   4
ATOM      4  C   UNL     1      48.183 -10.433  77.180  1.00  0.00     0.000 C 
BRANCH   4   5
ATOM      5  C   UNL     1      48.579  -9.824  75.822  1.00  0.00     0.000 C 
BRANCH   5   6
ATOM      6  C   UNL     1      47.407  -9.253  74.995  1.00  0.00     0.000 C 
BRANCH   6   7
ATOM      7  C   UNL     1      46.118 -10.095  75.028  1.00  0.00     0.000 C 
BRANCH   7   8
ATOM      8  C   UNL     1      44.878  -9.265  75.404  1.00  0.00     0.000 C 
BRANCH   8   9
ATOM      9  C   UNL     1      45.177  -7.761  75.494  1.00  0.00     0.000 C 
BRANCH   9  10
ATOM     10  C   UNL     1      44.229  -6.918  74.625  1.00  0.00     0.000 C 
BRANCH  10  11
ATOM     11  C   UNL     1      44.954  -5.701  74.039  1.00  0.00     0.000 C 
BRANCH  11  12
ATOM     12  C   UNL     1      46.355  -6.080  73.543  1.00  0.00     0.006 C 
BRANCH  12  13
ATOM     13  C   UNL     1      46.343  -6.372  72.039  1.00  0.00     0.053 C 
BRANCH  13  14
ATOM     14  C   UNL     1      46.627  -7.818  71.777  1.00  0.00     0.041 C 
ATOM     15  O   UNL     1      47.808  -8.201  71.556  1.00  0.00    -0.550 OA
ATOM     16  O   UNL     1      45.595  -8.748  71.799  1.00  0.00    -0.550 OA
ENDBRANCH  13  14
ENDBRANCH  12  13
ENDBRANCH  11  12
ENDBRANCH  10  11
ENDBRANCH   9  10
ENDBRANCH   8   9
ENDBRANCH   7   8
ENDBRANCH   6   7
ENDBRANCH   5   6
ENDBRANCH   4   5
ENDBRANCH   3   4
ENDBRANCH   2   3
ENDBRANCH   1   2
BRANCH   1  17
ATOM     17  C   UNL     1      48.983  -6.814  78.315  1.00  0.00     0.000 C 
BRANCH  17  18
ATOM     18  C   UNL     1      49.344  -5.320  78.395  1.00  0.00     0.000 C 
BRANCH  18  19
ATOM     19  C   UNL     1      48.219  -4.404  77.882  1.00  0.00     0.000 C 
BRANCH  19  20
ATOM     20  C   UNL     1      48.664  -3.331  76.869  1.00  0.00     0.000 C 
BRANCH  20  21
ATOM     21  C   UNL     1      47.831  -3.261  75.575  1.00  0.00     0.000 C 
BRANCH  21  22
ATOM     22  C   UNL     1      48.465  -2.441  74.439  1.00  0.00    -0.000 C 
BRANCH  22  23
ATOM     23  C   UNL     1      48.318  -3.112  73.065  1.00  0.00    -0.000 C 
BRANCH  23  24
ATOM     24  C   UNL     1      49.340  -2.554  72.067  1.00  0.00    -0.000 C 
BRANCH  24  25
ATOM     25  C   UNL     1      50.537  -3.504  71.913  1.00  0.00    -0.000 C 
BRANCH  25  26
ATOM     26  C   UNL     1      51.714  -3.136  72.830  1.00  0.00    -0.000 C 
BRANCH  26  27
ATOM     27  C   UNL     1      52.277  -4.346  73.591  1.00  0.00    -0.000 C 
BRANCH  27  28
ATOM     28  C   UNL     1      51.499  -4.587  74.893  1.00  0.00    -0.000 C 
BRANCH  28  29
ATOM     29  C   UNL     1      51.129  -6.065  75.098  1.00  0.00    -0.003 C 
ATOM     30  C   UNL     1      49.664  -6.359  74.776  1.00  0.00     0.004 C 
ENDBRANCH  28  29
ENDBRANCH  27  28
ENDBRANCH  26  27
ENDBRANCH  25  26
ENDBRANCH  24  25
ENDBRANCH  23  24
ENDBRANCH  22  23
ENDBRANCH  21  22
ENDBRANCH  20  21
ENDBRANCH  19  20
ENDBRANCH  18  19
ENDBRANCH  17  18
ENDBRANCH   1  17
TORSDOF 26
ENDMDL
MODEL 2
REMARK VINA RESULT:    -4.043      3.475      6.748
REMARK INTER + INTRA:         -15.747
REMARK INTER:                 -10.314
REMARK INTRA:                  -5.433
REMARK UNBOUND:                -5.560
REMARK SMILES CCCCCCCCCCCCCCCCCCCCCCCCCCCC(=O)[O-]
REMARK SMILES IDX 15 1 16 2 17 3 18 4 19 5 20 6 21 7 22 8 23 9 24 10 25 11
REMARK SMILES IDX 26 12 27 13 28 14 29 15 30 16 14 17 13 18 12 19 11 20 10 21
REMARK SMILES IDX 9 22 8 23 7 24 6 25 5 26 4 27 3 28 2 29 1 30
REMARK H PARENT
REMARK Flexibility Score: inf
ROOT
ATOM      1  C   UNL     1      49.728  -3.046  76.932  1.00  0.00     0.000 C 
ENDROOT
BRANCH   1   2
ATOM      2  C   UNL     1      49.478  -2.100  75.743  1.00  0.00     0.000 C 
BRANCH   2   3
ATOM      3  C   UNL     1      48.072  -2.271  75.130  1.00  0.00     0.000 C 
BRANCH   3   4
ATOM      4  C   UNL     1      47.819  -3.672  74.538  1.00  0.00     0.000 C 
BRANCH   4   5
ATOM      5  C   UNL     1      47.844  -3.741  73.000  1.00  0.00     0.000 C 
BRANCH   5   6
ATOM      6  C   UNL     1      48.903  -4.696  72.407  1.00  0.00     0.000 C 
BRANCH   6   7
ATOM      7  C   UNL     1      50.072  -4.002  71.683  1.00  0.00     0.000 C 
BRANCH   7   8
ATOM      8  C   UNL     1      51.190  -3.567  72.646  1.00  0.00     0.000 C 
BRANCH   8   9
ATOM      9  C   UNL     1      51.358  -2.041  72.708  1.00  0.00     0.000 C 
BRANCH   9  10
ATOM     10  C   UNL     1      50.388  -1.302  71.771  1.00  0.00     0.000 C 
BRANCH  10  11
ATOM     11  C   UNL     1      49.958   0.041  72.371  1.00  0.00     0.000 C 
BRANCH  11  12
ATOM     12  C   UNL     1      48.431   0.123  72.501  1.00  0.00     0.006 C 
BRANCH  12  13
ATOM     13  C   UNL     1      47.989   1.543  72.868  1.00  0.00     0.053 C 
BRANCH  13  14
ATOM     14  C   UNL     1      48.656   1.997  74.129  1.00  0.00     0.041 C 
ATOM     15  O   UNL     1      49.424   2.997  74.115  1.00  0.00    -0.550 OA
ATOM     16  O   UNL     1      48.416   1.330  75.325  1.00  0.00    -0.550 OA
ENDBRANCH  13  14
ENDBRANCH  12  13
ENDBRANCH  11  12
ENDBRANCH  10  11
ENDBRANCH   9  10
ENDBRANCH   8   9
ENDBRANCH   7   8
ENDBRANCH   6   7
ENDBRANCH   5   6
ENDBRANCH   4   5
ENDBRANCH   3   4
ENDBRANCH   2   3
ENDBRANCH   1   2
BRANCH   1  17
ATOM     17  C   UNL     1      48.927  -2.647  78.183  1.00  0.00     0.000 C 
BRANCH  17  18
ATOM     18  C   UNL     1      48.211  -3.846  78.832  1.00  0.00     0.000 C 
BRANCH  18  19
ATOM     19  C   UNL     1      48.805  -5.200  78.406  1.00  0.00     0.000 C 
BRANCH  19  20
ATOM     20  C   UNL     1      47.850  -6.402  78.547  1.00  0.00     0.000 C 
BRANCH  20  21
ATOM     21  C   UNL     1      47.966  -7.469  77.441  1.00  0.00     0.000 C 
BRANCH  21  22
ATOM     22  C   UNL     1      47.544  -6.999  76.039  1.00  0.00    -0.000 C 
BRANCH  22  23
ATOM     23  C   UNL     1      48.503  -7.473  74.938  1.00  0.00    -0.000 C 
BRANCH  23  24
ATOM     24  C   UNL     1      49.954  -7.477  75.434  1.00  0.00    -0.000 C 
BRANCH  24  25
ATOM     25  C   UNL     1      50.636  -6.130  75.157  1.00  0.00    -0.000 C 
BRANCH  25  26
ATOM     26  C   UNL     1      51.828  -5.862  76.089  1.00  0.00    -0.000 C 
BRANCH  26  27
ATOM     27  C   UNL     1      52.179  -7.071  76.970  1.00  0.00    -0.000 C 
BRANCH  27  28
ATOM     28  C   UNL     1      51.720  -6.846  78.419  1.00  0.00    -0.000 C 
BRANCH  28  29
ATOM     29  C   UNL     1      52.746  -6.058  79.249  1.00  0.00    -0.003 C 
ATOM     30  C   UNL     1      52.256  -4.659  79.621  1.00  0.00     0.004 C 
ENDBRANCH  28  29
ENDBRANCH  27  28
ENDBRANCH  26  27
ENDBRANCH  25  26
ENDBRANCH  24  25
ENDBRANCH  23  24
ENDBRANCH  22  23
ENDBRANCH  21  22
ENDBRANCH  20  21
ENDBRANCH  19  20
ENDBRANCH  18  19
ENDBRANCH  17  18
ENDBRANCH   1  17
TORSDOF 26
ENDMDL
MODEL 3
REMARK VINA RESULT:    -3.979      2.158      6.245
REMARK INTER + INTRA:         -15.586
REMARK INTER:                 -11.004
REMARK INTRA:                  -4.582
REMARK UNBOUND:                -5.560
REMARK SMILES CCCCCCCCCCCCCCCCCCCCCCCCCCCC(=O)[O-]
REMARK SMILES IDX 15 1 16 2 17 3 18 4 19 5 20 6 21 7 22 8 23 9 24 10 25 11
REMARK SMILES IDX 26 12 27 13 28 14 29 15 30 16 14 17 13 18 12 19 11 20 10 21
REMARK SMILES IDX 9 22 8 23 7 24 6 25 5 26 4 27 3 28 2 29 1 30
REMARK H PARENT
REMARK Flexibility Score: inf
ROOT
ATOM      1  C   UNL     1      53.025  -1.482  72.351  1.00  0.00     0.000 C 
ENDROOT
BRANCH   1   2
ATOM      2  C   UNL     1      52.702  -2.437  73.515  1.00  0.00     0.000 C 
BRANCH   2   3
ATOM      3  C   UNL     1      52.704  -3.920  73.088  1.00  0.00     0.000 C 
BRANCH   3   4
ATOM      4  C   UNL     1      53.838  -4.748  73.725  1.00  0.00     0.000 C 
BRANCH   4   5
ATOM      5  C   UNL     1      53.397  -6.090  74.339  1.00  0.00     0.000 C 
BRANCH   5   6
ATOM      6  C   UNL     1      51.890  -6.401  74.213  1.00  0.00     0.000 C 
BRANCH   6   7
ATOM      7  C   UNL     1      51.152  -6.596  75.551  1.00  0.00     0.000 C 
BRANCH   7   8
ATOM      8  C   UNL     1      51.817  -5.834  76.710  1.00  0.00     0.000 C 
BRANCH   8   9
ATOM      9  C   UNL     1      51.118  -6.078  78.056  1.00  0.00     0.000 C 
BRANCH   9  10
ATOM     10  C   UNL     1      50.157  -4.939  78.437  1.00  0.00     0.000 C 
BRANCH  10  11
ATOM     11  C   UNL     1      48.732  -5.466  78.642  1.00  0.00     0.000 C 
BRANCH  11  12
ATOM     12  C   UNL     1      48.653  -6.970  78.349  1.00  0.00     0.006 C 
BRANCH  12  13
ATOM     13  C   UNL     1      47.196  -7.434  78.261  1.00  0.00     0.053 C 
BRANCH  13  14
ATOM     14  C   UNL     1      46.786  -7.626  76.834  1.00  0.00     0.041 C 
ATOM     15  O   UNL     1      47.408  -7.033  75.911  1.00  0.00    -0.550 OA
ATOM     16  O   UNL     1      45.731  -8.474  76.518  1.00  0.00    -0.550 OA
ENDBRANCH  13  14
ENDBRANCH  12  13
ENDBRANCH  11  12
ENDBRANCH  10  11
ENDBRANCH   9  10
ENDBRANCH   8   9
ENDBRANCH   7   8
ENDBRANCH   6   7
ENDBRANCH   5   6
ENDBRANCH   4   5
ENDBRANCH   3   4
ENDBRANCH   2   3
ENDBRANCH   1   2
BRANCH   1  17
ATOM     17  C   UNL     1      51.848  -0.556  72.001  1.00  0.00     0.000 C 
BRANCH  17  18
ATOM     18  C   UNL     1      50.514  -1.049  72.591  1.00  0.00     0.000 C 
BRANCH  18  19
ATOM     19  C   UNL     1      49.328  -0.858  71.630  1.00  0.00     0.000 C 
BRANCH  19  20
ATOM     20  C   UNL     1      48.098  -0.162  72.245  1.00  0.00     0.000 C 
BRANCH  20  21
ATOM     21  C   UNL     1      48.341   0.525  73.603  1.00  0.00     0.000 C 
BRANCH  21  22
ATOM     22  C   UNL     1      47.670  -0.159  74.806  1.00  0.00    -0.000 C 
BRANCH  22  23
ATOM     23  C   UNL     1      48.678  -0.838  75.744  1.00  0.00    -0.000 C 
BRANCH  23  24
ATOM     24  C   UNL     1      48.006  -1.942  76.570  1.00  0.00    -0.000 C 
BRANCH  24  25
ATOM     25  C   UNL     1      48.085  -3.296  75.850  1.00  0.00    -0.000 C 
BRANCH  25  26
ATOM     26  C   UNL     1      49.369  -3.457  75.022  1.00  0.00    -0.000 C 
BRANCH  26  27
ATOM     27  C   UNL     1      49.111  -4.071  73.637  1.00  0.00    -0.000 C 
BRANCH  27  28
ATOM     28  C   UNL     1      47.606  -4.236  73.381  1.00  0.00    -0.000 C 
BRANCH  28  29
ATOM     29  C   UNL     1      47.294  -5.364  72.385  1.00  0.00    -0.003 C 
ATOM     30  C   UNL     1      46.051  -6.166  72.769  1.00  0.00     0.004 C 
ENDBRANCH  28  29
ENDBRANCH  27  28
ENDBRANCH  26  27
ENDBRANCH  25  26
ENDBRANCH  24  25
ENDBRANCH  23  24
ENDBRANCH  22  23
ENDBRANCH  21  22
ENDBRANCH  20  21
ENDBRANCH  19  20
ENDBRANCH  18  19
ENDBRANCH  17  18
ENDBRANCH   1  17
TORSDOF 26
ENDMDL
MODEL 4
REMARK VINA RESULT:    -3.967      3.415      7.906
REMARK INTER + INTRA:         -15.555
REMARK INTER:                 -10.579
REMARK INTRA:                  -4.977
REMARK UNBOUND:                -5.560
REMARK SMILES CCCCCCCCCCCCCCCCCCCCCCCCCCCC(=O)[O-]
REMARK SMILES IDX 15 1 16 2 17 3 18 4 19 5 20 6 21 7 22 8 23 9 24 10 25 11
REMARK SMILES IDX 26 12 27 13 28 14 29 15 30 16 14 17 13 18 12 19 11 20 10 21
REMARK SMILES IDX 9 22 8 23 7 24 6 25 5 26 4 27 3 28 2 29 1 30
REMARK H PARENT
REMARK Flexibility Score: inf
ROOT
ATOM      1  C   UNL     1      51.107  -4.004  73.495  1.00  0.00     0.000 C 
ENDROOT
BRANCH   1   2
ATOM      2  C   UNL     1      51.090  -3.047  72.289  1.00  0.00     0.000 C 
BRANCH   2   3
ATOM      3  C   UNL     1      51.486  -1.603  72.667  1.00  0.00     0.000 C 
BRANCH   3   4
ATOM      4  C   UNL     1      50.584  -0.526  72.034  1.00  0.00     0.000 C 
BRANCH   4   5
ATOM      5  C   UNL     1      49.076  -0.835  72.074  1.00  0.00     0.000 C 
BRANCH   5   6
ATOM      6  C   UNL     1      48.229   0.150  72.907  1.00  0.00     0.000 C 
BRANCH   6   7
ATOM      7  C   UNL     1      48.327  -0.037  74.433  1.00  0.00     0.000 C 
BRANCH   7   8
ATOM      8  C   UNL     1      48.378  -1.518  74.845  1.00  0.00     0.000 C 
BRANCH   8   9
ATOM      9  C   UNL     1      49.498  -1.814  75.854  1.00  0.00     0.000 C 
BRANCH   9  10
ATOM     10  C   UNL     1      49.033  -2.724  77.003  1.00  0.00     0.000 C 
BRANCH  10  11
ATOM     11  C   UNL     1      49.839  -4.027  77.036  1.00  0.00     0.000 C 
BRANCH  11  12
ATOM     12  C   UNL     1      50.118  -4.467  78.479  1.00  0.00     0.006 C 
BRANCH  12  13
ATOM     13  C   UNL     1      50.445  -3.261  79.365  1.00  0.00     0.053 C 
BRANCH  13  14
ATOM     14  C   UNL     1      51.860  -3.328  79.850  1.00  0.00     0.041 C 
ATOM     15  O   UNL     1      52.421  -2.297  80.311  1.00  0.00    -0.550 OA
ATOM     16  O   UNL     1      52.554  -4.531  79.814  1.00  0.00    -0.550 OA
ENDBRANCH  13  14
ENDBRANCH  12  13
ENDBRANCH  11  12
ENDBRANCH  10  11
ENDBRANCH   9  10
ENDBRANCH   8   9
ENDBRANCH   7   8
ENDBRANCH   6   7
ENDBRANCH   5   6
ENDBRANCH   4   5
ENDBRANCH   3   4
ENDBRANCH   2   3
ENDBRANCH   1   2
BRANCH   1  17
ATOM     17  C   UNL     1      50.013  -5.081  73.411  1.00  0.00     0.000 C 
BRANCH  17  18
ATOM     18  C   UNL     1      48.947  -4.758  72.347  1.00  0.00     0.000 C 
BRANCH  18  19
ATOM     19  C   UNL     1      47.562  -4.476  72.955  1.00  0.00     0.000 C 
BRANCH  19  20
ATOM     20  C   UNL     1      47.389  -4.932  74.417  1.00  0.00     0.000 C 
BRANCH  20  21
ATOM     21  C   UNL     1      45.932  -5.018  74.912  1.00  0.00     0.000 C 
BRANCH  21  22
ATOM     22  C   UNL     1      44.932  -5.581  73.889  1.00  0.00    -0.000 C 
BRANCH  22  23
ATOM     23  C   UNL     1      44.140  -6.781  74.427  1.00  0.00    -0.000 C 
BRANCH  23  24
ATOM     24  C   UNL     1      45.054  -7.749  75.187  1.00  0.00    -0.000 C 
BRANCH  24  25
ATOM     25  C   UNL     1      45.123  -9.112  74.482  1.00  0.00    -0.000 C 
BRANCH  25  26
ATOM     26  C   UNL     1      46.563  -9.549  74.169  1.00  0.00    -0.000 C 
BRANCH  26  27
ATOM     27  C   UNL     1      47.450  -8.385  73.700  1.00  0.00    -0.000 C 
BRANCH  27  28
ATOM     28  C   UNL     1      47.652  -8.427  72.178  1.00  0.00    -0.000 C 
BRANCH  28  29
ATOM     29  C   UNL     1      46.516  -7.730  71.412  1.00  0.00    -0.003 C 
ATOM     30  C   UNL     1      46.046  -8.530  70.197  1.00  0.00     0.004 C 
ENDBRANCH  28  29
ENDBRANCH  27  28
ENDBRANCH  26  27
ENDBRANCH  25  26
ENDBRANCH  24  25
ENDBRANCH  23  24
ENDBRANCH  22  23
ENDBRANCH  21  22
ENDBRANCH  20  21
ENDBRANCH  19  20
ENDBRANCH  18  19
ENDBRANCH  17  18
ENDBRANCH   1  17
TORSDOF 26
ENDMDL
MODEL 5
REMARK VINA RESULT:    -3.937      3.481      7.827
REMARK INTER + INTRA:         -15.481
REMARK INTER:                 -10.384
REMARK INTRA:                  -5.098
REMARK UNBOUND:                -5.560
REMARK SMILES CCCCCCCCCCCCCCCCCCCCCCCCCCCC(=O)[O-]
REMARK SMILES IDX 15 1 16 2 17 3 18 4 19 5 20 6 21 7 22 8 23 9 24 10 25 11
REMARK SMILES IDX 26 12 27 13 28 14 29 15 30 16 14 17 13 18 12 19 11 20 10 21
REMARK SMILES IDX 9 22 8 23 7 24 6 25 5 26 4 27 3 28 2 29 1 30
REMARK H PARENT
REMARK Flexibility Score: inf
ROOT
ATOM      1  C   UNL     1      50.266  -3.969  71.968  1.00  0.00     0.000 C 
ENDROOT
BRANCH   1   2
ATOM      2  C   UNL     1      51.114  -3.170  72.974  1.00  0.00     0.000 C 
BRANCH   2   3
ATOM      3  C   UNL     1      50.521  -1.778  73.281  1.00  0.00     0.000 C 
BRANCH   3   4
ATOM      4  C   UNL     1      50.410  -0.864  72.044  1.00  0.00     0.000 C 
BRANCH   4   5
ATOM      5  C   UNL     1      48.971  -0.550  71.595  1.00  0.00     0.000 C 
BRANCH   5   6
ATOM      6  C   UNL     1      47.983  -0.241  72.741  1.00  0.00     0.000 C 
BRANCH   6   7
ATOM      7  C   UNL     1      47.856   1.249  73.106  1.00  0.00     0.000 C 
BRANCH   7   8
ATOM      8  C   UNL     1      48.643   1.617  74.376  1.00  0.00     0.000 C 
BRANCH   8   9
ATOM      9  C   UNL     1      47.855   1.331  75.664  1.00  0.00     0.000 C 
BRANCH   9  10
ATOM     10  C   UNL     1      48.644   0.461  76.657  1.00  0.00     0.000 C 
BRANCH  10  11
ATOM     11  C   UNL     1      48.441  -1.031  76.366  1.00  0.00     0.000 C 
BRANCH  11  12
ATOM     12  C   UNL     1      47.523  -1.676  77.412  1.00  0.00     0.006 C 
BRANCH  12  13
ATOM     13  C   UNL     1      46.079  -1.743  76.907  1.00  0.00     0.053 C 
BRANCH  13  14
ATOM     14  C   UNL     1      45.196  -0.832  77.701  1.00  0.00     0.041 C 
ATOM     15  O   UNL     1      44.335  -0.117  77.120  1.00  0.00    -0.550 OA
ATOM     16  O   UNL     1      45.308  -0.785  79.086  1.00  0.00    -0.550 OA
ENDBRANCH  13  14
ENDBRANCH  12  13
ENDBRANCH  11  12
ENDBRANCH  10  11
ENDBRANCH   9  10
ENDBRANCH   8   9
ENDBRANCH   7   8
ENDBRANCH   6   7
ENDBRANCH   5   6
ENDBRANCH   4   5
ENDBRANCH   3   4
ENDBRANCH   2   3
ENDBRANCH   1   2
BRANCH   1  17
ATOM     17  C   UNL     1      49.304  -4.953  72.654  1.00  0.00     0.000 C 
BRANCH  17  18
ATOM     18  C   UNL     1      47.861  -4.420  72.718  1.00  0.00     0.000 C 
BRANCH  18  19
ATOM     19  C   UNL     1      47.518  -3.782  74.075  1.00  0.00     0.000 C 
BRANCH  19  20
ATOM     20  C   UNL     1      46.927  -4.751  75.118  1.00  0.00     0.000 C 
BRANCH  20  21
ATOM     21  C   UNL     1      45.806  -5.673  74.599  1.00  0.00     0.000 C 
BRANCH  21  22
ATOM     22  C   UNL     1      45.967  -7.158  74.962  1.00  0.00    -0.000 C 
BRANCH  22  23
ATOM     23  C   UNL     1      47.429  -7.626  74.924  1.00  0.00    -0.000 C 
BRANCH  23  24
ATOM     24  C   UNL     1      47.812  -8.346  76.222  1.00  0.00    -0.000 C 
BRANCH  24  25
ATOM     25  C   UNL     1      46.731  -8.160  77.296  1.00  0.00    -0.000 C 
BRANCH  25  26
ATOM     26  C   UNL     1      47.207  -7.305  78.482  1.00  0.00    -0.000 C 
BRANCH  26  27
ATOM     27  C   UNL     1      48.595  -6.687  78.250  1.00  0.00    -0.000 C 
BRANCH  27  28
ATOM     28  C   UNL     1      48.572  -5.174  78.512  1.00  0.00    -0.000 C 
BRANCH  28  29
ATOM     29  C   UNL     1      49.933  -4.508  78.253  1.00  0.00    -0.003 C 
ATOM     30  C   UNL     1      50.207  -4.280  76.767  1.00  0.00     0.004 C 
ENDBRANCH  28  29
ENDBRANCH  27  28
ENDBRANCH  26  27
ENDBRANCH  25  26
ENDBRANCH  24  25
ENDBRANCH  23  24
ENDBRANCH  22  23
ENDBRANCH  21  22
ENDBRANCH  20  21
ENDBRANCH  19  20
ENDBRANCH  18  19
ENDBRANCH  17  18
ENDBRANCH   1  17
TORSDOF 26
ENDMDL
MODEL 6
REMARK VINA RESULT:    -3.925      2.363      6.542
REMARK INTER + INTRA:         -15.451
REMARK INTER:                 -10.614
REMARK INTRA:                  -4.838
REMARK UNBOUND:                -5.560
REMARK SMILES CCCCCCCCCCCCCCCCCCCCCCCCCCCC(=O)[O-]
REMARK SMILES IDX 15 1 16 2 17 3 18 4 19 5 20 6 21 7 22 8 23 9 24 10 25 11
REMARK SMILES IDX 26 12 27 13 28 14 29 15 30 16 14 17 13 18 12 19 11 20 10 21
REMARK SMILES IDX 9 22 8 23 7 24 6 25 5 26 4 27 3 28 2 29 1 30
REMARK H PARENT
REMARK Flexibility Score: inf
ROOT
ATOM      1  C   UNL     1      49.041  -7.367  78.012  1.00  0.00     0.000 C 
ENDROOT
BRANCH   1   2
ATOM      2  C   UNL     1      49.692  -5.972  78.043  1.00  0.00     0.000 C 
BRANCH   2   3
ATOM      3  C   UNL     1      49.902  -5.380  76.633  1.00  0.00     0.000 C 
BRANCH   3   4
ATOM      4  C   UNL     1      49.604  -3.871  76.542  1.00  0.00     0.000 C 
BRANCH   4   5
ATOM      5  C   UNL     1      48.110  -3.508  76.451  1.00  0.00     0.000 C 
BRANCH   5   6
ATOM      6  C   UNL     1      47.746  -2.517  75.324  1.00  0.00     0.000 C 
BRANCH   6   7
ATOM      7  C   UNL     1      48.859  -2.273  74.288  1.00  0.00     0.000 C 
BRANCH   7   8
ATOM      8  C   UNL     1      48.318  -2.155  72.853  1.00  0.00     0.000 C 
BRANCH   8   9
ATOM      9  C   UNL     1      49.357  -1.591  71.873  1.00  0.00     0.000 C 
BRANCH   9  10
ATOM     10  C   UNL     1      50.632  -1.103  72.581  1.00  0.00     0.000 C 
BRANCH  10  11
ATOM     11  C   UNL     1      51.842  -1.961  72.191  1.00  0.00     0.000 C 
BRANCH  11  12
ATOM     12  C   UNL     1      52.633  -2.395  73.432  1.00  0.00     0.006 C 
BRANCH  12  13
ATOM     13  C   UNL     1      52.254  -3.818  73.853  1.00  0.00     0.053 C 
BRANCH  13  14
ATOM     14  C   UNL     1      53.462  -4.702  73.879  1.00  0.00     0.041 C 
ATOM     15  O   UNL     1      53.351  -5.917  74.196  1.00  0.00    -0.550 OA
ATOM     16  O   UNL     1      54.708  -4.192  73.533  1.00  0.00    -0.550 OA
ENDBRANCH  13  14
ENDBRANCH  12  13
ENDBRANCH  11  12
ENDBRANCH  10  11
ENDBRANCH   9  10
ENDBRANCH   8   9
ENDBRANCH   7   8
ENDBRANCH   6   7
ENDBRANCH   5   6
ENDBRANCH   4   5
ENDBRANCH   3   4
ENDBRANCH   2   3
ENDBRANCH   1   2
BRANCH   1  17
ATOM     17  C   UNL     1      47.535  -7.323  78.323  1.00  0.00     0.000 C 
BRANCH  17  18
ATOM     18  C   UNL     1      46.803  -8.601  77.875  1.00  0.00     0.000 C 
BRANCH  18  19
ATOM     19  C   UNL     1      46.781  -8.773  76.347  1.00  0.00     0.000 C 
BRANCH  19  20
ATOM     20  C   UNL     1      45.388  -9.038  75.742  1.00  0.00     0.000 C 
BRANCH  20  21
ATOM     21  C   UNL     1      45.386  -9.781  74.392  1.00  0.00     0.000 C 
BRANCH  21  22
ATOM     22  C   UNL     1      44.803  -8.983  73.214  1.00  0.00    -0.000 C 
BRANCH  22  23
ATOM     23  C   UNL     1      45.644  -9.108  71.935  1.00  0.00    -0.000 C 
BRANCH  23  24
ATOM     24  C   UNL     1      47.127  -9.310  72.268  1.00  0.00    -0.000 C 
BRANCH  24  25
ATOM     25  C   UNL     1      47.925  -8.019  72.036  1.00  0.00    -0.000 C 
BRANCH  25  26
ATOM     26  C   UNL     1      48.389  -7.361  73.345  1.00  0.00    -0.000 C 
BRANCH  26  27
ATOM     27  C   UNL     1      48.070  -5.859  73.402  1.00  0.00    -0.000 C 
BRANCH  27  28
ATOM     28  C   UNL     1      46.574  -5.606  73.163  1.00  0.00    -0.000 C 
BRANCH  28  29
ATOM     29  C   UNL     1      45.762  -5.582  74.467  1.00  0.00    -0.003 C 
ATOM     30  C   UNL     1      44.253  -5.608  74.225  1.00  0.00     0.004 C 
ENDBRANCH  28  29
ENDBRANCH  27  28
ENDBRANCH  26  27
ENDBRANCH  25  26
ENDBRANCH  24  25
ENDBRANCH  23  24
ENDBRANCH  22  23
ENDBRANCH  21  22
ENDBRANCH  20  21
ENDBRANCH  19  20
ENDBRANCH  18  19
ENDBRANCH  17  18
ENDBRANCH   1  17
TORSDOF 26
ENDMDL
MODEL 7
REMARK VINA RESULT:    -3.920      2.482      5.372
REMARK INTER + INTRA:         -15.439
REMARK INTER:                 -10.496
REMARK INTRA:                  -4.943
REMARK UNBOUND:                -5.560
REMARK SMILES CCCCCCCCCCCCCCCCCCCCCCCCCCCC(=O)[O-]
REMARK SMILES IDX 15 1 16 2 17 3 18 4 19 5 20 6 21 7 22 8 23 9 24 10 25 11
REMARK SMILES IDX 26 12 27 13 28 14 29 15 30 16 14 17 13 18 12 19 11 20 10 21
REMARK SMILES IDX 9 22 8 23 7 24 6 25 5 26 4 27 3 28 2 29 1 30
REMARK H PARENT
REMARK Flexibility Score: inf
ROOT
ATOM      1  C   UNL     1      47.859  -4.601  72.391  1.00  0.00     0.000 C 
ENDROOT
BRANCH   1   2
ATOM      2  C   UNL     1      47.060  -5.916  72.433  1.00  0.00     0.000 C 
BRANCH   2   3
ATOM      3  C   UNL     1      47.033  -6.554  73.838  1.00  0.00     0.000 C 
BRANCH   3   4
ATOM      4  C   UNL     1      45.811  -6.142  74.683  1.00  0.00     0.000 C 
BRANCH   4   5
ATOM      5  C   UNL     1      44.840  -7.288  75.023  1.00  0.00     0.000 C 
BRANCH   5   6
ATOM      6  C   UNL     1      45.513  -8.628  75.386  1.00  0.00     0.000 C 
BRANCH   6   7
ATOM      7  C   UNL     1      46.039  -8.721  76.831  1.00  0.00     0.000 C 
BRANCH   7   8
ATOM      8  C   UNL     1      47.565  -8.907  76.894  1.00  0.00     0.000 C 
BRANCH   8   9
ATOM      9  C   UNL     1      48.206  -8.148  78.066  1.00  0.00     0.000 C 
BRANCH   9  10
ATOM     10  C   UNL     1      47.427  -6.876  78.442  1.00  0.00     0.000 C 
BRANCH  10  11
ATOM     11  C   UNL     1      48.362  -5.665  78.538  1.00  0.00     0.000 C 
BRANCH  11  12
ATOM     12  C   UNL     1      49.409  -5.687  77.417  1.00  0.00     0.006 C 
BRANCH  12  13
ATOM     13  C   UNL     1      50.810  -5.408  77.971  1.00  0.00     0.053 C 
BRANCH  13  14
ATOM     14  C   UNL     1      51.855  -6.074  77.131  1.00  0.00     0.041 C 
ATOM     15  O   UNL     1      52.152  -5.604  75.999  1.00  0.00    -0.550 OA
ATOM     16  O   UNL     1      52.517  -7.201  77.603  1.00  0.00    -0.550 OA
ENDBRANCH  13  14
ENDBRANCH  12  13
ENDBRANCH  11  12
ENDBRANCH  10  11
ENDBRANCH   9  10
ENDBRANCH   8   9
ENDBRANCH   7   8
ENDBRANCH   6   7
ENDBRANCH   5   6
ENDBRANCH   4   5
ENDBRANCH   3   4
ENDBRANCH   2   3
ENDBRANCH   1   2
BRANCH   1  17
ATOM     17  C   UNL     1      48.740  -4.404  73.635  1.00  0.00     0.000 C 
BRANCH  17  18
ATOM     18  C   UNL     1      50.237  -4.311  73.289  1.00  0.00     0.000 C 
BRANCH  18  19
ATOM     19  C   UNL     1      50.509  -3.468  72.031  1.00  0.00     0.000 C 
BRANCH  19  20
ATOM     20  C   UNL     1      51.390  -2.223  72.261  1.00  0.00     0.000 C 
BRANCH  20  21
ATOM     21  C   UNL     1      50.627  -0.890  72.382  1.00  0.00     0.000 C 
BRANCH  21  22
ATOM     22  C   UNL     1      49.167  -0.932  71.900  1.00  0.00    -0.000 C 
BRANCH  22  23
ATOM     23  C   UNL     1      48.176  -0.415  72.953  1.00  0.00    -0.000 C 
BRANCH  23  24
ATOM     24  C   UNL     1      48.731  -0.601  74.370  1.00  0.00    -0.000 C 
BRANCH  24  25
ATOM     25  C   UNL     1      47.749  -1.391  75.248  1.00  0.00    -0.000 C 
BRANCH  25  26
ATOM     26  C   UNL     1      48.440  -2.122  76.409  1.00  0.00    -0.000 C 
BRANCH  26  27
ATOM     27  C   UNL     1      49.974  -2.057  76.324  1.00  0.00    -0.000 C 
BRANCH  27  28
ATOM     28  C   UNL     1      50.590  -1.795  77.706  1.00  0.00    -0.000 C 
BRANCH  28  29
ATOM     29  C   UNL     1      49.530  -1.520  78.784  1.00  0.00    -0.003 C 
ATOM     30  C   UNL     1      49.642  -2.466  79.980  1.00  0.00     0.004 C 
ENDBRANCH  28  29
ENDBRANCH  27  28
ENDBRANCH  26  27
ENDBRANCH  25  26
ENDBRANCH  24  25
ENDBRANCH  23  24
ENDBRANCH  22  23
ENDBRANCH  21  22
ENDBRANCH  20  21
ENDBRANCH  19  20
ENDBRANCH  18  19
ENDBRANCH  17  18
ENDBRANCH   1  17
TORSDOF 26
ENDMDL
MODEL 8
REMARK VINA RESULT:    -3.904      2.925      5.581
REMARK INTER + INTRA:         -15.397
REMARK INTER:                 -10.628
REMARK INTRA:                  -4.769
REMARK UNBOUND:                -5.560
REMARK SMILES CCCCCCCCCCCCCCCCCCCCCCCCCCCC(=O)[O-]
REMARK SMILES IDX 15 1 16 2 17 3 18 4 19 5 20 6 21 7 22 8 23 9 24 10 25 11
REMARK SMILES IDX 26 12 27 13 28 14 29 15 30 16 14 17 13 18 12 19 11 20 10 21
REMARK SMILES IDX 9 22 8 23 7 24 6 25 5 26 4 27 3 28 2 29 1 30
REMARK H PARENT
REMARK Flexibility Score: inf
ROOT
ATOM      1  C   UNL     1      48.333  -5.230  74.201  1.00  0.00     0.000 C 
ENDROOT
BRANCH   1   2
ATOM      2  C   UNL     1      47.627  -4.977  72.856  1.00  0.00     0.000 C 
BRANCH   2   3
ATOM      3  C   UNL     1      46.460  -5.955  72.602  1.00  0.00     0.000 C 
BRANCH   3   4
ATOM      4  C   UNL     1      45.420  -5.989  73.740  1.00  0.00     0.000 C 
BRANCH   4   5
ATOM      5  C   UNL     1      44.646  -7.314  73.873  1.00  0.00     0.000 C 
BRANCH   5   6
ATOM      6  C   UNL     1      44.554  -7.875  75.308  1.00  0.00     0.000 C 
BRANCH   6   7
ATOM      7  C   UNL     1      45.795  -7.627  76.184  1.00  0.00     0.000 C 
BRANCH   7   8
ATOM      8  C   UNL     1      46.411  -8.930  76.722  1.00  0.00     0.000 C 
BRANCH   8   9
ATOM      9  C   UNL     1      46.982  -8.774  78.140  1.00  0.00     0.000 C 
BRANCH   9  10
ATOM     10  C   UNL     1      47.396  -7.327  78.453  1.00  0.00     0.000 C 
BRANCH  10  11
ATOM     11  C   UNL     1      48.852  -7.070  78.046  1.00  0.00     0.000 C 
BRANCH  11  12
ATOM     12  C   UNL     1      49.309  -5.672  78.485  1.00  0.00     0.006 C 
BRANCH  12  13
ATOM     13  C   UNL     1      48.106  -4.774  78.790  1.00  0.00     0.053 C 
BRANCH  13  14
ATOM     14  C   UNL     1      48.554  -3.394  79.156  1.00  0.00     0.041 C 
ATOM     15  O   UNL     1      47.745  -2.584  79.685  1.00  0.00    -0.550 OA
ATOM     16  O   UNL     1      49.871  -3.006  78.935  1.00  0.00    -0.550 OA
ENDBRANCH  13  14
ENDBRANCH  12  13
ENDBRANCH  11  12
ENDBRANCH  10  11
ENDBRANCH   9  10
ENDBRANCH   8   9
ENDBRANCH   7   8
ENDBRANCH   6   7
ENDBRANCH   5   6
ENDBRANCH   4   5
ENDBRANCH   3   4
ENDBRANCH   2   3
ENDBRANCH   1   2
BRANCH   1  17
ATOM     17  C   UNL     1      48.361  -3.982  75.099  1.00  0.00     0.000 C 
BRANCH  17  18
ATOM     18  C   UNL     1      49.792  -3.484  75.372  1.00  0.00     0.000 C 
BRANCH  18  19
ATOM     19  C   UNL     1      50.851  -4.588  75.208  1.00  0.00     0.000 C 
BRANCH  19  20
ATOM     20  C   UNL     1      51.946  -4.288  74.165  1.00  0.00     0.000 C 
BRANCH  20  21
ATOM     21  C   UNL     1      51.468  -3.535  72.908  1.00  0.00     0.000 C 
BRANCH  21  22
ATOM     22  C   UNL     1      51.931  -2.071  72.814  1.00  0.00    -0.000 C 
BRANCH  22  23
ATOM     23  C   UNL     1      50.910  -1.168  72.107  1.00  0.00    -0.000 C 
BRANCH  23  24
ATOM     24  C   UNL     1      49.595  -1.914  71.854  1.00  0.00    -0.000 C 
BRANCH  24  25
ATOM     25  C   UNL     1      48.403  -1.147  72.444  1.00  0.00    -0.000 C 
BRANCH  25  26
ATOM     26  C   UNL     1      48.799   0.223  73.016  1.00  0.00    -0.000 C 
BRANCH  26  27
ATOM     27  C   UNL     1      48.772   0.257  74.553  1.00  0.00    -0.000 C 
BRANCH  27  28
ATOM     28  C   UNL     1      47.475  -0.363  75.093  1.00  0.00    -0.000 C 
BRANCH  28  29
ATOM     29  C   UNL     1      47.567  -0.723  76.584  1.00  0.00    -0.003 C 
ATOM     30  C   UNL     1      48.768  -0.077  77.275  1.00  0.00     0.004 C 
ENDBRANCH  28  29
ENDBRANCH  27  28
ENDBRANCH  26  27
ENDBRANCH  25  26
ENDBRANCH  24  25
ENDBRANCH  23  24
ENDBRANCH  22  23
ENDBRANCH  21  22
ENDBRANCH  20  21
ENDBRANCH  19  20
ENDBRANCH  18  19
ENDBRANCH  17  18
ENDBRANCH   1  17
TORSDOF 26
ENDMDL
MODEL 9
REMARK VINA RESULT:    -3.880      1.597      3.288
REMARK INTER + INTRA:         -15.338
REMARK INTER:                 -10.285
REMARK INTRA:                  -5.053
REMARK UNBOUND:                -5.560
REMARK SMILES CCCCCCCCCCCCCCCCCCCCCCCCCCCC(=O)[O-]
REMARK SMILES IDX 15 1 16 2 17 3 18 4 19 5 20 6 21 7 22 8 23 9 24 10 25 11
REMARK SMILES IDX 26 12 27 13 28 14 29 15 30 16 14 17 13 18 12 19 11 20 10 21
REMARK SMILES IDX 9 22 8 23 7 24 6 25 5 26 4 27 3 28 2 29 1 30
REMARK H PARENT
REMARK Flexibility Score: inf
ROOT
ATOM      1  C   UNL     1      48.279  -4.675  77.943  1.00  0.00     0.000 C 
ENDROOT
BRANCH   1   2
ATOM      2  C   UNL     1      47.823  -5.913  78.737  1.00  0.00     0.000 C 
BRANCH   2   3
ATOM      3  C   UNL     1      48.041  -7.231  77.964  1.00  0.00     0.000 C 
BRANCH   3   4
ATOM      4  C   UNL     1      46.816  -8.166  77.973  1.00  0.00     0.000 C 
BRANCH   4   5
ATOM      5  C   UNL     1      46.765  -9.182  76.817  1.00  0.00     0.000 C 
BRANCH   5   6
ATOM      6  C   UNL     1      46.156  -8.646  75.503  1.00  0.00     0.000 C 
BRANCH   6   7
ATOM      7  C   UNL     1      45.052  -7.587  75.683  1.00  0.00     0.000 C 
BRANCH   7   8
ATOM      8  C   UNL     1      44.597  -6.973  74.348  1.00  0.00     0.000 C 
BRANCH   8   9
ATOM      9  C   UNL     1      45.010  -5.501  74.201  1.00  0.00     0.000 C 
BRANCH   9  10
ATOM     10  C   UNL     1      46.381  -5.206  74.833  1.00  0.00     0.000 C 
BRANCH  10  11
ATOM     11  C   UNL     1      47.251  -4.363  73.893  1.00  0.00     0.000 C 
BRANCH  11  12
ATOM     12  C   UNL     1      47.425  -5.054  72.534  1.00  0.00     0.006 C 
BRANCH  12  13
ATOM     13  C   UNL     1      48.197  -6.369  72.684  1.00  0.00     0.053 C 
BRANCH  13  14
ATOM     14  C   UNL     1      47.486  -7.484  71.983  1.00  0.00     0.041 C 
ATOM     15  O   UNL     1      46.406  -7.261  71.371  1.00  0.00    -0.550 OA
ATOM     16  O   UNL     1      48.024  -8.765  71.984  1.00  0.00    -0.550 OA
ENDBRANCH  13  14
ENDBRANCH  12  13
ENDBRANCH  11  12
ENDBRANCH  10  11
ENDBRANCH   9  10
ENDBRANCH   8   9
ENDBRANCH   7   8
ENDBRANCH   6   7
ENDBRANCH   5   6
ENDBRANCH   4   5
ENDBRANCH   3   4
ENDBRANCH   2   3
ENDBRANCH   1   2
BRANCH   1  17
ATOM     17  C   UNL     1      49.514  -3.999  78.560  1.00  0.00     0.000 C 
BRANCH  17  18
ATOM     18  C   UNL     1      50.519  -3.520  77.496  1.00  0.00     0.000 C 
BRANCH  18  19
ATOM     19  C   UNL     1      50.409  -4.302  76.175  1.00  0.00     0.000 C 
BRANCH  19  20
ATOM     20  C   UNL     1      50.732  -3.486  74.908  1.00  0.00     0.000 C 
BRANCH  20  21
ATOM     21  C   UNL     1      51.030  -4.319  73.647  1.00  0.00     0.000 C 
BRANCH  21  22
ATOM     22  C   UNL     1      51.318  -3.497  72.379  1.00  0.00    -0.000 C 
BRANCH  22  23
ATOM     23  C   UNL     1      50.162  -2.558  72.003  1.00  0.00    -0.000 C 
BRANCH  23  24
ATOM     24  C   UNL     1      50.643  -1.106  71.899  1.00  0.00    -0.000 C 
BRANCH  24  25
ATOM     25  C   UNL     1      49.781  -0.176  72.766  1.00  0.00    -0.000 C 
BRANCH  25  26
ATOM     26  C   UNL     1      48.431  -0.801  73.152  1.00  0.00    -0.000 C 
BRANCH  26  27
ATOM     27  C   UNL     1      47.606   0.095  74.088  1.00  0.00    -0.000 C 
BRANCH  27  28
ATOM     28  C   UNL     1      48.098  -0.025  75.538  1.00  0.00    -0.000 C 
BRANCH  28  29
ATOM     29  C   UNL     1      47.885  -1.432  76.120  1.00  0.00    -0.003 C 
ATOM     30  C   UNL     1      46.422  -1.717  76.458  1.00  0.00     0.004 C 
ENDBRANCH  28  29
ENDBRANCH  27  28
ENDBRANCH  26  27
ENDBRANCH  25  26
ENDBRANCH  24  25
ENDBRANCH  23  24
ENDBRANCH  22  23
ENDBRANCH  21  22
ENDBRANCH  20  21
ENDBRANCH  19  20
ENDBRANCH  18  19
ENDBRANCH  17  18
ENDBRANCH   1  17
TORSDOF 26
ENDMDL
