MODEL 1
REMARK VINA RESULT:    -7.789      0.000      0.000
REMARK INTER + INTRA:         -14.993
REMARK INTER:                 -12.799
REMARK INTRA:                  -2.195
REMARK UNBOUND:                -2.195
REMARK SMILES C[C@@H]1O[C@H](OC[C@@H]2O[C@@H](Oc3c(-c4ccc(O)c(O)c4)oc4cc(O)cc(O)c4c3=O)[C@@H](O)[C@@H](O)[C@H]2O)[C@H](O)[C@H](O)[C@H]1O
REMARK SMILES IDX 7 1 36 2 34 3 32 4 9 5 8 6 6 7 5 8 4 9 1 10 2 11 42 12 3 13
REMARK SMILES IDX 40 14 38 15 43 16 41 18 39 20 37 22 35 24 10 26 11 27 12 28
REMARK SMILES IDX 30 29 21 30 29 31 31 32 22 33 27 34 23 35 26 36 24 37 13 38
REMARK SMILES IDX 20 39 14 40 18 41 15 42 16 43 19 44 17 46 28 48 25 50 33 52
REMARK H PARENT 43 17 41 19 39 21 37 23 35 25 19 45 17 47 28 49 25 51 33 53
REMARK Flexibility Score: inf
ROOT
ATOM      1  C   UNL     1     132.264 132.076 125.903  1.00  0.00     0.180 C 
ATOM      2  C   UNL     1     133.701 132.597 125.656  1.00  0.00     0.177 C 
ATOM      3  C   UNL     1     134.763 131.588 126.098  1.00  0.00     0.180 C 
ATOM      4  C   UNL     1     134.429 130.172 125.605  1.00  0.00     0.214 C 
ATOM      5  C   UNL     1     132.959 129.807 125.928  1.00  0.00     0.339 C 
ATOM      6  O   UNL     1     132.043 130.758 125.409  1.00  0.00    -0.332 OA
ENDROOT
BRANCH   1   7
ATOM      7  C   UNL     1     131.743 132.306 127.341  1.00  0.00     0.198 C 
BRANCH   7   8
ATOM      8  O   UNL     1     132.040 133.606 127.822  1.00  0.00    -0.347 OA
BRANCH   8   9
ATOM      9  C   UNL     1     131.297 133.961 128.983  1.00  0.00     0.281 C 
ATOM     10  C   UNL     1     134.189 132.712 130.453  1.00  0.00     0.041 C 
ATOM     11  C   UNL     1     133.187 133.864 130.469  1.00  0.00     0.150 C 
ATOM     12  C   UNL     1     133.695 135.083 129.645  1.00  0.00     0.174 C 
ATOM     13  O   UNL     1     131.900 133.348 130.111  1.00  0.00    -0.344 OA
ATOM     14  C   UNL     1     132.577 136.143 129.458  1.00  0.00     0.179 C 
ATOM     15  C   UNL     1     131.184 135.489 129.232  1.00  0.00     0.202 C 
BRANCH  12  16
ATOM     16  O   UNL     1     134.834 135.671 130.228  1.00  0.00    -0.388 OA
ATOM     17  H   UNL     1     134.643 136.635 130.368  1.00  0.00     0.211 HD
ENDBRANCH  12  16
BRANCH  14  18
ATOM     18  O   UNL     1     132.917 137.061 128.435  1.00  0.00    -0.387 OA
ATOM     19  H   UNL     1     132.225 137.775 128.416  1.00  0.00     0.211 HD
ENDBRANCH  14  18
BRANCH  15  20
ATOM     20  O   UNL     1     130.475 136.120 128.195  1.00  0.00    -0.385 OA
ATOM     21  H   UNL     1     131.045 136.865 127.872  1.00  0.00     0.211 HD
ENDBRANCH  15  20
ENDBRANCH   8   9
ENDBRANCH   7   8
ENDBRANCH   1   7
BRANCH   2  22
ATOM     22  O   UNL     1     133.840 132.879 124.293  1.00  0.00    -0.387 OA
ATOM     23  H   UNL     1     134.797 132.781 124.055  1.00  0.00     0.211 HD
ENDBRANCH   2  22
BRANCH   3  24
ATOM     24  O   UNL     1     136.035 131.978 125.625  1.00  0.00    -0.387 OA
ATOM     25  H   UNL     1     136.678 131.909 126.379  1.00  0.00     0.211 HD
ENDBRANCH   3  24
BRANCH   5  26
ATOM     26  O   UNL     1     132.710 128.518 125.357  1.00  0.00    -0.454 OA
BRANCH  26  27
ATOM     27  C   UNL     1     131.742 128.226 124.376  1.00  0.00     0.214 A 
ATOM     28  C   UNL     1     130.417 127.943 124.768  1.00  0.00     0.180 A 
ATOM     29  C   UNL     1     132.093 128.079 123.025  1.00  0.00     0.239 A 
ATOM     30  O   UNL     1     129.528 127.535 123.870  1.00  0.00    -0.452 OA
ATOM     31  C   UNL     1     131.108 127.680 122.092  1.00  0.00     0.111 A 
ATOM     32  O   UNL     1     133.283 128.274 122.658  1.00  0.00    -0.285 OA
ATOM     33  C   UNL     1     129.811 127.395 122.582  1.00  0.00     0.146 A 
ATOM     34  C   UNL     1     131.362 127.539 120.710  1.00  0.00     0.134 A 
ATOM     35  C   UNL     1     128.810 126.954 121.716  1.00  0.00     0.094 A 
ATOM     36  C   UNL     1     130.352 127.092 119.859  1.00  0.00     0.093 A 
ATOM     37  C   UNL     1     129.077 126.792 120.357  1.00  0.00     0.123 A 
BRANCH  28  38
ATOM     38  C   UNL     1     129.973 128.059 126.170  1.00  0.00     0.025 A 
ATOM     39  C   UNL     1     129.323 129.223 126.600  1.00  0.00     0.062 A 
ATOM     40  C   UNL     1     130.267 127.051 127.098  1.00  0.00     0.016 A 
ATOM     41  C   UNL     1     128.961 129.383 127.942  1.00  0.00     0.158 A 
ATOM     42  C   UNL     1     129.907 127.204 128.438  1.00  0.00     0.051 A 
ATOM     43  C   UNL     1     129.259 128.371 128.867  1.00  0.00     0.157 A 
BRANCH  41  44
ATOM     44  O   UNL     1     128.350 130.572 128.345  1.00  0.00    -0.504 OA
ATOM     45  H   UNL     1     127.726 130.597 129.147  1.00  0.00     0.293 HD
ENDBRANCH  41  44
BRANCH  43  46
ATOM     46  O   UNL     1     128.928 128.542 130.208  1.00  0.00    -0.504 OA
ATOM     47  H   UNL     1     128.608 127.766 130.772  1.00  0.00     0.293 HD
ENDBRANCH  43  46
ENDBRANCH  28  38
BRANCH  34  48
ATOM     48  O   UNL     1     132.612 127.855 120.172  1.00  0.00    -0.507 OA
ATOM     49  H   UNL     1     133.414 128.049 120.763  1.00  0.00     0.293 HD
ENDBRANCH  34  48
BRANCH  37  50
ATOM     50  O   UNL     1     128.080 126.334 119.501  1.00  0.00    -0.508 OA
ATOM     51  H   UNL     1     128.216 125.524 118.906  1.00  0.00     0.293 HD
ENDBRANCH  37  50
ENDBRANCH  26  27
ENDBRANCH   5  26
BRANCH   4  52
ATOM     52  O   UNL     1     134.722 130.030 124.230  1.00  0.00    -0.384 OA
ATOM     53  H   UNL     1     134.145 130.659 123.720  1.00  0.00     0.211 HD
ENDBRANCH   4  52
TORSDOF 16
ENDMDL
MODEL 2
REMARK VINA RESULT:    -7.740      3.440      8.744
REMARK INTER + INTRA:         -14.912
REMARK INTER:                 -14.140
REMARK INTRA:                  -0.772
REMARK UNBOUND:                -2.195
REMARK SMILES C[C@@H]1O[C@H](OC[C@@H]2O[C@@H](Oc3c(-c4ccc(O)c(O)c4)oc4cc(O)cc(O)c4c3=O)[C@@H](O)[C@@H](O)[C@H]2O)[C@H](O)[C@H](O)[C@H]1O
REMARK SMILES IDX 7 1 36 2 34 3 32 4 9 5 8 6 6 7 5 8 4 9 1 10 2 11 42 12 3 13
REMARK SMILES IDX 40 14 38 15 43 16 41 18 39 20 37 22 35 24 10 26 11 27 12 28
REMARK SMILES IDX 30 29 21 30 29 31 31 32 22 33 27 34 23 35 26 36 24 37 13 38
REMARK SMILES IDX 20 39 14 40 18 41 15 42 16 43 19 44 17 46 28 48 25 50 33 52
REMARK H PARENT 43 17 41 19 39 21 37 23 35 25 19 45 17 47 28 49 25 51 33 53
REMARK Flexibility Score: inf
ROOT
ATOM      1  C   UNL     1     128.552 126.250 126.271  1.00  0.00     0.180 C 
ATOM      2  C   UNL     1     127.192 126.766 126.800  1.00  0.00     0.177 C 
ATOM      3  C   UNL     1     127.250 128.244 127.193  1.00  0.00     0.180 C 
ATOM      4  C   UNL     1     127.953 129.082 126.115  1.00  0.00     0.214 C 
ATOM      5  C   UNL     1     129.294 128.430 125.697  1.00  0.00     0.339 C 
ATOM      6  O   UNL     1     129.129 127.086 125.272  1.00  0.00    -0.332 OA
ENDROOT
BRANCH   1   7
ATOM      7  C   UNL     1     129.543 125.817 127.378  1.00  0.00     0.198 C 
BRANCH   7   8
ATOM      8  O   UNL     1     129.483 124.424 127.640  1.00  0.00    -0.347 OA
BRANCH   8   9
ATOM      9  C   UNL     1     130.609 123.938 128.363  1.00  0.00     0.281 C 
ATOM     10  C   UNL     1     128.503 124.796 130.993  1.00  0.00     0.041 C 
ATOM     11  C   UNL     1     129.426 123.710 130.447  1.00  0.00     0.150 C 
ATOM     12  C   UNL     1     128.634 122.604 129.691  1.00  0.00     0.174 C 
ATOM     13  O   UNL     1     130.485 124.341 129.717  1.00  0.00    -0.344 OA
ATOM     14  C   UNL     1     129.588 121.645 128.931  1.00  0.00     0.179 C 
ATOM     15  C   UNL     1     130.795 122.399 128.303  1.00  0.00     0.202 C 
BRANCH  12  16
ATOM     16  O   UNL     1     127.797 121.875 130.559  1.00  0.00    -0.388 OA
ATOM     17  H   UNL     1     127.049 122.468 130.833  1.00  0.00     0.211 HD
ENDBRANCH  12  16
BRANCH  14  18
ATOM     18  O   UNL     1     128.877 120.875 127.979  1.00  0.00    -0.387 OA
ATOM     19  H   UNL     1     127.925 121.162 127.997  1.00  0.00     0.211 HD
ENDBRANCH  14  18
BRANCH  15  20
ATOM     20  O   UNL     1     131.052 121.970 126.990  1.00  0.00    -0.385 OA
ATOM     21  H   UNL     1     132.025 122.085 126.838  1.00  0.00     0.211 HD
ENDBRANCH  15  20
ENDBRANCH   8   9
ENDBRANCH   7   8
ENDBRANCH   1   7
BRANCH   2  22
ATOM     22  O   UNL     1     126.227 126.567 125.807  1.00  0.00    -0.387 OA
ATOM     23  H   UNL     1     126.561 125.868 125.190  1.00  0.00     0.211 HD
ENDBRANCH   2  22
BRANCH   3  24
ATOM     24  O   UNL     1     125.947 128.740 127.419  1.00  0.00    -0.387 OA
ATOM     25  H   UNL     1     125.741 128.635 128.386  1.00  0.00     0.211 HD
ENDBRANCH   3  24
BRANCH   5  26
ATOM     26  O   UNL     1     129.833 129.222 124.632  1.00  0.00    -0.454 OA
BRANCH  26  27
ATOM     27  C   UNL     1     131.187 129.271 124.249  1.00  0.00     0.214 A 
ATOM     28  C   UNL     1     131.608 128.587 123.088  1.00  0.00     0.180 A 
ATOM     29  C   UNL     1     132.157 129.873 125.066  1.00  0.00     0.239 A 
ATOM     30  O   UNL     1     132.899 128.512 122.790  1.00  0.00    -0.452 OA
ATOM     31  C   UNL     1     133.519 129.803 124.694  1.00  0.00     0.111 A 
ATOM     32  O   UNL     1     131.812 130.444 126.136  1.00  0.00    -0.285 OA
ATOM     33  C   UNL     1     133.847 129.076 123.524  1.00  0.00     0.146 A 
ATOM     34  C   UNL     1     134.557 130.408 125.436  1.00  0.00     0.134 A 
ATOM     35  C   UNL     1     135.178 128.934 123.132  1.00  0.00     0.094 A 
ATOM     36  C   UNL     1     135.883 130.252 125.032  1.00  0.00     0.093 A 
ATOM     37  C   UNL     1     136.199 129.512 123.885  1.00  0.00     0.123 A 
BRANCH  28  38
ATOM     38  C   UNL     1     130.653 127.916 122.186  1.00  0.00     0.025 A 
ATOM     39  C   UNL     1     129.286 128.211 122.275  1.00  0.00     0.062 A 
ATOM     40  C   UNL     1     131.089 126.926 121.295  1.00  0.00     0.016 A 
ATOM     41  C   UNL     1     128.358 127.531 121.479  1.00  0.00     0.158 A 
ATOM     42  C   UNL     1     130.167 126.246 120.497  1.00  0.00     0.051 A 
ATOM     43  C   UNL     1     128.799 126.540 120.590  1.00  0.00     0.157 A 
BRANCH  41  44
ATOM     44  O   UNL     1     127.000 127.822 121.620  1.00  0.00    -0.504 OA
ATOM     45  H   UNL     1     126.328 127.096 121.855  1.00  0.00     0.293 HD
ENDBRANCH  41  44
BRANCH  43  46
ATOM     46  O   UNL     1     127.873 125.842 119.820  1.00  0.00    -0.504 OA
ATOM     47  H   UNL     1     128.152 125.356 118.978  1.00  0.00     0.293 HD
ENDBRANCH  43  46
ENDBRANCH  28  38
BRANCH  34  48
ATOM     48  O   UNL     1     134.278 131.176 126.568  1.00  0.00    -0.507 OA
ATOM     49  H   UNL     1     133.333 131.288 126.918  1.00  0.00     0.293 HD
ENDBRANCH  34  48
BRANCH  37  50
ATOM     50  O   UNL     1     137.527 129.352 123.498  1.00  0.00    -0.508 OA
ATOM     51  H   UNL     1     138.186 130.121 123.519  1.00  0.00     0.293 HD
ENDBRANCH  37  50
ENDBRANCH  26  27
ENDBRANCH   5  26
BRANCH   4  52
ATOM     52  O   UNL     1     127.102 129.305 125.008  1.00  0.00    -0.384 OA
ATOM     53  H   UNL     1     126.412 128.589 124.994  1.00  0.00     0.211 HD
ENDBRANCH   4  52
TORSDOF 16
ENDMDL
MODEL 3
REMARK VINA RESULT:    -7.731      1.618      4.571
REMARK INTER + INTRA:         -14.898
REMARK INTER:                 -11.694
REMARK INTRA:                  -3.204
REMARK UNBOUND:                -2.195
REMARK SMILES C[C@@H]1O[C@H](OC[C@@H]2O[C@@H](Oc3c(-c4ccc(O)c(O)c4)oc4cc(O)cc(O)c4c3=O)[C@@H](O)[C@@H](O)[C@H]2O)[C@H](O)[C@H](O)[C@H]1O
REMARK SMILES IDX 7 1 36 2 34 3 32 4 9 5 8 6 6 7 5 8 4 9 1 10 2 11 42 12 3 13
REMARK SMILES IDX 40 14 38 15 43 16 41 18 39 20 37 22 35 24 10 26 11 27 12 28
REMARK SMILES IDX 30 29 21 30 29 31 31 32 22 33 27 34 23 35 26 36 24 37 13 38
REMARK SMILES IDX 20 39 14 40 18 41 15 42 16 43 19 44 17 46 28 48 25 50 33 52
REMARK H PARENT 43 17 41 19 39 21 37 23 35 25 19 45 17 47 28 49 25 51 33 53
REMARK Flexibility Score: inf
ROOT
ATOM      1  C   UNL     1     131.042 131.896 129.066  1.00  0.00     0.180 C 
ATOM      2  C   UNL     1     129.649 131.360 129.477  1.00  0.00     0.177 C 
ATOM      3  C   UNL     1     128.954 130.623 128.330  1.00  0.00     0.180 C 
ATOM      4  C   UNL     1     129.911 129.644 127.634  1.00  0.00     0.214 C 
ATOM      5  C   UNL     1     131.254 130.334 127.291  1.00  0.00     0.339 C 
ATOM      6  O   UNL     1     131.863 130.919 128.431  1.00  0.00    -0.332 OA
ENDROOT
BRANCH   1   7
ATOM      7  C   UNL     1     131.010 133.260 128.338  1.00  0.00     0.198 C 
BRANCH   7   8
ATOM      8  O   UNL     1     132.260 133.927 128.386  1.00  0.00    -0.347 OA
BRANCH   8   9
ATOM      9  C   UNL     1     132.402 134.779 129.517  1.00  0.00     0.281 C 
ATOM     10  C   UNL     1     134.416 132.117 130.488  1.00  0.00     0.041 C 
ATOM     11  C   UNL     1     134.334 133.638 130.388  1.00  0.00     0.150 C 
ATOM     12  C   UNL     1     135.030 134.172 129.103  1.00  0.00     0.174 C 
ATOM     13  O   UNL     1     132.969 134.030 130.580  1.00  0.00    -0.344 OA
ATOM     14  C   UNL     1     134.728 135.678 128.882  1.00  0.00     0.179 C 
ATOM     15  C   UNL     1     133.265 136.044 129.266  1.00  0.00     0.202 C 
BRANCH  12  16
ATOM     16  O   UNL     1     136.420 133.951 129.131  1.00  0.00    -0.388 OA
ATOM     17  H   UNL     1     136.775 134.337 129.975  1.00  0.00     0.211 HD
ENDBRANCH  12  16
BRANCH  14  18
ATOM     18  O   UNL     1     135.054 136.070 127.561  1.00  0.00    -0.387 OA
ATOM     19  H   UNL     1     135.103 135.252 126.998  1.00  0.00     0.211 HD
ENDBRANCH  14  18
BRANCH  15  20
ATOM     20  O   UNL     1     132.670 136.882 128.309  1.00  0.00    -0.385 OA
ATOM     21  H   UNL     1     131.950 136.354 127.876  1.00  0.00     0.211 HD
ENDBRANCH  15  20
ENDBRANCH   8   9
ENDBRANCH   7   8
ENDBRANCH   1   7
BRANCH   2  22
ATOM     22  O   UNL     1     129.810 130.506 130.574  1.00  0.00    -0.387 OA
ATOM     23  H   UNL     1     128.921 130.370 130.989  1.00  0.00     0.211 HD
ENDBRANCH   2  22
BRANCH   3  24
ATOM     24  O   UNL     1     127.819 129.933 128.810  1.00  0.00    -0.387 OA
ATOM     25  H   UNL     1     128.094 129.003 129.029  1.00  0.00     0.211 HD
ENDBRANCH   3  24
BRANCH   5  26
ATOM     26  O   UNL     1     132.112 129.332 126.732  1.00  0.00    -0.454 OA
BRANCH  26  27
ATOM     27  C   UNL     1     132.170 128.965 125.374  1.00  0.00     0.214 A 
ATOM     28  C   UNL     1     132.964 129.716 124.482  1.00  0.00     0.180 A 
ATOM     29  C   UNL     1     131.351 127.949 124.856  1.00  0.00     0.239 A 
ATOM     30  O   UNL     1     132.923 129.466 123.179  1.00  0.00    -0.452 OA
ATOM     31  C   UNL     1     131.364 127.688 123.467  1.00  0.00     0.111 A 
ATOM     32  O   UNL     1     130.591 127.299 125.625  1.00  0.00    -0.285 OA
ATOM     33  C   UNL     1     132.176 128.509 122.648  1.00  0.00     0.146 A 
ATOM     34  C   UNL     1     130.600 126.664 122.864  1.00  0.00     0.134 A 
ATOM     35  C   UNL     1     132.195 128.328 121.265  1.00  0.00     0.094 A 
ATOM     36  C   UNL     1     130.626 126.500 121.479  1.00  0.00     0.093 A 
ATOM     37  C   UNL     1     131.416 127.332 120.675  1.00  0.00     0.123 A 
BRANCH  28  38
ATOM     38  C   UNL     1     133.840 130.809 124.945  1.00  0.00     0.025 A 
ATOM     39  C   UNL     1     133.315 132.096 125.119  1.00  0.00     0.062 A 
ATOM     40  C   UNL     1     135.212 130.592 125.135  1.00  0.00     0.016 A 
ATOM     41  C   UNL     1     134.145 133.161 125.485  1.00  0.00     0.158 A 
ATOM     42  C   UNL     1     136.044 131.651 125.503  1.00  0.00     0.051 A 
ATOM     43  C   UNL     1     135.518 132.938 125.673  1.00  0.00     0.157 A 
BRANCH  41  44
ATOM     44  O   UNL     1     133.597 134.438 125.612  1.00  0.00    -0.504 OA
ATOM     45  H   UNL     1     132.641 134.571 125.931  1.00  0.00     0.293 HD
ENDBRANCH  41  44
BRANCH  43  46
ATOM     46  O   UNL     1     136.350 134.003 126.007  1.00  0.00    -0.504 OA
ATOM     47  H   UNL     1     136.656 134.150 126.960  1.00  0.00     0.293 HD
ENDBRANCH  43  46
ENDBRANCH  28  38
BRANCH  34  48
ATOM     48  O   UNL     1     129.822 125.798 123.635  1.00  0.00    -0.507 OA
ATOM     49  H   UNL     1     129.544 126.030 124.582  1.00  0.00     0.293 HD
ENDBRANCH  34  48
BRANCH  37  50
ATOM     50  O   UNL     1     131.426 127.169 119.293  1.00  0.00    -0.508 OA
ATOM     51  H   UNL     1     131.474 127.960 118.661  1.00  0.00     0.293 HD
ENDBRANCH  37  50
ENDBRANCH  26  27
ENDBRANCH   5  26
BRANCH   4  52
ATOM     52  O   UNL     1     130.095 128.475 128.407  1.00  0.00    -0.384 OA
ATOM     53  H   UNL     1     129.270 128.318 128.939  1.00  0.00     0.211 HD
ENDBRANCH   4  52
TORSDOF 16
ENDMDL
MODEL 4
REMARK VINA RESULT:    -7.672      2.454      5.486
REMARK INTER + INTRA:         -14.801
REMARK INTER:                 -13.141
REMARK INTRA:                  -1.660
REMARK UNBOUND:                -2.195
REMARK SMILES C[C@@H]1O[C@H](OC[C@@H]2O[C@@H](Oc3c(-c4ccc(O)c(O)c4)oc4cc(O)cc(O)c4c3=O)[C@@H](O)[C@@H](O)[C@H]2O)[C@H](O)[C@H](O)[C@H]1O
REMARK SMILES IDX 7 1 36 2 34 3 32 4 9 5 8 6 6 7 5 8 4 9 1 10 2 11 42 12 3 13
REMARK SMILES IDX 40 14 38 15 43 16 41 18 39 20 37 22 35 24 10 26 11 27 12 28
REMARK SMILES IDX 30 29 21 30 29 31 31 32 22 33 27 34 23 35 26 36 24 37 13 38
REMARK SMILES IDX 20 39 14 40 18 41 15 42 16 43 19 44 17 46 28 48 25 50 33 52
REMARK H PARENT 43 17 41 19 39 21 37 23 35 25 19 45 17 47 28 49 25 51 33 53
REMARK Flexibility Score: inf
ROOT
ATOM      1  C   UNL     1     132.206 131.118 126.413  1.00  0.00     0.180 C 
ATOM      2  C   UNL     1     133.453 131.058 125.496  1.00  0.00     0.177 C 
ATOM      3  C   UNL     1     133.939 129.624 125.278  1.00  0.00     0.180 C 
ATOM      4  C   UNL     1     132.771 128.682 124.946  1.00  0.00     0.214 C 
ATOM      5  C   UNL     1     131.610 128.867 125.953  1.00  0.00     0.339 C 
ATOM      6  O   UNL     1     131.173 130.215 126.028  1.00  0.00    -0.332 OA
ENDROOT
BRANCH   1   7
ATOM      7  C   UNL     1     132.527 131.100 127.926  1.00  0.00     0.198 C 
BRANCH   7   8
ATOM      8  O   UNL     1     132.581 132.403 128.482  1.00  0.00    -0.347 OA
BRANCH   8   9
ATOM      9  C   UNL     1     133.833 132.707 129.086  1.00  0.00     0.281 C 
ATOM     10  C   UNL     1     134.124 134.495 126.119  1.00  0.00     0.041 C 
ATOM     11  C   UNL     1     134.313 134.564 127.633  1.00  0.00     0.150 C 
ATOM     12  C   UNL     1     133.093 135.225 128.337  1.00  0.00     0.174 C 
ATOM     13  O   UNL     1     134.688 133.263 128.101  1.00  0.00    -0.344 OA
ATOM     14  C   UNL     1     133.178 135.066 129.879  1.00  0.00     0.179 C 
ATOM     15  C   UNL     1     133.745 133.679 130.293  1.00  0.00     0.202 C 
BRANCH  12  16
ATOM     16  O   UNL     1     132.962 136.583 127.991  1.00  0.00    -0.388 OA
ATOM     17  H   UNL     1     132.732 137.088 128.815  1.00  0.00     0.211 HD
ENDBRANCH  12  16
BRANCH  14  18
ATOM     18  O   UNL     1     131.928 135.343 130.484  1.00  0.00    -0.387 OA
ATOM     19  H   UNL     1     131.213 134.963 129.908  1.00  0.00     0.211 HD
ENDBRANCH  14  18
BRANCH  15  20
ATOM     20  O   UNL     1     133.012 133.111 131.349  1.00  0.00    -0.385 OA
ATOM     21  H   UNL     1     133.666 132.641 131.930  1.00  0.00     0.211 HD
ENDBRANCH  15  20
ENDBRANCH   8   9
ENDBRANCH   7   8
ENDBRANCH   1   7
BRANCH   2  22
ATOM     22  O   UNL     1     133.130 131.652 124.271  1.00  0.00    -0.387 OA
ATOM     23  H   UNL     1     133.714 131.258 123.576  1.00  0.00     0.211 HD
ENDBRANCH   2  22
BRANCH   3  24
ATOM     24  O   UNL     1     134.901 129.586 124.244  1.00  0.00    -0.387 OA
ATOM     25  H   UNL     1     135.711 130.067 124.561  1.00  0.00     0.211 HD
ENDBRANCH   3  24
BRANCH   5  26
ATOM     26  O   UNL     1     130.537 128.023 125.518  1.00  0.00    -0.454 OA
BRANCH  26  27
ATOM     27  C   UNL     1     130.362 126.671 125.867  1.00  0.00     0.214 A 
ATOM     28  C   UNL     1     130.239 125.699 124.852  1.00  0.00     0.180 A 
ATOM     29  C   UNL     1     130.173 126.280 127.202  1.00  0.00     0.239 A 
ATOM     30  O   UNL     1     129.939 124.443 125.163  1.00  0.00    -0.452 OA
ATOM     31  C   UNL     1     129.892 124.926 127.496  1.00  0.00     0.111 A 
ATOM     32  O   UNL     1     130.224 127.139 128.124  1.00  0.00    -0.285 OA
ATOM     33  C   UNL     1     129.765 124.027 126.410  1.00  0.00     0.146 A 
ATOM     34  C   UNL     1     129.721 124.437 128.810  1.00  0.00     0.134 A 
ATOM     35  C   UNL     1     129.445 122.688 126.635  1.00  0.00     0.094 A 
ATOM     36  C   UNL     1     129.396 123.096 129.017  1.00  0.00     0.093 A 
ATOM     37  C   UNL     1     129.251 122.220 127.934  1.00  0.00     0.123 A 
BRANCH  28  38
ATOM     38  C   UNL     1     130.409 126.031 123.425  1.00  0.00     0.025 A 
ATOM     39  C   UNL     1     131.552 125.598 122.741  1.00  0.00     0.062 A 
ATOM     40  C   UNL     1     129.479 126.847 122.767  1.00  0.00     0.016 A 
ATOM     41  C   UNL     1     131.768 125.967 121.408  1.00  0.00     0.158 A 
ATOM     42  C   UNL     1     129.687 127.216 121.437  1.00  0.00     0.051 A 
ATOM     43  C   UNL     1     130.833 126.784 120.754  1.00  0.00     0.157 A 
BRANCH  41  44
ATOM     44  O   UNL     1     132.936 125.550 120.768  1.00  0.00    -0.504 OA
ATOM     45  H   UNL     1     133.483 126.193 120.201  1.00  0.00     0.293 HD
ENDBRANCH  41  44
BRANCH  43  46
ATOM     46  O   UNL     1     131.061 127.177 119.439  1.00  0.00    -0.504 OA
ATOM     47  H   UNL     1     130.306 127.507 118.852  1.00  0.00     0.293 HD
ENDBRANCH  43  46
ENDBRANCH  28  38
BRANCH  34  48
ATOM     48  O   UNL     1     129.885 125.274 129.916  1.00  0.00    -0.507 OA
ATOM     49  H   UNL     1     129.181 125.343 130.642  1.00  0.00     0.293 HD
ENDBRANCH  34  48
BRANCH  37  50
ATOM     50  O   UNL     1     128.914 120.887 128.151  1.00  0.00    -0.508 OA
ATOM     51  H   UNL     1     127.996 120.523 127.920  1.00  0.00     0.293 HD
ENDBRANCH  37  50
ENDBRANCH  26  27
ENDBRANCH   5  26
BRANCH   4  52
ATOM     52  O   UNL     1     132.347 128.850 123.608  1.00  0.00    -0.384 OA
ATOM     53  H   UNL     1     132.390 127.966 123.154  1.00  0.00     0.211 HD
ENDBRANCH   4  52
TORSDOF 16
ENDMDL
MODEL 5
REMARK VINA RESULT:    -7.640      2.521      5.175
REMARK INTER + INTRA:         -14.749
REMARK INTER:                 -13.123
REMARK INTRA:                  -1.626
REMARK UNBOUND:                -2.195
REMARK SMILES C[C@@H]1O[C@H](OC[C@@H]2O[C@@H](Oc3c(-c4ccc(O)c(O)c4)oc4cc(O)cc(O)c4c3=O)[C@@H](O)[C@@H](O)[C@H]2O)[C@H](O)[C@H](O)[C@H]1O
REMARK SMILES IDX 7 1 36 2 34 3 32 4 9 5 8 6 6 7 5 8 4 9 1 10 2 11 42 12 3 13
REMARK SMILES IDX 40 14 38 15 43 16 41 18 39 20 37 22 35 24 10 26 11 27 12 28
REMARK SMILES IDX 30 29 21 30 29 31 31 32 22 33 27 34 23 35 26 36 24 37 13 38
REMARK SMILES IDX 20 39 14 40 18 41 15 42 16 43 19 44 17 46 28 48 25 50 33 52
REMARK H PARENT 43 17 41 19 39 21 37 23 35 25 19 45 17 47 28 49 25 51 33 53
REMARK Flexibility Score: inf
ROOT
ATOM      1  C   UNL     1     131.947 130.179 125.432  1.00  0.00     0.180 C 
ATOM      2  C   UNL     1     133.235 130.789 124.826  1.00  0.00     0.177 C 
ATOM      3  C   UNL     1     134.459 129.902 125.065  1.00  0.00     0.180 C 
ATOM      4  C   UNL     1     134.155 128.431 124.745  1.00  0.00     0.214 C 
ATOM      5  C   UNL     1     132.839 127.979 125.424  1.00  0.00     0.339 C 
ATOM      6  O   UNL     1     131.744 128.813 125.080  1.00  0.00    -0.332 OA
ENDROOT
BRANCH   1   7
ATOM      7  C   UNL     1     131.748 130.477 126.937  1.00  0.00     0.198 C 
BRANCH   7   8
ATOM      8  O   UNL     1     131.725 131.868 127.213  1.00  0.00    -0.347 OA
BRANCH   8   9
ATOM      9  C   UNL     1     131.486 132.167 128.583  1.00  0.00     0.281 C 
ATOM     10  C   UNL     1     134.736 133.354 128.245  1.00  0.00     0.041 C 
ATOM     11  C   UNL     1     133.346 133.680 128.787  1.00  0.00     0.150 C 
ATOM     12  C   UNL     1     132.532 134.561 127.796  1.00  0.00     0.174 C 
ATOM     13  O   UNL     1     132.727 132.459 129.206  1.00  0.00    -0.344 OA
ATOM     14  C   UNL     1     131.048 134.679 128.234  1.00  0.00     0.179 C 
ATOM     15  C   UNL     1     130.505 133.345 128.823  1.00  0.00     0.202 C 
BRANCH  12  16
ATOM     16  O   UNL     1     133.101 135.841 127.645  1.00  0.00    -0.388 OA
ATOM     17  H   UNL     1     132.780 136.408 128.393  1.00  0.00     0.211 HD
ENDBRANCH  12  16
BRANCH  14  18
ATOM     18  O   UNL     1     130.246 135.168 127.174  1.00  0.00    -0.387 OA
ATOM     19  H   UNL     1     129.667 134.425 126.854  1.00  0.00     0.211 HD
ENDBRANCH  14  18
BRANCH  15  20
ATOM     20  O   UNL     1     129.222 133.044 128.335  1.00  0.00    -0.385 OA
ATOM     21  H   UNL     1     128.753 133.910 128.214  1.00  0.00     0.211 HD
ENDBRANCH  15  20
ENDBRANCH   8   9
ENDBRANCH   7   8
ENDBRANCH   1   7
BRANCH   2  22
ATOM     22  O   UNL     1     133.033 130.975 123.454  1.00  0.00    -0.387 OA
ATOM     23  H   UNL     1     132.786 130.101 123.059  1.00  0.00     0.211 HD
ENDBRANCH   2  22
BRANCH   3  24
ATOM     24  O   UNL     1     135.548 130.353 124.286  1.00  0.00    -0.387 OA
ATOM     25  H   UNL     1     135.686 129.704 123.546  1.00  0.00     0.211 HD
ENDBRANCH   3  24
BRANCH   5  26
ATOM     26  O   UNL     1     132.588 126.634 125.001  1.00  0.00    -0.454 OA
BRANCH  26  27
ATOM     27  C   UNL     1     131.655 125.751 125.579  1.00  0.00     0.214 A 
ATOM     28  C   UNL     1     130.465 125.443 124.887  1.00  0.00     0.180 A 
ATOM     29  C   UNL     1     131.817 125.274 126.889  1.00  0.00     0.239 A 
ATOM     30  O   UNL     1     129.518 124.723 125.476  1.00  0.00    -0.452 OA
ATOM     31  C   UNL     1     130.802 124.478 127.468  1.00  0.00     0.111 A 
ATOM     32  O   UNL     1     132.847 125.580 127.549  1.00  0.00    -0.285 OA
ATOM     33  C   UNL     1     129.633 124.240 126.705  1.00  0.00     0.146 A 
ATOM     34  C   UNL     1     130.894 123.926 128.765  1.00  0.00     0.134 A 
ATOM     35  C   UNL     1     128.579 123.499 127.240  1.00  0.00     0.094 A 
ATOM     36  C   UNL     1     129.829 123.192 129.287  1.00  0.00     0.093 A 
ATOM     37  C   UNL     1     128.668 122.981 128.532  1.00  0.00     0.123 A 
BRANCH  28  38
ATOM     38  C   UNL     1     130.213 125.919 123.513  1.00  0.00     0.025 A 
ATOM     39  C   UNL     1     129.265 126.926 123.288  1.00  0.00     0.062 A 
ATOM     40  C   UNL     1     130.853 125.317 122.421  1.00  0.00     0.016 A 
ATOM     41  C   UNL     1     128.958 127.337 121.987  1.00  0.00     0.158 A 
ATOM     42  C   UNL     1     130.552 125.726 121.121  1.00  0.00     0.051 A 
ATOM     43  C   UNL     1     129.602 126.731 120.897  1.00  0.00     0.157 A 
BRANCH  41  44
ATOM     44  O   UNL     1     127.981 128.316 121.796  1.00  0.00    -0.504 OA
ATOM     45  H   UNL     1     127.878 128.788 120.902  1.00  0.00     0.293 HD
ENDBRANCH  41  44
BRANCH  43  46
ATOM     46  O   UNL     1     129.275 127.119 119.601  1.00  0.00    -0.504 OA
ATOM     47  H   UNL     1     129.097 128.088 119.373  1.00  0.00     0.293 HD
ENDBRANCH  43  46
ENDBRANCH  28  38
BRANCH  34  48
ATOM     48  O   UNL     1     132.046 124.092 129.537  1.00  0.00    -0.507 OA
ATOM     49  H   UNL     1     132.869 124.560 129.173  1.00  0.00     0.293 HD
ENDBRANCH  34  48
BRANCH  37  50
ATOM     50  O   UNL     1     127.605 122.259 129.066  1.00  0.00    -0.508 OA
ATOM     51  H   UNL     1     127.753 121.442 129.649  1.00  0.00     0.293 HD
ENDBRANCH  37  50
ENDBRANCH  26  27
ENDBRANCH   5  26
BRANCH   4  52
ATOM     52  O   UNL     1     134.139 128.206 123.350  1.00  0.00    -0.384 OA
ATOM     53  H   UNL     1     134.646 127.372 123.162  1.00  0.00     0.211 HD
ENDBRANCH   4  52
TORSDOF 16
ENDMDL
MODEL 6
REMARK VINA RESULT:    -7.580      2.807      4.813
REMARK INTER + INTRA:         -14.650
REMARK INTER:                 -12.595
REMARK INTRA:                  -2.055
REMARK UNBOUND:                -2.195
REMARK SMILES C[C@@H]1O[C@H](OC[C@@H]2O[C@@H](Oc3c(-c4ccc(O)c(O)c4)oc4cc(O)cc(O)c4c3=O)[C@@H](O)[C@@H](O)[C@H]2O)[C@H](O)[C@H](O)[C@H]1O
REMARK SMILES IDX 7 1 36 2 34 3 32 4 9 5 8 6 6 7 5 8 4 9 1 10 2 11 42 12 3 13
REMARK SMILES IDX 40 14 38 15 43 16 41 18 39 20 37 22 35 24 10 26 11 27 12 28
REMARK SMILES IDX 30 29 21 30 29 31 31 32 22 33 27 34 23 35 26 36 24 37 13 38
REMARK SMILES IDX 20 39 14 40 18 41 15 42 16 43 19 44 17 46 28 48 25 50 33 52
REMARK H PARENT 43 17 41 19 39 21 37 23 35 25 19 45 17 47 28 49 25 51 33 53
REMARK Flexibility Score: inf
ROOT
ATOM      1  C   UNL     1     131.893 130.119 124.953  1.00  0.00     0.180 C 
ATOM      2  C   UNL     1     132.944 129.765 123.873  1.00  0.00     0.177 C 
ATOM      3  C   UNL     1     133.222 128.262 123.812  1.00  0.00     0.180 C 
ATOM      4  C   UNL     1     131.919 127.450 123.824  1.00  0.00     0.214 C 
ATOM      5  C   UNL     1     130.981 127.928 124.959  1.00  0.00     0.339 C 
ATOM      6  O   UNL     1     130.715 129.320 124.886  1.00  0.00    -0.332 OA
ENDROOT
BRANCH   1   7
ATOM      7  C   UNL     1     132.472 130.268 126.380  1.00  0.00     0.198 C 
BRANCH   7   8
ATOM      8  O   UNL     1     133.063 131.539 126.592  1.00  0.00    -0.347 OA
BRANCH   8   9
ATOM      9  C   UNL     1     132.302 132.612 126.050  1.00  0.00     0.281 C 
ATOM     10  C   UNL     1     132.037 133.316 129.444  1.00  0.00     0.041 C 
ATOM     11  C   UNL     1     132.325 133.919 128.071  1.00  0.00     0.150 C 
ATOM     12  C   UNL     1     133.854 134.023 127.796  1.00  0.00     0.174 C 
ATOM     13  O   UNL     1     131.552 133.210 127.095  1.00  0.00    -0.344 OA
ATOM     14  C   UNL     1     134.136 134.398 126.317  1.00  0.00     0.179 C 
ATOM     15  C   UNL     1     133.146 133.704 125.338  1.00  0.00     0.202 C 
BRANCH  12  16
ATOM     16  O   UNL     1     134.479 134.942 128.662  1.00  0.00    -0.388 OA
ATOM     17  H   UNL     1     135.461 134.835 128.563  1.00  0.00     0.211 HD
ENDBRANCH  12  16
BRANCH  14  18
ATOM     18  O   UNL     1     135.490 134.151 125.983  1.00  0.00    -0.387 OA
ATOM     19  H   UNL     1     135.957 135.026 125.911  1.00  0.00     0.211 HD
ENDBRANCH  14  18
BRANCH  15  20
ATOM     20  O   UNL     1     133.806 133.181 124.213  1.00  0.00    -0.385 OA
ATOM     21  H   UNL     1     134.345 132.411 124.532  1.00  0.00     0.211 HD
ENDBRANCH  15  20
ENDBRANCH   8   9
ENDBRANCH   7   8
ENDBRANCH   1   7
BRANCH   2  22
ATOM     22  O   UNL     1     132.476 130.221 122.635  1.00  0.00    -0.387 OA
ATOM     23  H   UNL     1     133.252 130.306 122.026  1.00  0.00     0.211 HD
ENDBRANCH   2  22
BRANCH   3  24
ATOM     24  O   UNL     1     133.977 127.951 122.659  1.00  0.00    -0.387 OA
ATOM     25  H   UNL     1     134.162 126.975 122.666  1.00  0.00     0.211 HD
ENDBRANCH   3  24
BRANCH   5  26
ATOM     26  O   UNL     1     129.762 127.185 124.839  1.00  0.00    -0.454 OA
BRANCH  26  27
ATOM     27  C   UNL     1     129.364 126.120 125.670  1.00  0.00     0.214 A 
ATOM     28  C   UNL     1     128.576 126.383 126.811  1.00  0.00     0.180 A 
ATOM     29  C   UNL     1     129.843 124.817 125.467  1.00  0.00     0.239 A 
ATOM     30  O   UNL     1     128.308 125.411 127.674  1.00  0.00    -0.452 OA
ATOM     31  C   UNL     1     129.504 123.800 126.390  1.00  0.00     0.111 A 
ATOM     32  O   UNL     1     130.594 124.567 124.485  1.00  0.00    -0.285 OA
ATOM     33  C   UNL     1     128.727 124.164 127.516  1.00  0.00     0.146 A 
ATOM     34  C   UNL     1     129.912 122.456 126.247  1.00  0.00     0.134 A 
ATOM     35  C   UNL     1     128.399 123.214 128.484  1.00  0.00     0.094 A 
ATOM     36  C   UNL     1     129.580 121.519 127.226  1.00  0.00     0.093 A 
ATOM     37  C   UNL     1     128.829 121.894 128.348  1.00  0.00     0.123 A 
BRANCH  28  38
ATOM     38  C   UNL     1     128.046 127.729 127.103  1.00  0.00     0.025 A 
ATOM     39  C   UNL     1     128.818 128.635 127.842  1.00  0.00     0.062 A 
ATOM     40  C   UNL     1     126.746 128.082 126.720  1.00  0.00     0.016 A 
ATOM     41  C   UNL     1     128.304 129.888 128.193  1.00  0.00     0.158 A 
ATOM     42  C   UNL     1     126.228 129.331 127.065  1.00  0.00     0.051 A 
ATOM     43  C   UNL     1     127.000 130.236 127.807  1.00  0.00     0.157 A 
BRANCH  41  44
ATOM     44  O   UNL     1     129.084 130.752 128.963  1.00  0.00    -0.504 OA
ATOM     45  H   UNL     1     129.157 131.740 128.733  1.00  0.00     0.293 HD
ENDBRANCH  41  44
BRANCH  43  46
ATOM     46  O   UNL     1     126.477 131.470 128.182  1.00  0.00    -0.504 OA
ATOM     47  H   UNL     1     126.993 132.097 128.785  1.00  0.00     0.293 HD
ENDBRANCH  43  46
ENDBRANCH  28  38
BRANCH  34  48
ATOM     48  O   UNL     1     130.637 122.039 125.128  1.00  0.00    -0.507 OA
ATOM     49  H   UNL     1     130.404 121.189 124.626  1.00  0.00     0.293 HD
ENDBRANCH  34  48
BRANCH  37  50
ATOM     50  O   UNL     1     128.514 120.955 129.326  1.00  0.00    -0.508 OA
ATOM     51  H   UNL     1     128.216 120.016 129.089  1.00  0.00     0.293 HD
ENDBRANCH  37  50
ENDBRANCH  26  27
ENDBRANCH   5  26
BRANCH   4  52
ATOM     52  O   UNL     1     131.286 127.486 122.560  1.00  0.00    -0.384 OA
ATOM     53  H   UNL     1     130.899 126.588 122.379  1.00  0.00     0.211 HD
ENDBRANCH   4  52
TORSDOF 16
ENDMDL
MODEL 7
REMARK VINA RESULT:    -7.568      2.491      7.109
REMARK INTER + INTRA:         -14.630
REMARK INTER:                 -11.753
REMARK INTRA:                  -2.877
REMARK UNBOUND:                -2.195
REMARK SMILES C[C@@H]1O[C@H](OC[C@@H]2O[C@@H](Oc3c(-c4ccc(O)c(O)c4)oc4cc(O)cc(O)c4c3=O)[C@@H](O)[C@@H](O)[C@H]2O)[C@H](O)[C@H](O)[C@H]1O
REMARK SMILES IDX 7 1 36 2 34 3 32 4 9 5 8 6 6 7 5 8 4 9 1 10 2 11 42 12 3 13
REMARK SMILES IDX 40 14 38 15 43 16 41 18 39 20 37 22 35 24 10 26 11 27 12 28
REMARK SMILES IDX 30 29 21 30 29 31 31 32 22 33 27 34 23 35 26 36 24 37 13 38
REMARK SMILES IDX 20 39 14 40 18 41 15 42 16 43 19 44 17 46 28 48 25 50 33 52
REMARK H PARENT 43 17 41 19 39 21 37 23 35 25 19 45 17 47 28 49 25 51 33 53
REMARK Flexibility Score: inf
ROOT
ATOM      1  C   UNL     1     127.006 128.456 127.213  1.00  0.00     0.180 C 
ATOM      2  C   UNL     1     126.192 127.905 126.017  1.00  0.00     0.177 C 
ATOM      3  C   UNL     1     126.743 128.390 124.674  1.00  0.00     0.180 C 
ATOM      4  C   UNL     1     128.271 128.250 124.613  1.00  0.00     0.214 C 
ATOM      5  C   UNL     1     128.931 128.847 125.880  1.00  0.00     0.339 C 
ATOM      6  O   UNL     1     128.413 128.279 127.074  1.00  0.00    -0.332 OA
ENDROOT
BRANCH   1   7
ATOM      7  C   UNL     1     126.591 129.876 127.666  1.00  0.00     0.198 C 
BRANCH   7   8
ATOM      8  O   UNL     1     127.508 130.436 128.590  1.00  0.00    -0.347 OA
BRANCH   8   9
ATOM      9  C   UNL     1     127.185 131.771 128.966  1.00  0.00     0.281 C 
ATOM     10  C   UNL     1     126.060 130.046 131.767  1.00  0.00     0.041 C 
ATOM     11  C   UNL     1     126.867 131.253 131.295  1.00  0.00     0.150 C 
ATOM     12  C   UNL     1     128.395 130.954 131.272  1.00  0.00     0.174 C 
ATOM     13  O   UNL     1     126.296 131.727 130.070  1.00  0.00    -0.344 OA
ATOM     14  C   UNL     1     129.181 132.087 130.560  1.00  0.00     0.179 C 
ATOM     15  C   UNL     1     128.411 132.650 129.332  1.00  0.00     0.202 C 
BRANCH  12  16
ATOM     16  O   UNL     1     128.905 130.743 132.567  1.00  0.00    -0.388 OA
ATOM     17  H   UNL     1     128.148 130.799 133.208  1.00  0.00     0.211 HD
ENDBRANCH  12  16
BRANCH  14  18
ATOM     18  O   UNL     1     130.490 131.662 130.229  1.00  0.00    -0.387 OA
ATOM     19  H   UNL     1     131.034 131.653 131.062  1.00  0.00     0.211 HD
ENDBRANCH  14  18
BRANCH  15  20
ATOM     20  O   UNL     1     129.256 132.828 128.224  1.00  0.00    -0.385 OA
ATOM     21  H   UNL     1     129.773 133.659 128.390  1.00  0.00     0.211 HD
ENDBRANCH  15  20
ENDBRANCH   8   9
ENDBRANCH   7   8
ENDBRANCH   1   7
BRANCH   2  22
ATOM     22  O   UNL     1     126.214 126.507 126.073  1.00  0.00    -0.387 OA
ATOM     23  H   UNL     1     126.591 126.241 126.949  1.00  0.00     0.211 HD
ENDBRANCH   2  22
BRANCH   3  24
ATOM     24  O   UNL     1     126.148 127.670 123.614  1.00  0.00    -0.387 OA
ATOM     25  H   UNL     1     126.764 127.704 122.835  1.00  0.00     0.211 HD
ENDBRANCH   3  24
BRANCH   5  26
ATOM     26  O   UNL     1     130.337 128.594 125.782  1.00  0.00    -0.454 OA
BRANCH  26  27
ATOM     27  C   UNL     1     131.334 129.566 125.573  1.00  0.00     0.214 A 
ATOM     28  C   UNL     1     132.195 129.453 124.461  1.00  0.00     0.180 A 
ATOM     29  C   UNL     1     131.582 130.573 126.518  1.00  0.00     0.239 A 
ATOM     30  O   UNL     1     133.222 130.283 124.326  1.00  0.00    -0.452 OA
ATOM     31  C   UNL     1     132.663 131.462 126.320  1.00  0.00     0.111 A 
ATOM     32  O   UNL     1     130.860 130.662 127.549  1.00  0.00    -0.285 OA
ATOM     33  C   UNL     1     133.486 131.257 125.186  1.00  0.00     0.146 A 
ATOM     34  C   UNL     1     132.965 132.525 127.199  1.00  0.00     0.134 A 
ATOM     35  C   UNL     1     134.594 132.073 124.961  1.00  0.00     0.094 A 
ATOM     36  C   UNL     1     134.080 133.329 126.963  1.00  0.00     0.093 A 
ATOM     37  C   UNL     1     134.901 133.104 125.849  1.00  0.00     0.123 A 
BRANCH  28  38
ATOM     38  C   UNL     1     132.011 128.413 123.431  1.00  0.00     0.025 A 
ATOM     39  C   UNL     1     132.103 127.060 123.784  1.00  0.00     0.062 A 
ATOM     40  C   UNL     1     131.828 128.764 122.087  1.00  0.00     0.016 A 
ATOM     41  C   UNL     1     132.006 126.061 122.809  1.00  0.00     0.158 A 
ATOM     42  C   UNL     1     131.728 127.772 121.110  1.00  0.00     0.051 A 
ATOM     43  C   UNL     1     131.823 126.419 121.465  1.00  0.00     0.157 A 
BRANCH  41  44
ATOM     44  O   UNL     1     132.140 124.725 123.189  1.00  0.00    -0.504 OA
ATOM     45  H   UNL     1     133.056 124.300 123.304  1.00  0.00     0.293 HD
ENDBRANCH  41  44
BRANCH  43  46
ATOM     46  O   UNL     1     131.757 125.427 120.490  1.00  0.00    -0.504 OA
ATOM     47  H   UNL     1     132.184 124.522 120.634  1.00  0.00     0.293 HD
ENDBRANCH  43  46
ENDBRANCH  28  38
BRANCH  34  48
ATOM     48  O   UNL     1     132.155 132.797 128.304  1.00  0.00    -0.507 OA
ATOM     49  H   UNL     1     132.145 133.709 128.747  1.00  0.00     0.293 HD
ENDBRANCH  34  48
BRANCH  37  50
ATOM     50  O   UNL     1     136.018 133.903 125.629  1.00  0.00    -0.508 OA
ATOM     51  H   UNL     1     136.351 134.111 124.694  1.00  0.00     0.293 HD
ENDBRANCH  37  50
ENDBRANCH  26  27
ENDBRANCH   5  26
BRANCH   4  52
ATOM     52  O   UNL     1     128.651 126.906 124.399  1.00  0.00    -0.384 OA
ATOM     53  H   UNL     1     127.836 126.338 124.446  1.00  0.00     0.211 HD
ENDBRANCH   4  52
TORSDOF 16
ENDMDL
MODEL 8
REMARK VINA RESULT:    -7.513      5.111      8.150
REMARK INTER + INTRA:         -14.540
REMARK INTER:                 -11.610
REMARK INTRA:                  -2.930
REMARK UNBOUND:                -2.195
REMARK SMILES C[C@@H]1O[C@H](OC[C@@H]2O[C@@H](Oc3c(-c4ccc(O)c(O)c4)oc4cc(O)cc(O)c4c3=O)[C@@H](O)[C@@H](O)[C@H]2O)[C@H](O)[C@H](O)[C@H]1O
REMARK SMILES IDX 7 1 36 2 34 3 32 4 9 5 8 6 6 7 5 8 4 9 1 10 2 11 42 12 3 13
REMARK SMILES IDX 40 14 38 15 43 16 41 18 39 20 37 22 35 24 10 26 11 27 12 28
REMARK SMILES IDX 30 29 21 30 29 31 31 32 22 33 27 34 23 35 26 36 24 37 13 38
REMARK SMILES IDX 20 39 14 40 18 41 15 42 16 43 19 44 17 46 28 48 25 50 33 52
REMARK H PARENT 43 17 41 19 39 21 37 23 35 25 19 45 17 47 28 49 25 51 33 53
REMARK Flexibility Score: inf
ROOT
ATOM      1  C   UNL     1     133.054 124.269 129.716  1.00  0.00     0.180 C 
ATOM      2  C   UNL     1     134.601 124.301 129.757  1.00  0.00     0.177 C 
ATOM      3  C   UNL     1     135.208 124.545 128.374  1.00  0.00     0.180 C 
ATOM      4  C   UNL     1     134.496 125.694 127.644  1.00  0.00     0.214 C 
ATOM      5  C   UNL     1     132.959 125.511 127.696  1.00  0.00     0.339 C 
ATOM      6  O   UNL     1     132.479 125.374 129.024  1.00  0.00    -0.332 OA
ENDROOT
BRANCH   1   7
ATOM      7  C   UNL     1     132.457 122.898 129.319  1.00  0.00     0.198 C 
BRANCH   7   8
ATOM      8  O   UNL     1     131.166 122.692 129.870  1.00  0.00    -0.347 OA
BRANCH   8   9
ATOM      9  C   UNL     1     131.002 121.404 130.454  1.00  0.00     0.281 C 
ATOM     10  C   UNL     1     132.195 123.181 133.193  1.00  0.00     0.041 C 
ATOM     11  C   UNL     1     131.129 122.194 132.724  1.00  0.00     0.150 C 
ATOM     12  C   UNL     1     129.790 122.910 132.381  1.00  0.00     0.174 C 
ATOM     13  O   UNL     1     131.694 121.377 131.692  1.00  0.00    -0.344 OA
ATOM     14  C   UNL     1     128.801 121.947 131.673  1.00  0.00     0.179 C 
ATOM     15  C   UNL     1     129.525 120.987 130.685  1.00  0.00     0.202 C 
BRANCH  12  16
ATOM     16  O   UNL     1     129.191 123.474 133.524  1.00  0.00    -0.388 OA
ATOM     17  H   UNL     1     128.207 123.387 133.428  1.00  0.00     0.211 HD
ENDBRANCH  12  16
BRANCH  14  18
ATOM     18  O   UNL     1     127.749 122.667 131.055  1.00  0.00    -0.387 OA
ATOM     19  H   UNL     1     126.966 122.060 130.969  1.00  0.00     0.211 HD
ENDBRANCH  14  18
BRANCH  15  20
ATOM     20  O   UNL     1     128.833 120.875 129.467  1.00  0.00    -0.385 OA
ATOM     21  H   UNL     1     129.520 120.856 128.751  1.00  0.00     0.211 HD
ENDBRANCH  15  20
ENDBRANCH   8   9
ENDBRANCH   7   8
ENDBRANCH   1   7
BRANCH   2  22
ATOM     22  O   UNL     1     134.999 125.308 130.644  1.00  0.00    -0.387 OA
ATOM     23  H   UNL     1     135.759 124.964 131.177  1.00  0.00     0.211 HD
ENDBRANCH   2  22
BRANCH   3  24
ATOM     24  O   UNL     1     136.588 124.826 128.489  1.00  0.00    -0.387 OA
ATOM     25  H   UNL     1     137.079 124.216 127.877  1.00  0.00     0.211 HD
ENDBRANCH   3  24
BRANCH   5  26
ATOM     26  O   UNL     1     132.377 126.664 127.077  1.00  0.00    -0.454 OA
BRANCH  26  27
ATOM     27  C   UNL     1     132.032 126.780 125.717  1.00  0.00     0.214 A 
ATOM     28  C   UNL     1     130.937 126.047 125.211  1.00  0.00     0.180 A 
ATOM     29  C   UNL     1     132.832 127.504 124.819  1.00  0.00     0.239 A 
ATOM     30  O   UNL     1     130.684 126.042 123.908  1.00  0.00    -0.452 OA
ATOM     31  C   UNL     1     132.507 127.503 123.443  1.00  0.00     0.111 A 
ATOM     32  O   UNL     1     133.848 128.123 125.239  1.00  0.00    -0.285 OA
ATOM     33  C   UNL     1     131.404 126.721 123.025  1.00  0.00     0.146 A 
ATOM     34  C   UNL     1     133.234 128.230 122.474  1.00  0.00     0.134 A 
ATOM     35  C   UNL     1     131.063 126.645 121.675  1.00  0.00     0.094 A 
ATOM     36  C   UNL     1     132.883 128.139 121.127  1.00  0.00     0.093 A 
ATOM     37  C   UNL     1     131.803 127.344 120.722  1.00  0.00     0.123 A 
BRANCH  28  38
ATOM     38  C   UNL     1     130.057 125.250 126.086  1.00  0.00     0.025 A 
ATOM     39  C   UNL     1     130.003 123.858 125.938  1.00  0.00     0.062 A 
ATOM     40  C   UNL     1     129.211 125.879 127.010  1.00  0.00     0.016 A 
ATOM     41  C   UNL     1     129.120 123.093 126.707  1.00  0.00     0.158 A 
ATOM     42  C   UNL     1     128.330 125.120 127.782  1.00  0.00     0.051 A 
ATOM     43  C   UNL     1     128.275 123.728 127.631  1.00  0.00     0.157 A 
BRANCH  41  44
ATOM     44  O   UNL     1     129.065 121.713 126.507  1.00  0.00    -0.504 OA
ATOM     45  H   UNL     1     128.535 121.314 125.737  1.00  0.00     0.293 HD
ENDBRANCH  41  44
BRANCH  43  46
ATOM     46  O   UNL     1     127.375 122.971 128.374  1.00  0.00    -0.504 OA
ATOM     47  H   UNL     1     127.677 122.156 128.892  1.00  0.00     0.293 HD
ENDBRANCH  43  46
ENDBRANCH  28  38
BRANCH  34  48
ATOM     48  O   UNL     1     134.299 129.054 122.844  1.00  0.00    -0.507 OA
ATOM     49  H   UNL     1     135.224 128.681 123.031  1.00  0.00     0.293 HD
ENDBRANCH  34  48
BRANCH  37  50
ATOM     50  O   UNL     1     131.468 127.250 119.375  1.00  0.00    -0.508 OA
ATOM     51  H   UNL     1     130.541 127.481 119.036  1.00  0.00     0.293 HD
ENDBRANCH  37  50
ENDBRANCH  26  27
ENDBRANCH   5  26
BRANCH   4  52
ATOM     52  O   UNL     1     134.900 126.949 128.154  1.00  0.00    -0.384 OA
ATOM     53  H   UNL     1     135.455 127.402 127.465  1.00  0.00     0.211 HD
ENDBRANCH   4  52
TORSDOF 16
ENDMDL
MODEL 9
REMARK VINA RESULT:    -7.449      3.741      8.538
REMARK INTER + INTRA:         -14.434
REMARK INTER:                 -10.804
REMARK INTRA:                  -3.630
REMARK UNBOUND:                -2.195
REMARK SMILES C[C@@H]1O[C@H](OC[C@@H]2O[C@@H](Oc3c(-c4ccc(O)c(O)c4)oc4cc(O)cc(O)c4c3=O)[C@@H](O)[C@@H](O)[C@H]2O)[C@H](O)[C@H](O)[C@H]1O
REMARK SMILES IDX 7 1 36 2 34 3 32 4 9 5 8 6 6 7 5 8 4 9 1 10 2 11 42 12 3 13
REMARK SMILES IDX 40 14 38 15 43 16 41 18 39 20 37 22 35 24 10 26 11 27 12 28
REMARK SMILES IDX 30 29 21 30 29 31 31 32 22 33 27 34 23 35 26 36 24 37 13 38
REMARK SMILES IDX 20 39 14 40 18 41 15 42 16 43 19 44 17 46 28 48 25 50 33 52
REMARK H PARENT 43 17 41 19 39 21 37 23 35 25 19 45 17 47 28 49 25 51 33 53
REMARK Flexibility Score: inf
ROOT
ATOM      1  C   UNL     1     133.302 131.084 127.556  1.00  0.00     0.180 C 
ATOM      2  C   UNL     1     133.196 130.465 126.141  1.00  0.00     0.177 C 
ATOM      3  C   UNL     1     132.801 131.502 125.088  1.00  0.00     0.180 C 
ATOM      4  C   UNL     1     133.624 132.791 125.236  1.00  0.00     0.214 C 
ATOM      5  C   UNL     1     133.630 133.275 126.706  1.00  0.00     0.339 C 
ATOM      6  O   UNL     1     134.087 132.273 127.601  1.00  0.00    -0.332 OA
ENDROOT
BRANCH   1   7
ATOM      7  C   UNL     1     131.954 131.191 128.307  1.00  0.00     0.198 C 
BRANCH   7   8
ATOM      8  O   UNL     1     132.127 131.368 129.704  1.00  0.00    -0.347 OA
BRANCH   8   9
ATOM      9  C   UNL     1     131.656 130.268 130.474  1.00  0.00     0.281 C 
ATOM     10  C   UNL     1     135.031 129.469 130.251  1.00  0.00     0.041 C 
ATOM     11  C   UNL     1     133.843 129.580 131.203  1.00  0.00     0.150 C 
ATOM     12  C   UNL     1     133.840 130.936 131.967  1.00  0.00     0.174 C 
ATOM     13  O   UNL     1     132.651 129.258 130.477  1.00  0.00    -0.344 OA
ATOM     14  C   UNL     1     132.509 131.146 132.738  1.00  0.00     0.179 C 
ATOM     15  C   UNL     1     131.282 130.622 131.938  1.00  0.00     0.202 C 
BRANCH  12  16
ATOM     16  O   UNL     1     134.936 131.044 132.845  1.00  0.00    -0.388 OA
ATOM     17  H   UNL     1     134.617 131.472 133.682  1.00  0.00     0.211 HD
ENDBRANCH  12  16
BRANCH  14  18
ATOM     18  O   UNL     1     132.362 132.498 133.131  1.00  0.00    -0.387 OA
ATOM     19  H   UNL     1     132.514 132.554 134.112  1.00  0.00     0.211 HD
ENDBRANCH  14  18
BRANCH  15  20
ATOM     20  O   UNL     1     130.207 131.526 131.983  1.00  0.00    -0.385 OA
ATOM     21  H   UNL     1     130.599 132.436 131.944  1.00  0.00     0.211 HD
ENDBRANCH  15  20
ENDBRANCH   8   9
ENDBRANCH   7   8
ENDBRANCH   1   7
BRANCH   2  22
ATOM     22  O   UNL     1     134.429 129.890 125.816  1.00  0.00    -0.387 OA
ATOM     23  H   UNL     1     135.137 130.557 126.002  1.00  0.00     0.211 HD
ENDBRANCH   2  22
BRANCH   3  24
ATOM     24  O   UNL     1     132.967 130.968 123.791  1.00  0.00    -0.387 OA
ATOM     25  H   UNL     1     133.518 130.144 123.865  1.00  0.00     0.211 HD
ENDBRANCH   3  24
BRANCH   5  26
ATOM     26  O   UNL     1     134.488 134.421 126.769  1.00  0.00    -0.454 OA
BRANCH  26  27
ATOM     27  C   UNL     1     135.519 134.625 127.705  1.00  0.00     0.214 A 
ATOM     28  C   UNL     1     135.227 135.240 128.941  1.00  0.00     0.180 A 
ATOM     29  C   UNL     1     136.859 134.353 127.388  1.00  0.00     0.239 A 
ATOM     30  O   UNL     1     136.208 135.561 129.775  1.00  0.00    -0.452 OA
ATOM     31  C   UNL     1     137.873 134.675 128.319  1.00  0.00     0.111 A 
ATOM     32  O   UNL     1     137.152 133.852 126.268  1.00  0.00    -0.285 OA
ATOM     33  C   UNL     1     137.486 135.311 129.523  1.00  0.00     0.146 A 
ATOM     34  C   UNL     1     139.242 134.406 128.099  1.00  0.00     0.134 A 
ATOM     35  C   UNL     1     138.445 135.694 130.460  1.00  0.00     0.094 A 
ATOM     36  C   UNL     1     140.190 134.799 129.044  1.00  0.00     0.093 A 
ATOM     37  C   UNL     1     139.798 135.448 130.222  1.00  0.00     0.123 A 
BRANCH  28  38
ATOM     38  C   UNL     1     133.847 135.572 129.343  1.00  0.00     0.025 A 
ATOM     39  C   UNL     1     133.075 134.625 130.028  1.00  0.00     0.062 A 
ATOM     40  C   UNL     1     133.271 136.795 128.974  1.00  0.00     0.016 A 
ATOM     41  C   UNL     1     131.740 134.894 130.352  1.00  0.00     0.158 A 
ATOM     42  C   UNL     1     131.941 137.069 129.296  1.00  0.00     0.051 A 
ATOM     43  C   UNL     1     131.169 136.120 129.979  1.00  0.00     0.157 A 
BRANCH  41  44
ATOM     44  O   UNL     1     130.988 133.913 131.001  1.00  0.00    -0.504 OA
ATOM     45  H   UNL     1     131.360 133.410 131.803  1.00  0.00     0.293 HD
ENDBRANCH  41  44
BRANCH  43  46
ATOM     46  O   UNL     1     129.832 136.375 130.274  1.00  0.00    -0.504 OA
ATOM     47  H   UNL     1     129.378 137.221 129.956  1.00  0.00     0.293 HD
ENDBRANCH  43  46
ENDBRANCH  28  38
BRANCH  34  48
ATOM     48  O   UNL     1     139.668 133.736 126.949  1.00  0.00    -0.507 OA
ATOM     49  H   UNL     1     139.013 133.420 126.243  1.00  0.00     0.293 HD
ENDBRANCH  34  48
BRANCH  37  50
ATOM     50  O   UNL     1     140.752 135.848 131.153  1.00  0.00    -0.508 OA
ATOM     51  H   UNL     1     141.660 136.201 130.870  1.00  0.00     0.293 HD
ENDBRANCH  37  50
ENDBRANCH  26  27
ENDBRANCH   5  26
BRANCH   4  52
ATOM     52  O   UNL     1     134.931 132.622 124.726  1.00  0.00    -0.384 OA
ATOM     53  H   UNL     1     134.876 132.571 123.734  1.00  0.00     0.211 HD
ENDBRANCH   4  52
TORSDOF 16
ENDMDL
