MODEL 1
REMARK VINA RESULT:    -5.161      0.000      0.000
REMARK INTER + INTRA:         -15.548
REMARK INTER:                 -13.005
REMARK INTRA:                  -2.543
REMARK UNBOUND:                -2.543
REMARK SMILES CCCCCCCCCCCCCCCCCCCCCCCCCCCC(=O)[O-]
REMARK SMILES IDX 15 1 16 2 17 3 18 4 19 5 20 6 21 7 22 8 23 9 24 10 25 11
REMARK SMILES IDX 26 12 27 13 28 14 29 15 30 16 14 17 13 18 12 19 11 20 10 21
REMARK SMILES IDX 9 22 8 23 7 24 6 25 5 26 4 27 3 28 2 29 1 30
REMARK H PARENT
REMARK Flexibility Score: inf
ROOT
ATOM      1  C   UNL     1     -10.492  39.251   5.773  1.00  0.00     0.000 C 
ENDROOT
BRANCH   1   2
ATOM      2  C   UNL     1     -10.199  37.791   5.373  1.00  0.00     0.000 C 
BRANCH   2   3
ATOM      3  C   UNL     1      -8.823  37.244   5.811  1.00  0.00     0.000 C 
BRANCH   3   4
ATOM      4  C   UNL     1      -8.861  35.899   6.557  1.00  0.00     0.000 C 
BRANCH   4   5
ATOM      5  C   UNL     1      -9.568  34.793   5.759  1.00  0.00     0.000 C 
BRANCH   5   6
ATOM      6  C   UNL     1      -8.970  33.419   6.088  1.00  0.00     0.000 C 
BRANCH   6   7
ATOM      7  C   UNL     1      -7.794  33.084   5.156  1.00  0.00     0.000 C 
BRANCH   7   8
ATOM      8  C   UNL     1      -6.418  33.241   5.838  1.00  0.00     0.000 C 
BRANCH   8   9
ATOM      9  C   UNL     1      -6.088  32.157   6.883  1.00  0.00     0.000 C 
BRANCH   9  10
ATOM     10  C   UNL     1      -5.066  31.092   6.448  1.00  0.00     0.000 C 
BRANCH  10  11
ATOM     11  C   UNL     1      -5.685  29.974   5.588  1.00  0.00     0.000 C 
BRANCH  11  12
ATOM     12  C   UNL     1      -5.101  28.590   5.916  1.00  0.00     0.006 C 
BRANCH  12  13
ATOM     13  C   UNL     1      -3.574  28.621   6.079  1.00  0.00     0.053 C 
BRANCH  13  14
ATOM     14  C   UNL     1      -3.185  28.167   7.451  1.00  0.00     0.041 C 
ATOM     15  O   UNL     1      -3.446  26.994   7.827  1.00  0.00    -0.550 OA
ATOM     16  O   UNL     1      -2.561  29.049   8.326  1.00  0.00    -0.550 OA
ENDBRANCH  13  14
ENDBRANCH  12  13
ENDBRANCH  11  12
ENDBRANCH  10  11
ENDBRANCH   9  10
ENDBRANCH   8   9
ENDBRANCH   7   8
ENDBRANCH   6   7
ENDBRANCH   5   6
ENDBRANCH   4   5
ENDBRANCH   3   4
ENDBRANCH   2   3
ENDBRANCH   1   2
BRANCH   1  17
ATOM     17  C   UNL     1     -11.985  39.510   6.041  1.00  0.00     0.000 C 
BRANCH  17  18
ATOM     18  C   UNL     1     -12.365  39.342   7.523  1.00  0.00     0.000 C 
BRANCH  18  19
ATOM     19  C   UNL     1     -11.218  38.893   8.450  1.00  0.00     0.000 C 
BRANCH  19  20
ATOM     20  C   UNL     1     -11.467  37.577   9.214  1.00  0.00     0.000 C 
BRANCH  20  21
ATOM     21  C   UNL     1     -12.081  36.446   8.370  1.00  0.00     0.000 C 
BRANCH  21  22
ATOM     22  C   UNL     1     -12.272  35.142   9.163  1.00  0.00    -0.000 C 
BRANCH  22  23
ATOM     23  C   UNL     1     -11.794  33.906   8.383  1.00  0.00    -0.000 C 
BRANCH  23  24
ATOM     24  C   UNL     1     -10.922  32.971   9.241  1.00  0.00    -0.000 C 
BRANCH  24  25
ATOM     25  C   UNL     1     -11.374  32.908  10.712  1.00  0.00    -0.000 C 
BRANCH  25  26
ATOM     26  C   UNL     1     -10.346  32.301  11.686  1.00  0.00    -0.000 C 
BRANCH  26  27
ATOM     27  C   UNL     1     -10.719  30.881  12.148  1.00  0.00    -0.000 C 
BRANCH  27  28
ATOM     28  C   UNL     1      -9.839  30.391  13.310  1.00  0.00    -0.000 C 
BRANCH  28  29
ATOM     29  C   UNL     1      -8.704  31.370  13.641  1.00  0.00    -0.003 C 
ATOM     30  C   UNL     1      -8.307  31.269  15.111  1.00  0.00     0.004 C 
ENDBRANCH  28  29
ENDBRANCH  27  28
ENDBRANCH  26  27
ENDBRANCH  25  26
ENDBRANCH  24  25
ENDBRANCH  23  24
ENDBRANCH  22  23
ENDBRANCH  21  22
ENDBRANCH  20  21
ENDBRANCH  19  20
ENDBRANCH  18  19
ENDBRANCH  17  18
ENDBRANCH   1  17
TORSDOF 26
ENDMDL
MODEL 2
REMARK VINA RESULT:    -5.095      3.565      7.499
REMARK INTER + INTRA:         -15.382
REMARK INTER:                 -12.658
REMARK INTRA:                  -2.724
REMARK UNBOUND:                -2.543
REMARK SMILES CCCCCCCCCCCCCCCCCCCCCCCCCCCC(=O)[O-]
REMARK SMILES IDX 15 1 16 2 17 3 18 4 19 5 20 6 21 7 22 8 23 9 24 10 25 11
REMARK SMILES IDX 26 12 27 13 28 14 29 15 30 16 14 17 13 18 12 19 11 20 10 21
REMARK SMILES IDX 9 22 8 23 7 24 6 25 5 26 4 27 3 28 2 29 1 30
REMARK H PARENT
REMARK Flexibility Score: inf
ROOT
ATOM      1  C   UNL     1      -5.073  31.521   7.224  1.00  0.00     0.000 C 
ENDROOT
BRANCH   1   2
ATOM      2  C   UNL     1      -3.923  30.664   6.659  1.00  0.00     0.000 C 
BRANCH   2   3
ATOM      3  C   UNL     1      -3.284  29.670   7.651  1.00  0.00     0.000 C 
BRANCH   3   4
ATOM      4  C   UNL     1      -3.142  28.228   7.134  1.00  0.00     0.000 C 
BRANCH   4   5
ATOM      5  C   UNL     1      -4.441  27.417   7.259  1.00  0.00     0.000 C 
BRANCH   5   6
ATOM      6  C   UNL     1      -4.969  27.023   5.873  1.00  0.00     0.000 C 
BRANCH   6   7
ATOM      7  C   UNL     1      -5.894  28.107   5.298  1.00  0.00     0.000 C 
BRANCH   7   8
ATOM      8  C   UNL     1      -5.626  28.402   3.807  1.00  0.00     0.000 C 
BRANCH   8   9
ATOM      9  C   UNL     1      -4.146  28.313   3.387  1.00  0.00     0.000 C 
BRANCH   9  10
ATOM     10  C   UNL     1      -3.848  28.602   1.905  1.00  0.00     0.000 C 
BRANCH  10  11
ATOM     11  C   UNL     1      -2.474  28.075   1.450  1.00  0.00     0.000 C 
BRANCH  11  12
ATOM     12  C   UNL     1      -1.947  28.810   0.206  1.00  0.00     0.006 C 
BRANCH  12  13
ATOM     13  C   UNL     1      -0.645  28.197  -0.330  1.00  0.00     0.053 C 
BRANCH  13  14
ATOM     14  C   UNL     1       0.512  29.108  -0.061  1.00  0.00     0.041 C 
ATOM     15  O   UNL     1       1.196  29.559  -1.016  1.00  0.00    -0.550 OA
ATOM     16  O   UNL     1       0.854  29.434   1.247  1.00  0.00    -0.550 OA
ENDBRANCH  13  14
ENDBRANCH  12  13
ENDBRANCH  11  12
ENDBRANCH  10  11
ENDBRANCH   9  10
ENDBRANCH   8   9
ENDBRANCH   7   8
ENDBRANCH   6   7
ENDBRANCH   5   6
ENDBRANCH   4   5
ENDBRANCH   3   4
ENDBRANCH   2   3
ENDBRANCH   1   2
BRANCH   1  17
ATOM     17  C   UNL     1      -5.765  32.379   6.150  1.00  0.00     0.000 C 
BRANCH  17  18
ATOM     18  C   UNL     1      -7.287  32.484   6.355  1.00  0.00     0.000 C 
BRANCH  18  19
ATOM     19  C   UNL     1      -8.012  33.466   5.415  1.00  0.00     0.000 C 
BRANCH  19  20
ATOM     20  C   UNL     1      -8.681  34.669   6.111  1.00  0.00     0.000 C 
BRANCH  20  21
ATOM     21  C   UNL     1     -10.016  35.114   5.490  1.00  0.00     0.000 C 
BRANCH  21  22
ATOM     22  C   UNL     1     -10.063  36.622   5.187  1.00  0.00    -0.000 C 
BRANCH  22  23
ATOM     23  C   UNL     1      -8.807  37.358   5.681  1.00  0.00    -0.000 C 
BRANCH  23  24
ATOM     24  C   UNL     1      -9.138  38.718   6.322  1.00  0.00    -0.000 C 
BRANCH  24  25
ATOM     25  C   UNL     1     -10.650  38.944   6.510  1.00  0.00    -0.000 C 
BRANCH  25  26
ATOM     26  C   UNL     1     -11.117  39.065   7.973  1.00  0.00    -0.000 C 
BRANCH  26  27
ATOM     27  C   UNL     1     -11.703  37.755   8.530  1.00  0.00    -0.000 C 
BRANCH  27  28
ATOM     28  C   UNL     1     -10.638  36.871   9.198  1.00  0.00    -0.000 C 
BRANCH  28  29
ATOM     29  C   UNL     1     -10.910  35.373   9.002  1.00  0.00    -0.003 C 
ATOM     30  C   UNL     1     -12.301  35.142   8.419  1.00  0.00     0.004 C 
ENDBRANCH  28  29
ENDBRANCH  27  28
ENDBRANCH  26  27
ENDBRANCH  25  26
ENDBRANCH  24  25
ENDBRANCH  23  24
ENDBRANCH  22  23
ENDBRANCH  21  22
ENDBRANCH  20  21
ENDBRANCH  19  20
ENDBRANCH  18  19
ENDBRANCH  17  18
ENDBRANCH   1  17
TORSDOF 26
ENDMDL
MODEL 3
REMARK VINA RESULT:    -4.972      1.363      2.301
REMARK INTER + INTRA:         -15.073
REMARK INTER:                 -12.038
REMARK INTRA:                  -3.035
REMARK UNBOUND:                -2.543
REMARK SMILES CCCCCCCCCCCCCCCCCCCCCCCCCCCC(=O)[O-]
REMARK SMILES IDX 15 1 16 2 17 3 18 4 19 5 20 6 21 7 22 8 23 9 24 10 25 11
REMARK SMILES IDX 26 12 27 13 28 14 29 15 30 16 14 17 13 18 12 19 11 20 10 21
REMARK SMILES IDX 9 22 8 23 7 24 6 25 5 26 4 27 3 28 2 29 1 30
REMARK H PARENT
REMARK Flexibility Score: inf
ROOT
ATOM      1  C   UNL     1     -10.473  39.132   6.373  1.00  0.00     0.000 C 
ENDROOT
BRANCH   1   2
ATOM      2  C   UNL     1     -10.020  37.913   5.544  1.00  0.00     0.000 C 
BRANCH   2   3
ATOM      3  C   UNL     1      -8.558  37.469   5.760  1.00  0.00     0.000 C 
BRANCH   3   4
ATOM      4  C   UNL     1      -8.315  35.952   5.672  1.00  0.00     0.000 C 
BRANCH   4   5
ATOM      5  C   UNL     1      -9.058  35.164   6.762  1.00  0.00     0.000 C 
BRANCH   5   6
ATOM      6  C   UNL     1      -9.474  33.781   6.242  1.00  0.00     0.000 C 
BRANCH   6   7
ATOM      7  C   UNL     1      -8.556  33.314   5.101  1.00  0.00     0.000 C 
BRANCH   7   8
ATOM      8  C   UNL     1      -7.767  32.033   5.446  1.00  0.00     0.000 C 
BRANCH   8   9
ATOM      9  C   UNL     1      -7.126  32.028   6.848  1.00  0.00     0.000 C 
BRANCH   9  10
ATOM     10  C   UNL     1      -5.594  32.168   6.888  1.00  0.00     0.000 C 
BRANCH  10  11
ATOM     11  C   UNL     1      -4.861  30.992   6.215  1.00  0.00     0.000 C 
BRANCH  11  12
ATOM     12  C   UNL     1      -3.967  30.219   7.199  1.00  0.00     0.006 C 
BRANCH  12  13
ATOM     13  C   UNL     1      -3.538  28.850   6.652  1.00  0.00     0.053 C 
BRANCH  13  14
ATOM     14  C   UNL     1      -2.993  27.993   7.751  1.00  0.00     0.041 C 
ATOM     15  O   UNL     1      -1.818  28.170   8.167  1.00  0.00    -0.550 OA
ATOM     16  O   UNL     1      -3.773  26.978   8.296  1.00  0.00    -0.550 OA
ENDBRANCH  13  14
ENDBRANCH  12  13
ENDBRANCH  11  12
ENDBRANCH  10  11
ENDBRANCH   9  10
ENDBRANCH   8   9
ENDBRANCH   7   8
ENDBRANCH   6   7
ENDBRANCH   5   6
ENDBRANCH   4   5
ENDBRANCH   3   4
ENDBRANCH   2   3
ENDBRANCH   1   2
BRANCH   1  17
ATOM     17  C   UNL     1     -11.855  39.663   5.953  1.00  0.00     0.000 C 
BRANCH  17  18
ATOM     18  C   UNL     1     -12.826  39.809   7.138  1.00  0.00     0.000 C 
BRANCH  18  19
ATOM     19  C   UNL     1     -12.303  40.651   8.318  1.00  0.00     0.000 C 
BRANCH  19  20
ATOM     20  C   UNL     1     -12.415  39.983   9.703  1.00  0.00     0.000 C 
BRANCH  20  21
ATOM     21  C   UNL     1     -12.793  38.492   9.672  1.00  0.00     0.000 C 
BRANCH  21  22
ATOM     22  C   UNL     1     -11.676  37.579  10.208  1.00  0.00    -0.000 C 
BRANCH  22  23
ATOM     23  C   UNL     1     -11.157  36.601   9.141  1.00  0.00    -0.000 C 
BRANCH  23  24
ATOM     24  C   UNL     1     -12.217  36.284   8.071  1.00  0.00    -0.000 C 
BRANCH  24  25
ATOM     25  C   UNL     1     -13.101  35.077   8.437  1.00  0.00    -0.000 C 
BRANCH  25  26
ATOM     26  C   UNL     1     -12.352  33.739   8.587  1.00  0.00    -0.000 C 
BRANCH  26  27
ATOM     27  C   UNL     1     -12.244  33.268  10.048  1.00  0.00    -0.000 C 
BRANCH  27  28
ATOM     28  C   UNL     1     -11.240  32.117  10.222  1.00  0.00    -0.000 C 
BRANCH  28  29
ATOM     29  C   UNL     1     -10.937  31.818  11.697  1.00  0.00    -0.003 C 
ATOM     30  C   UNL     1     -11.038  30.323  11.984  1.00  0.00     0.004 C 
ENDBRANCH  28  29
ENDBRANCH  27  28
ENDBRANCH  26  27
ENDBRANCH  25  26
ENDBRANCH  24  25
ENDBRANCH  23  24
ENDBRANCH  22  23
ENDBRANCH  21  22
ENDBRANCH  20  21
ENDBRANCH  19  20
ENDBRANCH  18  19
ENDBRANCH  17  18
ENDBRANCH   1  17
TORSDOF 26
ENDMDL
MODEL 4
REMARK VINA RESULT:    -4.923      2.046      3.050
REMARK INTER + INTRA:         -14.949
REMARK INTER:                 -11.690
REMARK INTRA:                  -3.259
REMARK UNBOUND:                -2.543
REMARK SMILES CCCCCCCCCCCCCCCCCCCCCCCCCCCC(=O)[O-]
REMARK SMILES IDX 15 1 16 2 17 3 18 4 19 5 20 6 21 7 22 8 23 9 24 10 25 11
REMARK SMILES IDX 26 12 27 13 28 14 29 15 30 16 14 17 13 18 12 19 11 20 10 21
REMARK SMILES IDX 9 22 8 23 7 24 6 25 5 26 4 27 3 28 2 29 1 30
REMARK H PARENT
REMARK Flexibility Score: inf
ROOT
ATOM      1  C   UNL     1      -8.941  37.437   6.382  1.00  0.00     0.000 C 
ENDROOT
BRANCH   1   2
ATOM      2  C   UNL     1      -9.889  36.407   5.736  1.00  0.00     0.000 C 
BRANCH   2   3
ATOM      3  C   UNL     1      -9.359  34.959   5.681  1.00  0.00     0.000 C 
BRANCH   3   4
ATOM      4  C   UNL     1      -7.831  34.824   5.558  1.00  0.00     0.000 C 
BRANCH   4   5
ATOM      5  C   UNL     1      -7.346  33.374   5.707  1.00  0.00     0.000 C 
BRANCH   5   6
ATOM      6  C   UNL     1      -8.522  32.437   6.009  1.00  0.00     0.000 C 
BRANCH   6   7
ATOM      7  C   UNL     1      -8.346  31.077   5.315  1.00  0.00     0.000 C 
BRANCH   7   8
ATOM      8  C   UNL     1      -8.616  29.880   6.252  1.00  0.00     0.000 C 
BRANCH   8   9
ATOM      9  C   UNL     1      -7.660  28.685   6.065  1.00  0.00     0.000 C 
BRANCH   9  10
ATOM     10  C   UNL     1      -6.482  28.910   5.101  1.00  0.00     0.000 C 
BRANCH  10  11
ATOM     11  C   UNL     1      -5.354  27.876   5.273  1.00  0.00     0.000 C 
BRANCH  11  12
ATOM     12  C   UNL     1      -4.088  28.488   5.895  1.00  0.00     0.006 C 
BRANCH  12  13
ATOM     13  C   UNL     1      -3.579  27.684   7.100  1.00  0.00     0.053 C 
BRANCH  13  14
ATOM     14  C   UNL     1      -2.966  28.596   8.117  1.00  0.00     0.041 C 
ATOM     15  O   UNL     1      -2.439  28.120   9.156  1.00  0.00    -0.550 OA
ATOM     16  O   UNL     1      -3.004  29.974   7.931  1.00  0.00    -0.550 OA
ENDBRANCH  13  14
ENDBRANCH  12  13
ENDBRANCH  11  12
ENDBRANCH  10  11
ENDBRANCH   9  10
ENDBRANCH   8   9
ENDBRANCH   7   8
ENDBRANCH   6   7
ENDBRANCH   5   6
ENDBRANCH   4   5
ENDBRANCH   3   4
ENDBRANCH   2   3
ENDBRANCH   1   2
BRANCH   1  17
ATOM     17  C   UNL     1      -9.436  38.886   6.228  1.00  0.00     0.000 C 
BRANCH  17  18
ATOM     18  C   UNL     1     -10.855  38.975   5.637  1.00  0.00     0.000 C 
BRANCH  18  19
ATOM     19  C   UNL     1     -11.959  39.373   6.637  1.00  0.00     0.000 C 
BRANCH  19  20
ATOM     20  C   UNL     1     -11.487  39.573   8.091  1.00  0.00     0.000 C 
BRANCH  20  21
ATOM     21  C   UNL     1     -11.973  38.501   9.082  1.00  0.00     0.000 C 
BRANCH  21  22
ATOM     22  C   UNL     1     -10.899  37.445   9.396  1.00  0.00    -0.000 C 
BRANCH  22  23
ATOM     23  C   UNL     1     -11.429  36.009   9.250  1.00  0.00    -0.000 C 
BRANCH  23  24
ATOM     24  C   UNL     1     -12.606  35.916   8.261  1.00  0.00    -0.000 C 
BRANCH  24  25
ATOM     25  C   UNL     1     -12.637  34.587   7.484  1.00  0.00    -0.000 C 
BRANCH  25  26
ATOM     26  C   UNL     1     -11.781  33.457   8.088  1.00  0.00    -0.000 C 
BRANCH  26  27
ATOM     27  C   UNL     1     -12.547  32.600   9.111  1.00  0.00    -0.000 C 
BRANCH  27  28
ATOM     28  C   UNL     1     -11.615  31.701   9.940  1.00  0.00    -0.000 C 
BRANCH  28  29
ATOM     29  C   UNL     1     -12.012  30.220   9.870  1.00  0.00    -0.003 C 
ATOM     30  C   UNL     1     -11.425  29.555   8.627  1.00  0.00     0.004 C 
ENDBRANCH  28  29
ENDBRANCH  27  28
ENDBRANCH  26  27
ENDBRANCH  25  26
ENDBRANCH  24  25
ENDBRANCH  23  24
ENDBRANCH  22  23
ENDBRANCH  21  22
ENDBRANCH  20  21
ENDBRANCH  19  20
ENDBRANCH  18  19
ENDBRANCH  17  18
ENDBRANCH   1  17
TORSDOF 26
ENDMDL
MODEL 5
REMARK VINA RESULT:    -4.918     15.290     18.381
REMARK INTER + INTRA:         -14.937
REMARK INTER:                  -9.728
REMARK INTRA:                  -5.209
REMARK UNBOUND:                -2.543
REMARK SMILES CCCCCCCCCCCCCCCCCCCCCCCCCCCC(=O)[O-]
REMARK SMILES IDX 15 1 16 2 17 3 18 4 19 5 20 6 21 7 22 8 23 9 24 10 25 11
REMARK SMILES IDX 26 12 27 13 28 14 29 15 30 16 14 17 13 18 12 19 11 20 10 21
REMARK SMILES IDX 9 22 8 23 7 24 6 25 5 26 4 27 3 28 2 29 1 30
REMARK H PARENT
REMARK Flexibility Score: inf
ROOT
ATOM      1  C   UNL     1      -0.201  42.050   0.376  1.00  0.00     0.000 C 
ENDROOT
BRANCH   1   2
ATOM      2  C   UNL     1      -0.868  43.409   0.085  1.00  0.00     0.000 C 
BRANCH   2   3
ATOM      3  C   UNL     1      -1.130  43.716  -1.405  1.00  0.00     0.000 C 
BRANCH   3   4
ATOM      4  C   UNL     1      -0.475  45.005  -1.932  1.00  0.00     0.000 C 
BRANCH   4   5
ATOM      5  C   UNL     1       0.726  45.454  -1.087  1.00  0.00     0.000 C 
BRANCH   5   6
ATOM      6  C   UNL     1       0.506  46.873  -0.544  1.00  0.00     0.000 C 
BRANCH   6   7
ATOM      7  C   UNL     1       1.214  47.070   0.806  1.00  0.00     0.000 C 
BRANCH   7   8
ATOM      8  C   UNL     1       0.439  46.457   1.991  1.00  0.00     0.000 C 
BRANCH   8   9
ATOM      9  C   UNL     1       1.033  45.146   2.542  1.00  0.00     0.000 C 
BRANCH   9  10
ATOM     10  C   UNL     1       0.167  44.394   3.569  1.00  0.00     0.000 C 
BRANCH  10  11
ATOM     11  C   UNL     1       0.905  44.109   4.890  1.00  0.00     0.000 C 
BRANCH  11  12
ATOM     12  C   UNL     1       1.630  45.350   5.437  1.00  0.00     0.006 C 
BRANCH  12  13
ATOM     13  C   UNL     1       1.651  45.389   6.972  1.00  0.00     0.053 C 
BRANCH  13  14
ATOM     14  C   UNL     1       3.013  45.762   7.468  1.00  0.00     0.041 C 
ATOM     15  O   UNL     1       3.257  45.766   8.703  1.00  0.00    -0.550 OA
ATOM     16  O   UNL     1       4.004  46.137   6.567  1.00  0.00    -0.550 OA
ENDBRANCH  13  14
ENDBRANCH  12  13
ENDBRANCH  11  12
ENDBRANCH  10  11
ENDBRANCH   9  10
ENDBRANCH   8   9
ENDBRANCH   7   8
ENDBRANCH   6   7
ENDBRANCH   5   6
ENDBRANCH   4   5
ENDBRANCH   3   4
ENDBRANCH   2   3
ENDBRANCH   1   2
BRANCH   1  17
ATOM     17  C   UNL     1       1.310  42.170   0.643  1.00  0.00     0.000 C 
BRANCH  17  18
ATOM     18  C   UNL     1       1.742  41.488   1.954  1.00  0.00     0.000 C 
BRANCH  18  19
ATOM     19  C   UNL     1       3.207  41.729   2.369  1.00  0.00     0.000 C 
BRANCH  19  20
ATOM     20  C   UNL     1       4.068  40.457   2.508  1.00  0.00     0.000 C 
BRANCH  20  21
ATOM     21  C   UNL     1       5.533  40.617   2.065  1.00  0.00     0.000 C 
BRANCH  21  22
ATOM     22  C   UNL     1       5.915  42.078   1.774  1.00  0.00    -0.000 C 
BRANCH  22  23
ATOM     23  C   UNL     1       6.577  42.247   0.396  1.00  0.00    -0.000 C 
BRANCH  23  24
ATOM     24  C   UNL     1       5.659  41.797  -0.755  1.00  0.00    -0.000 C 
BRANCH  24  25
ATOM     25  C   UNL     1       4.415  42.691  -0.919  1.00  0.00    -0.000 C 
BRANCH  25  26
ATOM     26  C   UNL     1       4.697  44.206  -0.935  1.00  0.00    -0.000 C 
BRANCH  26  27
ATOM     27  C   UNL     1       4.086  44.946   0.268  1.00  0.00    -0.000 C 
BRANCH  27  28
ATOM     28  C   UNL     1       5.147  45.667   1.115  1.00  0.00    -0.000 C 
BRANCH  28  29
ATOM     29  C   UNL     1       4.857  45.578   2.620  1.00  0.00    -0.003 C 
ATOM     30  C   UNL     1       4.137  46.831   3.112  1.00  0.00     0.004 C 
ENDBRANCH  28  29
ENDBRANCH  27  28
ENDBRANCH  26  27
ENDBRANCH  25  26
ENDBRANCH  24  25
ENDBRANCH  23  24
ENDBRANCH  22  23
ENDBRANCH  21  22
ENDBRANCH  20  21
ENDBRANCH  19  20
ENDBRANCH  18  19
ENDBRANCH  17  18
ENDBRANCH   1  17
TORSDOF 26
ENDMDL
MODEL 6
REMARK VINA RESULT:    -4.880      2.143      5.108
REMARK INTER + INTRA:         -14.840
REMARK INTER:                 -11.754
REMARK INTRA:                  -3.085
REMARK UNBOUND:                -2.543
REMARK SMILES CCCCCCCCCCCCCCCCCCCCCCCCCCCC(=O)[O-]
REMARK SMILES IDX 15 1 16 2 17 3 18 4 19 5 20 6 21 7 22 8 23 9 24 10 25 11
REMARK SMILES IDX 26 12 27 13 28 14 29 15 30 16 14 17 13 18 12 19 11 20 10 21
REMARK SMILES IDX 9 22 8 23 7 24 6 25 5 26 4 27 3 28 2 29 1 30
REMARK H PARENT
REMARK Flexibility Score: inf
ROOT
ATOM      1  C   UNL     1      -7.491  32.802   5.524  1.00  0.00     0.000 C 
ENDROOT
BRANCH   1   2
ATOM      2  C   UNL     1      -8.363  32.140   6.611  1.00  0.00     0.000 C 
BRANCH   2   3
ATOM      3  C   UNL     1      -9.369  31.085   6.105  1.00  0.00     0.000 C 
BRANCH   3   4
ATOM      4  C   UNL     1      -9.419  29.782   6.922  1.00  0.00     0.000 C 
BRANCH   4   5
ATOM      5  C   UNL     1     -10.191  28.660   6.212  1.00  0.00     0.000 C 
BRANCH   5   6
ATOM      6  C   UNL     1      -9.995  28.745   4.692  1.00  0.00     0.000 C 
BRANCH   6   7
ATOM      7  C   UNL     1      -8.974  27.707   4.202  1.00  0.00     0.000 C 
BRANCH   7   8
ATOM      8  C   UNL     1      -7.777  28.339   3.460  1.00  0.00     0.000 C 
BRANCH   8   9
ATOM      9  C   UNL     1      -6.837  29.179   4.348  1.00  0.00     0.000 C 
BRANCH   9  10
ATOM     10  C   UNL     1      -5.463  28.557   4.650  1.00  0.00     0.000 C 
BRANCH  10  11
ATOM     11  C   UNL     1      -5.542  27.336   5.585  1.00  0.00     0.000 C 
BRANCH  11  12
ATOM     12  C   UNL     1      -4.409  27.319   6.625  1.00  0.00     0.006 C 
BRANCH  12  13
ATOM     13  C   UNL     1      -3.390  28.445   6.401  1.00  0.00     0.053 C 
BRANCH  13  14
ATOM     14  C   UNL     1      -2.997  29.064   7.706  1.00  0.00     0.041 C 
ATOM     15  O   UNL     1      -3.046  30.313   7.853  1.00  0.00    -0.550 OA
ATOM     16  O   UNL     1      -2.546  28.263   8.750  1.00  0.00    -0.550 OA
ENDBRANCH  13  14
ENDBRANCH  12  13
ENDBRANCH  11  12
ENDBRANCH  10  11
ENDBRANCH   9  10
ENDBRANCH   8   9
ENDBRANCH   7   8
ENDBRANCH   6   7
ENDBRANCH   5   6
ENDBRANCH   4   5
ENDBRANCH   3   4
ENDBRANCH   2   3
ENDBRANCH   1   2
BRANCH   1  17
ATOM     17  C   UNL     1      -7.551  34.339   5.562  1.00  0.00     0.000 C 
BRANCH  17  18
ATOM     18  C   UNL     1      -8.987  34.880   5.687  1.00  0.00     0.000 C 
BRANCH  18  19
ATOM     19  C   UNL     1      -9.134  36.170   6.517  1.00  0.00     0.000 C 
BRANCH  19  20
ATOM     20  C   UNL     1      -8.440  37.414   5.926  1.00  0.00     0.000 C 
BRANCH  20  21
ATOM     21  C   UNL     1      -9.182  38.741   6.162  1.00  0.00     0.000 C 
BRANCH  21  22
ATOM     22  C   UNL     1     -10.546  38.799   5.451  1.00  0.00    -0.000 C 
BRANCH  22  23
ATOM     23  C   UNL     1     -11.602  39.559   6.272  1.00  0.00    -0.000 C 
BRANCH  23  24
ATOM     24  C   UNL     1     -11.549  39.203   7.769  1.00  0.00    -0.000 C 
BRANCH  24  25
ATOM     25  C   UNL     1     -12.130  37.810   8.078  1.00  0.00    -0.000 C 
BRANCH  25  26
ATOM     26  C   UNL     1     -11.382  37.016   9.166  1.00  0.00    -0.000 C 
BRANCH  26  27
ATOM     27  C   UNL     1     -12.067  35.685   9.521  1.00  0.00    -0.000 C 
BRANCH  27  28
ATOM     28  C   UNL     1     -11.430  34.486   8.800  1.00  0.00    -0.000 C 
BRANCH  28  29
ATOM     29  C   UNL     1     -11.006  33.374   9.771  1.00  0.00    -0.003 C 
ATOM     30  C   UNL     1     -11.361  31.998   9.215  1.00  0.00     0.004 C 
ENDBRANCH  28  29
ENDBRANCH  27  28
ENDBRANCH  26  27
ENDBRANCH  25  26
ENDBRANCH  24  25
ENDBRANCH  23  24
ENDBRANCH  22  23
ENDBRANCH  21  22
ENDBRANCH  20  21
ENDBRANCH  19  20
ENDBRANCH  18  19
ENDBRANCH  17  18
ENDBRANCH   1  17
TORSDOF 26
ENDMDL
MODEL 7
REMARK VINA RESULT:    -4.853      2.000      5.282
REMARK INTER + INTRA:         -14.772
REMARK INTER:                 -11.392
REMARK INTRA:                  -3.380
REMARK UNBOUND:                -2.543
REMARK SMILES CCCCCCCCCCCCCCCCCCCCCCCCCCCC(=O)[O-]
REMARK SMILES IDX 15 1 16 2 17 3 18 4 19 5 20 6 21 7 22 8 23 9 24 10 25 11
REMARK SMILES IDX 26 12 27 13 28 14 29 15 30 16 14 17 13 18 12 19 11 20 10 21
REMARK SMILES IDX 9 22 8 23 7 24 6 25 5 26 4 27 3 28 2 29 1 30
REMARK H PARENT
REMARK Flexibility Score: inf
ROOT
ATOM      1  C   UNL     1     -11.072  33.861  10.280  1.00  0.00     0.000 C 
ENDROOT
BRANCH   1   2
ATOM      2  C   UNL     1     -11.261  32.402   9.820  1.00  0.00     0.000 C 
BRANCH   2   3
ATOM      3  C   UNL     1     -11.316  32.188   8.292  1.00  0.00     0.000 C 
BRANCH   3   4
ATOM      4  C   UNL     1     -11.372  30.719   7.838  1.00  0.00     0.000 C 
BRANCH   4   5
ATOM      5  C   UNL     1     -10.048  30.231   7.230  1.00  0.00     0.000 C 
BRANCH   5   6
ATOM      6  C   UNL     1     -10.291  29.550   5.877  1.00  0.00     0.000 C 
BRANCH   6   7
ATOM      7  C   UNL     1      -9.119  28.633   5.494  1.00  0.00     0.000 C 
BRANCH   7   8
ATOM      8  C   UNL     1      -8.458  27.955   6.713  1.00  0.00     0.000 C 
BRANCH   8   9
ATOM      9  C   UNL     1      -7.124  27.243   6.411  1.00  0.00     0.000 C 
BRANCH   9  10
ATOM     10  C   UNL     1      -6.285  27.842   5.268  1.00  0.00     0.000 C 
BRANCH  10  11
ATOM     11  C   UNL     1      -5.442  29.054   5.706  1.00  0.00     0.000 C 
BRANCH  11  12
ATOM     12  C   UNL     1      -3.935  28.747   5.717  1.00  0.00     0.006 C 
BRANCH  12  13
ATOM     13  C   UNL     1      -3.523  27.874   6.911  1.00  0.00     0.053 C 
BRANCH  13  14
ATOM     14  C   UNL     1      -2.936  28.718   7.999  1.00  0.00     0.041 C 
ATOM     15  O   UNL     1      -2.973  29.973   7.915  1.00  0.00    -0.550 OA
ATOM     16  O   UNL     1      -2.320  28.117   9.092  1.00  0.00    -0.550 OA
ENDBRANCH  13  14
ENDBRANCH  12  13
ENDBRANCH  11  12
ENDBRANCH  10  11
ENDBRANCH   9  10
ENDBRANCH   8   9
ENDBRANCH   7   8
ENDBRANCH   6   7
ENDBRANCH   5   6
ENDBRANCH   4   5
ENDBRANCH   3   4
ENDBRANCH   2   3
ENDBRANCH   1   2
BRANCH   1  17
ATOM     17  C   UNL     1     -11.352  34.883   9.164  1.00  0.00     0.000 C 
BRANCH  17  18
ATOM     18  C   UNL     1     -10.607  36.214   9.370  1.00  0.00     0.000 C 
BRANCH  18  19
ATOM     19  C   UNL     1     -11.505  37.465   9.446  1.00  0.00     0.000 C 
BRANCH  19  20
ATOM     20  C   UNL     1     -12.564  37.581   8.330  1.00  0.00     0.000 C 
BRANCH  20  21
ATOM     21  C   UNL     1     -12.370  38.774   7.378  1.00  0.00     0.000 C 
BRANCH  21  22
ATOM     22  C   UNL     1     -10.910  39.255   7.309  1.00  0.00    -0.000 C 
BRANCH  22  23
ATOM     23  C   UNL     1     -10.253  38.942   5.955  1.00  0.00    -0.000 C 
BRANCH  23  24
ATOM     24  C   UNL     1      -8.801  38.453   6.107  1.00  0.00    -0.000 C 
BRANCH  24  25
ATOM     25  C   UNL     1      -8.679  36.917   6.105  1.00  0.00    -0.000 C 
BRANCH  25  26
ATOM     26  C   UNL     1      -9.971  36.159   5.743  1.00  0.00    -0.000 C 
BRANCH  26  27
ATOM     27  C   UNL     1      -9.736  34.663   5.469  1.00  0.00    -0.000 C 
BRANCH  27  28
ATOM     28  C   UNL     1      -8.766  34.026   6.477  1.00  0.00    -0.000 C 
BRANCH  28  29
ATOM     29  C   UNL     1      -7.572  33.344   5.794  1.00  0.00    -0.003 C 
ATOM     30  C   UNL     1      -7.029  32.205   6.652  1.00  0.00     0.004 C 
ENDBRANCH  28  29
ENDBRANCH  27  28
ENDBRANCH  26  27
ENDBRANCH  25  26
ENDBRANCH  24  25
ENDBRANCH  23  24
ENDBRANCH  22  23
ENDBRANCH  21  22
ENDBRANCH  20  21
ENDBRANCH  19  20
ENDBRANCH  18  19
ENDBRANCH  17  18
ENDBRANCH   1  17
TORSDOF 26
ENDMDL
MODEL 8
REMARK VINA RESULT:    -4.839     14.621     17.952
REMARK INTER + INTRA:         -14.738
REMARK INTER:                  -9.922
REMARK INTRA:                  -4.816
REMARK UNBOUND:                -2.543
REMARK SMILES CCCCCCCCCCCCCCCCCCCCCCCCCCCC(=O)[O-]
REMARK SMILES IDX 15 1 16 2 17 3 18 4 19 5 20 6 21 7 22 8 23 9 24 10 25 11
REMARK SMILES IDX 26 12 27 13 28 14 29 15 30 16 14 17 13 18 12 19 11 20 10 21
REMARK SMILES IDX 9 22 8 23 7 24 6 25 5 26 4 27 3 28 2 29 1 30
REMARK H PARENT
REMARK Flexibility Score: inf
ROOT
ATOM      1  C   UNL     1       6.775  42.904   2.005  1.00  0.00     0.000 C 
ENDROOT
BRANCH   1   2
ATOM      2  C   UNL     1       7.069  44.392   1.727  1.00  0.00     0.000 C 
BRANCH   2   3
ATOM      3  C   UNL     1       6.284  45.399   2.594  1.00  0.00     0.000 C 
BRANCH   3   4
ATOM      4  C   UNL     1       4.752  45.296   2.492  1.00  0.00     0.000 C 
BRANCH   4   5
ATOM      5  C   UNL     1       4.116  46.518   1.811  1.00  0.00     0.000 C 
BRANCH   5   6
ATOM      6  C   UNL     1       3.512  46.130   0.455  1.00  0.00     0.000 C 
BRANCH   6   7
ATOM      7  C   UNL     1       4.609  45.833  -0.580  1.00  0.00     0.000 C 
BRANCH   7   8
ATOM      8  C   UNL     1       4.564  44.385  -1.110  1.00  0.00     0.000 C 
BRANCH   8   9
ATOM      9  C   UNL     1       3.298  43.595  -0.724  1.00  0.00     0.000 C 
BRANCH   9  10
ATOM     10  C   UNL     1       2.149  43.623  -1.747  1.00  0.00     0.000 C 
BRANCH  10  11
ATOM     11  C   UNL     1       1.286  42.347  -1.725  1.00  0.00     0.000 C 
BRANCH  11  12
ATOM     12  C   UNL     1      -0.038  42.547  -0.971  1.00  0.00     0.006 C 
BRANCH  12  13
ATOM     13  C   UNL     1      -0.335  44.027  -0.688  1.00  0.00     0.053 C 
BRANCH  13  14
ATOM     14  C   UNL     1      -1.218  44.598  -1.754  1.00  0.00     0.041 C 
ATOM     15  O   UNL     1      -0.720  45.275  -2.691  1.00  0.00    -0.550 OA
ATOM     16  O   UNL     1      -2.594  44.407  -1.696  1.00  0.00    -0.550 OA
ENDBRANCH  13  14
ENDBRANCH  12  13
ENDBRANCH  11  12
ENDBRANCH  10  11
ENDBRANCH   9  10
ENDBRANCH   8   9
ENDBRANCH   7   8
ENDBRANCH   6   7
ENDBRANCH   5   6
ENDBRANCH   4   5
ENDBRANCH   3   4
ENDBRANCH   2   3
ENDBRANCH   1   2
BRANCH   1  17
ATOM     17  C   UNL     1       6.737  42.051   0.725  1.00  0.00     0.000 C 
BRANCH  17  18
ATOM     18  C   UNL     1       5.611  41.001   0.739  1.00  0.00     0.000 C 
BRANCH  18  19
ATOM     19  C   UNL     1       5.361  40.322   2.100  1.00  0.00     0.000 C 
BRANCH  19  20
ATOM     20  C   UNL     1       4.023  40.683   2.778  1.00  0.00     0.000 C 
BRANCH  20  21
ATOM     21  C   UNL     1       3.120  41.626   1.964  1.00  0.00     0.000 C 
BRANCH  21  22
ATOM     22  C   UNL     1       1.626  41.283   2.091  1.00  0.00    -0.000 C 
BRANCH  22  23
ATOM     23  C   UNL     1       0.791  42.476   2.585  1.00  0.00    -0.000 C 
BRANCH  23  24
ATOM     24  C   UNL     1       1.512  43.821   2.381  1.00  0.00    -0.000 C 
BRANCH  24  25
ATOM     25  C   UNL     1       0.736  45.016   2.967  1.00  0.00    -0.000 C 
BRANCH  25  26
ATOM     26  C   UNL     1       1.407  45.705   4.170  1.00  0.00    -0.000 C 
BRANCH  26  27
ATOM     27  C   UNL     1       0.474  45.839   5.387  1.00  0.00    -0.000 C 
BRANCH  27  28
ATOM     28  C   UNL     1      -0.737  44.895   5.305  1.00  0.00    -0.000 C 
BRANCH  28  29
ATOM     29  C   UNL     1      -0.451  43.519   5.922  1.00  0.00    -0.003 C 
ATOM     30  C   UNL     1      -1.687  42.624   5.857  1.00  0.00     0.004 C 
ENDBRANCH  28  29
ENDBRANCH  27  28
ENDBRANCH  26  27
ENDBRANCH  25  26
ENDBRANCH  24  25
ENDBRANCH  23  24
ENDBRANCH  22  23
ENDBRANCH  21  22
ENDBRANCH  20  21
ENDBRANCH  19  20
ENDBRANCH  18  19
ENDBRANCH  17  18
ENDBRANCH   1  17
TORSDOF 26
ENDMDL
MODEL 9
REMARK VINA RESULT:    -4.715     14.870     18.125
REMARK INTER + INTRA:         -14.424
REMARK INTER:                  -9.320
REMARK INTRA:                  -5.103
REMARK UNBOUND:                -2.543
REMARK SMILES CCCCCCCCCCCCCCCCCCCCCCCCCCCC(=O)[O-]
REMARK SMILES IDX 15 1 16 2 17 3 18 4 19 5 20 6 21 7 22 8 23 9 24 10 25 11
REMARK SMILES IDX 26 12 27 13 28 14 29 15 30 16 14 17 13 18 12 19 11 20 10 21
REMARK SMILES IDX 9 22 8 23 7 24 6 25 5 26 4 27 3 28 2 29 1 30
REMARK H PARENT
REMARK Flexibility Score: inf
ROOT
ATOM      1  C   UNL     1       1.734  42.013   2.602  1.00  0.00     0.000 C 
ENDROOT
BRANCH   1   2
ATOM      2  C   UNL     1       2.985  41.114   2.530  1.00  0.00     0.000 C 
BRANCH   2   3
ATOM      3  C   UNL     1       4.130  41.639   1.638  1.00  0.00     0.000 C 
BRANCH   3   4
ATOM      4  C   UNL     1       5.425  40.809   1.680  1.00  0.00     0.000 C 
BRANCH   4   5
ATOM      5  C   UNL     1       6.249  40.921   0.388  1.00  0.00     0.000 C 
BRANCH   5   6
ATOM      6  C   UNL     1       6.093  42.316  -0.234  1.00  0.00     0.000 C 
BRANCH   6   7
ATOM      7  C   UNL     1       7.119  43.303   0.344  1.00  0.00     0.000 C 
BRANCH   7   8
ATOM      8  C   UNL     1       6.480  44.616   0.844  1.00  0.00     0.000 C 
BRANCH   8   9
ATOM      9  C   UNL     1       6.041  44.598   2.321  1.00  0.00     0.000 C 
BRANCH   9  10
ATOM     10  C   UNL     1       6.176  45.930   3.080  1.00  0.00     0.000 C 
BRANCH  10  11
ATOM     11  C   UNL     1       4.880  46.355   3.794  1.00  0.00     0.000 C 
BRANCH  11  12
ATOM     12  C   UNL     1       5.001  46.278   5.325  1.00  0.00     0.006 C 
BRANCH  12  13
ATOM     13  C   UNL     1       3.665  46.540   6.034  1.00  0.00     0.053 C 
BRANCH  13  14
ATOM     14  C   UNL     1       3.794  46.291   7.504  1.00  0.00     0.041 C 
ATOM     15  O   UNL     1       4.887  46.509   8.089  1.00  0.00    -0.550 OA
ATOM     16  O   UNL     1       2.714  45.789   8.223  1.00  0.00    -0.550 OA
ENDBRANCH  13  14
ENDBRANCH  12  13
ENDBRANCH  11  12
ENDBRANCH  10  11
ENDBRANCH   9  10
ENDBRANCH   8   9
ENDBRANCH   7   8
ENDBRANCH   6   7
ENDBRANCH   5   6
ENDBRANCH   4   5
ENDBRANCH   3   4
ENDBRANCH   2   3
ENDBRANCH   1   2
BRANCH   1  17
ATOM     17  C   UNL     1       0.711  41.706   1.494  1.00  0.00     0.000 C 
BRANCH  17  18
ATOM     18  C   UNL     1      -0.312  42.839   1.292  1.00  0.00     0.000 C 
BRANCH  18  19
ATOM     19  C   UNL     1      -0.628  43.185  -0.177  1.00  0.00     0.000 C 
BRANCH  19  20
ATOM     20  C   UNL     1       0.059  42.286  -1.226  1.00  0.00     0.000 C 
BRANCH  20  21
ATOM     21  C   UNL     1       1.403  42.819  -1.752  1.00  0.00     0.000 C 
BRANCH  21  22
ATOM     22  C   UNL     1       1.678  44.273  -1.330  1.00  0.00    -0.000 C 
BRANCH  22  23
ATOM     23  C   UNL     1       2.990  44.415  -0.540  1.00  0.00    -0.000 C 
BRANCH  23  24
ATOM     24  C   UNL     1       2.764  44.973   0.877  1.00  0.00    -0.000 C 
BRANCH  24  25
ATOM     25  C   UNL     1       1.620  46.002   0.943  1.00  0.00    -0.000 C 
BRANCH  25  26
ATOM     26  C   UNL     1       1.327  46.564   2.348  1.00  0.00    -0.000 C 
BRANCH  26  27
ATOM     27  C   UNL     1       1.289  45.477   3.437  1.00  0.00    -0.000 C 
BRANCH  27  28
ATOM     28  C   UNL     1      -0.073  45.403   4.145  1.00  0.00    -0.000 C 
BRANCH  28  29
ATOM     29  C   UNL     1      -0.228  44.129   4.987  1.00  0.00    -0.003 C 
ATOM     30  C   UNL     1       1.038  43.847   5.792  1.00  0.00     0.004 C 
ENDBRANCH  28  29
ENDBRANCH  27  28
ENDBRANCH  26  27
ENDBRANCH  25  26
ENDBRANCH  24  25
ENDBRANCH  23  24
ENDBRANCH  22  23
ENDBRANCH  21  22
ENDBRANCH  20  21
ENDBRANCH  19  20
ENDBRANCH  18  19
ENDBRANCH  17  18
ENDBRANCH   1  17
TORSDOF 26
ENDMDL
