MODEL 1
REMARK VINA RESULT:    -4.108      0.000      0.000
REMARK INTER + INTRA:          -4.520
REMARK INTER:                  -4.468
REMARK INTRA:                  -0.051
REMARK UNBOUND:                -0.051
REMARK SMILES COc1cc2ccc(=O)oc2cc1O
REMARK SMILES IDX 3 1 13 2 12 3 11 4 5 5 4 6 6 7 7 8 8 9 9 10 10 11 2 12 1 13
REMARK SMILES IDX 14 14
REMARK H PARENT 14 15
REMARK Flexibility Score: inf
ROOT
ATOM      1  C   UNL     1      25.115  40.260   2.996  1.00  0.00     0.161 A 
ATOM      2  C   UNL     1      26.430  39.945   3.389  1.00  0.00     0.161 A 
ATOM      3  C   UNL     1      27.395  39.621   2.427  1.00  0.00     0.098 A 
ATOM      4  C   UNL     1      27.064  39.606   1.071  1.00  0.00     0.142 A 
ATOM      5  C   UNL     1      25.749  39.920   0.667  1.00  0.00     0.022 A 
ATOM      6  C   UNL     1      24.781  40.245   1.627  1.00  0.00     0.062 A 
ATOM      7  C   UNL     1      25.449  39.896  -0.699  1.00  0.00     0.019 A 
ATOM      8  C   UNL     1      26.447  39.566  -1.615  1.00  0.00     0.094 A 
ATOM      9  C   UNL     1      27.728  39.267  -1.140  1.00  0.00     0.336 A 
ATOM     10  O   UNL     1      28.644  38.967  -1.951  1.00  0.00    -0.246 OA
ATOM     11  O   UNL     1      27.988  39.297   0.164  1.00  0.00    -0.423 OA
ENDROOT
BRANCH   1  12
ATOM     12  O   UNL     1      24.172  40.581   3.986  1.00  0.00    -0.493 OA
ATOM     13  C   UNL     1      23.925  41.896   4.472  1.00  0.00     0.278 C 
ENDBRANCH   1  12
BRANCH   2  14
ATOM     14  O   UNL     1      26.800  39.950   4.734  1.00  0.00    -0.504 OA
ATOM     15  H   UNL     1      27.747  39.752   5.034  1.00  0.00     0.293 HD
ENDBRANCH   2  14
TORSDOF 2
ENDMDL
MODEL 2
REMARK VINA RESULT:    -4.020     15.776     17.461
REMARK INTER + INTRA:          -4.423
REMARK INTER:                  -4.424
REMARK INTRA:                   0.001
REMARK UNBOUND:                -0.051
REMARK SMILES COc1cc2ccc(=O)oc2cc1O
REMARK SMILES IDX 3 1 13 2 12 3 11 4 5 5 4 6 6 7 7 8 8 9 9 10 10 11 2 12 1 13
REMARK SMILES IDX 14 14
REMARK H PARENT 14 15
REMARK Flexibility Score: inf
ROOT
ATOM      1  C   UNL     1      43.044  32.366   3.002  1.00  0.00     0.161 A 
ATOM      2  C   UNL     1      41.755  32.737   3.432  1.00  0.00     0.161 A 
ATOM      3  C   UNL     1      40.759  33.041   2.497  1.00  0.00     0.098 A 
ATOM      4  C   UNL     1      41.031  32.979   1.128  1.00  0.00     0.142 A 
ATOM      5  C   UNL     1      42.319  32.610   0.687  1.00  0.00     0.022 A 
ATOM      6  C   UNL     1      43.319  32.305   1.620  1.00  0.00     0.062 A 
ATOM      7  C   UNL     1      42.561  32.558  -0.690  1.00  0.00     0.019 A 
ATOM      8  C   UNL     1      41.533  32.871  -1.579  1.00  0.00     0.094 A 
ATOM      9  C   UNL     1      40.281  33.229  -1.067  1.00  0.00     0.336 A 
ATOM     10  O   UNL     1      39.340  33.514  -1.853  1.00  0.00    -0.246 OA
ATOM     11  O   UNL     1      40.077  33.270   0.247  1.00  0.00    -0.423 OA
ENDROOT
BRANCH   1  12
ATOM     12  O   UNL     1      44.020  32.069   3.966  1.00  0.00    -0.493 OA
ATOM     13  C   UNL     1      44.125  30.826   4.653  1.00  0.00     0.278 C 
ENDBRANCH   1  12
BRANCH   2  14
ATOM     14  O   UNL     1      41.443  32.809   4.790  1.00  0.00    -0.504 OA
ATOM     15  H   UNL     1      42.087  33.192   5.472  1.00  0.00     0.293 HD
ENDBRANCH   2  14
TORSDOF 2
ENDMDL
MODEL 3
REMARK VINA RESULT:    -3.974      1.383      5.372
REMARK INTER + INTRA:          -4.374
REMARK INTER:                  -4.310
REMARK INTRA:                  -0.064
REMARK UNBOUND:                -0.051
REMARK SMILES COc1cc2ccc(=O)oc2cc1O
REMARK SMILES IDX 3 1 13 2 12 3 11 4 5 5 4 6 6 7 7 8 8 9 9 10 10 11 2 12 1 13
REMARK SMILES IDX 14 14
REMARK H PARENT 14 15
REMARK Flexibility Score: inf
ROOT
ATOM      1  C   UNL     1      27.762  38.924  -0.172  1.00  0.00     0.161 A 
ATOM      2  C   UNL     1      26.525  39.214  -0.780  1.00  0.00     0.161 A 
ATOM      3  C   UNL     1      25.503  39.826  -0.044  1.00  0.00     0.098 A 
ATOM      4  C   UNL     1      25.699  40.154   1.300  1.00  0.00     0.142 A 
ATOM      5  C   UNL     1      26.934  39.867   1.918  1.00  0.00     0.022 A 
ATOM      6  C   UNL     1      27.959  39.255   1.184  1.00  0.00     0.062 A 
ATOM      7  C   UNL     1      27.099  40.208   3.265  1.00  0.00     0.019 A 
ATOM      8  C   UNL     1      26.048  40.815   3.952  1.00  0.00     0.094 A 
ATOM      9  C   UNL     1      24.852  41.069   3.272  1.00  0.00     0.336 A 
ATOM     10  O   UNL     1      23.892  41.618   3.874  1.00  0.00    -0.246 OA
ATOM     11  O   UNL     1      24.721  40.736   1.991  1.00  0.00    -0.423 OA
ENDROOT
BRANCH   1  12
ATOM     12  O   UNL     1      28.765  38.310  -0.938  1.00  0.00    -0.493 OA
ATOM     13  C   UNL     1      29.012  36.908  -0.973  1.00  0.00     0.278 C 
ENDBRANCH   1  12
BRANCH   2  14
ATOM     14  O   UNL     1      26.291  38.902  -2.119  1.00  0.00    -0.504 OA
ATOM     15  H   UNL     1      26.677  39.453  -2.876  1.00  0.00     0.293 HD
ENDBRANCH   2  14
TORSDOF 2
ENDMDL
MODEL 4
REMARK VINA RESULT:    -3.935      1.360      5.055
REMARK INTER + INTRA:          -4.331
REMARK INTER:                  -4.279
REMARK INTRA:                  -0.052
REMARK UNBOUND:                -0.051
REMARK SMILES COc1cc2ccc(=O)oc2cc1O
REMARK SMILES IDX 3 1 13 2 12 3 11 4 5 5 4 6 6 7 7 8 8 9 9 10 10 11 2 12 1 13
REMARK SMILES IDX 14 14
REMARK H PARENT 14 15
REMARK Flexibility Score: inf
ROOT
ATOM      1  C   UNL     1      25.848  39.775   0.876  1.00  0.00     0.161 A 
ATOM      2  C   UNL     1      27.146  39.752   1.425  1.00  0.00     0.161 A 
ATOM      3  C   UNL     1      27.385  40.297   2.692  1.00  0.00     0.098 A 
ATOM      4  C   UNL     1      26.343  40.867   3.425  1.00  0.00     0.142 A 
ATOM      5  C   UNL     1      25.040  40.895   2.885  1.00  0.00     0.022 A 
ATOM      6  C   UNL     1      24.796  40.351   1.616  1.00  0.00     0.062 A 
ATOM      7  C   UNL     1      24.017  41.474   3.643  1.00  0.00     0.019 A 
ATOM      8  C   UNL     1      24.311  42.003   4.900  1.00  0.00     0.094 A 
ATOM      9  C   UNL     1      25.626  41.939   5.370  1.00  0.00     0.336 A 
ATOM     10  O   UNL     1      25.912  42.410   6.502  1.00  0.00    -0.246 OA
ATOM     11  O   UNL     1      26.581  41.383   4.629  1.00  0.00    -0.423 OA
ENDROOT
BRANCH   1  12
ATOM     12  O   UNL     1      25.643  39.220  -0.397  1.00  0.00    -0.493 OA
ATOM     13  C   UNL     1      25.749  39.941  -1.620  1.00  0.00     0.278 C 
ENDBRANCH   1  12
BRANCH   2  14
ATOM     14  O   UNL     1      28.213  39.191   0.724  1.00  0.00    -0.504 OA
ATOM     15  H   UNL     1      28.125  38.319   0.215  1.00  0.00     0.293 HD
ENDBRANCH   2  14
TORSDOF 2
ENDMDL
MODEL 5
REMARK VINA RESULT:    -3.929      1.661      2.077
REMARK INTER + INTRA:          -4.324
REMARK INTER:                  -4.259
REMARK INTRA:                  -0.065
REMARK UNBOUND:                -0.051
REMARK SMILES COc1cc2ccc(=O)oc2cc1O
REMARK SMILES IDX 3 1 13 2 12 3 11 4 5 5 4 6 6 7 7 8 8 9 9 10 10 11 2 12 1 13
REMARK SMILES IDX 14 14
REMARK H PARENT 14 15
REMARK Flexibility Score: inf
ROOT
ATOM      1  C   UNL     1      25.054  41.840   4.223  1.00  0.00     0.161 A 
ATOM      2  C   UNL     1      26.449  41.672   4.120  1.00  0.00     0.161 A 
ATOM      3  C   UNL     1      26.996  40.965   3.043  1.00  0.00     0.098 A 
ATOM      4  C   UNL     1      26.168  40.420   2.060  1.00  0.00     0.142 A 
ATOM      5  C   UNL     1      24.770  40.582   2.155  1.00  0.00     0.022 A 
ATOM      6  C   UNL     1      24.217  41.289   3.232  1.00  0.00     0.062 A 
ATOM      7  C   UNL     1      23.966  40.023   1.155  1.00  0.00     0.019 A 
ATOM      8  C   UNL     1      24.563  39.328   0.104  1.00  0.00     0.094 A 
ATOM      9  C   UNL     1      25.957  39.208   0.077  1.00  0.00     0.336 A 
ATOM     10  O   UNL     1      26.515  38.585  -0.863  1.00  0.00    -0.246 OA
ATOM     11  O   UNL     1      26.698  39.749   1.040  1.00  0.00    -0.423 OA
ENDROOT
BRANCH   1  12
ATOM     12  O   UNL     1      24.537  42.554   5.316  1.00  0.00    -0.493 OA
ATOM     13  C   UNL     1      23.921  41.958   6.452  1.00  0.00     0.278 C 
ENDBRANCH   1  12
BRANCH   2  14
ATOM     14  O   UNL     1      27.310  42.203   5.081  1.00  0.00    -0.504 OA
ATOM     15  H   UNL     1      28.016  42.891   4.851  1.00  0.00     0.293 HD
ENDBRANCH   2  14
TORSDOF 2
ENDMDL
MODEL 6
REMARK VINA RESULT:    -3.897      1.789      2.667
REMARK INTER + INTRA:          -4.290
REMARK INTER:                  -4.224
REMARK INTRA:                  -0.065
REMARK UNBOUND:                -0.051
REMARK SMILES COc1cc2ccc(=O)oc2cc1O
REMARK SMILES IDX 3 1 13 2 12 3 11 4 5 5 4 6 6 7 7 8 8 9 9 10 10 11 2 12 1 13
REMARK SMILES IDX 14 14
REMARK H PARENT 14 15
REMARK Flexibility Score: inf
ROOT
ATOM      1  C   UNL     1      26.126  40.823   4.225  1.00  0.00     0.161 A 
ATOM      2  C   UNL     1      24.809  41.112   3.816  1.00  0.00     0.161 A 
ATOM      3  C   UNL     1      24.414  40.879   2.494  1.00  0.00     0.098 A 
ATOM      4  C   UNL     1      25.319  40.359   1.566  1.00  0.00     0.142 A 
ATOM      5  C   UNL     1      26.640  40.068   1.965  1.00  0.00     0.022 A 
ATOM      6  C   UNL     1      27.040  40.299   3.289  1.00  0.00     0.062 A 
ATOM      7  C   UNL     1      27.524  39.549   1.013  1.00  0.00     0.019 A 
ATOM      8  C   UNL     1      27.079  39.337  -0.291  1.00  0.00     0.094 A 
ATOM      9  C   UNL     1      25.754  39.649  -0.614  1.00  0.00     0.336 A 
ATOM     10  O   UNL     1      25.333  39.465  -1.785  1.00  0.00    -0.246 OA
ATOM     11  O   UNL     1      24.934  40.141   0.311  1.00  0.00    -0.423 OA
ENDROOT
BRANCH   1  12
ATOM     12  O   UNL     1      26.489  41.069   5.559  1.00  0.00    -0.493 OA
ATOM     13  C   UNL     1      27.203  42.217   6.004  1.00  0.00     0.278 C 
ENDBRANCH   1  12
BRANCH   2  14
ATOM     14  O   UNL     1      23.875  41.630   4.713  1.00  0.00    -0.504 OA
ATOM     15  H   UNL     1      24.113  41.851   5.673  1.00  0.00     0.293 HD
ENDBRANCH   2  14
TORSDOF 2
ENDMDL
MODEL 7
REMARK VINA RESULT:    -3.888     16.406     18.352
REMARK INTER + INTRA:          -4.280
REMARK INTER:                  -4.215
REMARK INTRA:                  -0.065
REMARK UNBOUND:                -0.051
REMARK SMILES COc1cc2ccc(=O)oc2cc1O
REMARK SMILES IDX 3 1 13 2 12 3 11 4 5 5 4 6 6 7 7 8 8 9 9 10 10 11 2 12 1 13
REMARK SMILES IDX 14 14
REMARK H PARENT 14 15
REMARK Flexibility Score: inf
ROOT
ATOM      1  C   UNL     1      41.940  32.860   0.810  1.00  0.00     0.161 A 
ATOM      2  C   UNL     1      40.714  32.968   1.496  1.00  0.00     0.161 A 
ATOM      3  C   UNL     1      40.609  32.539   2.824  1.00  0.00     0.098 A 
ATOM      4  C   UNL     1      41.716  31.999   3.483  1.00  0.00     0.142 A 
ATOM      5  C   UNL     1      42.947  31.886   2.805  1.00  0.00     0.022 A 
ATOM      6  C   UNL     1      43.057  32.316   1.475  1.00  0.00     0.062 A 
ATOM      7  C   UNL     1      44.038  31.341   3.491  1.00  0.00     0.019 A 
ATOM      8  C   UNL     1      43.878  30.928   4.813  1.00  0.00     0.094 A 
ATOM      9  C   UNL     1      42.626  31.072   5.421  1.00  0.00     0.336 A 
ATOM     10  O   UNL     1      42.462  30.706   6.614  1.00  0.00    -0.246 OA
ATOM     11  O   UNL     1      41.606  31.594   4.746  1.00  0.00    -0.423 OA
ENDROOT
BRANCH   1  12
ATOM     12  O   UNL     1      42.011  33.300  -0.521  1.00  0.00    -0.493 OA
ATOM     13  C   UNL     1      41.992  32.444  -1.658  1.00  0.00     0.278 C 
ENDBRANCH   1  12
BRANCH   2  14
ATOM     14  O   UNL     1      39.586  33.503   0.874  1.00  0.00    -0.504 OA
ATOM     15  H   UNL     1      39.591  34.418   0.441  1.00  0.00     0.293 HD
ENDBRANCH   2  14
TORSDOF 2
ENDMDL
MODEL 8
REMARK VINA RESULT:    -3.863     16.864     18.754
REMARK INTER + INTRA:          -4.253
REMARK INTER:                  -4.201
REMARK INTRA:                  -0.051
REMARK UNBOUND:                -0.051
REMARK SMILES COc1cc2ccc(=O)oc2cc1O
REMARK SMILES IDX 3 1 13 2 12 3 11 4 5 5 4 6 6 7 7 8 8 9 9 10 10 11 2 12 1 13
REMARK SMILES IDX 14 14
REMARK H PARENT 14 15
REMARK Flexibility Score: inf
ROOT
ATOM      1  C   UNL     1      41.970  33.015   0.867  1.00  0.00     0.161 A 
ATOM      2  C   UNL     1      43.364  32.822   0.801  1.00  0.00     0.161 A 
ATOM      3  C   UNL     1      44.029  32.132   1.821  1.00  0.00     0.098 A 
ATOM      4  C   UNL     1      43.319  31.628   2.914  1.00  0.00     0.142 A 
ATOM      5  C   UNL     1      41.923  31.817   2.989  1.00  0.00     0.022 A 
ATOM      6  C   UNL     1      41.254  32.507   1.969  1.00  0.00     0.062 A 
ATOM      7  C   UNL     1      41.241  31.302   4.096  1.00  0.00     0.019 A 
ATOM      8  C   UNL     1      41.952  30.623   5.085  1.00  0.00     0.094 A 
ATOM      9  C   UNL     1      43.336  30.474   4.942  1.00  0.00     0.336 A 
ATOM     10  O   UNL     1      43.996  29.864   5.823  1.00  0.00    -0.246 OA
ATOM     11  O   UNL     1      43.961  30.974   3.879  1.00  0.00    -0.423 OA
ENDROOT
BRANCH   1  12
ATOM     12  O   UNL     1      41.335  33.712  -0.173  1.00  0.00    -0.493 OA
ATOM     13  C   UNL     1      40.803  33.105  -1.346  1.00  0.00     0.278 C 
ENDBRANCH   1  12
BRANCH   2  14
ATOM     14  O   UNL     1      44.108  33.308  -0.274  1.00  0.00    -0.504 OA
ATOM     15  H   UNL     1      45.119  33.250  -0.301  1.00  0.00     0.293 HD
ENDBRANCH   2  14
TORSDOF 2
ENDMDL
MODEL 9
REMARK VINA RESULT:    -3.848     16.898     18.244
REMARK INTER + INTRA:          -4.237
REMARK INTER:                  -4.172
REMARK INTRA:                  -0.065
REMARK UNBOUND:                -0.051
REMARK SMILES COc1cc2ccc(=O)oc2cc1O
REMARK SMILES IDX 3 1 13 2 12 3 11 4 5 5 4 6 6 7 7 8 8 9 9 10 10 11 2 12 1 13
REMARK SMILES IDX 14 14
REMARK H PARENT 14 15
REMARK Flexibility Score: inf
ROOT
ATOM      1  C   UNL     1      42.973  31.394   4.309  1.00  0.00     0.161 A 
ATOM      2  C   UNL     1      41.583  31.604   4.215  1.00  0.00     0.161 A 
ATOM      3  C   UNL     1      41.024  32.109   3.035  1.00  0.00     0.098 A 
ATOM      4  C   UNL     1      41.837  32.410   1.940  1.00  0.00     0.142 A 
ATOM      5  C   UNL     1      43.230  32.205   2.025  1.00  0.00     0.022 A 
ATOM      6  C   UNL     1      43.793  31.699   3.204  1.00  0.00     0.062 A 
ATOM      7  C   UNL     1      44.017  32.517   0.911  1.00  0.00     0.019 A 
ATOM      8  C   UNL     1      43.410  33.018  -0.239  1.00  0.00     0.094 A 
ATOM      9  C   UNL     1      42.022  33.195  -0.250  1.00  0.00     0.336 A 
ATOM     10  O   UNL     1      41.454  33.646  -1.279  1.00  0.00    -0.246 OA
ATOM     11  O   UNL     1      41.296  32.890   0.822  1.00  0.00    -0.423 OA
ENDROOT
BRANCH   1  12
ATOM     12  O   UNL     1      43.501  30.887   5.507  1.00  0.00    -0.493 OA
ATOM     13  C   UNL     1      44.125  31.676   6.514  1.00  0.00     0.278 C 
ENDBRANCH   1  12
BRANCH   2  14
ATOM     14  O   UNL     1      40.738  31.314   5.286  1.00  0.00    -0.504 OA
ATOM     15  H   UNL     1      40.938  30.572   5.946  1.00  0.00     0.293 HD
ENDBRANCH   2  14
TORSDOF 2
ENDMDL
