MODEL 1
REMARK VINA RESULT:    -3.595      0.000      0.000
REMARK INTER + INTRA:         -10.261
REMARK INTER:                  -9.060
REMARK INTRA:                  -1.201
REMARK UNBOUND:                -1.201
REMARK SMILES CCCCCCCCCCCCCCCCCCCCCCCCCCCC(=O)[O-]
REMARK SMILES IDX 15 1 16 2 17 3 18 4 19 5 20 6 21 7 22 8 23 9 24 10 25 11
REMARK SMILES IDX 26 12 27 13 28 14 29 15 30 16 14 17 13 18 12 19 11 20 10 21
REMARK SMILES IDX 9 22 8 23 7 24 6 25 5 26 4 27 3 28 2 29 1 30
REMARK H PARENT
REMARK Flexibility Score: inf
ROOT
ATOM      1  C   UNL     1      31.974  24.608  68.413  1.00  0.00     0.000 C 
ENDROOT
BRANCH   1   2
ATOM      2  C   UNL     1      31.170  24.167  69.647  1.00  0.00     0.000 C 
BRANCH   2   3
ATOM      3  C   UNL     1      31.693  24.788  70.955  1.00  0.00     0.000 C 
BRANCH   3   4
ATOM      4  C   UNL     1      32.438  26.111  70.716  1.00  0.00     0.000 C 
BRANCH   4   5
ATOM      5  C   UNL     1      33.882  26.075  71.235  1.00  0.00     0.000 C 
BRANCH   5   6
ATOM      6  C   UNL     1      34.450  24.648  71.189  1.00  0.00     0.000 C 
BRANCH   6   7
ATOM      7  C   UNL     1      35.692  24.534  70.279  1.00  0.00     0.000 C 
BRANCH   7   8
ATOM      8  C   UNL     1      37.004  24.990  70.947  1.00  0.00     0.000 C 
BRANCH   8   9
ATOM      9  C   UNL     1      37.830  23.875  71.615  1.00  0.00     0.000 C 
BRANCH   9  10
ATOM     10  C   UNL     1      39.295  24.244  71.918  1.00  0.00     0.000 C 
BRANCH  10  11
ATOM     11  C   UNL     1      39.550  24.495  73.411  1.00  0.00     0.000 C 
BRANCH  11  12
ATOM     12  C   UNL     1      39.406  25.984  73.747  1.00  0.00     0.006 C 
BRANCH  12  13
ATOM     13  C   UNL     1      39.859  26.273  75.181  1.00  0.00     0.053 C 
BRANCH  13  14
ATOM     14  C   UNL     1      39.545  27.686  75.565  1.00  0.00     0.041 C 
ATOM     15  O   UNL     1      39.382  28.567  74.679  1.00  0.00    -0.550 OA
ATOM     16  O   UNL     1      39.462  28.040  76.907  1.00  0.00    -0.550 OA
ENDBRANCH  13  14
ENDBRANCH  12  13
ENDBRANCH  11  12
ENDBRANCH  10  11
ENDBRANCH   9  10
ENDBRANCH   8   9
ENDBRANCH   7   8
ENDBRANCH   6   7
ENDBRANCH   5   6
ENDBRANCH   4   5
ENDBRANCH   3   4
ENDBRANCH   2   3
ENDBRANCH   1   2
BRANCH   1  17
ATOM     17  C   UNL     1      33.327  23.894  68.227  1.00  0.00     0.000 C 
BRANCH  17  18
ATOM     18  C   UNL     1      33.892  23.984  66.792  1.00  0.00     0.000 C 
BRANCH  18  19
ATOM     19  C   UNL     1      32.787  23.938  65.724  1.00  0.00     0.000 C 
BRANCH  19  20
ATOM     20  C   UNL     1      33.249  24.523  64.370  1.00  0.00     0.000 C 
BRANCH  20  21
ATOM     21  C   UNL     1      32.196  24.394  63.256  1.00  0.00     0.000 C 
BRANCH  21  22
ATOM     22  C   UNL     1      30.744  24.292  63.757  1.00  0.00    -0.000 C 
BRANCH  22  23
ATOM     23  C   UNL     1      29.684  24.572  62.666  1.00  0.00    -0.000 C 
BRANCH  23  24
ATOM     24  C   UNL     1      28.822  25.809  62.971  1.00  0.00    -0.000 C 
BRANCH  24  25
ATOM     25  C   UNL     1      27.362  25.644  62.518  1.00  0.00    -0.000 C 
BRANCH  25  26
ATOM     26  C   UNL     1      27.112  24.310  61.793  1.00  0.00    -0.000 C 
BRANCH  26  27
ATOM     27  C   UNL     1      25.619  24.062  61.522  1.00  0.00    -0.000 C 
BRANCH  27  28
ATOM     28  C   UNL     1      24.710  25.016  62.317  1.00  0.00    -0.000 C 
BRANCH  28  29
ATOM     29  C   UNL     1      23.681  24.268  63.178  1.00  0.00    -0.003 C 
ATOM     30  C   UNL     1      22.988  25.173  64.197  1.00  0.00     0.004 C 
ENDBRANCH  28  29
ENDBRANCH  27  28
ENDBRANCH  26  27
ENDBRANCH  25  26
ENDBRANCH  24  25
ENDBRANCH  23  24
ENDBRANCH  22  23
ENDBRANCH  21  22
ENDBRANCH  20  21
ENDBRANCH  19  20
ENDBRANCH  18  19
ENDBRANCH  17  18
ENDBRANCH   1  17
TORSDOF 26
ENDMDL
MODEL 2
REMARK VINA RESULT:    -3.543      3.779      6.655
REMARK INTER + INTRA:         -10.130
REMARK INTER:                  -8.384
REMARK INTRA:                  -1.746
REMARK UNBOUND:                -1.201
REMARK SMILES CCCCCCCCCCCCCCCCCCCCCCCCCCCC(=O)[O-]
REMARK SMILES IDX 15 1 16 2 17 3 18 4 19 5 20 6 21 7 22 8 23 9 24 10 25 11
REMARK SMILES IDX 26 12 27 13 28 14 29 15 30 16 14 17 13 18 12 19 11 20 10 21
REMARK SMILES IDX 9 22 8 23 7 24 6 25 5 26 4 27 3 28 2 29 1 30
REMARK H PARENT
REMARK Flexibility Score: inf
ROOT
ATOM      1  C   UNL     1      32.254  27.204  63.085  1.00  0.00     0.000 C 
ENDROOT
BRANCH   1   2
ATOM      2  C   UNL     1      32.589  26.642  61.694  1.00  0.00     0.000 C 
BRANCH   2   3
ATOM      3  C   UNL     1      33.484  25.391  61.753  1.00  0.00     0.000 C 
BRANCH   3   4
ATOM      4  C   UNL     1      32.744  24.173  62.331  1.00  0.00     0.000 C 
BRANCH   4   5
ATOM      5  C   UNL     1      33.148  23.875  63.782  1.00  0.00     0.000 C 
BRANCH   5   6
ATOM      6  C   UNL     1      32.242  24.623  64.771  1.00  0.00     0.000 C 
BRANCH   6   7
ATOM      7  C   UNL     1      32.355  24.075  66.210  1.00  0.00     0.000 C 
BRANCH   7   8
ATOM      8  C   UNL     1      33.800  24.004  66.743  1.00  0.00     0.000 C 
BRANCH   8   9
ATOM      9  C   UNL     1      33.943  24.057  68.276  1.00  0.00     0.000 C 
BRANCH   9  10
ATOM     10  C   UNL     1      35.356  24.399  68.785  1.00  0.00     0.000 C 
BRANCH  10  11
ATOM     11  C   UNL     1      35.362  25.546  69.805  1.00  0.00     0.000 C 
BRANCH  11  12
ATOM     12  C   UNL     1      34.459  25.217  71.001  1.00  0.00     0.006 C 
BRANCH  12  13
ATOM     13  C   UNL     1      33.459  26.347  71.265  1.00  0.00     0.053 C 
BRANCH  13  14
ATOM     14  C   UNL     1      32.053  25.871  71.073  1.00  0.00     0.041 C 
ATOM     15  O   UNL     1      31.090  26.680  71.144  1.00  0.00    -0.550 OA
ATOM     16  O   UNL     1      31.800  24.523  70.845  1.00  0.00    -0.550 OA
ENDBRANCH  13  14
ENDBRANCH  12  13
ENDBRANCH  11  12
ENDBRANCH  10  11
ENDBRANCH   9  10
ENDBRANCH   8   9
ENDBRANCH   7   8
ENDBRANCH   6   7
ENDBRANCH   5   6
ENDBRANCH   4   5
ENDBRANCH   3   4
ENDBRANCH   2   3
ENDBRANCH   1   2
BRANCH   1  17
ATOM     17  C   UNL     1      30.868  27.866  63.206  1.00  0.00     0.000 C 
BRANCH  17  18
ATOM     18  C   UNL     1      29.773  27.189  62.353  1.00  0.00     0.000 C 
BRANCH  18  19
ATOM     19  C   UNL     1      29.139  25.981  63.063  1.00  0.00     0.000 C 
BRANCH  19  20
ATOM     20  C   UNL     1      29.211  24.692  62.215  1.00  0.00     0.000 C 
BRANCH  20  21
ATOM     21  C   UNL     1      27.832  24.087  61.902  1.00  0.00     0.000 C 
BRANCH  21  22
ATOM     22  C   UNL     1      26.642  25.018  62.199  1.00  0.00    -0.000 C 
BRANCH  22  23
ATOM     23  C   UNL     1      25.278  24.292  62.263  1.00  0.00    -0.000 C 
BRANCH  23  24
ATOM     24  C   UNL     1      24.188  24.991  61.433  1.00  0.00    -0.000 C 
BRANCH  24  25
ATOM     25  C   UNL     1      24.611  26.387  60.946  1.00  0.00    -0.000 C 
BRANCH  25  26
ATOM     26  C   UNL     1      23.794  26.865  59.733  1.00  0.00    -0.000 C 
BRANCH  26  27
ATOM     27  C   UNL     1      24.354  28.162  59.125  1.00  0.00    -0.000 C 
BRANCH  27  28
ATOM     28  C   UNL     1      23.337  29.316  59.165  1.00  0.00    -0.000 C 
BRANCH  28  29
ATOM     29  C   UNL     1      23.445  30.239  57.940  1.00  0.00    -0.003 C 
ATOM     30  C   UNL     1      24.751  31.035  57.910  1.00  0.00     0.004 C 
ENDBRANCH  28  29
ENDBRANCH  27  28
ENDBRANCH  26  27
ENDBRANCH  25  26
ENDBRANCH  24  25
ENDBRANCH  23  24
ENDBRANCH  22  23
ENDBRANCH  21  22
ENDBRANCH  20  21
ENDBRANCH  19  20
ENDBRANCH  18  19
ENDBRANCH  17  18
ENDBRANCH   1  17
TORSDOF 26
ENDMDL
MODEL 3
REMARK VINA RESULT:    -2.565      2.760      5.466
REMARK INTER + INTRA:          -7.665
REMARK INTER:                  -5.942
REMARK INTRA:                  -1.723
REMARK UNBOUND:                -1.201
REMARK SMILES CCCCCCCCCCCCCCCCCCCCCCCCCCCC(=O)[O-]
REMARK SMILES IDX 15 1 16 2 17 3 18 4 19 5 20 6 21 7 22 8 23 9 24 10 25 11
REMARK SMILES IDX 26 12 27 13 28 14 29 15 30 16 14 17 13 18 12 19 11 20 10 21
REMARK SMILES IDX 9 22 8 23 7 24 6 25 5 26 4 27 3 28 2 29 1 30
REMARK H PARENT
REMARK Flexibility Score: inf
ROOT
ATOM      1  C   UNL     1      33.786  26.001  62.202  1.00  0.00     0.000 C 
ENDROOT
BRANCH   1   2
ATOM      2  C   UNL     1      33.521  24.487  62.178  1.00  0.00     0.000 C 
BRANCH   2   3
ATOM      3  C   UNL     1      32.547  24.032  63.280  1.00  0.00     0.000 C 
BRANCH   3   4
ATOM      4  C   UNL     1      31.793  25.212  63.915  1.00  0.00     0.000 C 
BRANCH   4   5
ATOM      5  C   UNL     1      31.010  24.802  65.170  1.00  0.00     0.000 C 
BRANCH   5   6
ATOM      6  C   UNL     1      31.847  23.875  66.064  1.00  0.00     0.000 C 
BRANCH   6   7
ATOM      7  C   UNL     1      32.280  24.554  67.381  1.00  0.00     0.000 C 
BRANCH   7   8
ATOM      8  C   UNL     1      31.430  24.152  68.603  1.00  0.00     0.000 C 
BRANCH   8   9
ATOM      9  C   UNL     1      32.217  23.906  69.905  1.00  0.00     0.000 C 
BRANCH   9  10
ATOM     10  C   UNL     1      33.721  24.231  69.827  1.00  0.00     0.000 C 
BRANCH  10  11
ATOM     11  C   UNL     1      34.027  25.711  70.097  1.00  0.00     0.000 C 
BRANCH  11  12
ATOM     12  C   UNL     1      35.323  25.862  70.902  1.00  0.00     0.006 C 
BRANCH  12  13
ATOM     13  C   UNL     1      35.850  24.499  71.361  1.00  0.00     0.053 C 
BRANCH  13  14
ATOM     14  C   UNL     1      37.131  24.160  70.665  1.00  0.00     0.041 C 
ATOM     15  O   UNL     1      38.187  23.974  71.328  1.00  0.00    -0.550 OA
ATOM     16  O   UNL     1      37.170  24.080  69.279  1.00  0.00    -0.550 OA
ENDBRANCH  13  14
ENDBRANCH  12  13
ENDBRANCH  11  12
ENDBRANCH  10  11
ENDBRANCH   9  10
ENDBRANCH   8   9
ENDBRANCH   7   8
ENDBRANCH   6   7
ENDBRANCH   5   6
ENDBRANCH   4   5
ENDBRANCH   3   4
ENDBRANCH   2   3
ENDBRANCH   1   2
BRANCH   1  17
ATOM     17  C   UNL     1      33.591  26.719  60.853  1.00  0.00     0.000 C 
BRANCH  17  18
ATOM     18  C   UNL     1      32.546  27.855  60.891  1.00  0.00     0.000 C 
BRANCH  18  19
ATOM     19  C   UNL     1      31.744  27.869  62.203  1.00  0.00     0.000 C 
BRANCH  19  20
ATOM     20  C   UNL     1      30.240  27.598  61.980  1.00  0.00     0.000 C 
BRANCH  20  21
ATOM     21  C   UNL     1      29.418  27.598  63.279  1.00  0.00     0.000 C 
BRANCH  21  22
ATOM     22  C   UNL     1      28.273  26.569  63.312  1.00  0.00    -0.000 C 
BRANCH  22  23
ATOM     23  C   UNL     1      28.179  25.696  62.040  1.00  0.00    -0.000 C 
BRANCH  23  24
ATOM     24  C   UNL     1      27.866  24.221  62.346  1.00  0.00    -0.000 C 
BRANCH  24  25
ATOM     25  C   UNL     1      26.379  23.876  62.163  1.00  0.00    -0.000 C 
BRANCH  25  26
ATOM     26  C   UNL     1      25.514  25.115  61.873  1.00  0.00    -0.000 C 
BRANCH  26  27
ATOM     27  C   UNL     1      24.122  24.744  61.333  1.00  0.00    -0.000 C 
BRANCH  27  28
ATOM     28  C   UNL     1      23.200  24.177  62.427  1.00  0.00    -0.000 C 
BRANCH  28  29
ATOM     29  C   UNL     1      23.500  24.766  63.814  1.00  0.00    -0.003 C 
ATOM     30  C   UNL     1      22.329  24.624  64.786  1.00  0.00     0.004 C 
ENDBRANCH  28  29
ENDBRANCH  27  28
ENDBRANCH  26  27
ENDBRANCH  25  26
ENDBRANCH  24  25
ENDBRANCH  23  24
ENDBRANCH  22  23
ENDBRANCH  21  22
ENDBRANCH  20  21
ENDBRANCH  19  20
ENDBRANCH  18  19
ENDBRANCH  17  18
ENDBRANCH   1  17
TORSDOF 26
ENDMDL
MODEL 4
REMARK VINA RESULT:    -2.417      2.008      3.802
REMARK INTER + INTRA:          -7.291
REMARK INTER:                  -7.590
REMARK INTRA:                   0.300
REMARK UNBOUND:                -1.201
REMARK SMILES CCCCCCCCCCCCCCCCCCCCCCCCCCCC(=O)[O-]
REMARK SMILES IDX 15 1 16 2 17 3 18 4 19 5 20 6 21 7 22 8 23 9 24 10 25 11
REMARK SMILES IDX 26 12 27 13 28 14 29 15 30 16 14 17 13 18 12 19 11 20 10 21
REMARK SMILES IDX 9 22 8 23 7 24 6 25 5 26 4 27 3 28 2 29 1 30
REMARK H PARENT
REMARK Flexibility Score: inf
ROOT
ATOM      1  C   UNL     1      33.111  23.875  64.473  1.00  0.00     0.000 C 
ENDROOT
BRANCH   1   2
ATOM      2  C   UNL     1      33.929  24.280  65.711  1.00  0.00     0.000 C 
BRANCH   2   3
ATOM      3  C   UNL     1      33.205  23.969  67.034  1.00  0.00     0.000 C 
BRANCH   3   4
ATOM      4  C   UNL     1      31.893  24.756  67.180  1.00  0.00     0.000 C 
BRANCH   4   5
ATOM      5  C   UNL     1      31.171  24.454  68.501  1.00  0.00     0.000 C 
BRANCH   5   6
ATOM      6  C   UNL     1      32.162  24.414  69.674  1.00  0.00     0.000 C 
BRANCH   6   7
ATOM      7  C   UNL     1      31.708  25.285  70.864  1.00  0.00     0.000 C 
BRANCH   7   8
ATOM      8  C   UNL     1      32.867  25.850  71.708  1.00  0.00     0.000 C 
BRANCH   8   9
ATOM      9  C   UNL     1      34.274  25.663  71.109  1.00  0.00     0.000 C 
BRANCH   9  10
ATOM     10  C   UNL     1      34.734  24.199  70.975  1.00  0.00     0.000 C 
BRANCH  10  11
ATOM     11  C   UNL     1      36.053  24.056  70.202  1.00  0.00     0.000 C 
BRANCH  11  12
ATOM     12  C   UNL     1      37.225  24.626  71.012  1.00  0.00     0.006 C 
BRANCH  12  13
ATOM     13  C   UNL     1      38.524  23.876  70.704  1.00  0.00     0.053 C 
BRANCH  13  14
ATOM     14  C   UNL     1      39.567  24.169  71.737  1.00  0.00     0.041 C 
ATOM     15  O   UNL     1      40.791  24.110  71.443  1.00  0.00    -0.550 OA
ATOM     16  O   UNL     1      39.190  24.478  73.038  1.00  0.00    -0.550 OA
ENDBRANCH  13  14
ENDBRANCH  12  13
ENDBRANCH  11  12
ENDBRANCH  10  11
ENDBRANCH   9  10
ENDBRANCH   8   9
ENDBRANCH   7   8
ENDBRANCH   6   7
ENDBRANCH   5   6
ENDBRANCH   4   5
ENDBRANCH   3   4
ENDBRANCH   2   3
ENDBRANCH   1   2
BRANCH   1  17
ATOM     17  C   UNL     1      33.735  24.270  63.121  1.00  0.00     0.000 C 
BRANCH  17  18
ATOM     18  C   UNL     1      33.274  25.647  62.594  1.00  0.00     0.000 C 
BRANCH  18  19
ATOM     19  C   UNL     1      31.748  25.823  62.675  1.00  0.00     0.000 C 
BRANCH  19  20
ATOM     20  C   UNL     1      31.137  25.133  63.915  1.00  0.00     0.000 C 
BRANCH  20  21
ATOM     21  C   UNL     1      29.758  25.689  64.308  1.00  0.00     0.000 C 
BRANCH  21  22
ATOM     22  C   UNL     1      28.941  26.263  63.135  1.00  0.00    -0.000 C 
BRANCH  22  23
ATOM     23  C   UNL     1      27.642  25.480  62.835  1.00  0.00    -0.000 C 
BRANCH  23  24
ATOM     24  C   UNL     1      27.771  24.550  61.617  1.00  0.00    -0.000 C 
BRANCH  24  25
ATOM     25  C   UNL     1      26.433  23.906  61.215  1.00  0.00    -0.000 C 
BRANCH  25  26
ATOM     26  C   UNL     1      25.324  24.144  62.254  1.00  0.00    -0.000 C 
BRANCH  26  27
ATOM     27  C   UNL     1      24.217  25.073  61.727  1.00  0.00    -0.000 C 
BRANCH  27  28
ATOM     28  C   UNL     1      22.975  25.081  62.636  1.00  0.00    -0.000 C 
BRANCH  28  29
ATOM     29  C   UNL     1      23.338  25.104  64.129  1.00  0.00    -0.003 C 
ATOM     30  C   UNL     1      22.582  24.052  64.941  1.00  0.00     0.004 C 
ENDBRANCH  28  29
ENDBRANCH  27  28
ENDBRANCH  26  27
ENDBRANCH  25  26
ENDBRANCH  24  25
ENDBRANCH  23  24
ENDBRANCH  22  23
ENDBRANCH  21  22
ENDBRANCH  20  21
ENDBRANCH  19  20
ENDBRANCH  18  19
ENDBRANCH  17  18
ENDBRANCH   1  17
TORSDOF 26
ENDMDL
MODEL 5
REMARK VINA RESULT:    -1.471      5.568     13.926
REMARK INTER + INTRA:          -4.909
REMARK INTER:                  -4.695
REMARK INTRA:                  -0.214
REMARK UNBOUND:                -1.201
REMARK SMILES CCCCCCCCCCCCCCCCCCCCCCCCCCCC(=O)[O-]
REMARK SMILES IDX 15 1 16 2 17 3 18 4 19 5 20 6 21 7 22 8 23 9 24 10 25 11
REMARK SMILES IDX 26 12 27 13 28 14 29 15 30 16 14 17 13 18 12 19 11 20 10 21
REMARK SMILES IDX 9 22 8 23 7 24 6 25 5 26 4 27 3 28 2 29 1 30
REMARK H PARENT
REMARK Flexibility Score: inf
ROOT
ATOM      1  C   UNL     1      32.855  25.894  69.632  1.00  0.00     0.000 C 
ENDROOT
BRANCH   1   2
ATOM      2  C   UNL     1      33.006  24.371  69.485  1.00  0.00     0.000 C 
BRANCH   2   3
ATOM      3  C   UNL     1      32.731  23.878  68.052  1.00  0.00     0.000 C 
BRANCH   3   4
ATOM      4  C   UNL     1      31.506  24.563  67.425  1.00  0.00     0.000 C 
BRANCH   4   5
ATOM      5  C   UNL     1      31.352  24.238  65.932  1.00  0.00     0.000 C 
BRANCH   5   6
ATOM      6  C   UNL     1      32.348  25.045  65.086  1.00  0.00     0.000 C 
BRANCH   6   7
ATOM      7  C   UNL     1      32.130  24.853  63.570  1.00  0.00     0.000 C 
BRANCH   7   8
ATOM      8  C   UNL     1      30.649  24.749  63.157  1.00  0.00     0.000 C 
BRANCH   8   9
ATOM      9  C   UNL     1      29.910  26.091  62.996  1.00  0.00     0.000 C 
BRANCH   9  10
ATOM     10  C   UNL     1      28.377  25.982  62.899  1.00  0.00     0.000 C 
BRANCH  10  11
ATOM     11  C   UNL     1      27.914  24.713  62.169  1.00  0.00     0.000 C 
BRANCH  11  12
ATOM     12  C   UNL     1      26.511  24.904  61.579  1.00  0.00     0.006 C 
BRANCH  12  13
ATOM     13  C   UNL     1      25.453  24.196  62.432  1.00  0.00     0.053 C 
BRANCH  13  14
ATOM     14  C   UNL     1      24.107  24.822  62.239  1.00  0.00     0.041 C 
ATOM     15  O   UNL     1      23.928  25.687  61.339  1.00  0.00    -0.550 OA
ATOM     16  O   UNL     1      23.051  24.474  63.073  1.00  0.00    -0.550 OA
ENDBRANCH  13  14
ENDBRANCH  12  13
ENDBRANCH  11  12
ENDBRANCH  10  11
ENDBRANCH   9  10
ENDBRANCH   8   9
ENDBRANCH   7   8
ENDBRANCH   6   7
ENDBRANCH   5   6
ENDBRANCH   4   5
ENDBRANCH   3   4
ENDBRANCH   2   3
ENDBRANCH   1   2
BRANCH   1  17
ATOM     17  C   UNL     1      33.382  26.476  70.958  1.00  0.00     0.000 C 
BRANCH  17  18
ATOM     18  C   UNL     1      33.857  25.410  71.968  1.00  0.00     0.000 C 
BRANCH  18  19
ATOM     19  C   UNL     1      34.676  24.293  71.299  1.00  0.00     0.000 C 
BRANCH  19  20
ATOM     20  C   UNL     1      36.190  24.603  71.273  1.00  0.00     0.000 C 
BRANCH  20  21
ATOM     21  C   UNL     1      36.945  23.877  70.148  1.00  0.00     0.000 C 
BRANCH  21  22
ATOM     22  C   UNL     1      38.386  24.372  69.922  1.00  0.00    -0.000 C 
BRANCH  22  23
ATOM     23  C   UNL     1      39.374  23.953  71.035  1.00  0.00    -0.000 C 
BRANCH  23  24
ATOM     24  C   UNL     1      39.537  25.024  72.127  1.00  0.00    -0.000 C 
BRANCH  24  25
ATOM     25  C   UNL     1      39.201  24.498  73.533  1.00  0.00    -0.000 C 
BRANCH  25  26
ATOM     26  C   UNL     1      39.760  25.396  74.651  1.00  0.00    -0.000 C 
BRANCH  26  27
ATOM     27  C   UNL     1      39.435  26.882  74.425  1.00  0.00    -0.000 C 
BRANCH  27  28
ATOM     28  C   UNL     1      40.416  27.816  75.155  1.00  0.00    -0.000 C 
BRANCH  28  29
ATOM     29  C   UNL     1      39.711  28.742  76.159  1.00  0.00    -0.003 C 
ATOM     30  C   UNL     1      39.177  27.996  77.382  1.00  0.00     0.004 C 
ENDBRANCH  28  29
ENDBRANCH  27  28
ENDBRANCH  26  27
ENDBRANCH  25  26
ENDBRANCH  24  25
ENDBRANCH  23  24
ENDBRANCH  22  23
ENDBRANCH  21  22
ENDBRANCH  20  21
ENDBRANCH  19  20
ENDBRANCH  18  19
ENDBRANCH  17  18
ENDBRANCH   1  17
TORSDOF 26
ENDMDL
MODEL 6
REMARK VINA RESULT:    -1.320      2.377      4.358
REMARK INTER + INTRA:          -4.527
REMARK INTER:                  -2.564
REMARK INTRA:                  -1.964
REMARK UNBOUND:                -1.201
REMARK SMILES CCCCCCCCCCCCCCCCCCCCCCCCCCCC(=O)[O-]
REMARK SMILES IDX 15 1 16 2 17 3 18 4 19 5 20 6 21 7 22 8 23 9 24 10 25 11
REMARK SMILES IDX 26 12 27 13 28 14 29 15 30 16 14 17 13 18 12 19 11 20 10 21
REMARK SMILES IDX 9 22 8 23 7 24 6 25 5 26 4 27 3 28 2 29 1 30
REMARK H PARENT
REMARK Flexibility Score: inf
ROOT
ATOM      1  C   UNL     1      33.143  25.811  72.526  1.00  0.00     0.000 C 
ENDROOT
BRANCH   1   2
ATOM      2  C   UNL     1      34.065  25.987  71.309  1.00  0.00     0.000 C 
BRANCH   2   3
ATOM      3  C   UNL     1      35.081  24.840  71.157  1.00  0.00     0.000 C 
BRANCH   3   4
ATOM      4  C   UNL     1      34.930  24.101  69.817  1.00  0.00     0.000 C 
BRANCH   4   5
ATOM      5  C   UNL     1      35.394  24.948  68.624  1.00  0.00     0.000 C 
BRANCH   5   6
ATOM      6  C   UNL     1      36.884  24.718  68.329  1.00  0.00     0.000 C 
BRANCH   6   7
ATOM      7  C   UNL     1      37.620  24.030  69.498  1.00  0.00     0.000 C 
BRANCH   7   8
ATOM      8  C   UNL     1      38.818  24.831  70.046  1.00  0.00     0.000 C 
BRANCH   8   9
ATOM      9  C   UNL     1      39.632  24.134  71.152  1.00  0.00     0.000 C 
BRANCH   9  10
ATOM     10  C   UNL     1      38.937  24.065  72.525  1.00  0.00     0.000 C 
BRANCH  10  11
ATOM     11  C   UNL     1      39.799  24.636  73.659  1.00  0.00     0.000 C 
BRANCH  11  12
ATOM     12  C   UNL     1      39.233  25.973  74.155  1.00  0.00     0.006 C 
BRANCH  12  13
ATOM     13  C   UNL     1      40.129  26.584  75.237  1.00  0.00     0.053 C 
BRANCH  13  14
ATOM     14  C   UNL     1      39.668  27.963  75.595  1.00  0.00     0.041 C 
ATOM     15  O   UNL     1      39.943  28.454  76.722  1.00  0.00    -0.550 OA
ATOM     16  O   UNL     1      38.906  28.697  74.694  1.00  0.00    -0.550 OA
ENDBRANCH  13  14
ENDBRANCH  12  13
ENDBRANCH  11  12
ENDBRANCH  10  11
ENDBRANCH   9  10
ENDBRANCH   8   9
ENDBRANCH   7   8
ENDBRANCH   6   7
ENDBRANCH   5   6
ENDBRANCH   4   5
ENDBRANCH   3   4
ENDBRANCH   2   3
ENDBRANCH   1   2
BRANCH   1  17
ATOM     17  C   UNL     1      31.709  26.344  72.341  1.00  0.00     0.000 C 
BRANCH  17  18
ATOM     18  C   UNL     1      31.336  26.647  70.873  1.00  0.00     0.000 C 
BRANCH  18  19
ATOM     19  C   UNL     1      30.426  25.567  70.265  1.00  0.00     0.000 C 
BRANCH  19  20
ATOM     20  C   UNL     1      31.070  24.163  70.297  1.00  0.00     0.000 C 
BRANCH  20  21
ATOM     21  C   UNL     1      31.970  23.875  69.084  1.00  0.00     0.000 C 
BRANCH  21  22
ATOM     22  C   UNL     1      31.584  24.639  67.804  1.00  0.00    -0.000 C 
BRANCH  22  23
ATOM     23  C   UNL     1      32.304  24.134  66.532  1.00  0.00    -0.000 C 
BRANCH  23  24
ATOM     24  C   UNL     1      32.029  25.012  65.299  1.00  0.00    -0.000 C 
BRANCH  24  25
ATOM     25  C   UNL     1      30.916  24.446  64.400  1.00  0.00    -0.000 C 
BRANCH  25  26
ATOM     26  C   UNL     1      29.750  25.431  64.209  1.00  0.00    -0.000 C 
BRANCH  26  27
ATOM     27  C   UNL     1      29.577  25.855  62.741  1.00  0.00    -0.000 C 
BRANCH  27  28
ATOM     28  C   UNL     1      29.889  27.346  62.520  1.00  0.00    -0.000 C 
BRANCH  28  29
ATOM     29  C   UNL     1      31.339  27.584  62.071  1.00  0.00    -0.003 C 
ATOM     30  C   UNL     1      32.188  28.268  63.143  1.00  0.00     0.004 C 
ENDBRANCH  28  29
ENDBRANCH  27  28
ENDBRANCH  26  27
ENDBRANCH  25  26
ENDBRANCH  24  25
ENDBRANCH  23  24
ENDBRANCH  22  23
ENDBRANCH  21  22
ENDBRANCH  20  21
ENDBRANCH  19  20
ENDBRANCH  18  19
ENDBRANCH  17  18
ENDBRANCH   1  17
TORSDOF 26
ENDMDL
