MODEL 1
REMARK VINA RESULT:    -2.805      0.000      0.000
REMARK INTER + INTRA:          -8.281
REMARK INTER:                  -5.264
REMARK INTRA:                  -3.017
REMARK UNBOUND:                -3.017
REMARK SMILES CCCCCCCCC=CCCCCCCCC(=O)[O-]
REMARK SMILES IDX 10 1 9 2 11 3 12 4 13 5 14 6 15 7 16 8 17 9 18 10 19 11
REMARK SMILES IDX 20 12 8 13 7 14 6 15 5 16 4 17 3 18 2 19 1 20
REMARK H PARENT
REMARK Flexibility Score: inf
ROOT
ATOM      1  C   UNL     1      36.485 -43.053  -1.937  1.00  0.00    -0.031 C 
ATOM      2  C   UNL     1      36.983 -41.962  -1.335  1.00  0.00    -0.031 C 
ENDROOT
BRANCH   1   3
ATOM      3  C   UNL     1      37.379 -44.120  -2.505  1.00  0.00     0.027 C 
BRANCH   3   4
ATOM      4  C   UNL     1      38.526 -43.483  -3.296  1.00  0.00     0.004 C 
BRANCH   4   5
ATOM      5  C   UNL     1      38.088 -43.150  -4.730  1.00  0.00     0.000 C 
BRANCH   5   6
ATOM      6  C   UNL     1      38.387 -41.692  -5.125  1.00  0.00     0.000 C 
BRANCH   6   7
ATOM      7  C   UNL     1      37.210 -40.716  -4.941  1.00  0.00     0.000 C 
BRANCH   7   8
ATOM      8  C   UNL     1      37.542 -39.549  -3.995  1.00  0.00     0.006 C 
BRANCH   8   9
ATOM      9  C   UNL     1      39.001 -39.584  -3.526  1.00  0.00     0.053 C 
BRANCH   9  10
ATOM     10  C   UNL     1      39.601 -38.213  -3.478  1.00  0.00     0.041 C 
ATOM     11  O   UNL     1      38.873 -37.197  -3.629  1.00  0.00    -0.550 OA
ATOM     12  O   UNL     1      40.971 -38.057  -3.298  1.00  0.00    -0.550 OA
ENDBRANCH   9  10
ENDBRANCH   8   9
ENDBRANCH   7   8
ENDBRANCH   6   7
ENDBRANCH   5   6
ENDBRANCH   4   5
ENDBRANCH   3   4
ENDBRANCH   1   3
BRANCH   2  13
ATOM     13  C   UNL     1      36.086 -40.898  -0.761  1.00  0.00     0.027 C 
BRANCH  13  14
ATOM     14  C   UNL     1      34.615 -41.335  -0.764  1.00  0.00     0.004 C 
BRANCH  14  15
ATOM     15  C   UNL     1      33.709 -40.316  -1.477  1.00  0.00     0.000 C 
BRANCH  15  16
ATOM     16  C   UNL     1      34.100 -40.103  -2.949  1.00  0.00     0.000 C 
BRANCH  16  17
ATOM     17  C   UNL     1      33.207 -40.893  -3.919  1.00  0.00    -0.000 C 
BRANCH  17  18
ATOM     18  C   UNL     1      33.908 -42.179  -4.384  1.00  0.00    -0.000 C 
BRANCH  18  19
ATOM     19  C   UNL     1      33.127 -43.447  -4.006  1.00  0.00    -0.003 C 
ATOM     20  C   UNL     1      33.989 -44.708  -4.052  1.00  0.00     0.004 C 
ENDBRANCH  18  19
ENDBRANCH  17  18
ENDBRANCH  16  17
ENDBRANCH  15  16
ENDBRANCH  14  15
ENDBRANCH  13  14
ENDBRANCH   2  13
TORSDOF 15
ENDMDL
MODEL 2
REMARK VINA RESULT:    -2.793     10.951     13.387
REMARK INTER + INTRA:          -8.259
REMARK INTER:                  -6.036
REMARK INTRA:                  -2.223
REMARK UNBOUND:                -3.017
REMARK SMILES CCCCCCCCC=CCCCCCCCC(=O)[O-]
REMARK SMILES IDX 10 1 9 2 11 3 12 4 13 5 14 6 15 7 16 8 17 9 18 10 19 11
REMARK SMILES IDX 20 12 8 13 7 14 6 15 5 16 4 17 3 18 2 19 1 20
REMARK H PARENT
REMARK Flexibility Score: inf
ROOT
ATOM      1  C   UNL     1      34.581 -39.136   6.544  1.00  0.00    -0.031 C 
ATOM      2  C   UNL     1      35.299 -38.128   6.027  1.00  0.00    -0.031 C 
ENDROOT
BRANCH   1   3
ATOM      3  C   UNL     1      34.008 -39.068   7.933  1.00  0.00     0.027 C 
BRANCH   3   4
ATOM      4  C   UNL     1      34.858 -38.147   8.812  1.00  0.00     0.004 C 
BRANCH   4   5
ATOM      5  C   UNL     1      33.997 -37.048   9.453  1.00  0.00     0.000 C 
BRANCH   5   6
ATOM      6  C   UNL     1      32.857 -37.610  10.322  1.00  0.00     0.000 C 
BRANCH   6   7
ATOM      7  C   UNL     1      32.939 -37.243  11.815  1.00  0.00     0.000 C 
BRANCH   7   8
ATOM      8  C   UNL     1      34.368 -37.334  12.376  1.00  0.00     0.006 C 
BRANCH   8   9
ATOM      9  C   UNL     1      34.786 -38.782  12.661  1.00  0.00     0.053 C 
BRANCH   9  10
ATOM     10  C   UNL     1      35.213 -38.966  14.085  1.00  0.00     0.041 C 
ATOM     11  O   UNL     1      34.826 -38.160  14.972  1.00  0.00    -0.550 OA
ATOM     12  O   UNL     1      36.065 -40.009  14.427  1.00  0.00    -0.550 OA
ENDBRANCH   9  10
ENDBRANCH   8   9
ENDBRANCH   7   8
ENDBRANCH   6   7
ENDBRANCH   5   6
ENDBRANCH   4   5
ENDBRANCH   3   4
ENDBRANCH   1   3
BRANCH   2  13
ATOM     13  C   UNL     1      35.867 -38.195   4.635  1.00  0.00     0.027 C 
BRANCH  13  14
ATOM     14  C   UNL     1      35.421 -36.999   3.784  1.00  0.00     0.004 C 
BRANCH  14  15
ATOM     15  C   UNL     1      34.490 -37.421   2.634  1.00  0.00     0.000 C 
BRANCH  15  16
ATOM     16  C   UNL     1      33.003 -37.234   2.976  1.00  0.00     0.000 C 
BRANCH  16  17
ATOM     17  C   UNL     1      32.368 -38.500   3.572  1.00  0.00    -0.000 C 
BRANCH  17  18
ATOM     18  C   UNL     1      31.377 -38.140   4.689  1.00  0.00    -0.000 C 
BRANCH  18  19
ATOM     19  C   UNL     1      31.770 -36.856   5.436  1.00  0.00    -0.003 C 
ATOM     20  C   UNL     1      31.275 -36.837   6.882  1.00  0.00     0.004 C 
ENDBRANCH  18  19
ENDBRANCH  17  18
ENDBRANCH  16  17
ENDBRANCH  15  16
ENDBRANCH  14  15
ENDBRANCH  13  14
ENDBRANCH   2  13
TORSDOF 15
ENDMDL
MODEL 3
REMARK VINA RESULT:    -2.787      3.451      7.291
REMARK INTER + INTRA:          -8.248
REMARK INTER:                  -6.414
REMARK INTRA:                  -1.833
REMARK UNBOUND:                -3.017
REMARK SMILES CCCCCCCCC=CCCCCCCCC(=O)[O-]
REMARK SMILES IDX 10 1 9 2 11 3 12 4 13 5 14 6 15 7 16 8 17 9 18 10 19 11
REMARK SMILES IDX 20 12 8 13 7 14 6 15 5 16 4 17 3 18 2 19 1 20
REMARK H PARENT
REMARK Flexibility Score: inf
ROOT
ATOM      1  C   UNL     1      38.279 -38.338  -2.930  1.00  0.00    -0.031 C 
ATOM      2  C   UNL     1      38.707 -37.106  -3.243  1.00  0.00    -0.031 C 
ENDROOT
BRANCH   1   3
ATOM      3  C   UNL     1      37.648 -39.240  -3.954  1.00  0.00     0.027 C 
BRANCH   3   4
ATOM      4  C   UNL     1      37.582 -40.676  -3.425  1.00  0.00     0.004 C 
BRANCH   4   5
ATOM      5  C   UNL     1      36.255 -40.933  -2.694  1.00  0.00     0.000 C 
BRANCH   5   6
ATOM      6  C   UNL     1      35.159 -39.918  -3.066  1.00  0.00     0.000 C 
BRANCH   6   7
ATOM      7  C   UNL     1      33.965 -40.507  -3.838  1.00  0.00     0.000 C 
BRANCH   7   8
ATOM      8  C   UNL     1      34.247 -41.913  -4.397  1.00  0.00     0.006 C 
BRANCH   8   9
ATOM      9  C   UNL     1      33.138 -42.910  -4.040  1.00  0.00     0.053 C 
BRANCH   9  10
ATOM     10  C   UNL     1      32.928 -42.999  -2.560  1.00  0.00     0.041 C 
ATOM     11  O   UNL     1      31.893 -42.509  -2.036  1.00  0.00    -0.550 OA
ATOM     12  O   UNL     1      33.890 -43.596  -1.754  1.00  0.00    -0.550 OA
ENDBRANCH   9  10
ENDBRANCH   8   9
ENDBRANCH   7   8
ENDBRANCH   6   7
ENDBRANCH   5   6
ENDBRANCH   4   5
ENDBRANCH   3   4
ENDBRANCH   1   3
BRANCH   2  13
ATOM     13  C   UNL     1      39.344 -36.207  -2.217  1.00  0.00     0.027 C 
BRANCH  13  14
ATOM     14  C   UNL     1      40.537 -36.887  -1.532  1.00  0.00     0.004 C 
BRANCH  14  15
ATOM     15  C   UNL     1      41.805 -36.016  -1.579  1.00  0.00     0.000 C 
BRANCH  15  16
ATOM     16  C   UNL     1      42.388 -35.893  -2.996  1.00  0.00     0.000 C 
BRANCH  16  17
ATOM     17  C   UNL     1      42.968 -37.218  -3.516  1.00  0.00    -0.000 C 
BRANCH  17  18
ATOM     18  C   UNL     1      42.194 -37.707  -4.750  1.00  0.00    -0.000 C 
BRANCH  18  19
ATOM     19  C   UNL     1      42.229 -39.236  -4.901  1.00  0.00    -0.003 C 
ATOM     20  C   UNL     1      41.337 -39.951  -3.888  1.00  0.00     0.004 C 
ENDBRANCH  18  19
ENDBRANCH  17  18
ENDBRANCH  16  17
ENDBRANCH  15  16
ENDBRANCH  14  15
ENDBRANCH  13  14
ENDBRANCH   2  13
TORSDOF 15
ENDMDL
MODEL 4
REMARK VINA RESULT:    -2.784     11.536     14.128
REMARK INTER + INTRA:          -8.242
REMARK INTER:                  -5.977
REMARK INTRA:                  -2.265
REMARK UNBOUND:                -3.017
REMARK SMILES CCCCCCCCC=CCCCCCCCC(=O)[O-]
REMARK SMILES IDX 10 1 9 2 11 3 12 4 13 5 14 6 15 7 16 8 17 9 18 10 19 11
REMARK SMILES IDX 20 12 8 13 7 14 6 15 5 16 4 17 3 18 2 19 1 20
REMARK H PARENT
REMARK Flexibility Score: inf
ROOT
ATOM      1  C   UNL     1      33.165 -37.654  11.866  1.00  0.00    -0.031 C 
ATOM      2  C   UNL     1      34.344 -37.161  12.272  1.00  0.00    -0.031 C 
ENDROOT
BRANCH   1   3
ATOM      3  C   UNL     1      32.529 -37.222  10.574  1.00  0.00     0.027 C 
BRANCH   3   4
ATOM      4  C   UNL     1      33.568 -36.551   9.671  1.00  0.00     0.004 C 
BRANCH   4   5
ATOM      5  C   UNL     1      33.147 -36.629   8.196  1.00  0.00     0.000 C 
BRANCH   5   6
ATOM      6  C   UNL     1      31.818 -37.379   7.990  1.00  0.00     0.000 C 
BRANCH   6   7
ATOM      7  C   UNL     1      31.618 -37.968   6.582  1.00  0.00     0.000 C 
BRANCH   7   8
ATOM      8  C   UNL     1      31.610 -36.895   5.479  1.00  0.00     0.006 C 
BRANCH   8   9
ATOM      9  C   UNL     1      32.461 -37.303   4.270  1.00  0.00     0.053 C 
BRANCH   9  10
ATOM     10  C   UNL     1      33.920 -37.334   4.603  1.00  0.00     0.041 C 
ATOM     11  O   UNL     1      34.518 -38.435   4.729  1.00  0.00    -0.550 OA
ATOM     12  O   UNL     1      34.614 -36.147   4.807  1.00  0.00    -0.550 OA
ENDBRANCH   9  10
ENDBRANCH   8   9
ENDBRANCH   7   8
ENDBRANCH   6   7
ENDBRANCH   5   6
ENDBRANCH   4   5
ENDBRANCH   3   4
ENDBRANCH   1   3
BRANCH   2  13
ATOM     13  C   UNL     1      34.982 -37.599  13.563  1.00  0.00     0.027 C 
BRANCH  13  14
ATOM     14  C   UNL     1      34.461 -38.970  14.015  1.00  0.00     0.004 C 
BRANCH  14  15
ATOM     15  C   UNL     1      35.605 -39.936  14.369  1.00  0.00     0.000 C 
BRANCH  15  16
ATOM     16  C   UNL     1      35.609 -41.198  13.491  1.00  0.00     0.000 C 
BRANCH  16  17
ATOM     17  C   UNL     1      34.541 -41.157  12.387  1.00  0.00    -0.000 C 
BRANCH  17  18
ATOM     18  C   UNL     1      35.170 -41.407  11.008  1.00  0.00    -0.000 C 
BRANCH  18  19
ATOM     19  C   UNL     1      35.324 -40.119  10.185  1.00  0.00    -0.003 C 
ATOM     20  C   UNL     1      34.425 -40.094   8.950  1.00  0.00     0.004 C 
ENDBRANCH  18  19
ENDBRANCH  17  18
ENDBRANCH  16  17
ENDBRANCH  15  16
ENDBRANCH  14  15
ENDBRANCH  13  14
ENDBRANCH   2  13
TORSDOF 15
ENDMDL
MODEL 5
REMARK VINA RESULT:    -2.772      3.085      5.903
REMARK INTER + INTRA:          -8.219
REMARK INTER:                  -5.657
REMARK INTRA:                  -2.563
REMARK UNBOUND:                -3.017
REMARK SMILES CCCCCCCCC=CCCCCCCCC(=O)[O-]
REMARK SMILES IDX 10 1 9 2 11 3 12 4 13 5 14 6 15 7 16 8 17 9 18 10 19 11
REMARK SMILES IDX 20 12 8 13 7 14 6 15 5 16 4 17 3 18 2 19 1 20
REMARK H PARENT
REMARK Flexibility Score: inf
ROOT
ATOM      1  C   UNL     1      38.067 -40.270  -1.584  1.00  0.00    -0.031 C 
ATOM      2  C   UNL     1      37.066 -39.470  -1.191  1.00  0.00    -0.031 C 
ENDROOT
BRANCH   1   3
ATOM      3  C   UNL     1      37.951 -41.140  -2.805  1.00  0.00     0.027 C 
BRANCH   3   4
ATOM      4  C   UNL     1      37.467 -40.313  -4.000  1.00  0.00     0.004 C 
BRANCH   4   5
ATOM      5  C   UNL     1      36.469 -41.111  -4.853  1.00  0.00     0.000 C 
BRANCH   5   6
ATOM      6  C   UNL     1      35.549 -42.013  -4.011  1.00  0.00     0.000 C 
BRANCH   6   7
ATOM      7  C   UNL     1      34.049 -41.896  -4.340  1.00  0.00     0.000 C 
BRANCH   7   8
ATOM      8  C   UNL     1      33.427 -40.581  -3.838  1.00  0.00     0.006 C 
BRANCH   8   9
ATOM      9  C   UNL     1      33.933 -40.199  -2.442  1.00  0.00     0.053 C 
BRANCH   9  10
ATOM     10  C   UNL     1      32.833 -40.227  -1.426  1.00  0.00     0.041 C 
ATOM     11  O   UNL     1      31.958 -41.131  -1.465  1.00  0.00    -0.550 OA
ATOM     12  O   UNL     1      32.756 -39.236  -0.454  1.00  0.00    -0.550 OA
ENDBRANCH   9  10
ENDBRANCH   8   9
ENDBRANCH   7   8
ENDBRANCH   6   7
ENDBRANCH   5   6
ENDBRANCH   4   5
ENDBRANCH   3   4
ENDBRANCH   1   3
BRANCH   2  13
ATOM     13  C   UNL     1      37.186 -38.595   0.029  1.00  0.00     0.027 C 
BRANCH  13  14
ATOM     14  C   UNL     1      38.462 -37.743  -0.009  1.00  0.00     0.004 C 
BRANCH  14  15
ATOM     15  C   UNL     1      38.196 -36.326  -0.545  1.00  0.00     0.000 C 
BRANCH  15  16
ATOM     16  C   UNL     1      38.993 -36.015  -1.822  1.00  0.00     0.000 C 
BRANCH  16  17
ATOM     17  C   UNL     1      38.479 -36.790  -3.045  1.00  0.00    -0.000 C 
BRANCH  17  18
ATOM     18  C   UNL     1      39.644 -37.437  -3.811  1.00  0.00    -0.000 C 
BRANCH  18  19
ATOM     19  C   UNL     1      40.738 -37.976  -2.876  1.00  0.00    -0.003 C 
ATOM     20  C   UNL     1      41.282 -39.333  -3.322  1.00  0.00     0.004 C 
ENDBRANCH  18  19
ENDBRANCH  17  18
ENDBRANCH  16  17
ENDBRANCH  15  16
ENDBRANCH  14  15
ENDBRANCH  13  14
ENDBRANCH   2  13
TORSDOF 15
ENDMDL
MODEL 6
REMARK VINA RESULT:    -2.659     12.936     15.400
REMARK INTER + INTRA:          -8.008
REMARK INTER:                  -5.018
REMARK INTRA:                  -2.990
REMARK UNBOUND:                -3.017
REMARK SMILES CCCCCCCCC=CCCCCCCCC(=O)[O-]
REMARK SMILES IDX 10 1 9 2 11 3 12 4 13 5 14 6 15 7 16 8 17 9 18 10 19 11
REMARK SMILES IDX 20 12 8 13 7 14 6 15 5 16 4 17 3 18 2 19 1 20
REMARK H PARENT
REMARK Flexibility Score: inf
ROOT
ATOM      1  C   UNL     1      34.580 -38.137  12.619  1.00  0.00    -0.031 C 
ATOM      2  C   UNL     1      34.880 -37.925  13.909  1.00  0.00    -0.031 C 
ENDROOT
BRANCH   1   3
ATOM      3  C   UNL     1      34.206 -37.009  11.698  1.00  0.00     0.027 C 
BRANCH   3   4
ATOM      4  C   UNL     1      32.686 -36.954  11.519  1.00  0.00     0.004 C 
BRANCH   4   5
ATOM      5  C   UNL     1      32.287 -37.313  10.080  1.00  0.00     0.000 C 
BRANCH   5   6
ATOM      6  C   UNL     1      33.429 -37.095   9.070  1.00  0.00     0.000 C 
BRANCH   6   7
ATOM      7  C   UNL     1      33.810 -38.338   8.246  1.00  0.00     0.000 C 
BRANCH   7   8
ATOM      8  C   UNL     1      35.320 -38.635   8.273  1.00  0.00     0.006 C 
BRANCH   8   9
ATOM      9  C   UNL     1      35.674 -39.730   9.287  1.00  0.00     0.053 C 
BRANCH   9  10
ATOM     10  C   UNL     1      35.935 -41.043   8.616  1.00  0.00     0.041 C 
ATOM     11  O   UNL     1      37.012 -41.233   7.992  1.00  0.00    -0.550 OA
ATOM     12  O   UNL     1      34.975 -42.048   8.653  1.00  0.00    -0.550 OA
ENDBRANCH   9  10
ENDBRANCH   8   9
ENDBRANCH   7   8
ENDBRANCH   6   7
ENDBRANCH   5   6
ENDBRANCH   4   5
ENDBRANCH   3   4
ENDBRANCH   1   3
BRANCH   2  13
ATOM     13  C   UNL     1      35.259 -39.055  14.829  1.00  0.00     0.027 C 
BRANCH  13  14
ATOM     14  C   UNL     1      34.072 -39.991  15.096  1.00  0.00     0.004 C 
BRANCH  14  15
ATOM     15  C   UNL     1      34.382 -41.446  14.704  1.00  0.00     0.000 C 
BRANCH  15  16
ATOM     16  C   UNL     1      35.605 -41.563  13.779  1.00  0.00     0.000 C 
BRANCH  16  17
ATOM     17  C   UNL     1      35.217 -41.799  12.311  1.00  0.00    -0.000 C 
BRANCH  17  18
ATOM     18  C   UNL     1      33.729 -42.159  12.189  1.00  0.00    -0.000 C 
BRANCH  18  19
ATOM     19  C   UNL     1      32.939 -41.133  11.361  1.00  0.00    -0.003 C 
ATOM     20  C   UNL     1      31.768 -40.527  12.132  1.00  0.00     0.004 C 
ENDBRANCH  18  19
ENDBRANCH  17  18
ENDBRANCH  16  17
ENDBRANCH  15  16
ENDBRANCH  14  15
ENDBRANCH  13  14
ENDBRANCH   2  13
TORSDOF 15
ENDMDL
MODEL 7
REMARK VINA RESULT:    -2.652     12.004     14.469
REMARK INTER + INTRA:          -7.995
REMARK INTER:                  -5.744
REMARK INTRA:                  -2.251
REMARK UNBOUND:                -3.017
REMARK SMILES CCCCCCCCC=CCCCCCCCC(=O)[O-]
REMARK SMILES IDX 10 1 9 2 11 3 12 4 13 5 14 6 15 7 16 8 17 9 18 10 19 11
REMARK SMILES IDX 20 12 8 13 7 14 6 15 5 16 4 17 3 18 2 19 1 20
REMARK H PARENT
REMARK Flexibility Score: inf
ROOT
ATOM      1  C   UNL     1      34.100 -38.097  12.826  1.00  0.00    -0.031 C 
ATOM      2  C   UNL     1      35.106 -38.179  13.709  1.00  0.00    -0.031 C 
ENDROOT
BRANCH   1   3
ATOM      3  C   UNL     1      34.040 -37.006  11.793  1.00  0.00     0.027 C 
BRANCH   3   4
ATOM      4  C   UNL     1      32.621 -36.889  11.229  1.00  0.00     0.004 C 
BRANCH   4   5
ATOM      5  C   UNL     1      32.645 -36.394   9.775  1.00  0.00     0.000 C 
BRANCH   5   6
ATOM      6  C   UNL     1      33.980 -36.686   9.065  1.00  0.00     0.000 C 
BRANCH   6   7
ATOM      7  C   UNL     1      33.956 -36.500   7.537  1.00  0.00     0.000 C 
BRANCH   7   8
ATOM      8  C   UNL     1      35.127 -37.204   6.829  1.00  0.00     0.006 C 
BRANCH   8   9
ATOM      9  C   UNL     1      35.167 -36.889   5.329  1.00  0.00     0.053 C 
BRANCH   9  10
ATOM     10  C   UNL     1      34.088 -37.609   4.582  1.00  0.00     0.041 C 
ATOM     11  O   UNL     1      33.452 -37.024   3.666  1.00  0.00    -0.550 OA
ATOM     12  O   UNL     1      33.760 -38.917   4.919  1.00  0.00    -0.550 OA
ENDBRANCH   9  10
ENDBRANCH   8   9
ENDBRANCH   7   8
ENDBRANCH   6   7
ENDBRANCH   5   6
ENDBRANCH   4   5
ENDBRANCH   3   4
ENDBRANCH   1   3
BRANCH   2  13
ATOM     13  C   UNL     1      35.168 -39.276  14.738  1.00  0.00     0.027 C 
BRANCH  13  14
ATOM     14  C   UNL     1      35.732 -40.575  14.147  1.00  0.00     0.004 C 
BRANCH  14  15
ATOM     15  C   UNL     1      34.797 -41.773  14.386  1.00  0.00     0.000 C 
BRANCH  15  16
ATOM     16  C   UNL     1      33.758 -41.947  13.267  1.00  0.00     0.000 C 
BRANCH  16  17
ATOM     17  C   UNL     1      34.338 -41.672  11.871  1.00  0.00    -0.000 C 
BRANCH  17  18
ATOM     18  C   UNL     1      33.316 -40.939  10.989  1.00  0.00    -0.000 C 
BRANCH  18  19
ATOM     19  C   UNL     1      33.946 -40.356   9.714  1.00  0.00    -0.003 C 
ATOM     20  C   UNL     1      35.418 -39.989   9.896  1.00  0.00     0.004 C 
ENDBRANCH  18  19
ENDBRANCH  17  18
ENDBRANCH  16  17
ENDBRANCH  15  16
ENDBRANCH  14  15
ENDBRANCH  13  14
ENDBRANCH   2  13
TORSDOF 15
ENDMDL
MODEL 8
REMARK VINA RESULT:    -2.629      1.592      3.693
REMARK INTER + INTRA:          -7.952
REMARK INTER:                  -5.008
REMARK INTRA:                  -2.944
REMARK UNBOUND:                -3.017
REMARK SMILES CCCCCCCCC=CCCCCCCCC(=O)[O-]
REMARK SMILES IDX 10 1 9 2 11 3 12 4 13 5 14 6 15 7 16 8 17 9 18 10 19 11
REMARK SMILES IDX 20 12 8 13 7 14 6 15 5 16 4 17 3 18 2 19 1 20
REMARK H PARENT
REMARK Flexibility Score: inf
ROOT
ATOM      1  C   UNL     1      34.116 -42.335  -4.349  1.00  0.00    -0.031 C 
ATOM      2  C   UNL     1      32.879 -41.827  -4.246  1.00  0.00    -0.031 C 
ENDROOT
BRANCH   1   3
ATOM      3  C   UNL     1      35.303 -41.470  -4.671  1.00  0.00     0.027 C 
BRANCH   3   4
ATOM      4  C   UNL     1      36.587 -42.303  -4.648  1.00  0.00     0.004 C 
BRANCH   4   5
ATOM      5  C   UNL     1      37.041 -42.577  -3.207  1.00  0.00     0.000 C 
BRANCH   5   6
ATOM      6  C   UNL     1      38.023 -41.516  -2.676  1.00  0.00     0.000 C 
BRANCH   6   7
ATOM      7  C   UNL     1      37.412 -40.505  -1.688  1.00  0.00     0.000 C 
BRANCH   7   8
ATOM      8  C   UNL     1      37.076 -39.155  -2.345  1.00  0.00     0.006 C 
BRANCH   8   9
ATOM      9  C   UNL     1      37.869 -38.928  -3.638  1.00  0.00     0.053 C 
BRANCH   9  10
ATOM     10  C   UNL     1      38.943 -37.900  -3.456  1.00  0.00     0.041 C 
ATOM     11  O   UNL     1      40.155 -38.222  -3.574  1.00  0.00    -0.550 OA
ATOM     12  O   UNL     1      38.607 -36.592  -3.125  1.00  0.00    -0.550 OA
ENDBRANCH   9  10
ENDBRANCH   8   9
ENDBRANCH   7   8
ENDBRANCH   6   7
ENDBRANCH   5   6
ENDBRANCH   4   5
ENDBRANCH   3   4
ENDBRANCH   1   3
BRANCH   2  13
ATOM     13  C   UNL     1      31.693 -42.695  -3.918  1.00  0.00     0.027 C 
BRANCH  13  14
ATOM     14  C   UNL     1      32.120 -44.126  -3.565  1.00  0.00     0.004 C 
BRANCH  14  15
ATOM     15  C   UNL     1      31.622 -44.552  -2.173  1.00  0.00     0.000 C 
BRANCH  15  16
ATOM     16  C   UNL     1      32.174 -43.662  -1.048  1.00  0.00     0.000 C 
BRANCH  16  17
ATOM     17  C   UNL     1      33.708 -43.708  -0.953  1.00  0.00    -0.000 C 
BRANCH  17  18
ATOM     18  C   UNL     1      34.281 -42.309  -0.681  1.00  0.00    -0.000 C 
BRANCH  18  19
ATOM     19  C   UNL     1      33.187 -41.238  -0.550  1.00  0.00    -0.003 C 
ATOM     20  C   UNL     1      33.578 -39.911  -1.199  1.00  0.00     0.004 C 
ENDBRANCH  18  19
ENDBRANCH  17  18
ENDBRANCH  16  17
ENDBRANCH  15  16
ENDBRANCH  14  15
ENDBRANCH  13  14
ENDBRANCH   2  13
TORSDOF 15
ENDMDL
