MODEL 1
REMARK VINA RESULT:     7.140      0.000      0.000
REMARK INTER + INTRA:           9.776
REMARK INTER:                  10.479
REMARK INTRA:                  -0.703
REMARK UNBOUND:                -0.703
REMARK SMILES O=c1c(O[C@H]2O[C@@H](CO)[C@H](O)[C@H](O)[C@@H]2O)c(-c2ccc(O)c(O)c2)oc2cc(O)cc(O)c12
REMARK SMILES IDX 4 1 3 2 16 3 25 4 2 5 26 6 1 7 33 8 27 9 31 10 28 11 30 12
REMARK SMILES IDX 17 13 18 14 19 15 20 16 24 17 22 18 21 19 23 21 32 23 29 25
REMARK SMILES IDX 5 27 14 28 6 29 12 30 7 31 10 32 15 33 13 35 8 37 9 38 11 40
REMARK H PARENT 21 20 23 22 32 24 29 26 15 34 13 36 9 39 11 41
REMARK Flexibility Score: inf
ROOT
ATOM      1  O   UNL     1      -1.503 -17.202  12.146  1.00  0.00    -0.454 OA
ENDROOT
BRANCH   1   2
ATOM      2  C   UNL     1      -2.360 -16.837  11.101  1.00  0.00     0.214 A 
ATOM      3  C   UNL     1      -3.139 -15.666  11.158  1.00  0.00     0.180 A 
ATOM      4  O   UNL     1      -3.895 -15.328  10.120  1.00  0.00    -0.452 OA
ATOM      5  C   UNL     1      -2.451 -17.659   9.972  1.00  0.00     0.239 A 
ATOM      6  C   UNL     1      -3.981 -16.055   9.011  1.00  0.00     0.146 A 
ATOM      7  O   UNL     1      -1.831 -18.754   9.979  1.00  0.00    -0.285 OA
ATOM      8  C   UNL     1      -3.240 -17.257   8.868  1.00  0.00     0.111 A 
ATOM      9  C   UNL     1      -4.830 -15.617   7.993  1.00  0.00     0.094 A 
ATOM     10  C   UNL     1      -3.355 -17.984   7.645  1.00  0.00     0.134 A 
ATOM     11  C   UNL     1      -4.974 -16.364   6.822  1.00  0.00     0.123 A 
ATOM     12  C   UNL     1      -4.244 -17.540   6.658  1.00  0.00     0.093 A 
BRANCH   3  13
ATOM     13  C   UNL     1      -3.169 -14.791  12.352  1.00  0.00     0.025 A 
ATOM     14  C   UNL     1      -2.095 -13.937  12.658  1.00  0.00     0.016 A 
ATOM     15  C   UNL     1      -2.141 -13.123  13.793  1.00  0.00     0.051 A 
ATOM     16  C   UNL     1      -3.251 -13.163  14.646  1.00  0.00     0.157 A 
ATOM     17  C   UNL     1      -4.270 -14.843  13.222  1.00  0.00     0.062 A 
ATOM     18  C   UNL     1      -4.319 -14.030  14.361  1.00  0.00     0.158 A 
BRANCH  16  19
ATOM     19  O   UNL     1      -3.295 -12.348  15.776  1.00  0.00    -0.504 OA
ATOM     20  H   UNL     1      -2.646 -11.581  15.903  1.00  0.00     0.293 HD
ENDBRANCH  16  19
BRANCH  18  21
ATOM     21  O   UNL     1      -5.434 -14.099  15.194  1.00  0.00    -0.504 OA
ATOM     22  H   UNL     1      -5.615 -13.405  15.910  1.00  0.00     0.293 HD
ENDBRANCH  18  21
ENDBRANCH   3  13
BRANCH  10  23
ATOM     23  O   UNL     1      -2.606 -19.125   7.338  1.00  0.00    -0.507 OA
ATOM     24  H   UNL     1      -2.696 -20.017   7.800  1.00  0.00     0.293 HD
ENDBRANCH  10  23
BRANCH  11  25
ATOM     25  O   UNL     1      -5.836 -15.943   5.813  1.00  0.00    -0.508 OA
ATOM     26  H   UNL     1      -6.338 -15.065   5.876  1.00  0.00     0.293 HD
ENDBRANCH  11  25
ENDBRANCH   1   2
BRANCH   1  27
ATOM     27  C   UNL     1      -1.953 -17.889  13.316  1.00  0.00     0.339 C 
ATOM     28  C   UNL     1      -2.186 -16.915  14.484  1.00  0.00     0.214 C 
ATOM     29  O   UNL     1      -1.065 -18.947  13.654  1.00  0.00    -0.332 OA
ATOM     30  C   UNL     1      -0.836 -16.374  14.986  1.00  0.00     0.180 C 
ATOM     31  C   UNL     1       0.215 -18.517  14.112  1.00  0.00     0.179 C 
ATOM     32  C   UNL     1       0.135 -17.527  15.303  1.00  0.00     0.177 C 
BRANCH  28  33
ATOM     33  O   UNL     1      -2.870 -17.590  15.511  1.00  0.00    -0.384 OA
ATOM     34  H   UNL     1      -2.919 -18.547  15.252  1.00  0.00     0.211 HD
ENDBRANCH  28  33
BRANCH  30  35
ATOM     35  O   UNL     1      -0.995 -15.506  16.082  1.00  0.00    -0.387 OA
ATOM     36  H   UNL     1      -0.200 -14.918  16.137  1.00  0.00     0.211 HD
ENDBRANCH  30  35
BRANCH  31  37
ATOM     37  C   UNL     1       1.124 -18.029  12.961  1.00  0.00     0.191 C 
BRANCH  37  38
ATOM     38  O   UNL     1       2.474 -18.257  13.269  1.00  0.00    -0.394 OA
ATOM     39  H   UNL     1       2.786 -18.979  12.664  1.00  0.00     0.210 HD
ENDBRANCH  37  38
ENDBRANCH  31  37
BRANCH  32  40
ATOM     40  O   UNL     1      -0.292 -18.214  16.453  1.00  0.00    -0.387 OA
ATOM     41  H   UNL     1      -1.108 -18.721  16.201  1.00  0.00     0.211 HD
ENDBRANCH  32  40
ENDBRANCH   1  27
TORSDOF 12
ENDMDL
MODEL 2
REMARK VINA RESULT:     8.686      2.159      7.273
REMARK INTER + INTRA:          12.045
REMARK INTER:                  10.359
REMARK INTRA:                   1.686
REMARK UNBOUND:                -0.703
REMARK SMILES O=c1c(O[C@H]2O[C@@H](CO)[C@H](O)[C@H](O)[C@@H]2O)c(-c2ccc(O)c(O)c2)oc2cc(O)cc(O)c12
REMARK SMILES IDX 4 1 3 2 16 3 25 4 2 5 26 6 1 7 33 8 27 9 31 10 28 11 30 12
REMARK SMILES IDX 17 13 18 14 19 15 20 16 24 17 22 18 21 19 23 21 32 23 29 25
REMARK SMILES IDX 5 27 14 28 6 29 12 30 7 31 10 32 15 33 13 35 8 37 9 38 11 40
REMARK H PARENT 21 20 23 22 32 24 29 26 15 34 13 36 9 39 11 41
REMARK Flexibility Score: inf
ROOT
ATOM      1  O   UNL     1      -3.766 -15.466  11.888  1.00  0.00    -0.454 OA
ENDROOT
BRANCH   1   2
ATOM      2  C   UNL     1      -2.680 -16.085  12.517  1.00  0.00     0.214 A 
ATOM      3  C   UNL     1      -1.464 -16.309  11.843  1.00  0.00     0.180 A 
ATOM      4  O   UNL     1      -0.441 -16.847  12.495  1.00  0.00    -0.452 OA
ATOM      5  C   UNL     1      -2.804 -16.497  13.849  1.00  0.00     0.239 A 
ATOM      6  C   UNL     1      -0.498 -17.215  13.770  1.00  0.00     0.146 A 
ATOM      7  O   UNL     1      -3.927 -16.386  14.405  1.00  0.00    -0.285 OA
ATOM      8  C   UNL     1      -1.686 -17.038  14.527  1.00  0.00     0.111 A 
ATOM      9  C   UNL     1       0.632 -17.797  14.347  1.00  0.00     0.094 A 
ATOM     10  C   UNL     1      -1.682 -17.432  15.899  1.00  0.00     0.134 A 
ATOM     11  C   UNL     1       0.608 -18.226  15.675  1.00  0.00     0.123 A 
ATOM     12  C   UNL     1      -0.545 -18.047  16.438  1.00  0.00     0.093 A 
BRANCH   3  13
ATOM     13  C   UNL     1      -1.281 -15.985  10.410  1.00  0.00     0.025 A 
ATOM     14  C   UNL     1      -0.675 -14.783  10.005  1.00  0.00     0.016 A 
ATOM     15  C   UNL     1      -0.517 -14.494   8.647  1.00  0.00     0.051 A 
ATOM     16  C   UNL     1      -0.975 -15.392   7.676  1.00  0.00     0.157 A 
ATOM     17  C   UNL     1      -1.759 -16.873   9.432  1.00  0.00     0.062 A 
ATOM     18  C   UNL     1      -1.602 -16.586   8.071  1.00  0.00     0.158 A 
BRANCH  16  19
ATOM     19  O   UNL     1      -0.813 -15.103   6.322  1.00  0.00    -0.504 OA
ATOM     20  H   UNL     1      -0.235 -14.332   6.009  1.00  0.00     0.293 HD
ENDBRANCH  16  19
BRANCH  18  21
ATOM     21  O   UNL     1      -2.076 -17.498   7.129  1.00  0.00    -0.504 OA
ATOM     22  H   UNL     1      -1.525 -17.776   6.324  1.00  0.00     0.293 HD
ENDBRANCH  18  21
ENDBRANCH   3  13
BRANCH  10  23
ATOM     23  O   UNL     1      -2.749 -17.220  16.779  1.00  0.00    -0.507 OA
ATOM     24  H   UNL     1      -3.708 -17.477  16.597  1.00  0.00     0.293 HD
ENDBRANCH  10  23
BRANCH  11  25
ATOM     25  O   UNL     1       1.726 -18.827  16.248  1.00  0.00    -0.508 OA
ATOM     26  H   UNL     1       1.645 -19.449  17.043  1.00  0.00     0.293 HD
ENDBRANCH  11  25
ENDBRANCH   1   2
BRANCH   1  27
ATOM     27  C   UNL     1      -5.001 -16.139  11.630  1.00  0.00     0.339 C 
ATOM     28  C   UNL     1      -4.766 -17.602  11.217  1.00  0.00     0.214 C 
ATOM     29  O   UNL     1      -5.780 -15.420  10.682  1.00  0.00    -0.332 OA
ATOM     30  C   UNL     1      -4.129 -17.650   9.816  1.00  0.00     0.180 C 
ATOM     31  C   UNL     1      -5.238 -15.409   9.364  1.00  0.00     0.179 C 
ATOM     32  C   UNL     1      -4.954 -16.829   8.809  1.00  0.00     0.177 C 
BRANCH  28  33
ATOM     33  O   UNL     1      -5.996 -18.284  11.233  1.00  0.00    -0.384 OA
ATOM     34  H   UNL     1      -6.073 -18.771  10.371  1.00  0.00     0.211 HD
ENDBRANCH  28  33
BRANCH  30  35
ATOM     35  O   UNL     1      -3.930 -18.972   9.377  1.00  0.00    -0.387 OA
ATOM     36  H   UNL     1      -4.796 -19.453   9.421  1.00  0.00     0.211 HD
ENDBRANCH  30  35
BRANCH  31  37
ATOM     37  C   UNL     1      -4.044 -14.439   9.221  1.00  0.00     0.191 C 
BRANCH  37  38
ATOM     38  O   UNL     1      -4.003 -13.894   7.928  1.00  0.00    -0.394 OA
ATOM     39  H   UNL     1      -4.934 -13.903   7.585  1.00  0.00     0.210 HD
ENDBRANCH  37  38
ENDBRANCH  31  37
BRANCH  32  40
ATOM     40  O   UNL     1      -6.173 -17.478   8.541  1.00  0.00    -0.387 OA
ATOM     41  H   UNL     1      -6.284 -18.182   9.233  1.00  0.00     0.211 HD
ENDBRANCH  32  40
ENDBRANCH   1  27
TORSDOF 12
ENDMDL
MODEL 3
REMARK VINA RESULT:     8.825      2.706      3.798
REMARK INTER + INTRA:          12.249
REMARK INTER:                  12.511
REMARK INTRA:                  -0.262
REMARK UNBOUND:                -0.703
REMARK SMILES O=c1c(O[C@H]2O[C@@H](CO)[C@H](O)[C@H](O)[C@@H]2O)c(-c2ccc(O)c(O)c2)oc2cc(O)cc(O)c12
REMARK SMILES IDX 4 1 3 2 16 3 25 4 2 5 26 6 1 7 33 8 27 9 31 10 28 11 30 12
REMARK SMILES IDX 17 13 18 14 19 15 20 16 24 17 22 18 21 19 23 21 32 23 29 25
REMARK SMILES IDX 5 27 14 28 6 29 12 30 7 31 10 32 15 33 13 35 8 37 9 38 11 40
REMARK H PARENT 21 20 23 22 32 24 29 26 15 34 13 36 9 39 11 41
REMARK Flexibility Score: inf
ROOT
ATOM      1  O   UNL     1      -2.391 -16.242  10.933  1.00  0.00    -0.454 OA
ENDROOT
BRANCH   1   2
ATOM      2  C   UNL     1      -2.859 -15.952   9.645  1.00  0.00     0.214 A 
ATOM      3  C   UNL     1      -2.090 -15.209   8.729  1.00  0.00     0.180 A 
ATOM      4  O   UNL     1      -2.548 -15.007   7.499  1.00  0.00    -0.452 OA
ATOM      5  C   UNL     1      -4.124 -16.408   9.258  1.00  0.00     0.239 A 
ATOM      6  C   UNL     1      -3.723 -15.456   7.074  1.00  0.00     0.146 A 
ATOM      7  O   UNL     1      -4.841 -16.979  10.119  1.00  0.00    -0.285 OA
ATOM      8  C   UNL     1      -4.571 -16.206   7.930  1.00  0.00     0.111 A 
ATOM      9  C   UNL     1      -4.115 -15.161   5.767  1.00  0.00     0.094 A 
ATOM     10  C   UNL     1      -5.813 -16.682   7.411  1.00  0.00     0.134 A 
ATOM     11  C   UNL     1      -5.355 -15.587   5.286  1.00  0.00     0.123 A 
ATOM     12  C   UNL     1      -6.194 -16.336   6.109  1.00  0.00     0.093 A 
BRANCH   3  13
ATOM     13  C   UNL     1      -0.783 -14.615   9.090  1.00  0.00     0.025 A 
ATOM     14  C   UNL     1       0.422 -15.291   8.831  1.00  0.00     0.016 A 
ATOM     15  C   UNL     1       1.645 -14.715   9.184  1.00  0.00     0.051 A 
ATOM     16  C   UNL     1       1.682 -13.465   9.814  1.00  0.00     0.157 A 
ATOM     17  C   UNL     1      -0.743 -13.371   9.741  1.00  0.00     0.062 A 
ATOM     18  C   UNL     1       0.481 -12.792  10.097  1.00  0.00     0.158 A 
BRANCH  16  19
ATOM     19  O   UNL     1       2.903 -12.892  10.163  1.00  0.00    -0.504 OA
ATOM     20  H   UNL     1       3.202 -12.824  11.129  1.00  0.00     0.293 HD
ENDBRANCH  16  19
BRANCH  18  21
ATOM     21  O   UNL     1       0.483 -11.550  10.730  1.00  0.00    -0.504 OA
ATOM     22  H   UNL     1       0.021 -11.398  11.619  1.00  0.00     0.293 HD
ENDBRANCH  18  21
ENDBRANCH   3  13
BRANCH  10  23
ATOM     23  O   UNL     1      -6.690 -17.513   8.116  1.00  0.00    -0.507 OA
ATOM     24  H   UNL     1      -6.537 -17.851   9.054  1.00  0.00     0.293 HD
ENDBRANCH  10  23
BRANCH  11  25
ATOM     25  O   UNL     1      -5.759 -15.276   3.991  1.00  0.00    -0.508 OA
ATOM     26  H   UNL     1      -6.694 -15.486   3.662  1.00  0.00     0.293 HD
ENDBRANCH  11  25
ENDBRANCH   1   2
BRANCH   1  27
ATOM     27  C   UNL     1      -3.260 -16.595  12.013  1.00  0.00     0.339 C 
ATOM     28  C   UNL     1      -3.409 -15.437  13.014  1.00  0.00     0.214 C 
ATOM     29  O   UNL     1      -2.831 -17.802  12.631  1.00  0.00    -0.332 OA
ATOM     30  C   UNL     1      -2.088 -15.237  13.778  1.00  0.00     0.180 C 
ATOM     31  C   UNL     1      -1.602 -17.694  13.344  1.00  0.00     0.179 C 
ATOM     32  C   UNL     1      -1.609 -16.560  14.403  1.00  0.00     0.177 C 
BRANCH  28  33
ATOM     33  O   UNL     1      -4.461 -15.732  13.899  1.00  0.00    -0.384 OA
ATOM     34  H   UNL     1      -4.064 -15.839  14.803  1.00  0.00     0.211 HD
ENDBRANCH  28  33
BRANCH  30  35
ATOM     35  O   UNL     1      -2.187 -14.211  14.736  1.00  0.00    -0.387 OA
ATOM     36  H   UNL     1      -1.513 -14.374  15.444  1.00  0.00     0.211 HD
ENDBRANCH  30  35
BRANCH  31  37
ATOM     37  C   UNL     1      -0.374 -17.657  12.407  1.00  0.00     0.191 C 
BRANCH  37  38
ATOM     38  O   UNL     1       0.736 -18.254  13.024  1.00  0.00    -0.394 OA
ATOM     39  H   UNL     1       1.529 -18.020  12.475  1.00  0.00     0.210 HD
ENDBRANCH  37  38
ENDBRANCH  31  37
BRANCH  32  40
ATOM     40  O   UNL     1      -2.451 -16.923  15.469  1.00  0.00    -0.387 OA
ATOM     41  H   UNL     1      -2.788 -16.080  15.871  1.00  0.00     0.211 HD
ENDBRANCH  32  40
ENDBRANCH   1  27
TORSDOF 12
ENDMDL
MODEL 4
REMARK VINA RESULT:    10.055      1.846      6.553
REMARK INTER + INTRA:          14.055
REMARK INTER:                  14.668
REMARK INTRA:                  -0.613
REMARK UNBOUND:                -0.703
REMARK SMILES O=c1c(O[C@H]2O[C@@H](CO)[C@H](O)[C@H](O)[C@@H]2O)c(-c2ccc(O)c(O)c2)oc2cc(O)cc(O)c12
REMARK SMILES IDX 4 1 3 2 16 3 25 4 2 5 26 6 1 7 33 8 27 9 31 10 28 11 30 12
REMARK SMILES IDX 17 13 18 14 19 15 20 16 24 17 22 18 21 19 23 21 32 23 29 25
REMARK SMILES IDX 5 27 14 28 6 29 12 30 7 31 10 32 15 33 13 35 8 37 9 38 11 40
REMARK H PARENT 21 20 23 22 32 24 29 26 15 34 13 36 9 39 11 41
REMARK Flexibility Score: inf
ROOT
ATOM      1  O   UNL     1      -2.335 -16.554  11.592  1.00  0.00    -0.454 OA
ENDROOT
BRANCH   1   2
ATOM      2  C   UNL     1      -1.633 -16.781  12.782  1.00  0.00     0.214 A 
ATOM      3  C   UNL     1      -2.124 -16.341  14.026  1.00  0.00     0.180 A 
ATOM      4  O   UNL     1      -1.454 -16.629  15.136  1.00  0.00    -0.452 OA
ATOM      5  C   UNL     1      -0.409 -17.458  12.736  1.00  0.00     0.239 A 
ATOM      6  C   UNL     1      -0.311 -17.305  15.145  1.00  0.00     0.146 A 
ATOM      7  O   UNL     1       0.068 -17.752  11.609  1.00  0.00    -0.285 OA
ATOM      8  C   UNL     1       0.266 -17.779  13.937  1.00  0.00     0.111 A 
ATOM      9  C   UNL     1       0.322 -17.527  16.370  1.00  0.00     0.094 A 
ATOM     10  C   UNL     1       1.484 -18.520  14.011  1.00  0.00     0.134 A 
ATOM     11  C   UNL     1       1.540 -18.207  16.424  1.00  0.00     0.123 A 
ATOM     12  C   UNL     1       2.114 -18.692  15.250  1.00  0.00     0.093 A 
BRANCH   3  13
ATOM     13  C   UNL     1      -3.363 -15.541  14.151  1.00  0.00     0.025 A 
ATOM     14  C   UNL     1      -4.630 -16.126  13.978  1.00  0.00     0.016 A 
ATOM     15  C   UNL     1      -5.787 -15.352  14.095  1.00  0.00     0.051 A 
ATOM     16  C   UNL     1      -5.696 -13.981  14.370  1.00  0.00     0.157 A 
ATOM     17  C   UNL     1      -3.275 -14.162  14.405  1.00  0.00     0.062 A 
ATOM     18  C   UNL     1      -4.433 -13.384  14.522  1.00  0.00     0.158 A 
BRANCH  16  19
ATOM     19  O   UNL     1      -6.852 -13.212  14.489  1.00  0.00    -0.504 OA
ATOM     20  H   UNL     1      -6.819 -12.251  14.808  1.00  0.00     0.293 HD
ENDBRANCH  16  19
BRANCH  18  21
ATOM     21  O   UNL     1      -4.307 -12.021  14.789  1.00  0.00    -0.504 OA
ATOM     22  H   UNL     1      -3.460 -11.625  15.178  1.00  0.00     0.293 HD
ENDBRANCH  18  21
ENDBRANCH   3  13
BRANCH  10  23
ATOM     23  O   UNL     1       2.101 -19.125  12.911  1.00  0.00    -0.507 OA
ATOM     24  H   UNL     1       3.062 -18.985  12.638  1.00  0.00     0.293 HD
ENDBRANCH  10  23
BRANCH  11  25
ATOM     25  O   UNL     1       2.185 -18.412  17.641  1.00  0.00    -0.508 OA
ATOM     26  H   UNL     1       2.607 -17.646  18.153  1.00  0.00     0.293 HD
ENDBRANCH  11  25
ENDBRANCH   1   2
BRANCH   1  27
ATOM     27  C   UNL     1      -1.685 -16.297  10.344  1.00  0.00     0.339 C 
ATOM     28  C   UNL     1      -1.316 -14.810  10.201  1.00  0.00     0.214 C 
ATOM     29  O   UNL     1      -2.471 -16.773   9.259  1.00  0.00    -0.332 OA
ATOM     30  C   UNL     1      -2.594 -13.972  10.023  1.00  0.00     0.180 C 
ATOM     31  C   UNL     1      -3.681 -16.051   9.047  1.00  0.00     0.179 C 
ATOM     32  C   UNL     1      -3.460 -14.526   8.876  1.00  0.00     0.177 C 
BRANCH  28  33
ATOM     33  O   UNL     1      -0.457 -14.658   9.097  1.00  0.00    -0.384 OA
ATOM     34  H   UNL     1      -0.955 -14.963   8.294  1.00  0.00     0.211 HD
ENDBRANCH  28  33
BRANCH  30  35
ATOM     35  O   UNL     1      -2.303 -12.606   9.848  1.00  0.00    -0.387 OA
ATOM     36  H   UNL     1      -1.816 -12.495   8.992  1.00  0.00     0.211 HD
ENDBRANCH  30  35
BRANCH  31  37
ATOM     37  C   UNL     1      -4.773 -16.406  10.082  1.00  0.00     0.191 C 
BRANCH  37  38
ATOM     38  O   UNL     1      -4.585 -17.708  10.571  1.00  0.00    -0.394 OA
ATOM     39  H   UNL     1      -3.605 -17.851  10.632  1.00  0.00     0.210 HD
ENDBRANCH  37  38
ENDBRANCH  31  37
BRANCH  32  40
ATOM     40  O   UNL     1      -2.836 -14.280   7.640  1.00  0.00    -0.387 OA
ATOM     41  H   UNL     1      -3.558 -14.196   6.963  1.00  0.00     0.211 HD
ENDBRANCH  32  40
ENDBRANCH   1  27
TORSDOF 12
ENDMDL
