MODEL 1
REMARK VINA RESULT:    -6.374      0.000      0.000
REMARK INTER + INTRA:          -9.546
REMARK INTER:                  -8.423
REMARK INTRA:                  -1.123
REMARK UNBOUND:                -1.123
REMARK SMILES CC[C@H](C=C[C@H](C)[C@@H]1CC[C@@H]2[C@H]3CC=C4C[C@H](O)CC[C@]4(C)[C@H]3CC[C@@]21C)C(C)C
REMARK SMILES IDX 6 1 7 2 5 3 4 4 3 5 2 6 1 7 28 8 29 9 30 10 8 11 9 12 26 13
REMARK SMILES IDX 10 14 11 15 25 16 27 17 12 18 24 19 23 20 13 21 21 22 14 23
REMARK SMILES IDX 15 24 20 25 22 26 16 27 19 28 17 29 18 30
REMARK H PARENT 18 31
REMARK Flexibility Score: inf
ROOT
ATOM      1  C   UNL     1     101.894 118.277  94.874  1.00  0.00     0.012 C 
ATOM      2  C   UNL     1     103.376 117.860  94.862  1.00  0.00     0.012 C 
ENDROOT
BRANCH   1   3
ATOM      3  C   UNL     1     101.024 117.042  94.731  1.00  0.00    -0.028 C 
ATOM      4  C   UNL     1     101.509 115.860  94.310  1.00  0.00    -0.027 C 
BRANCH   4   5
ATOM      5  C   UNL     1     100.627 114.631  94.206  1.00  0.00     0.014 C 
BRANCH   5   6
ATOM      6  C   UNL     1     100.490 114.098  92.747  1.00  0.00     0.004 C 
ATOM      7  C   UNL     1     101.515 114.637  91.739  1.00  0.00     0.004 C 
ENDBRANCH   5   6
BRANCH   5   8
ATOM      8  C   UNL     1     101.034 113.553  95.262  1.00  0.00    -0.011 C 
ATOM      9  C   UNL     1     100.227 113.622  96.565  1.00  0.00     0.008 C 
ATOM     10  C   UNL     1     102.541 113.579  95.567  1.00  0.00     0.008 C 
ENDBRANCH   5   8
ENDBRANCH   4   5
ENDBRANCH   1   3
BRANCH   1  11
ATOM     11  C   UNL     1     101.483 119.106  96.140  1.00  0.00     0.002 C 
ATOM     12  C   UNL     1     100.020 118.836  96.541  1.00  0.00     0.005 C 
ATOM     13  C   UNL     1     101.622 120.667  96.085  1.00  0.00    -0.026 C 
ATOM     14  C   UNL     1      99.439 120.146  97.052  1.00  0.00     0.005 C 
ATOM     15  C   UNL     1     100.604 121.133  97.158  1.00  0.00    -0.001 C 
ATOM     16  C   UNL     1     101.225 121.233  94.693  1.00  0.00     0.007 C 
ATOM     17  C   UNL     1     103.059 121.098  96.477  1.00  0.00     0.012 C 
ATOM     18  C   UNL     1     100.105 122.615  97.089  1.00  0.00     0.000 C 
ATOM     19  C   UNL     1     101.023 122.749  94.701  1.00  0.00     0.005 C 
ATOM     20  C   UNL     1      99.884 123.177  95.656  1.00  0.00     0.003 C 
ATOM     21  C   UNL     1     100.959 123.592  97.906  1.00  0.00     0.031 C 
ATOM     22  C   UNL     1      99.554 124.754  95.637  1.00  0.00    -0.008 C 
ATOM     23  C   UNL     1     100.179 124.858  98.073  1.00  0.00    -0.027 C 
ATOM     24  C   UNL     1      99.444 125.355  97.056  1.00  0.00    -0.065 C 
ATOM     25  C   UNL     1      98.195 124.948  94.890  1.00  0.00     0.014 C 
ATOM     26  C   UNL     1     100.646 125.587  94.908  1.00  0.00     0.016 C 
ATOM     27  C   UNL     1      98.716 126.670  97.266  1.00  0.00     0.063 C 
ATOM     28  C   UNL     1      97.585 126.351  95.035  1.00  0.00     0.033 C 
ATOM     29  C   UNL     1      97.384 126.719  96.508  1.00  0.00     0.118 C 
BRANCH  29  30
ATOM     30  O   UNL     1      96.456 125.841  97.093  1.00  0.00    -0.393 OA
ATOM     31  H   UNL     1      95.863 126.392  97.670  1.00  0.00     0.210 HD
ENDBRANCH  29  30
ENDBRANCH   1  11
TORSDOF 6
ENDMDL
MODEL 2
REMARK VINA RESULT:    -6.238      3.076      5.755
REMARK INTER + INTRA:          -9.367
REMARK INTER:                  -7.985
REMARK INTRA:                  -1.382
REMARK UNBOUND:                -1.123
REMARK SMILES CC[C@H](C=C[C@H](C)[C@@H]1CC[C@@H]2[C@H]3CC=C4C[C@H](O)CC[C@]4(C)[C@H]3CC[C@@]21C)C(C)C
REMARK SMILES IDX 6 1 7 2 5 3 4 4 3 5 2 6 1 7 28 8 29 9 30 10 8 11 9 12 26 13
REMARK SMILES IDX 10 14 11 15 25 16 27 17 12 18 24 19 23 20 13 21 21 22 14 23
REMARK SMILES IDX 15 24 20 25 22 26 16 27 19 28 17 29 18 30
REMARK H PARENT 18 31
REMARK Flexibility Score: inf
ROOT
ATOM      1  C   UNL     1     101.807 120.359  96.259  1.00  0.00     0.012 C 
ATOM      2  C   UNL     1     102.627 119.224  95.618  1.00  0.00     0.012 C 
ENDROOT
BRANCH   1   3
ATOM      3  C   UNL     1     102.601 120.969  97.399  1.00  0.00    -0.028 C 
ATOM      4  C   UNL     1     102.082 121.150  98.627  1.00  0.00    -0.027 C 
BRANCH   4   5
ATOM      5  C   UNL     1     102.905 121.732  99.759  1.00  0.00     0.014 C 
BRANCH   5   6
ATOM      6  C   UNL     1     102.625 123.247 100.002  1.00  0.00     0.004 C 
ATOM      7  C   UNL     1     101.695 123.927  98.986  1.00  0.00     0.004 C 
ENDBRANCH   5   6
BRANCH   5   8
ATOM      8  C   UNL     1     102.821 120.837 101.037  1.00  0.00    -0.011 C 
ATOM      9  C   UNL     1     101.599 121.127 101.920  1.00  0.00     0.008 C 
ATOM     10  C   UNL     1     104.108 120.897 101.875  1.00  0.00     0.008 C 
ENDBRANCH   5   8
ENDBRANCH   4   5
ENDBRANCH   1   3
BRANCH   1  11
ATOM     11  C   UNL     1     101.356 121.462  95.240  1.00  0.00     0.002 C 
ATOM     12  C   UNL     1     102.268 122.702  95.308  1.00  0.00     0.005 C 
ATOM     13  C   UNL     1      99.891 122.013  95.340  1.00  0.00    -0.026 C 
ATOM     14  C   UNL     1     101.391 123.925  95.087  1.00  0.00     0.005 C 
ATOM     15  C   UNL     1     100.011 123.409  94.676  1.00  0.00    -0.001 C 
ATOM     16  C   UNL     1      99.431 122.164  96.817  1.00  0.00     0.007 C 
ATOM     17  C   UNL     1      98.916 121.112  94.538  1.00  0.00     0.012 C 
ATOM     18  C   UNL     1      98.893 124.459  94.987  1.00  0.00     0.000 C 
ATOM     19  C   UNL     1      98.160 123.002  96.964  1.00  0.00     0.005 C 
ATOM     20  C   UNL     1      98.356 124.448  96.447  1.00  0.00     0.003 C 
ATOM     21  C   UNL     1      97.719 124.421  94.000  1.00  0.00     0.031 C 
ATOM     22  C   UNL     1      97.084 125.412  96.663  1.00  0.00    -0.008 C 
ATOM     23  C   UNL     1      96.937 125.686  94.165  1.00  0.00    -0.027 C 
ATOM     24  C   UNL     1      96.720 126.209  95.390  1.00  0.00    -0.065 C 
ATOM     25  C   UNL     1      97.432 126.411  97.812  1.00  0.00     0.014 C 
ATOM     26  C   UNL     1      95.797 124.630  97.055  1.00  0.00     0.016 C 
ATOM     27  C   UNL     1      95.875 127.465  95.500  1.00  0.00     0.063 C 
ATOM     28  C   UNL     1      96.452 127.587  97.952  1.00  0.00     0.033 C 
ATOM     29  C   UNL     1      96.342 128.375  96.644  1.00  0.00     0.118 C 
BRANCH  29  30
ATOM     30  O   UNL     1      97.583 128.953  96.332  1.00  0.00    -0.393 OA
ATOM     31  H   UNL     1      98.231 128.628  97.012  1.00  0.00     0.210 HD
ENDBRANCH  29  30
ENDBRANCH   1  11
TORSDOF 6
ENDMDL
MODEL 3
REMARK VINA RESULT:    -6.178      0.600      1.579
REMARK INTER + INTRA:          -9.287
REMARK INTER:                  -8.185
REMARK INTRA:                  -1.102
REMARK UNBOUND:                -1.123
REMARK SMILES CC[C@H](C=C[C@H](C)[C@@H]1CC[C@@H]2[C@H]3CC=C4C[C@H](O)CC[C@]4(C)[C@H]3CC[C@@]21C)C(C)C
REMARK SMILES IDX 6 1 7 2 5 3 4 4 3 5 2 6 1 7 28 8 29 9 30 10 8 11 9 12 26 13
REMARK SMILES IDX 10 14 11 15 25 16 27 17 12 18 24 19 23 20 13 21 21 22 14 23
REMARK SMILES IDX 15 24 20 25 22 26 16 27 19 28 17 29 18 30
REMARK H PARENT 18 31
REMARK Flexibility Score: inf
ROOT
ATOM      1  C   UNL     1     101.905 118.306  94.909  1.00  0.00     0.012 C 
ATOM      2  C   UNL     1     103.375 117.851  94.894  1.00  0.00     0.012 C 
ENDROOT
BRANCH   1   3
ATOM      3  C   UNL     1     101.003 117.092  94.780  1.00  0.00    -0.028 C 
ATOM      4  C   UNL     1     101.467 115.879  94.431  1.00  0.00    -0.027 C 
BRANCH   4   5
ATOM      5  C   UNL     1     100.551 114.674  94.341  1.00  0.00     0.014 C 
BRANCH   5   6
ATOM      6  C   UNL     1      99.218 114.859  95.128  1.00  0.00     0.004 C 
ATOM      7  C   UNL     1      99.221 114.349  96.577  1.00  0.00     0.004 C 
ENDBRANCH   5   6
BRANCH   5   8
ATOM      8  C   UNL     1     100.378 114.207  92.860  1.00  0.00    -0.011 C 
ATOM      9  C   UNL     1     100.235 112.687  92.699  1.00  0.00     0.008 C 
ATOM     10  C   UNL     1     101.498 114.735  91.948  1.00  0.00     0.008 C 
ENDBRANCH   5   8
ENDBRANCH   4   5
ENDBRANCH   1   3
BRANCH   1  11
ATOM     11  C   UNL     1     101.521 119.154  96.171  1.00  0.00     0.002 C 
ATOM     12  C   UNL     1     100.066 118.894  96.607  1.00  0.00     0.005 C 
ATOM     13  C   UNL     1     101.662 120.714  96.090  1.00  0.00    -0.026 C 
ATOM     14  C   UNL     1      99.498 120.212  97.109  1.00  0.00     0.005 C 
ATOM     15  C   UNL     1     100.667 121.198  97.176  1.00  0.00    -0.001 C 
ATOM     16  C   UNL     1     101.237 121.259  94.699  1.00  0.00     0.007 C 
ATOM     17  C   UNL     1     103.107 121.148  96.446  1.00  0.00     0.012 C 
ATOM     18  C   UNL     1     100.168 122.679  97.096  1.00  0.00     0.000 C 
ATOM     19  C   UNL     1     101.038 122.776  94.687  1.00  0.00     0.005 C 
ATOM     20  C   UNL     1      99.919 123.221  95.659  1.00  0.00     0.003 C 
ATOM     21  C   UNL     1     101.041 123.667  97.881  1.00  0.00     0.031 C 
ATOM     22  C   UNL     1      99.591 124.798  95.623  1.00  0.00    -0.008 C 
ATOM     23  C   UNL     1     100.267 124.937  98.044  1.00  0.00    -0.027 C 
ATOM     24  C   UNL     1      99.512 125.420  97.036  1.00  0.00    -0.065 C 
ATOM     25  C   UNL     1      98.218 124.984  94.902  1.00  0.00     0.014 C 
ATOM     26  C   UNL     1     100.670 125.618  94.860  1.00  0.00     0.016 C 
ATOM     27  C   UNL     1      98.791 126.739  97.241  1.00  0.00     0.063 C 
ATOM     28  C   UNL     1      97.613 126.390  95.038  1.00  0.00     0.033 C 
ATOM     29  C   UNL     1      97.443 126.780  96.509  1.00  0.00     0.118 C 
BRANCH  29  30
ATOM     30  O   UNL     1      96.526 125.913  97.127  1.00  0.00    -0.393 OA
ATOM     31  H   UNL     1      96.666 125.013  96.728  1.00  0.00     0.210 HD
ENDBRANCH  29  30
ENDBRANCH   1  11
TORSDOF 6
ENDMDL
MODEL 4
REMARK VINA RESULT:    -6.162      2.902      8.449
REMARK INTER + INTRA:          -9.266
REMARK INTER:                  -8.362
REMARK INTRA:                  -0.904
REMARK UNBOUND:                -1.123
REMARK SMILES CC[C@H](C=C[C@H](C)[C@@H]1CC[C@@H]2[C@H]3CC=C4C[C@H](O)CC[C@]4(C)[C@H]3CC[C@@]21C)C(C)C
REMARK SMILES IDX 6 1 7 2 5 3 4 4 3 5 2 6 1 7 28 8 29 9 30 10 8 11 9 12 26 13
REMARK SMILES IDX 10 14 11 15 25 16 27 17 12 18 24 19 23 20 13 21 21 22 14 23
REMARK SMILES IDX 15 24 20 25 22 26 16 27 19 28 17 29 18 30
REMARK H PARENT 18 31
REMARK Flexibility Score: inf
ROOT
ATOM      1  C   UNL     1      98.295 125.658  95.166  1.00  0.00     0.012 C 
ATOM      2  C   UNL     1      97.444 124.817  94.198  1.00  0.00     0.012 C 
ENDROOT
BRANCH   1   3
ATOM      3  C   UNL     1      97.633 125.675  96.531  1.00  0.00    -0.028 C 
ATOM      4  C   UNL     1      96.581 124.892  96.835  1.00  0.00    -0.027 C 
BRANCH   4   5
ATOM      5  C   UNL     1      95.956 124.903  98.217  1.00  0.00     0.014 C 
BRANCH   5   6
ATOM      6  C   UNL     1      94.461 125.346  98.208  1.00  0.00     0.004 C 
ATOM      7  C   UNL     1      93.777 125.364  96.833  1.00  0.00     0.004 C 
ENDBRANCH   5   6
BRANCH   5   8
ATOM      8  C   UNL     1      96.239 123.565  98.974  1.00  0.00    -0.011 C 
ATOM      9  C   UNL     1      97.389 123.654  99.986  1.00  0.00     0.008 C 
ATOM     10  C   UNL     1      96.467 122.389  98.011  1.00  0.00     0.008 C 
ENDBRANCH   5   8
ENDBRANCH   4   5
ENDBRANCH   1   3
BRANCH   1  11
ATOM     11  C   UNL     1      99.784 125.179  95.275  1.00  0.00     0.002 C 
ATOM     12  C   UNL     1     100.494 125.225  93.908  1.00  0.00     0.005 C 
ATOM     13  C   UNL     1     100.065 123.745  95.845  1.00  0.00    -0.026 C 
ATOM     14  C   UNL     1     101.438 124.034  93.845  1.00  0.00     0.005 C 
ATOM     15  C   UNL     1     101.453 123.409  95.241  1.00  0.00    -0.001 C 
ATOM     16  C   UNL     1      99.010 122.714  95.357  1.00  0.00     0.007 C 
ATOM     17  C   UNL     1     100.141 123.782  97.393  1.00  0.00     0.012 C 
ATOM     18  C   UNL     1     101.876 121.903  95.188  1.00  0.00     0.000 C 
ATOM     19  C   UNL     1      99.431 121.264  95.608  1.00  0.00     0.005 C 
ATOM     20  C   UNL     1     100.733 120.902  94.856  1.00  0.00     0.003 C 
ATOM     21  C   UNL     1     102.637 121.432  96.434  1.00  0.00     0.031 C 
ATOM     22  C   UNL     1     101.179 119.360  94.999  1.00  0.00    -0.008 C 
ATOM     23  C   UNL     1     103.305 120.134  96.103  1.00  0.00    -0.027 C 
ATOM     24  C   UNL     1     102.675 119.205  95.354  1.00  0.00    -0.065 C 
ATOM     25  C   UNL     1     100.900 118.654  93.634  1.00  0.00     0.014 C 
ATOM     26  C   UNL     1     100.399 118.611  96.117  1.00  0.00     0.016 C 
ATOM     27  C   UNL     1     103.381 117.887  95.095  1.00  0.00     0.063 C 
ATOM     28  C   UNL     1     101.533 117.261  93.497  1.00  0.00     0.033 C 
ATOM     29  C   UNL     1     103.049 117.318  93.710  1.00  0.00     0.118 C 
BRANCH  29  30
ATOM     30  O   UNL     1     103.640 118.102  92.705  1.00  0.00    -0.393 OA
ATOM     31  H   UNL     1     104.491 118.454  93.078  1.00  0.00     0.210 HD
ENDBRANCH  29  30
ENDBRANCH   1  11
TORSDOF 6
ENDMDL
MODEL 5
REMARK VINA RESULT:    -6.059      2.155      3.643
REMARK INTER + INTRA:          -9.131
REMARK INTER:                  -7.931
REMARK INTRA:                  -1.200
REMARK UNBOUND:                -1.123
REMARK SMILES CC[C@H](C=C[C@H](C)[C@@H]1CC[C@@H]2[C@H]3CC=C4C[C@H](O)CC[C@]4(C)[C@H]3CC[C@@]21C)C(C)C
REMARK SMILES IDX 6 1 7 2 5 3 4 4 3 5 2 6 1 7 28 8 29 9 30 10 8 11 9 12 26 13
REMARK SMILES IDX 10 14 11 15 25 16 27 17 12 18 24 19 23 20 13 21 21 22 14 23
REMARK SMILES IDX 15 24 20 25 22 26 16 27 19 28 17 29 18 30
REMARK H PARENT 18 31
REMARK Flexibility Score: inf
ROOT
ATOM      1  C   UNL     1      99.280 118.430  96.293  1.00  0.00     0.012 C 
ATOM      2  C   UNL     1      97.822 118.037  95.992  1.00  0.00     0.012 C 
ENDROOT
BRANCH   1   3
ATOM      3  C   UNL     1     100.158 117.194  96.224  1.00  0.00    -0.028 C 
ATOM      4  C   UNL     1     100.072 116.300  95.222  1.00  0.00    -0.027 C 
BRANCH   4   5
ATOM      5  C   UNL     1     100.983 115.090  95.157  1.00  0.00     0.014 C 
BRANCH   5   6
ATOM      6  C   UNL     1     100.226 113.775  94.794  1.00  0.00     0.004 C 
ATOM      7  C   UNL     1      98.769 113.946  94.340  1.00  0.00     0.004 C 
ENDBRANCH   5   6
BRANCH   5   8
ATOM      8  C   UNL     1     102.247 115.380  94.287  1.00  0.00    -0.011 C 
ATOM      9  C   UNL     1     103.379 116.084  95.047  1.00  0.00     0.008 C 
ATOM     10  C   UNL     1     101.905 116.156  93.004  1.00  0.00     0.008 C 
ENDBRANCH   5   8
ENDBRANCH   4   5
ENDBRANCH   1   3
BRANCH   1  11
ATOM     11  C   UNL     1      99.834 119.560  95.357  1.00  0.00     0.002 C 
ATOM     12  C   UNL     1     101.369 119.496  95.240  1.00  0.00     0.005 C 
ATOM     13  C   UNL     1      99.502 121.051  95.713  1.00  0.00    -0.026 C 
ATOM     14  C   UNL     1     101.879 120.927  95.164  1.00  0.00     0.005 C 
ATOM     15  C   UNL     1     100.650 121.826  95.018  1.00  0.00    -0.001 C 
ATOM     16  C   UNL     1      99.544 121.300  97.246  1.00  0.00     0.007 C 
ATOM     17  C   UNL     1      98.131 121.459  95.115  1.00  0.00     0.012 C 
ATOM     18  C   UNL     1     100.946 123.282  95.512  1.00  0.00     0.000 C 
ATOM     19  C   UNL     1      99.561 122.786  97.609  1.00  0.00     0.005 C 
ATOM     20  C   UNL     1     100.809 123.506  97.044  1.00  0.00     0.003 C 
ATOM     21  C   UNL     1     100.162 124.361  94.755  1.00  0.00     0.031 C 
ATOM     22  C   UNL     1     100.938 125.053  97.474  1.00  0.00    -0.008 C 
ATOM     23  C   UNL     1     100.803 125.683  95.041  1.00  0.00    -0.027 C 
ATOM     24  C   UNL     1     101.256 125.977  96.277  1.00  0.00    -0.065 C 
ATOM     25  C   UNL     1     102.088 125.162  98.526  1.00  0.00     0.014 C 
ATOM     26  C   UNL     1      99.631 125.613  98.105  1.00  0.00     0.016 C 
ATOM     27  C   UNL     1     101.849 127.353  96.520  1.00  0.00     0.063 C 
ATOM     28  C   UNL     1     102.543 126.599  98.824  1.00  0.00     0.033 C 
ATOM     29  C   UNL     1     102.989 127.316  97.546  1.00  0.00     0.118 C 
BRANCH  29  30
ATOM     30  O   UNL     1     104.112 126.668  97.006  1.00  0.00    -0.393 OA
ATOM     31  H   UNL     1     104.079 126.805  96.022  1.00  0.00     0.210 HD
ENDBRANCH  29  30
ENDBRANCH   1  11
TORSDOF 6
ENDMDL
MODEL 6
REMARK VINA RESULT:    -6.024      4.566     10.062
REMARK INTER + INTRA:          -9.085
REMARK INTER:                  -8.527
REMARK INTRA:                  -0.558
REMARK UNBOUND:                -1.123
REMARK SMILES CC[C@H](C=C[C@H](C)[C@@H]1CC[C@@H]2[C@H]3CC=C4C[C@H](O)CC[C@]4(C)[C@H]3CC[C@@]21C)C(C)C
REMARK SMILES IDX 6 1 7 2 5 3 4 4 3 5 2 6 1 7 28 8 29 9 30 10 8 11 9 12 26 13
REMARK SMILES IDX 10 14 11 15 25 16 27 17 12 18 24 19 23 20 13 21 21 22 14 23
REMARK SMILES IDX 15 24 20 25 22 26 16 27 19 28 17 29 18 30
REMARK H PARENT 18 31
REMARK Flexibility Score: inf
ROOT
ATOM      1  C   UNL     1     104.093 117.348  93.697  1.00  0.00     0.012 C 
ATOM      2  C   UNL     1     103.440 117.995  92.462  1.00  0.00     0.012 C 
ENDROOT
BRANCH   1   3
ATOM      3  C   UNL     1     103.387 117.831  94.950  1.00  0.00    -0.028 C 
ATOM      4  C   UNL     1     102.772 119.026  95.020  1.00  0.00    -0.027 C 
BRANCH   4   5
ATOM      5  C   UNL     1     102.045 119.473  96.272  1.00  0.00     0.014 C 
BRANCH   5   6
ATOM      6  C   UNL     1     102.600 120.808  96.858  1.00  0.00     0.004 C 
ATOM      7  C   UNL     1     102.241 121.096  98.323  1.00  0.00     0.004 C 
ENDBRANCH   5   6
BRANCH   5   8
ATOM      8  C   UNL     1     100.496 119.442  96.067  1.00  0.00    -0.011 C 
ATOM      9  C   UNL     1      99.864 118.064  96.305  1.00  0.00     0.008 C 
ATOM     10  C   UNL     1     100.081 119.987  94.691  1.00  0.00     0.008 C 
ENDBRANCH   5   8
ENDBRANCH   4   5
ENDBRANCH   1   3
BRANCH   1  11
ATOM     11  C   UNL     1     104.125 115.781  93.643  1.00  0.00     0.002 C 
ATOM     12  C   UNL     1     104.125 115.265  92.191  1.00  0.00     0.005 C 
ATOM     13  C   UNL     1     102.983 114.988  94.370  1.00  0.00    -0.026 C 
ATOM     14  C   UNL     1     103.293 113.992  92.161  1.00  0.00     0.005 C 
ATOM     15  C   UNL     1     102.982 113.634  93.615  1.00  0.00    -0.001 C 
ATOM     16  C   UNL     1     101.605 115.687  94.211  1.00  0.00     0.007 C 
ATOM     17  C   UNL     1     103.337 114.776  95.865  1.00  0.00     0.012 C 
ATOM     18  C   UNL     1     101.698 112.745  93.722  1.00  0.00     0.000 C 
ATOM     19  C   UNL     1     100.431 114.789  94.606  1.00  0.00     0.005 C 
ATOM     20  C   UNL     1     100.350 113.521  93.724  1.00  0.00     0.003 C 
ATOM     21  C   UNL     1     101.730 111.753  94.890  1.00  0.00     0.031 C 
ATOM     22  C   UNL     1      99.077 112.580  94.024  1.00  0.00    -0.008 C 
ATOM     23  C   UNL     1     100.662 110.730  94.657  1.00  0.00    -0.027 C 
ATOM     24  C   UNL     1      99.460 111.089  94.161  1.00  0.00    -0.065 C 
ATOM     25  C   UNL     1      98.072 112.744  92.839  1.00  0.00     0.014 C 
ATOM     26  C   UNL     1      98.351 112.955  95.347  1.00  0.00     0.016 C 
ATOM     27  C   UNL     1      98.398 110.017  93.995  1.00  0.00     0.063 C 
ATOM     28  C   UNL     1      96.942 111.703  92.814  1.00  0.00     0.033 C 
ATOM     29  C   UNL     1      97.502 110.278  92.778  1.00  0.00     0.118 C 
BRANCH  29  30
ATOM     30  O   UNL     1      98.223 110.081  91.589  1.00  0.00    -0.393 OA
ATOM     31  H   UNL     1      99.151 110.393  91.760  1.00  0.00     0.210 HD
ENDBRANCH  29  30
ENDBRANCH   1  11
TORSDOF 6
ENDMDL
MODEL 7
REMARK VINA RESULT:    -5.874      1.673      3.491
REMARK INTER + INTRA:          -8.886
REMARK INTER:                  -8.141
REMARK INTRA:                  -0.745
REMARK UNBOUND:                -1.123
REMARK SMILES CC[C@H](C=C[C@H](C)[C@@H]1CC[C@@H]2[C@H]3CC=C4C[C@H](O)CC[C@]4(C)[C@H]3CC[C@@]21C)C(C)C
REMARK SMILES IDX 6 1 7 2 5 3 4 4 3 5 2 6 1 7 28 8 29 9 30 10 8 11 9 12 26 13
REMARK SMILES IDX 10 14 11 15 25 16 27 17 12 18 24 19 23 20 13 21 21 22 14 23
REMARK SMILES IDX 15 24 20 25 22 26 16 27 19 28 17 29 18 30
REMARK H PARENT 18 31
REMARK Flexibility Score: inf
ROOT
ATOM      1  C   UNL     1     100.793 118.769  95.850  1.00  0.00     0.012 C 
ATOM      2  C   UNL     1      99.592 117.813  95.737  1.00  0.00     0.012 C 
ENDROOT
BRANCH   1   3
ATOM      3  C   UNL     1     102.068 118.013  95.528  1.00  0.00    -0.028 C 
ATOM      4  C   UNL     1     102.069 116.845  94.860  1.00  0.00    -0.027 C 
BRANCH   4   5
ATOM      5  C   UNL     1     103.359 116.125  94.522  1.00  0.00     0.014 C 
BRANCH   5   6
ATOM      6  C   UNL     1     103.399 114.660  95.056  1.00  0.00     0.004 C 
ATOM      7  C   UNL     1     102.038 114.034  95.393  1.00  0.00     0.004 C 
ENDBRANCH   5   6
BRANCH   5   8
ATOM      8  C   UNL     1     103.712 116.279  93.007  1.00  0.00    -0.011 C 
ATOM      9  C   UNL     1     103.964 117.729  92.572  1.00  0.00     0.008 C 
ATOM     10  C   UNL     1     102.662 115.625  92.096  1.00  0.00     0.008 C 
ENDBRANCH   5   8
ENDBRANCH   4   5
ENDBRANCH   1   3
BRANCH   1  11
ATOM     11  C   UNL     1     100.663 120.050  94.955  1.00  0.00     0.002 C 
ATOM     12  C   UNL     1     101.882 120.979  95.118  1.00  0.00     0.005 C 
ATOM     13  C   UNL     1      99.407 120.969  95.148  1.00  0.00    -0.026 C 
ATOM     14  C   UNL     1     101.376 122.412  95.040  1.00  0.00     0.005 C 
ATOM     15  C   UNL     1      99.907 122.338  94.619  1.00  0.00    -0.001 C 
ATOM     16  C   UNL     1      99.007 121.092  96.645  1.00  0.00     0.007 C 
ATOM     17  C   UNL     1      98.221 120.455  94.291  1.00  0.00     0.012 C 
ATOM     18  C   UNL     1      99.122 123.618  95.061  1.00  0.00     0.000 C 
ATOM     19  C   UNL     1      98.016 122.227  96.907  1.00  0.00     0.005 C 
ATOM     20  C   UNL     1      98.603 123.607  96.527  1.00  0.00     0.003 C 
ATOM     21  C   UNL     1      97.983 124.003  94.108  1.00  0.00     0.031 C 
ATOM     22  C   UNL     1      97.646 124.857  96.870  1.00  0.00    -0.008 C 
ATOM     23  C   UNL     1      97.580 125.411  94.416  1.00  0.00    -0.027 C 
ATOM     24  C   UNL     1      97.516 125.847  95.691  1.00  0.00    -0.065 C 
ATOM     25  C   UNL     1      98.256 125.602  98.100  1.00  0.00     0.014 C 
ATOM     26  C   UNL     1      96.194 124.423  97.221  1.00  0.00     0.016 C 
ATOM     27  C   UNL     1      97.050 127.269  95.945  1.00  0.00     0.063 C 
ATOM     28  C   UNL     1      97.638 126.981  98.380  1.00  0.00     0.033 C 
ATOM     29  C   UNL     1      97.749 127.896  97.157  1.00  0.00     0.118 C 
BRANCH  29  30
ATOM     30  O   UNL     1      99.102 128.140  96.869  1.00  0.00    -0.393 OA
ATOM     31  H   UNL     1      99.239 127.909  95.912  1.00  0.00     0.210 HD
ENDBRANCH  29  30
ENDBRANCH   1  11
TORSDOF 6
ENDMDL
MODEL 8
REMARK VINA RESULT:    -5.771      1.900      2.761
REMARK INTER + INTRA:          -8.750
REMARK INTER:                  -7.606
REMARK INTRA:                  -1.144
REMARK UNBOUND:                -1.123
REMARK SMILES CC[C@H](C=C[C@H](C)[C@@H]1CC[C@@H]2[C@H]3CC=C4C[C@H](O)CC[C@]4(C)[C@H]3CC[C@@]21C)C(C)C
REMARK SMILES IDX 6 1 7 2 5 3 4 4 3 5 2 6 1 7 28 8 29 9 30 10 8 11 9 12 26 13
REMARK SMILES IDX 10 14 11 15 25 16 27 17 12 18 24 19 23 20 13 21 21 22 14 23
REMARK SMILES IDX 15 24 20 25 22 26 16 27 19 28 17 29 18 30
REMARK H PARENT 18 31
REMARK Flexibility Score: inf
ROOT
ATOM      1  C   UNL     1     101.692 119.271  95.111  1.00  0.00     0.012 C 
ATOM      2  C   UNL     1     103.184 118.893  95.135  1.00  0.00     0.012 C 
ENDROOT
BRANCH   1   3
ATOM      3  C   UNL     1     100.856 118.031  95.365  1.00  0.00    -0.028 C 
ATOM      4  C   UNL     1     101.198 116.818  94.894  1.00  0.00    -0.027 C 
BRANCH   4   5
ATOM      5  C   UNL     1     100.363 115.587  95.189  1.00  0.00     0.014 C 
BRANCH   5   6
ATOM      6  C   UNL     1      99.034 115.915  95.936  1.00  0.00     0.004 C 
ATOM      7  C   UNL     1      98.841 115.224  97.293  1.00  0.00     0.004 C 
ENDBRANCH   5   6
BRANCH   5   8
ATOM      8  C   UNL     1     100.197 114.699  93.914  1.00  0.00    -0.011 C 
ATOM      9  C   UNL     1     100.299 113.192  94.187  1.00  0.00     0.008 C 
ATOM     10  C   UNL     1     101.168 115.103  92.793  1.00  0.00     0.008 C 
ENDBRANCH   5   8
ENDBRANCH   4   5
ENDBRANCH   1   3
BRANCH   1  11
ATOM     11  C   UNL     1     101.316 120.413  96.118  1.00  0.00     0.002 C 
ATOM     12  C   UNL     1     100.446 119.884  97.274  1.00  0.00     0.005 C 
ATOM     13  C   UNL     1     100.560 121.672  95.567  1.00  0.00    -0.026 C 
ATOM     14  C   UNL     1      99.441 120.972  97.623  1.00  0.00     0.005 C 
ATOM     15  C   UNL     1      99.847 122.217  96.832  1.00  0.00    -0.001 C 
ATOM     16  C   UNL     1      99.510 121.288  94.488  1.00  0.00     0.007 C 
ATOM     17  C   UNL     1     101.570 122.715  95.021  1.00  0.00     0.012 C 
ATOM     18  C   UNL     1      98.632 123.180  96.622  1.00  0.00     0.000 C 
ATOM     19  C   UNL     1      98.532 122.422  94.176  1.00  0.00     0.005 C 
ATOM     20  C   UNL     1      97.708 122.835  95.419  1.00  0.00     0.003 C 
ATOM     21  C   UNL     1      99.023 124.662  96.570  1.00  0.00     0.031 C 
ATOM     22  C   UNL     1      96.589 123.958  95.135  1.00  0.00    -0.008 C 
ATOM     23  C   UNL     1      97.779 125.474  96.755  1.00  0.00    -0.027 C 
ATOM     24  C   UNL     1      96.619 125.102  96.174  1.00  0.00    -0.065 C 
ATOM     25  C   UNL     1      95.192 123.262  95.179  1.00  0.00     0.014 C 
ATOM     26  C   UNL     1      96.762 124.641  93.748  1.00  0.00     0.016 C 
ATOM     27  C   UNL     1      95.404 125.992  96.354  1.00  0.00     0.063 C 
ATOM     28  C   UNL     1      93.999 124.230  95.221  1.00  0.00     0.033 C 
ATOM     29  C   UNL     1      94.101 125.184  96.415  1.00  0.00     0.118 C 
BRANCH  29  30
ATOM     30  O   UNL     1      94.036 124.453  97.613  1.00  0.00    -0.393 OA
ATOM     31  H   UNL     1      94.527 124.979  98.298  1.00  0.00     0.210 HD
ENDBRANCH  29  30
ENDBRANCH   1  11
TORSDOF 6
ENDMDL
MODEL 9
REMARK VINA RESULT:    -5.764      1.934      3.412
REMARK INTER + INTRA:          -8.741
REMARK INTER:                  -7.333
REMARK INTRA:                  -1.407
REMARK UNBOUND:                -1.123
REMARK SMILES CC[C@H](C=C[C@H](C)[C@@H]1CC[C@@H]2[C@H]3CC=C4C[C@H](O)CC[C@]4(C)[C@H]3CC[C@@]21C)C(C)C
REMARK SMILES IDX 6 1 7 2 5 3 4 4 3 5 2 6 1 7 28 8 29 9 30 10 8 11 9 12 26 13
REMARK SMILES IDX 10 14 11 15 25 16 27 17 12 18 24 19 23 20 13 21 21 22 14 23
REMARK SMILES IDX 15 24 20 25 22 26 16 27 19 28 17 29 18 30
REMARK H PARENT 18 31
REMARK Flexibility Score: inf
ROOT
ATOM      1  C   UNL     1      98.791 116.471  97.089  1.00  0.00     0.012 C 
ATOM      2  C   UNL     1      97.981 115.339  97.745  1.00  0.00     0.012 C 
ENDROOT
BRANCH   1   3
ATOM      3  C   UNL     1      99.306 116.003  95.740  1.00  0.00    -0.028 C 
ATOM      4  C   UNL     1     100.610 116.039  95.411  1.00  0.00    -0.027 C 
BRANCH   4   5
ATOM      5  C   UNL     1     101.105 115.535  94.069  1.00  0.00     0.014 C 
BRANCH   5   6
ATOM      6  C   UNL     1     101.787 116.645  93.213  1.00  0.00     0.004 C 
ATOM      7  C   UNL     1     101.501 118.092  93.643  1.00  0.00     0.004 C 
ENDBRANCH   5   6
BRANCH   5   8
ATOM      8  C   UNL     1     101.942 114.225  94.231  1.00  0.00    -0.011 C 
ATOM      9  C   UNL     1     103.429 114.392  93.892  1.00  0.00     0.008 C 
ATOM     10  C   UNL     1     101.344 113.051  93.439  1.00  0.00     0.008 C 
ENDBRANCH   5   8
ENDBRANCH   4   5
ENDBRANCH   1   3
BRANCH   1  11
ATOM     11  C   UNL     1      97.994 117.814  96.946  1.00  0.00     0.002 C 
ATOM     12  C   UNL     1      97.505 118.030  95.500  1.00  0.00     0.005 C 
ATOM     13  C   UNL     1      98.708 119.150  97.351  1.00  0.00    -0.026 C 
ATOM     14  C   UNL     1      97.595 119.520  95.208  1.00  0.00     0.005 C 
ATOM     15  C   UNL     1      97.927 120.210  96.532  1.00  0.00    -0.001 C 
ATOM     16  C   UNL     1     100.205 119.153  96.935  1.00  0.00     0.007 C 
ATOM     17  C   UNL     1      98.546 119.412  98.871  1.00  0.00     0.012 C 
ATOM     18  C   UNL     1      98.615 121.596  96.297  1.00  0.00     0.000 C 
ATOM     19  C   UNL     1     100.841 120.543  97.005  1.00  0.00     0.005 C 
ATOM     20  C   UNL     1     100.150 121.545  96.049  1.00  0.00     0.003 C 
ATOM     21  C   UNL     1      98.296 122.634  97.380  1.00  0.00     0.031 C 
ATOM     22  C   UNL     1     100.834 123.002  96.001  1.00  0.00    -0.008 C 
ATOM     23  C   UNL     1      98.678 123.982  96.853  1.00  0.00    -0.027 C 
ATOM     24  C   UNL     1      99.803 124.147  96.127  1.00  0.00    -0.065 C 
ATOM     25  C   UNL     1     101.582 123.133  94.636  1.00  0.00     0.014 C 
ATOM     26  C   UNL     1     101.856 123.224  97.153  1.00  0.00     0.016 C 
ATOM     27  C   UNL     1     100.167 125.545  95.664  1.00  0.00     0.063 C 
ATOM     28  C   UNL     1     102.043 124.560  94.298  1.00  0.00     0.033 C 
ATOM     29  C   UNL     1     100.864 125.537  94.298  1.00  0.00     0.118 C 
BRANCH  29  30
ATOM     30  O   UNL     1      99.954 125.184  93.287  1.00  0.00    -0.393 OA
ATOM     31  H   UNL     1      99.908 124.191  93.276  1.00  0.00     0.210 HD
ENDBRANCH  29  30
ENDBRANCH   1  11
TORSDOF 6
ENDMDL
