MODEL 1
REMARK VINA RESULT:     5.909      0.000      0.000
REMARK INTER + INTRA:          13.609
REMARK INTER:                  12.817
REMARK INTRA:                   0.792
REMARK UNBOUND:                 0.792
REMARK SMILES CCCCCCCCCCCCCCCCCCCCCC(=O)[O-]
REMARK SMILES IDX 12 1 11 2 10 3 9 4 8 5 7 6 6 7 5 8 4 9 3 10 2 11 1 12 13 13
REMARK SMILES IDX 14 14 15 15 16 16 17 17 18 18 19 19 20 20 21 21 22 22 23 23
REMARK SMILES IDX 24 24
REMARK H PARENT
REMARK Flexibility Score: inf
ROOT
ATOM      1  C   UNL     1      30.280  24.048  32.589  1.00  0.00     0.000 C 
ENDROOT
BRANCH   1   2
ATOM      2  C   UNL     1      31.819  23.990  32.594  1.00  0.00     0.000 C 
BRANCH   2   3
ATOM      3  C   UNL     1      32.441  24.714  33.799  1.00  0.00     0.000 C 
BRANCH   3   4
ATOM      4  C   UNL     1      31.398  25.125  34.856  1.00  0.00    -0.000 C 
BRANCH   4   5
ATOM      5  C   UNL     1      31.735  24.718  36.304  1.00  0.00    -0.000 C 
BRANCH   5   6
ATOM      6  C   UNL     1      32.345  23.312  36.463  1.00  0.00    -0.000 C 
BRANCH   6   7
ATOM      7  C   UNL     1      31.752  22.504  37.637  1.00  0.00    -0.000 C 
BRANCH   7   8
ATOM      8  C   UNL     1      31.044  21.219  37.172  1.00  0.00    -0.000 C 
BRANCH   8   9
ATOM      9  C   UNL     1      31.731  19.946  37.713  1.00  0.00    -0.000 C 
BRANCH   9  10
ATOM     10  C   UNL     1      31.160  18.642  37.133  1.00  0.00    -0.000 C 
BRANCH  10  11
ATOM     11  C   UNL     1      32.076  17.433  37.364  1.00  0.00    -0.003 C 
ATOM     12  C   UNL     1      33.014  17.671  38.545  1.00  0.00     0.004 C 
ENDBRANCH  10  11
ENDBRANCH   9  10
ENDBRANCH   8   9
ENDBRANCH   7   8
ENDBRANCH   6   7
ENDBRANCH   5   6
ENDBRANCH   4   5
ENDBRANCH   3   4
ENDBRANCH   2   3
ENDBRANCH   1   2
BRANCH   1  13
ATOM     13  C   UNL     1      29.608  23.611  31.273  1.00  0.00     0.000 C 
BRANCH  13  14
ATOM     14  C   UNL     1      30.172  24.339  30.041  1.00  0.00     0.000 C 
BRANCH  14  15
ATOM     15  C   UNL     1      31.710  24.367  30.029  1.00  0.00     0.000 C 
BRANCH  15  16
ATOM     16  C   UNL     1      32.286  24.347  28.601  1.00  0.00     0.000 C 
BRANCH  16  17
ATOM     17  C   UNL     1      33.704  24.934  28.525  1.00  0.00     0.000 C 
BRANCH  17  18
ATOM     18  C   UNL     1      34.278  24.914  27.098  1.00  0.00     0.000 C 
BRANCH  18  19
ATOM     19  C   UNL     1      35.761  24.505  27.055  1.00  0.00     0.000 C 
BRANCH  19  20
ATOM     20  C   UNL     1      36.294  23.814  28.326  1.00  0.00     0.006 C 
BRANCH  20  21
ATOM     21  C   UNL     1      37.053  24.753  29.281  1.00  0.00     0.053 C 
BRANCH  21  22
ATOM     22  C   UNL     1      36.410  24.835  30.633  1.00  0.00     0.041 C 
ATOM     23  O   UNL     1      37.089  24.629  31.673  1.00  0.00    -0.550 OA
ATOM     24  O   UNL     1      35.049  25.098  30.745  1.00  0.00    -0.550 OA
ENDBRANCH  21  22
ENDBRANCH  20  21
ENDBRANCH  19  20
ENDBRANCH  18  19
ENDBRANCH  17  18
ENDBRANCH  16  17
ENDBRANCH  15  16
ENDBRANCH  14  15
ENDBRANCH  13  14
ENDBRANCH   1  13
TORSDOF 20
ENDMDL
MODEL 2
REMARK VINA RESULT:     7.162      3.497      7.574
REMARK INTER + INTRA:          16.327
REMARK INTER:                  16.089
REMARK INTRA:                   0.238
REMARK UNBOUND:                 0.792
REMARK SMILES CCCCCCCCCCCCCCCCCCCCCC(=O)[O-]
REMARK SMILES IDX 12 1 11 2 10 3 9 4 8 5 7 6 6 7 5 8 4 9 3 10 2 11 1 12 13 13
REMARK SMILES IDX 14 14 15 15 16 16 17 17 18 18 19 19 20 20 21 21 22 22 23 23
REMARK SMILES IDX 24 24
REMARK H PARENT
REMARK Flexibility Score: inf
ROOT
ATOM      1  C   UNL     1      31.787  24.390  29.630  1.00  0.00     0.000 C 
ENDROOT
BRANCH   1   2
ATOM      2  C   UNL     1      32.902  23.956  28.660  1.00  0.00     0.000 C 
BRANCH   2   3
ATOM      3  C   UNL     1      33.352  22.502  28.877  1.00  0.00     0.000 C 
BRANCH   3   4
ATOM      4  C   UNL     1      34.534  22.100  27.974  1.00  0.00    -0.000 C 
BRANCH   4   5
ATOM      5  C   UNL     1      35.879  21.907  28.700  1.00  0.00    -0.000 C 
BRANCH   5   6
ATOM      6  C   UNL     1      37.101  22.523  27.991  1.00  0.00    -0.000 C 
BRANCH   6   7
ATOM      7  C   UNL     1      36.735  23.527  26.877  1.00  0.00    -0.000 C 
BRANCH   7   8
ATOM      8  C   UNL     1      36.877  24.991  27.331  1.00  0.00    -0.000 C 
BRANCH   8   9
ATOM      9  C   UNL     1      37.118  25.109  28.852  1.00  0.00    -0.000 C 
BRANCH   9  10
ATOM     10  C   UNL     1      35.839  24.962  29.692  1.00  0.00    -0.000 C 
BRANCH  10  11
ATOM     11  C   UNL     1      36.005  23.990  30.867  1.00  0.00    -0.003 C 
ATOM     12  C   UNL     1      36.416  24.728  32.139  1.00  0.00     0.004 C 
ENDBRANCH  10  11
ENDBRANCH   9  10
ENDBRANCH   8   9
ENDBRANCH   7   8
ENDBRANCH   6   7
ENDBRANCH   5   6
ENDBRANCH   4   5
ENDBRANCH   3   4
ENDBRANCH   2   3
ENDBRANCH   1   2
BRANCH   1  13
ATOM     13  C   UNL     1      30.373  24.455  29.023  1.00  0.00     0.000 C 
BRANCH  13  14
ATOM     14  C   UNL     1      29.444  23.346  29.545  1.00  0.00     0.000 C 
BRANCH  14  15
ATOM     15  C   UNL     1      29.143  23.490  31.047  1.00  0.00     0.000 C 
BRANCH  15  16
ATOM     16  C   UNL     1      29.159  24.957  31.510  1.00  0.00     0.000 C 
BRANCH  16  17
ATOM     17  C   UNL     1      28.906  25.105  33.020  1.00  0.00     0.000 C 
BRANCH  17  18
ATOM     18  C   UNL     1      30.203  25.046  33.845  1.00  0.00     0.000 C 
BRANCH  18  19
ATOM     19  C   UNL     1      31.116  23.875  33.443  1.00  0.00     0.000 C 
BRANCH  19  20
ATOM     20  C   UNL     1      32.426  24.270  32.734  1.00  0.00     0.006 C 
BRANCH  20  21
ATOM     21  C   UNL     1      33.380  25.115  33.600  1.00  0.00     0.053 C 
BRANCH  21  22
ATOM     22  C   UNL     1      34.068  24.299  34.653  1.00  0.00     0.041 C 
ATOM     23  O   UNL     1      35.256  23.916  34.485  1.00  0.00    -0.550 OA
ATOM     24  O   UNL     1      33.386  23.924  35.805  1.00  0.00    -0.550 OA
ENDBRANCH  21  22
ENDBRANCH  20  21
ENDBRANCH  19  20
ENDBRANCH  18  19
ENDBRANCH  17  18
ENDBRANCH  16  17
ENDBRANCH  15  16
ENDBRANCH  14  15
ENDBRANCH  13  14
ENDBRANCH   1  13
TORSDOF 20
ENDMDL
MODEL 3
REMARK VINA RESULT:     7.511      1.419      2.311
REMARK INTER + INTRA:          17.084
REMARK INTER:                  18.104
REMARK INTRA:                  -1.021
REMARK UNBOUND:                 0.792
REMARK SMILES CCCCCCCCCCCCCCCCCCCCCC(=O)[O-]
REMARK SMILES IDX 12 1 11 2 10 3 9 4 8 5 7 6 6 7 5 8 4 9 3 10 2 11 1 12 13 13
REMARK SMILES IDX 14 14 15 15 16 16 17 17 18 18 19 19 20 20 21 21 22 22 23 23
REMARK SMILES IDX 24 24
REMARK H PARENT
REMARK Flexibility Score: inf
ROOT
ATOM      1  C   UNL     1      30.326  24.596  34.429  1.00  0.00     0.000 C 
ENDROOT
BRANCH   1   2
ATOM      2  C   UNL     1      31.831  24.919  34.483  1.00  0.00     0.000 C 
BRANCH   2   3
ATOM      3  C   UNL     1      32.365  25.043  35.920  1.00  0.00     0.000 C 
BRANCH   3   4
ATOM      4  C   UNL     1      31.747  24.008  36.880  1.00  0.00    -0.000 C 
BRANCH   4   5
ATOM      5  C   UNL     1      32.332  22.585  36.776  1.00  0.00    -0.000 C 
BRANCH   5   6
ATOM      6  C   UNL     1      31.720  21.553  37.741  1.00  0.00    -0.000 C 
BRANCH   6   7
ATOM      7  C   UNL     1      31.448  20.177  37.095  1.00  0.00    -0.000 C 
BRANCH   7   8
ATOM      8  C   UNL     1      31.090  19.097  38.130  1.00  0.00    -0.000 C 
BRANCH   8   9
ATOM      9  C   UNL     1      31.805  17.758  37.847  1.00  0.00    -0.000 C 
BRANCH   9  10
ATOM     10  C   UNL     1      33.308  17.781  38.168  1.00  0.00    -0.000 C 
BRANCH  10  11
ATOM     11  C   UNL     1      33.653  17.046  39.471  1.00  0.00    -0.003 C 
ATOM     12  C   UNL     1      33.778  18.023  40.637  1.00  0.00     0.004 C 
ENDBRANCH  10  11
ENDBRANCH   9  10
ENDBRANCH   8   9
ENDBRANCH   7   8
ENDBRANCH   6   7
ENDBRANCH   5   6
ENDBRANCH   4   5
ENDBRANCH   3   4
ENDBRANCH   2   3
ENDBRANCH   1   2
BRANCH   1  13
ATOM     13  C   UNL     1      29.667  24.761  33.046  1.00  0.00     0.000 C 
BRANCH  13  14
ATOM     14  C   UNL     1      30.689  24.955  31.913  1.00  0.00     0.000 C 
BRANCH  14  15
ATOM     15  C   UNL     1      30.614  23.840  30.856  1.00  0.00     0.000 C 
BRANCH  15  16
ATOM     16  C   UNL     1      31.907  23.730  30.027  1.00  0.00     0.000 C 
BRANCH  16  17
ATOM     17  C   UNL     1      31.872  24.596  28.758  1.00  0.00     0.000 C 
BRANCH  17  18
ATOM     18  C   UNL     1      32.688  23.987  27.604  1.00  0.00     0.000 C 
BRANCH  18  19
ATOM     19  C   UNL     1      33.562  25.023  26.876  1.00  0.00     0.000 C 
BRANCH  19  20
ATOM     20  C   UNL     1      35.026  25.105  27.354  1.00  0.00     0.006 C 
BRANCH  20  21
ATOM     21  C   UNL     1      35.289  24.404  28.699  1.00  0.00     0.053 C 
BRANCH  21  22
ATOM     22  C   UNL     1      36.407  23.407  28.615  1.00  0.00     0.041 C 
ATOM     23  O   UNL     1      37.118  23.164  29.624  1.00  0.00    -0.550 OA
ATOM     24  O   UNL     1      36.691  22.775  27.409  1.00  0.00    -0.550 OA
ENDBRANCH  21  22
ENDBRANCH  20  21
ENDBRANCH  19  20
ENDBRANCH  18  19
ENDBRANCH  17  18
ENDBRANCH  16  17
ENDBRANCH  15  16
ENDBRANCH  14  15
ENDBRANCH  13  14
ENDBRANCH   1  13
TORSDOF 20
ENDMDL
MODEL 4
REMARK VINA RESULT:     7.871      6.132     12.745
REMARK INTER + INTRA:          17.867
REMARK INTER:                  18.950
REMARK INTRA:                  -1.083
REMARK UNBOUND:                 0.792
REMARK SMILES CCCCCCCCCCCCCCCCCCCCCC(=O)[O-]
REMARK SMILES IDX 12 1 11 2 10 3 9 4 8 5 7 6 6 7 5 8 4 9 3 10 2 11 1 12 13 13
REMARK SMILES IDX 14 14 15 15 16 16 17 17 18 18 19 19 20 20 21 21 22 22 23 23
REMARK SMILES IDX 24 24
REMARK H PARENT
REMARK Flexibility Score: inf
ROOT
ATOM      1  C   UNL     1      33.609  18.291  39.035  1.00  0.00     0.000 C 
ENDROOT
BRANCH   1   2
ATOM      2  C   UNL     1      32.129  18.129  38.640  1.00  0.00     0.000 C 
BRANCH   2   3
ATOM      3  C   UNL     1      31.763  18.898  37.359  1.00  0.00     0.000 C 
BRANCH   3   4
ATOM      4  C   UNL     1      31.082  20.250  37.647  1.00  0.00    -0.000 C 
BRANCH   4   5
ATOM      5  C   UNL     1      31.998  21.484  37.527  1.00  0.00    -0.000 C 
BRANCH   5   6
ATOM      6  C   UNL     1      31.361  22.709  36.843  1.00  0.00    -0.000 C 
BRANCH   6   7
ATOM      7  C   UNL     1      32.381  23.786  36.416  1.00  0.00    -0.000 C 
BRANCH   7   8
ATOM      8  C   UNL     1      31.766  24.846  35.485  1.00  0.00    -0.000 C 
BRANCH   8   9
ATOM      9  C   UNL     1      32.571  25.012  34.177  1.00  0.00    -0.000 C 
BRANCH   9  10
ATOM     10  C   UNL     1      31.781  24.628  32.915  1.00  0.00    -0.000 C 
BRANCH  10  11
ATOM     11  C   UNL     1      30.329  25.124  32.945  1.00  0.00    -0.003 C 
ATOM     12  C   UNL     1      29.620  24.831  31.625  1.00  0.00     0.004 C 
ENDBRANCH  10  11
ENDBRANCH   9  10
ENDBRANCH   8   9
ENDBRANCH   7   8
ENDBRANCH   6   7
ENDBRANCH   5   6
ENDBRANCH   4   5
ENDBRANCH   3   4
ENDBRANCH   2   3
ENDBRANCH   1   2
BRANCH   1  13
ATOM     13  C   UNL     1      34.123  17.294  40.090  1.00  0.00     0.000 C 
BRANCH  13  14
ATOM     14  C   UNL     1      33.909  17.782  41.532  1.00  0.00     0.000 C 
BRANCH  14  15
ATOM     15  C   UNL     1      35.049  17.356  42.473  1.00  0.00     0.000 C 
BRANCH  15  16
ATOM     16  C   UNL     1      34.752  16.026  43.190  1.00  0.00     0.000 C 
BRANCH  16  17
ATOM     17  C   UNL     1      36.004  15.148  43.351  1.00  0.00     0.000 C 
BRANCH  17  18
ATOM     18  C   UNL     1      35.762  13.689  42.927  1.00  0.00     0.000 C 
BRANCH  18  19
ATOM     19  C   UNL     1      35.632  13.524  41.403  1.00  0.00     0.000 C 
BRANCH  19  20
ATOM     20  C   UNL     1      34.241  13.084  40.902  1.00  0.00     0.006 C 
BRANCH  20  21
ATOM     21  C   UNL     1      34.270  11.879  39.944  1.00  0.00     0.053 C 
BRANCH  21  22
ATOM     22  C   UNL     1      33.303  10.805  40.348  1.00  0.00     0.041 C 
ATOM     23  O   UNL     1      33.035   9.863  39.557  1.00  0.00    -0.550 OA
ATOM     24  O   UNL     1      32.664  10.867  41.581  1.00  0.00    -0.550 OA
ENDBRANCH  21  22
ENDBRANCH  20  21
ENDBRANCH  19  20
ENDBRANCH  18  19
ENDBRANCH  17  18
ENDBRANCH  16  17
ENDBRANCH  15  16
ENDBRANCH  14  15
ENDBRANCH  13  14
ENDBRANCH   1  13
TORSDOF 20
ENDMDL
MODEL 5
REMARK VINA RESULT:     7.993      3.663      8.010
REMARK INTER + INTRA:          18.130
REMARK INTER:                  19.019
REMARK INTRA:                  -0.888
REMARK UNBOUND:                 0.792
REMARK SMILES CCCCCCCCCCCCCCCCCCCCCC(=O)[O-]
REMARK SMILES IDX 12 1 11 2 10 3 9 4 8 5 7 6 6 7 5 8 4 9 3 10 2 11 1 12 13 13
REMARK SMILES IDX 14 14 15 15 16 16 17 17 18 18 19 19 20 20 21 21 22 22 23 23
REMARK SMILES IDX 24 24
REMARK H PARENT
REMARK Flexibility Score: inf
ROOT
ATOM      1  C   UNL     1      31.798  18.294  37.735  1.00  0.00     0.000 C 
ENDROOT
BRANCH   1   2
ATOM      2  C   UNL     1      33.054  18.550  38.589  1.00  0.00     0.000 C 
BRANCH   2   3
ATOM      3  C   UNL     1      32.904  18.057  40.038  1.00  0.00     0.000 C 
BRANCH   3   4
ATOM      4  C   UNL     1      34.060  17.140  40.482  1.00  0.00    -0.000 C 
BRANCH   4   5
ATOM      5  C   UNL     1      34.510  17.313  41.946  1.00  0.00    -0.000 C 
BRANCH   5   6
ATOM      6  C   UNL     1      34.297  16.082  42.847  1.00  0.00    -0.000 C 
BRANCH   6   7
ATOM      7  C   UNL     1      35.609  15.431  43.335  1.00  0.00    -0.000 C 
BRANCH   7   8
ATOM      8  C   UNL     1      35.909  14.101  42.622  1.00  0.00    -0.000 C 
BRANCH   8   9
ATOM      9  C   UNL     1      34.668  13.533  41.901  1.00  0.00    -0.000 C 
BRANCH   9  10
ATOM     10  C   UNL     1      34.982  12.351  40.969  1.00  0.00    -0.000 C 
BRANCH  10  11
ATOM     11  C   UNL     1      33.804  11.977  40.059  1.00  0.00    -0.003 C 
ATOM     12  C   UNL     1      33.240  10.606  40.424  1.00  0.00     0.004 C 
ENDBRANCH  10  11
ENDBRANCH   9  10
ENDBRANCH   8   9
ENDBRANCH   7   8
ENDBRANCH   6   7
ENDBRANCH   5   6
ENDBRANCH   4   5
ENDBRANCH   3   4
ENDBRANCH   2   3
ENDBRANCH   1   2
BRANCH   1  13
ATOM     13  C   UNL     1      30.957  19.543  37.410  1.00  0.00     0.000 C 
BRANCH  13  14
ATOM     14  C   UNL     1      31.706  20.858  37.682  1.00  0.00     0.000 C 
BRANCH  14  15
ATOM     15  C   UNL     1      31.523  21.884  36.550  1.00  0.00     0.000 C 
BRANCH  15  16
ATOM     16  C   UNL     1      32.294  23.190  36.812  1.00  0.00     0.000 C 
BRANCH  16  17
ATOM     17  C   UNL     1      31.672  24.400  36.095  1.00  0.00     0.000 C 
BRANCH  17  18
ATOM     18  C   UNL     1      32.237  24.603  34.678  1.00  0.00     0.000 C 
BRANCH  18  19
ATOM     19  C   UNL     1      31.159  25.000  33.655  1.00  0.00     0.000 C 
BRANCH  19  20
ATOM     20  C   UNL     1      31.644  25.122  32.196  1.00  0.00     0.006 C 
BRANCH  20  21
ATOM     21  C   UNL     1      30.537  24.917  31.146  1.00  0.00     0.053 C 
BRANCH  21  22
ATOM     22  C   UNL     1      31.087  24.750  29.761  1.00  0.00     0.041 C 
ATOM     23  O   UNL     1      32.306  24.491  29.589  1.00  0.00    -0.550 OA
ATOM     24  O   UNL     1      30.261  24.924  28.656  1.00  0.00    -0.550 OA
ENDBRANCH  21  22
ENDBRANCH  20  21
ENDBRANCH  19  20
ENDBRANCH  18  19
ENDBRANCH  17  18
ENDBRANCH  16  17
ENDBRANCH  15  16
ENDBRANCH  14  15
ENDBRANCH  13  14
ENDBRANCH   1  13
TORSDOF 20
ENDMDL
MODEL 6
REMARK VINA RESULT:     8.034      3.092      6.635
REMARK INTER + INTRA:          18.220
REMARK INTER:                  18.953
REMARK INTRA:                  -0.734
REMARK UNBOUND:                 0.792
REMARK SMILES CCCCCCCCCCCCCCCCCCCCCC(=O)[O-]
REMARK SMILES IDX 12 1 11 2 10 3 9 4 8 5 7 6 6 7 5 8 4 9 3 10 2 11 1 12 13 13
REMARK SMILES IDX 14 14 15 15 16 16 17 17 18 18 19 19 20 20 21 21 22 22 23 23
REMARK SMILES IDX 24 24
REMARK H PARENT
REMARK Flexibility Score: inf
ROOT
ATOM      1  C   UNL     1      31.549  21.449  36.876  1.00  0.00     0.000 C 
ENDROOT
BRANCH   1   2
ATOM      2  C   UNL     1      31.044  20.442  37.926  1.00  0.00     0.000 C 
BRANCH   2   3
ATOM      3  C   UNL     1      30.936  19.010  37.378  1.00  0.00     0.000 C 
BRANCH   3   4
ATOM      4  C   UNL     1      32.286  18.266  37.373  1.00  0.00    -0.000 C 
BRANCH   4   5
ATOM      5  C   UNL     1      32.948  18.101  38.755  1.00  0.00    -0.000 C 
BRANCH   5   6
ATOM      6  C   UNL     1      34.156  17.145  38.792  1.00  0.00    -0.000 C 
BRANCH   6   7
ATOM      7  C   UNL     1      34.124  16.145  39.969  1.00  0.00    -0.000 C 
BRANCH   7   8
ATOM      8  C   UNL     1      34.363  14.694  39.518  1.00  0.00    -0.000 C 
BRANCH   8   9
ATOM      9  C   UNL     1      34.509  13.728  40.714  1.00  0.00    -0.000 C 
BRANCH   9  10
ATOM     10  C   UNL     1      34.651  12.253  40.303  1.00  0.00    -0.000 C 
BRANCH  10  11
ATOM     11  C   UNL     1      33.377  11.436  40.561  1.00  0.00    -0.003 C 
ATOM     12  C   UNL     1      33.369  10.153  39.734  1.00  0.00     0.004 C 
ENDBRANCH  10  11
ENDBRANCH   9  10
ENDBRANCH   8   9
ENDBRANCH   7   8
ENDBRANCH   6   7
ENDBRANCH   5   6
ENDBRANCH   4   5
ENDBRANCH   3   4
ENDBRANCH   2   3
ENDBRANCH   1   2
BRANCH   1  13
ATOM     13  C   UNL     1      32.378  22.622  37.433  1.00  0.00     0.000 C 
BRANCH  13  14
ATOM     14  C   UNL     1      31.984  23.978  36.824  1.00  0.00     0.000 C 
BRANCH  14  15
ATOM     15  C   UNL     1      32.303  24.064  35.321  1.00  0.00     0.000 C 
BRANCH  15  16
ATOM     16  C   UNL     1      31.452  25.124  34.600  1.00  0.00     0.000 C 
BRANCH  16  17
ATOM     17  C   UNL     1      31.671  25.125  33.078  1.00  0.00     0.000 C 
BRANCH  17  18
ATOM     18  C   UNL     1      30.935  23.970  32.375  1.00  0.00     0.000 C 
BRANCH  18  19
ATOM     19  C   UNL     1      29.898  24.459  31.349  1.00  0.00     0.000 C 
BRANCH  19  20
ATOM     20  C   UNL     1      30.468  24.866  29.975  1.00  0.00     0.006 C 
BRANCH  20  21
ATOM     21  C   UNL     1      30.613  23.698  28.983  1.00  0.00     0.053 C 
BRANCH  21  22
ATOM     22  C   UNL     1      31.750  23.899  28.026  1.00  0.00     0.041 C 
ATOM     23  O   UNL     1      32.061  25.058  27.643  1.00  0.00    -0.550 OA
ATOM     24  O   UNL     1      32.442  22.804  27.522  1.00  0.00    -0.550 OA
ENDBRANCH  21  22
ENDBRANCH  20  21
ENDBRANCH  19  20
ENDBRANCH  18  19
ENDBRANCH  17  18
ENDBRANCH  16  17
ENDBRANCH  15  16
ENDBRANCH  14  15
ENDBRANCH  13  14
ENDBRANCH   1  13
TORSDOF 20
ENDMDL
MODEL 7
REMARK VINA RESULT:     8.066      3.777      8.301
REMARK INTER + INTRA:          18.289
REMARK INTER:                  19.222
REMARK INTRA:                  -0.933
REMARK UNBOUND:                 0.792
REMARK SMILES CCCCCCCCCCCCCCCCCCCCCC(=O)[O-]
REMARK SMILES IDX 12 1 11 2 10 3 9 4 8 5 7 6 6 7 5 8 4 9 3 10 2 11 1 12 13 13
REMARK SMILES IDX 14 14 15 15 16 16 17 17 18 18 19 19 20 20 21 21 22 22 23 23
REMARK SMILES IDX 24 24
REMARK H PARENT
REMARK Flexibility Score: inf
ROOT
ATOM      1  C   UNL     1      32.305  18.395  38.889  1.00  0.00     0.000 C 
ENDROOT
BRANCH   1   2
ATOM      2  C   UNL     1      33.794  18.145  39.191  1.00  0.00     0.000 C 
BRANCH   2   3
ATOM      3  C   UNL     1      34.014  17.075  40.273  1.00  0.00     0.000 C 
BRANCH   3   4
ATOM      4  C   UNL     1      33.830  17.622  41.702  1.00  0.00    -0.000 C 
BRANCH   4   5
ATOM      5  C   UNL     1      34.904  17.181  42.716  1.00  0.00    -0.000 C 
BRANCH   5   6
ATOM      6  C   UNL     1      34.769  15.734  43.227  1.00  0.00    -0.000 C 
BRANCH   6   7
ATOM      7  C   UNL     1      35.875  14.785  42.717  1.00  0.00    -0.000 C 
BRANCH   7   8
ATOM      8  C   UNL     1      35.372  13.345  42.514  1.00  0.00    -0.000 C 
BRANCH   8   9
ATOM      9  C   UNL     1      35.032  13.049  41.037  1.00  0.00    -0.000 C 
BRANCH   9  10
ATOM     10  C   UNL     1      34.677  11.578  40.768  1.00  0.00    -0.000 C 
BRANCH  10  11
ATOM     11  C   UNL     1      33.343  11.411  40.027  1.00  0.00    -0.003 C 
ATOM     12  C   UNL     1      33.001   9.935  39.835  1.00  0.00     0.004 C 
ENDBRANCH  10  11
ENDBRANCH   9  10
ENDBRANCH   8   9
ENDBRANCH   7   8
ENDBRANCH   6   7
ENDBRANCH   5   6
ENDBRANCH   4   5
ENDBRANCH   3   4
ENDBRANCH   2   3
ENDBRANCH   1   2
BRANCH   1  13
ATOM     13  C   UNL     1      31.971  18.686  37.413  1.00  0.00     0.000 C 
BRANCH  13  14
ATOM     14  C   UNL     1      31.238  20.024  37.217  1.00  0.00     0.000 C 
BRANCH  14  15
ATOM     15  C   UNL     1      32.056  21.223  37.724  1.00  0.00     0.000 C 
BRANCH  15  16
ATOM     16  C   UNL     1      31.381  22.570  37.409  1.00  0.00     0.000 C 
BRANCH  16  17
ATOM     17  C   UNL     1      32.333  23.566  36.726  1.00  0.00     0.000 C 
BRANCH  17  18
ATOM     18  C   UNL     1      31.591  24.756  36.094  1.00  0.00     0.000 C 
BRANCH  18  19
ATOM     19  C   UNL     1      31.705  24.786  34.560  1.00  0.00     0.000 C 
BRANCH  19  20
ATOM     20  C   UNL     1      33.021  24.226  33.983  1.00  0.00     0.006 C 
BRANCH  20  21
ATOM     21  C   UNL     1      33.672  25.125  32.916  1.00  0.00     0.053 C 
BRANCH  21  22
ATOM     22  C   UNL     1      35.167  24.999  32.897  1.00  0.00     0.041 C 
ATOM     23  O   UNL     1      35.826  25.107  33.964  1.00  0.00    -0.550 OA
ATOM     24  O   UNL     1      35.837  24.806  31.694  1.00  0.00    -0.550 OA
ENDBRANCH  21  22
ENDBRANCH  20  21
ENDBRANCH  19  20
ENDBRANCH  18  19
ENDBRANCH  17  18
ENDBRANCH  16  17
ENDBRANCH  15  16
ENDBRANCH  14  15
ENDBRANCH  13  14
ENDBRANCH   1  13
TORSDOF 20
ENDMDL
MODEL 8
REMARK VINA RESULT:     8.124      3.249      6.774
REMARK INTER + INTRA:          18.415
REMARK INTER:                  19.264
REMARK INTRA:                  -0.849
REMARK UNBOUND:                 0.792
REMARK SMILES CCCCCCCCCCCCCCCCCCCCCC(=O)[O-]
REMARK SMILES IDX 12 1 11 2 10 3 9 4 8 5 7 6 6 7 5 8 4 9 3 10 2 11 1 12 13 13
REMARK SMILES IDX 14 14 15 15 16 16 17 17 18 18 19 19 20 20 21 21 22 22 23 23
REMARK SMILES IDX 24 24
REMARK H PARENT
REMARK Flexibility Score: inf
ROOT
ATOM      1  C   UNL     1      31.535  21.486  36.976  1.00  0.00     0.000 C 
ENDROOT
BRANCH   1   2
ATOM      2  C   UNL     1      31.072  20.271  37.802  1.00  0.00     0.000 C 
BRANCH   2   3
ATOM      3  C   UNL     1      31.287  18.934  37.074  1.00  0.00     0.000 C 
BRANCH   3   4
ATOM      4  C   UNL     1      32.277  18.007  37.804  1.00  0.00    -0.000 C 
BRANCH   4   5
ATOM      5  C   UNL     1      32.701  18.476  39.210  1.00  0.00    -0.000 C 
BRANCH   5   6
ATOM      6  C   UNL     1      33.736  17.580  39.916  1.00  0.00    -0.000 C 
BRANCH   6   7
ATOM      7  C   UNL     1      33.717  17.698  41.455  1.00  0.00    -0.000 C 
BRANCH   7   8
ATOM      8  C   UNL     1      35.008  17.169  42.104  1.00  0.00    -0.000 C 
BRANCH   8   9
ATOM      9  C   UNL     1      34.728  16.051  43.133  1.00  0.00    -0.000 C 
BRANCH   9  10
ATOM     10  C   UNL     1      34.887  14.633  42.561  1.00  0.00    -0.000 C 
BRANCH  10  11
ATOM     11  C   UNL     1      36.308  14.079  42.726  1.00  0.00    -0.003 C 
ATOM     12  C   UNL     1      37.093  14.875  43.766  1.00  0.00     0.004 C 
ENDBRANCH  10  11
ENDBRANCH   9  10
ENDBRANCH   8   9
ENDBRANCH   7   8
ENDBRANCH   6   7
ENDBRANCH   5   6
ENDBRANCH   4   5
ENDBRANCH   3   4
ENDBRANCH   2   3
ENDBRANCH   1   2
BRANCH   1  13
ATOM     13  C   UNL     1      32.241  22.597  37.776  1.00  0.00     0.000 C 
BRANCH  13  14
ATOM     14  C   UNL     1      32.203  23.962  37.068  1.00  0.00     0.000 C 
BRANCH  14  15
ATOM     15  C   UNL     1      31.819  23.845  35.583  1.00  0.00     0.000 C 
BRANCH  15  16
ATOM     16  C   UNL     1      32.165  25.115  34.785  1.00  0.00     0.000 C 
BRANCH  16  17
ATOM     17  C   UNL     1      32.281  24.852  33.274  1.00  0.00     0.000 C 
BRANCH  17  18
ATOM     18  C   UNL     1      31.073  24.081  32.714  1.00  0.00     0.000 C 
BRANCH  18  19
ATOM     19  C   UNL     1      30.202  24.934  31.774  1.00  0.00     0.000 C 
BRANCH  19  20
ATOM     20  C   UNL     1      30.651  24.961  30.299  1.00  0.00     0.006 C 
BRANCH  20  21
ATOM     21  C   UNL     1      29.878  23.990  29.389  1.00  0.00     0.053 C 
BRANCH  21  22
ATOM     22  C   UNL     1      30.557  23.781  28.068  1.00  0.00     0.041 C 
ATOM     23  O   UNL     1      31.707  23.271  28.019  1.00  0.00    -0.550 OA
ATOM     24  O   UNL     1      29.939  24.188  26.891  1.00  0.00    -0.550 OA
ENDBRANCH  21  22
ENDBRANCH  20  21
ENDBRANCH  19  20
ENDBRANCH  18  19
ENDBRANCH  17  18
ENDBRANCH  16  17
ENDBRANCH  15  16
ENDBRANCH  14  15
ENDBRANCH  13  14
ENDBRANCH   1  13
TORSDOF 20
ENDMDL
MODEL 9
REMARK VINA RESULT:     8.341      5.570     12.146
REMARK INTER + INTRA:          18.885
REMARK INTER:                  19.665
REMARK INTRA:                  -0.781
REMARK UNBOUND:                 0.792
REMARK SMILES CCCCCCCCCCCCCCCCCCCCCC(=O)[O-]
REMARK SMILES IDX 12 1 11 2 10 3 9 4 8 5 7 6 6 7 5 8 4 9 3 10 2 11 1 12 13 13
REMARK SMILES IDX 14 14 15 15 16 16 17 17 18 18 19 19 20 20 21 21 22 22 23 23
REMARK SMILES IDX 24 24
REMARK H PARENT
REMARK Flexibility Score: inf
ROOT
ATOM      1  C   UNL     1      31.976  19.109  37.521  1.00  0.00     0.000 C 
ENDROOT
BRANCH   1   2
ATOM      2  C   UNL     1      31.111  20.350  37.812  1.00  0.00     0.000 C 
BRANCH   2   3
ATOM      3  C   UNL     1      31.284  21.460  36.763  1.00  0.00     0.000 C 
BRANCH   3   4
ATOM      4  C   UNL     1      31.916  22.740  37.344  1.00  0.00    -0.000 C 
BRANCH   4   5
ATOM      5  C   UNL     1      32.658  23.627  36.325  1.00  0.00    -0.000 C 
BRANCH   5   6
ATOM      6  C   UNL     1      31.772  24.630  35.562  1.00  0.00    -0.000 C 
BRANCH   6   7
ATOM      7  C   UNL     1      32.149  24.789  34.073  1.00  0.00    -0.000 C 
BRANCH   7   8
ATOM      8  C   UNL     1      30.918  24.977  33.169  1.00  0.00    -0.000 C 
BRANCH   8   9
ATOM      9  C   UNL     1      31.305  25.125  31.681  1.00  0.00    -0.000 C 
BRANCH   9  10
ATOM     10  C   UNL     1      30.499  24.213  30.741  1.00  0.00    -0.000 C 
BRANCH  10  11
ATOM     11  C   UNL     1      31.266  23.845  29.464  1.00  0.00    -0.003 C 
ATOM     12  C   UNL     1      31.530  25.079  28.605  1.00  0.00     0.004 C 
ENDBRANCH  10  11
ENDBRANCH   9  10
ENDBRANCH   8   9
ENDBRANCH   7   8
ENDBRANCH   6   7
ENDBRANCH   5   6
ENDBRANCH   4   5
ENDBRANCH   3   4
ENDBRANCH   2   3
ENDBRANCH   1   2
BRANCH   1  13
ATOM     13  C   UNL     1      32.254  18.200  38.733  1.00  0.00     0.000 C 
BRANCH  13  14
ATOM     14  C   UNL     1      33.725  18.230  39.181  1.00  0.00     0.000 C 
BRANCH  14  15
ATOM     15  C   UNL     1      34.046  17.139  40.217  1.00  0.00     0.000 C 
BRANCH  15  16
ATOM     16  C   UNL     1      33.781  17.605  41.661  1.00  0.00     0.000 C 
BRANCH  16  17
ATOM     17  C   UNL     1      34.958  17.309  42.605  1.00  0.00     0.000 C 
BRANCH  17  18
ATOM     18  C   UNL     1      34.812  15.958  43.326  1.00  0.00     0.000 C 
BRANCH  18  19
ATOM     19  C   UNL     1      35.540  14.812  42.601  1.00  0.00     0.000 C 
BRANCH  19  20
ATOM     20  C   UNL     1      34.734  13.504  42.456  1.00  0.00     0.006 C 
BRANCH  20  21
ATOM     21  C   UNL     1      35.157  12.636  41.257  1.00  0.00     0.053 C 
BRANCH  21  22
ATOM     22  C   UNL     1      34.005  11.879  40.665  1.00  0.00     0.041 C 
ATOM     23  O   UNL     1      33.639  12.104  39.482  1.00  0.00    -0.550 OA
ATOM     24  O   UNL     1      33.306  10.955  41.434  1.00  0.00    -0.550 OA
ENDBRANCH  21  22
ENDBRANCH  20  21
ENDBRANCH  19  20
ENDBRANCH  18  19
ENDBRANCH  17  18
ENDBRANCH  16  17
ENDBRANCH  15  16
ENDBRANCH  14  15
ENDBRANCH  13  14
ENDBRANCH   1  13
TORSDOF 20
ENDMDL
