MODEL 1
REMARK VINA RESULT:    -5.381      0.000      0.000
REMARK INTER + INTRA:          -9.195
REMARK INTER:                  -8.527
REMARK INTRA:                  -0.668
REMARK UNBOUND:                -0.668
REMARK SMILES CCCCCCCCCCCC(=O)[O-]
REMARK SMILES IDX 7 1 8 2 9 3 10 4 11 5 12 6 13 7 14 8 6 9 5 10 4 11 3 12 2 13
REMARK SMILES IDX 1 14
REMARK H PARENT
REMARK Flexibility Score: inf
ROOT
ATOM      1  C   UNL     1       6.682  54.296  22.111  1.00  0.00     0.000 C 
ENDROOT
BRANCH   1   2
ATOM      2  C   UNL     1       7.901  53.522  21.573  1.00  0.00     0.000 C 
BRANCH   2   3
ATOM      3  C   UNL     1       9.268  54.186  21.841  1.00  0.00     0.000 C 
BRANCH   3   4
ATOM      4  C   UNL     1      10.147  53.465  22.878  1.00  0.00     0.006 C 
BRANCH   4   5
ATOM      5  C   UNL     1      10.485  54.346  24.088  1.00  0.00     0.053 C 
BRANCH   5   6
ATOM      6  C   UNL     1       9.576  54.030  25.233  1.00  0.00     0.041 C 
ATOM      7  O   UNL     1       9.915  54.318  26.411  1.00  0.00    -0.550 OA
ATOM      8  O   UNL     1       8.373  53.372  25.004  1.00  0.00    -0.550 OA
ENDBRANCH   5   6
ENDBRANCH   4   5
ENDBRANCH   3   4
ENDBRANCH   2   3
ENDBRANCH   1   2
BRANCH   1   9
ATOM      9  C   UNL     1       5.935  55.144  21.063  1.00  0.00     0.000 C 
BRANCH   9  10
ATOM     10  C   UNL     1       6.642  56.455  20.665  1.00  0.00    -0.000 C 
BRANCH  10  11
ATOM     11  C   UNL     1       7.388  56.409  19.317  1.00  0.00    -0.000 C 
BRANCH  11  12
ATOM     12  C   UNL     1       7.260  55.080  18.545  1.00  0.00    -0.000 C 
BRANCH  12  13
ATOM     13  C   UNL     1       6.893  55.229  17.058  1.00  0.00    -0.003 C 
ATOM     14  C   UNL     1       6.062  54.061  16.530  1.00  0.00     0.004 C 
ENDBRANCH  12  13
ENDBRANCH  11  12
ENDBRANCH  10  11
ENDBRANCH   9  10
ENDBRANCH   1   9
TORSDOF 10
ENDMDL
MODEL 2
REMARK VINA RESULT:    -5.318      1.916      2.281
REMARK INTER + INTRA:          -9.095
REMARK INTER:                  -8.318
REMARK INTRA:                  -0.777
REMARK UNBOUND:                -0.668
REMARK SMILES CCCCCCCCCCCC(=O)[O-]
REMARK SMILES IDX 7 1 8 2 9 3 10 4 11 5 12 6 13 7 14 8 6 9 5 10 4 11 3 12 2 13
REMARK SMILES IDX 1 14
REMARK H PARENT
REMARK Flexibility Score: inf
ROOT
ATOM      1  C   UNL     1       5.717  55.067  21.871  1.00  0.00     0.000 C 
ENDROOT
BRANCH   1   2
ATOM      2  C   UNL     1       6.849  54.022  21.913  1.00  0.00     0.000 C 
BRANCH   2   3
ATOM      3  C   UNL     1       7.565  53.887  23.273  1.00  0.00     0.000 C 
BRANCH   3   4
ATOM      4  C   UNL     1       8.915  54.621  23.371  1.00  0.00     0.006 C 
BRANCH   4   5
ATOM      5  C   UNL     1      10.103  53.663  23.523  1.00  0.00     0.053 C 
BRANCH   5   6
ATOM      6  C   UNL     1      10.288  52.861  22.274  1.00  0.00     0.041 C 
ATOM      7  O   UNL     1      10.314  51.603  22.326  1.00  0.00    -0.550 OA
ATOM      8  O   UNL     1      10.482  53.503  21.057  1.00  0.00    -0.550 OA
ENDBRANCH   5   6
ENDBRANCH   4   5
ENDBRANCH   3   4
ENDBRANCH   2   3
ENDBRANCH   1   2
BRANCH   1   9
ATOM      9  C   UNL     1       5.943  56.233  20.889  1.00  0.00     0.000 C 
BRANCH   9  10
ATOM     10  C   UNL     1       7.375  56.338  20.325  1.00  0.00    -0.000 C 
BRANCH  10  11
ATOM     11  C   UNL     1       7.526  55.909  18.852  1.00  0.00    -0.000 C 
BRANCH  11  12
ATOM     12  C   UNL     1       7.419  54.392  18.599  1.00  0.00    -0.000 C 
BRANCH  12  13
ATOM     13  C   UNL     1       6.483  53.994  17.445  1.00  0.00    -0.003 C 
ATOM     14  C   UNL     1       6.544  54.964  16.266  1.00  0.00     0.004 C 
ENDBRANCH  12  13
ENDBRANCH  11  12
ENDBRANCH  10  11
ENDBRANCH   9  10
ENDBRANCH   1   9
TORSDOF 10
ENDMDL
MODEL 3
REMARK VINA RESULT:    -5.211      3.685      6.615
REMARK INTER + INTRA:          -8.925
REMARK INTER:                  -8.059
REMARK INTRA:                  -0.866
REMARK UNBOUND:                -0.668
REMARK SMILES CCCCCCCCCCCC(=O)[O-]
REMARK SMILES IDX 7 1 8 2 9 3 10 4 11 5 12 6 13 7 14 8 6 9 5 10 4 11 3 12 2 13
REMARK SMILES IDX 1 14
REMARK H PARENT
REMARK Flexibility Score: inf
ROOT
ATOM      1  C   UNL     1       6.896  54.359  22.296  1.00  0.00     0.000 C 
ENDROOT
BRANCH   1   2
ATOM      2  C   UNL     1       6.148  55.054  21.142  1.00  0.00     0.000 C 
BRANCH   2   3
ATOM      3  C   UNL     1       6.868  56.277  20.538  1.00  0.00     0.000 C 
BRANCH   3   4
ATOM      4  C   UNL     1       7.386  56.082  19.102  1.00  0.00     0.006 C 
BRANCH   4   5
ATOM      5  C   UNL     1       7.147  54.663  18.571  1.00  0.00     0.053 C 
BRANCH   5   6
ATOM      6  C   UNL     1       6.624  54.712  17.170  1.00  0.00     0.041 C 
ATOM      7  O   UNL     1       7.001  55.620  16.383  1.00  0.00    -0.550 OA
ATOM      8  O   UNL     1       5.682  53.782  16.746  1.00  0.00    -0.550 OA
ENDBRANCH   5   6
ENDBRANCH   4   5
ENDBRANCH   3   4
ENDBRANCH   2   3
ENDBRANCH   1   2
BRANCH   1   9
ATOM      9  C   UNL     1       7.788  53.175  21.874  1.00  0.00     0.000 C 
BRANCH   9  10
ATOM     10  C   UNL     1       9.228  53.556  21.475  1.00  0.00    -0.000 C 
BRANCH  10  11
ATOM     11  C   UNL     1      10.271  53.425  22.602  1.00  0.00    -0.000 C 
BRANCH  11  12
ATOM     12  C   UNL     1      10.378  54.645  23.539  1.00  0.00    -0.000 C 
BRANCH  12  13
ATOM     13  C   UNL     1      10.714  54.309  25.002  1.00  0.00    -0.003 C 
ATOM     14  C   UNL     1       9.472  54.173  25.882  1.00  0.00     0.004 C 
ENDBRANCH  12  13
ENDBRANCH  11  12
ENDBRANCH  10  11
ENDBRANCH   9  10
ENDBRANCH   1   9
TORSDOF 10
ENDMDL
MODEL 4
REMARK VINA RESULT:    -5.147      3.228      5.862
REMARK INTER + INTRA:          -8.824
REMARK INTER:                  -7.619
REMARK INTRA:                  -1.205
REMARK UNBOUND:                -0.668
REMARK SMILES CCCCCCCCCCCC(=O)[O-]
REMARK SMILES IDX 7 1 8 2 9 3 10 4 11 5 12 6 13 7 14 8 6 9 5 10 4 11 3 12 2 13
REMARK SMILES IDX 1 14
REMARK H PARENT
REMARK Flexibility Score: inf
ROOT
ATOM      1  C   UNL     1       6.892  53.700  22.112  1.00  0.00     0.000 C 
ENDROOT
BRANCH   1   2
ATOM      2  C   UNL     1       6.393  55.145  21.919  1.00  0.00     0.000 C 
BRANCH   2   3
ATOM      3  C   UNL     1       7.352  56.069  21.139  1.00  0.00     0.000 C 
BRANCH   3   4
ATOM      4  C   UNL     1       7.971  55.445  19.876  1.00  0.00     0.006 C 
BRANCH   4   5
ATOM      5  C   UNL     1       7.319  55.948  18.583  1.00  0.00     0.053 C 
BRANCH   5   6
ATOM      6  C   UNL     1       6.834  54.796  17.761  1.00  0.00     0.041 C 
ATOM      7  O   UNL     1       6.673  53.664  18.288  1.00  0.00    -0.550 OA
ATOM      8  O   UNL     1       6.605  54.960  16.400  1.00  0.00    -0.550 OA
ENDBRANCH   5   6
ENDBRANCH   4   5
ENDBRANCH   3   4
ENDBRANCH   2   3
ENDBRANCH   1   2
BRANCH   1   9
ATOM      9  C   UNL     1       7.237  53.319  23.566  1.00  0.00     0.000 C 
BRANCH   9  10
ATOM     10  C   UNL     1       8.299  54.213  24.236  1.00  0.00    -0.000 C 
BRANCH  10  11
ATOM     11  C   UNL     1       9.753  53.728  24.077  1.00  0.00    -0.000 C 
BRANCH  11  12
ATOM     12  C   UNL     1      10.447  54.162  22.770  1.00  0.00    -0.000 C 
BRANCH  12  13
ATOM     13  C   UNL     1      10.365  53.139  21.624  1.00  0.00    -0.003 C 
ATOM     14  C   UNL     1      10.156  51.708  22.117  1.00  0.00     0.004 C 
ENDBRANCH  12  13
ENDBRANCH  11  12
ENDBRANCH  10  11
ENDBRANCH   9  10
ENDBRANCH   1   9
TORSDOF 10
ENDMDL
MODEL 5
REMARK VINA RESULT:    -4.872      2.662      5.848
REMARK INTER + INTRA:          -8.389
REMARK INTER:                  -7.645
REMARK INTRA:                  -0.744
REMARK UNBOUND:                -0.668
REMARK SMILES CCCCCCCCCCCC(=O)[O-]
REMARK SMILES IDX 7 1 8 2 9 3 10 4 11 5 12 6 13 7 14 8 6 9 5 10 4 11 3 12 2 13
REMARK SMILES IDX 1 14
REMARK H PARENT
REMARK Flexibility Score: inf
ROOT
ATOM      1  C   UNL     1       9.399  53.331  20.826  1.00  0.00     0.000 C 
ENDROOT
BRANCH   1   2
ATOM      2  C   UNL     1       8.569  54.591  20.515  1.00  0.00     0.000 C 
BRANCH   2   3
ATOM      3  C   UNL     1       7.650  54.481  19.281  1.00  0.00     0.000 C 
BRANCH   3   4
ATOM      4  C   UNL     1       6.816  55.739  18.978  1.00  0.00     0.006 C 
BRANCH   4   5
ATOM      5  C   UNL     1       6.772  56.722  20.155  1.00  0.00     0.053 C 
BRANCH   5   6
ATOM      6  C   UNL     1       5.489  56.573  20.910  1.00  0.00     0.041 C 
ATOM      7  O   UNL     1       5.242  55.510  21.538  1.00  0.00    -0.550 OA
ATOM      8  O   UNL     1       4.543  57.590  20.880  1.00  0.00    -0.550 OA
ENDBRANCH   5   6
ENDBRANCH   4   5
ENDBRANCH   3   4
ENDBRANCH   2   3
ENDBRANCH   1   2
BRANCH   1   9
ATOM      9  C   UNL     1      10.675  53.580  21.654  1.00  0.00     0.000 C 
BRANCH   9  10
ATOM     10  C   UNL     1      10.538  53.288  23.162  1.00  0.00    -0.000 C 
BRANCH  10  11
ATOM     11  C   UNL     1      10.186  54.511  24.032  1.00  0.00    -0.000 C 
BRANCH  11  12
ATOM     12  C   UNL     1       9.063  54.277  25.063  1.00  0.00    -0.000 C 
BRANCH  12  13
ATOM     13  C   UNL     1       8.076  53.154  24.700  1.00  0.00    -0.003 C 
ATOM     14  C   UNL     1       7.102  53.551  23.592  1.00  0.00     0.004 C 
ENDBRANCH  12  13
ENDBRANCH  11  12
ENDBRANCH  10  11
ENDBRANCH   9  10
ENDBRANCH   1   9
TORSDOF 10
ENDMDL
MODEL 6
REMARK VINA RESULT:    -4.732      1.603      2.205
REMARK INTER + INTRA:          -8.166
REMARK INTER:                  -7.704
REMARK INTRA:                  -0.463
REMARK UNBOUND:                -0.668
REMARK SMILES CCCCCCCCCCCC(=O)[O-]
REMARK SMILES IDX 7 1 8 2 9 3 10 4 11 5 12 6 13 7 14 8 6 9 5 10 4 11 3 12 2 13
REMARK SMILES IDX 1 14
REMARK H PARENT
REMARK Flexibility Score: inf
ROOT
ATOM      1  C   UNL     1       9.496  53.792  20.863  1.00  0.00     0.000 C 
ENDROOT
BRANCH   1   2
ATOM      2  C   UNL     1      10.257  53.279  22.101  1.00  0.00     0.000 C 
BRANCH   2   3
ATOM      3  C   UNL     1      10.563  54.348  23.170  1.00  0.00     0.000 C 
BRANCH   3   4
ATOM      4  C   UNL     1      10.175  53.959  24.607  1.00  0.00     0.006 C 
BRANCH   4   5
ATOM      5  C   UNL     1       8.716  54.295  24.941  1.00  0.00     0.053 C 
BRANCH   5   6
ATOM      6  C   UNL     1       7.792  53.323  24.278  1.00  0.00     0.041 C 
ATOM      7  O   UNL     1       7.908  52.088  24.495  1.00  0.00    -0.550 OA
ATOM      8  O   UNL     1       6.833  53.777  23.381  1.00  0.00    -0.550 OA
ENDBRANCH   5   6
ENDBRANCH   4   5
ENDBRANCH   3   4
ENDBRANCH   2   3
ENDBRANCH   1   2
BRANCH   1   9
ATOM      9  C   UNL     1       8.664  55.069  21.093  1.00  0.00     0.000 C 
BRANCH   9  10
ATOM     10  C   UNL     1       7.933  55.602  19.845  1.00  0.00    -0.000 C 
BRANCH  10  11
ATOM     11  C   UNL     1       6.606  54.891  19.515  1.00  0.00    -0.000 C 
BRANCH  11  12
ATOM     12  C   UNL     1       6.716  53.744  18.490  1.00  0.00    -0.000 C 
BRANCH  12  13
ATOM     13  C   UNL     1       6.110  54.050  17.110  1.00  0.00    -0.003 C 
ATOM     14  C   UNL     1       6.804  55.210  16.397  1.00  0.00     0.004 C 
ENDBRANCH  12  13
ENDBRANCH  11  12
ENDBRANCH  10  11
ENDBRANCH   9  10
ENDBRANCH   1   9
TORSDOF 10
ENDMDL
MODEL 7
REMARK VINA RESULT:    -4.680      1.434      2.829
REMARK INTER + INTRA:          -8.084
REMARK INTER:                  -7.241
REMARK INTRA:                  -0.842
REMARK UNBOUND:                -0.668
REMARK SMILES CCCCCCCCCCCC(=O)[O-]
REMARK SMILES IDX 7 1 8 2 9 3 10 4 11 5 12 6 13 7 14 8 6 9 5 10 4 11 3 12 2 13
REMARK SMILES IDX 1 14
REMARK H PARENT
REMARK Flexibility Score: inf
ROOT
ATOM      1  C   UNL     1       8.754  54.193  20.575  1.00  0.00     0.000 C 
ENDROOT
BRANCH   1   2
ATOM      2  C   UNL     1       9.851  53.209  21.027  1.00  0.00     0.000 C 
BRANCH   2   3
ATOM      3  C   UNL     1       9.559  52.464  22.345  1.00  0.00     0.000 C 
BRANCH   3   4
ATOM      4  C   UNL     1       8.235  52.849  23.029  1.00  0.00     0.006 C 
BRANCH   4   5
ATOM      5  C   UNL     1       8.437  53.437  24.431  1.00  0.00     0.053 C 
BRANCH   5   6
ATOM      6  C   UNL     1       9.573  54.411  24.428  1.00  0.00     0.041 C 
ATOM      7  O   UNL     1       9.513  55.454  23.725  1.00  0.00    -0.550 OA
ATOM      8  O   UNL     1      10.721  54.142  25.165  1.00  0.00    -0.550 OA
ENDBRANCH   5   6
ENDBRANCH   4   5
ENDBRANCH   3   4
ENDBRANCH   2   3
ENDBRANCH   1   2
BRANCH   1   9
ATOM      9  C   UNL     1       8.228  53.970  19.144  1.00  0.00     0.000 C 
BRANCH   9  10
ATOM     10  C   UNL     1       7.358  55.113  18.586  1.00  0.00    -0.000 C 
BRANCH  10  11
ATOM     11  C   UNL     1       7.508  56.462  19.317  1.00  0.00    -0.000 C 
BRANCH  11  12
ATOM     12  C   UNL     1       6.247  56.946  20.061  1.00  0.00    -0.000 C 
BRANCH  12  13
ATOM     13  C   UNL     1       6.130  56.463  21.518  1.00  0.00    -0.003 C 
ATOM     14  C   UNL     1       5.527  55.064  21.635  1.00  0.00     0.004 C 
ENDBRANCH  12  13
ENDBRANCH  11  12
ENDBRANCH  10  11
ENDBRANCH   9  10
ENDBRANCH   1   9
TORSDOF 10
ENDMDL
MODEL 8
REMARK VINA RESULT:    -4.646      4.220      7.028
REMARK INTER + INTRA:          -8.030
REMARK INTER:                  -7.596
REMARK INTRA:                  -0.434
REMARK UNBOUND:                -0.668
REMARK SMILES CCCCCCCCCCCC(=O)[O-]
REMARK SMILES IDX 7 1 8 2 9 3 10 4 11 5 12 6 13 7 14 8 6 9 5 10 4 11 3 12 2 13
REMARK SMILES IDX 1 14
REMARK H PARENT
REMARK Flexibility Score: inf
ROOT
ATOM      1  C   UNL     1       7.068  56.065  19.459  1.00  0.00     0.000 C 
ENDROOT
BRANCH   1   2
ATOM      2  C   UNL     1       6.759  56.610  20.867  1.00  0.00     0.000 C 
BRANCH   2   3
ATOM      3  C   UNL     1       5.262  56.647  21.239  1.00  0.00     0.000 C 
BRANCH   3   4
ATOM      4  C   UNL     1       4.416  57.644  20.428  1.00  0.00     0.006 C 
BRANCH   4   5
ATOM      5  C   UNL     1       3.431  58.435  21.298  1.00  0.00     0.053 C 
BRANCH   5   6
ATOM      6  C   UNL     1       2.119  58.587  20.594  1.00  0.00     0.041 C 
ATOM      7  O   UNL     1       1.043  58.337  21.198  1.00  0.00    -0.550 OA
ATOM      8  O   UNL     1       2.087  58.957  19.255  1.00  0.00    -0.550 OA
ENDBRANCH   5   6
ENDBRANCH   4   5
ENDBRANCH   3   4
ENDBRANCH   2   3
ENDBRANCH   1   2
BRANCH   1   9
ATOM      9  C   UNL     1       7.628  54.629  19.425  1.00  0.00     0.000 C 
BRANCH   9  10
ATOM     10  C   UNL     1       7.925  54.015  20.809  1.00  0.00    -0.000 C 
BRANCH  10  11
ATOM     11  C   UNL     1       9.412  54.011  21.213  1.00  0.00    -0.000 C 
BRANCH  11  12
ATOM     12  C   UNL     1       9.729  53.270  22.527  1.00  0.00    -0.000 C 
BRANCH  12  13
ATOM     13  C   UNL     1       9.574  54.117  23.802  1.00  0.00    -0.003 C 
ATOM     14  C   UNL     1      10.903  54.377  24.510  1.00  0.00     0.004 C 
ENDBRANCH  12  13
ENDBRANCH  11  12
ENDBRANCH  10  11
ENDBRANCH   9  10
ENDBRANCH   1   9
TORSDOF 10
ENDMDL
MODEL 9
REMARK VINA RESULT:    -4.440      4.928      7.213
REMARK INTER + INTRA:          -7.703
REMARK INTER:                  -7.362
REMARK INTRA:                  -0.342
REMARK UNBOUND:                -0.668
REMARK SMILES CCCCCCCCCCCC(=O)[O-]
REMARK SMILES IDX 7 1 8 2 9 3 10 4 11 5 12 6 13 7 14 8 6 9 5 10 4 11 3 12 2 13
REMARK SMILES IDX 1 14
REMARK H PARENT
REMARK Flexibility Score: inf
ROOT
ATOM      1  C   UNL     1       5.858  56.565  20.732  1.00  0.00     0.000 C 
ENDROOT
BRANCH   1   2
ATOM      2  C   UNL     1       4.652  57.336  21.303  1.00  0.00     0.000 C 
BRANCH   2   3
ATOM      3  C   UNL     1       3.920  58.245  20.295  1.00  0.00     0.000 C 
BRANCH   3   4
ATOM      4  C   UNL     1       2.455  58.560  20.648  1.00  0.00     0.006 C 
BRANCH   4   5
ATOM      5  C   UNL     1       2.314  59.335  21.964  1.00  0.00     0.053 C 
BRANCH   5   6
ATOM      6  C   UNL     1       0.880  59.381  22.390  1.00  0.00     0.041 C 
ATOM      7  O   UNL     1       0.460  60.332  23.101  1.00  0.00    -0.550 OA
ATOM      8  O   UNL     1       0.018  58.348  22.042  1.00  0.00    -0.550 OA
ENDBRANCH   5   6
ENDBRANCH   4   5
ENDBRANCH   3   4
ENDBRANCH   2   3
ENDBRANCH   1   2
BRANCH   1   9
ATOM      9  C   UNL     1       5.802  55.036  20.921  1.00  0.00     0.000 C 
BRANCH   9  10
ATOM     10  C   UNL     1       6.965  54.258  20.273  1.00  0.00    -0.000 C 
BRANCH  10  11
ATOM     11  C   UNL     1       8.364  54.858  20.516  1.00  0.00    -0.000 C 
BRANCH  11  12
ATOM     12  C   UNL     1       9.070  54.370  21.797  1.00  0.00    -0.000 C 
BRANCH  12  13
ATOM     13  C   UNL     1      10.243  53.403  21.560  1.00  0.00    -0.003 C 
ATOM     14  C   UNL     1       9.970  51.995  22.090  1.00  0.00     0.004 C 
ENDBRANCH  12  13
ENDBRANCH  11  12
ENDBRANCH  10  11
ENDBRANCH   9  10
ENDBRANCH   1   9
TORSDOF 10
ENDMDL
