MODEL 1
REMARK VINA RESULT:    -7.147      0.000      0.000
REMARK INTER + INTRA:          -8.807
REMARK INTER:                  -8.609
REMARK INTRA:                  -0.198
REMARK UNBOUND:                -0.198
REMARK SMILES O=c1c(O)c(-c2ccc(O)c(O)c2)oc2cc(O)cc(O)c12
REMARK SMILES IDX 5 1 3 2 2 3 1 4 22 5 20 6 19 7 17 8 16 9 15 10 14 11 6 12
REMARK SMILES IDX 7 13 8 14 9 15 13 16 11 17 10 18 12 20 4 22 21 24 18 26
REMARK H PARENT 10 19 12 21 4 23 21 25 18 27
REMARK Flexibility Score: inf
ROOT
ATOM      1  C   UNL     1     140.562 -18.049  78.810  1.00  0.00     0.180 A 
ATOM      2  C   UNL     1     139.207 -17.871  78.482  1.00  0.00     0.208 A 
ATOM      3  C   UNL     1     138.527 -16.749  78.981  1.00  0.00     0.238 A 
ATOM      4  O   UNL     1     137.330 -16.566  78.640  1.00  0.00    -0.285 OA
ATOM      5  C   UNL     1     139.206 -15.827  79.814  1.00  0.00     0.111 A 
ATOM      6  C   UNL     1     138.606 -14.678  80.409  1.00  0.00     0.134 A 
ATOM      7  C   UNL     1     139.405 -13.765  81.110  1.00  0.00     0.093 A 
ATOM      8  C   UNL     1     140.770 -13.996  81.292  1.00  0.00     0.123 A 
ATOM      9  C   UNL     1     141.354 -15.146  80.765  1.00  0.00     0.094 A 
ATOM     10  C   UNL     1     140.590 -16.056  80.032  1.00  0.00     0.146 A 
ATOM     11  O   UNL     1     141.188 -17.134  79.540  1.00  0.00    -0.452 OA
ENDROOT
BRANCH   1  12
ATOM     12  C   UNL     1     141.339 -19.220  78.342  1.00  0.00     0.025 A 
ATOM     13  C   UNL     1     141.016 -20.499  78.822  1.00  0.00     0.016 A 
ATOM     14  C   UNL     1     141.721 -21.621  78.379  1.00  0.00     0.051 A 
ATOM     15  C   UNL     1     142.747 -21.485  77.440  1.00  0.00     0.157 A 
ATOM     16  C   UNL     1     142.358 -19.088  77.382  1.00  0.00     0.062 A 
ATOM     17  C   UNL     1     143.067 -20.213  76.935  1.00  0.00     0.158 A 
BRANCH  15  18
ATOM     18  O   UNL     1     143.435 -22.622  77.018  1.00  0.00    -0.504 OA
ATOM     19  H   UNL     1     142.982 -23.525  76.933  1.00  0.00     0.293 HD
ENDBRANCH  15  18
BRANCH  17  20
ATOM     20  O   UNL     1     144.080 -20.072  75.988  1.00  0.00    -0.504 OA
ATOM     21  H   UNL     1     144.610 -19.214  75.901  1.00  0.00     0.293 HD
ENDBRANCH  17  20
ENDBRANCH   1  12
BRANCH   2  22
ATOM     22  O   UNL     1     138.562 -18.781  77.640  1.00  0.00    -0.502 OA
ATOM     23  H   UNL     1     138.189 -19.662  77.973  1.00  0.00     0.293 HD
ENDBRANCH   2  22
BRANCH   6  24
ATOM     24  O   UNL     1     137.236 -14.402  80.366  1.00  0.00    -0.507 OA
ATOM     25  H   UNL     1     136.834 -13.531  80.052  1.00  0.00     0.293 HD
ENDBRANCH   6  24
BRANCH   8  26
ATOM     26  O   UNL     1     141.555 -13.090  82.002  1.00  0.00    -0.508 OA
ATOM     27  H   UNL     1     141.969 -12.280  81.554  1.00  0.00     0.293 HD
ENDBRANCH   8  26
TORSDOF 6
ENDMDL
MODEL 2
REMARK VINA RESULT:    -6.381      4.729      9.815
REMARK INTER + INTRA:          -7.884
REMARK INTER:                  -8.234
REMARK INTRA:                   0.350
REMARK UNBOUND:                -0.198
REMARK SMILES O=c1c(O)c(-c2ccc(O)c(O)c2)oc2cc(O)cc(O)c12
REMARK SMILES IDX 5 1 3 2 2 3 1 4 22 5 20 6 19 7 17 8 16 9 15 10 14 11 6 12
REMARK SMILES IDX 7 13 8 14 9 15 13 16 11 17 10 18 12 20 4 22 21 24 18 26
REMARK H PARENT 10 19 12 21 4 23 21 25 18 27
REMARK Flexibility Score: inf
ROOT
ATOM      1  C   UNL     1     145.507 -22.032  76.993  1.00  0.00     0.180 A 
ATOM      2  C   UNL     1     146.177 -22.711  78.026  1.00  0.00     0.208 A 
ATOM      3  C   UNL     1     147.470 -23.204  77.789  1.00  0.00     0.238 A 
ATOM      4  O   UNL     1     148.087 -23.761  78.733  1.00  0.00    -0.285 OA
ATOM      5  C   UNL     1     148.070 -23.027  76.518  1.00  0.00     0.111 A 
ATOM      6  C   UNL     1     149.358 -23.521  76.155  1.00  0.00     0.134 A 
ATOM      7  C   UNL     1     149.905 -23.175  74.912  1.00  0.00     0.093 A 
ATOM      8  C   UNL     1     149.182 -22.409  73.996  1.00  0.00     0.123 A 
ATOM      9  C   UNL     1     147.899 -21.972  74.318  1.00  0.00     0.094 A 
ATOM     10  C   UNL     1     147.341 -22.271  75.563  1.00  0.00     0.146 A 
ATOM     11  O   UNL     1     146.120 -21.826  75.834  1.00  0.00    -0.452 OA
ENDROOT
BRANCH   1  12
ATOM     12  C   UNL     1     144.132 -21.507  77.159  1.00  0.00     0.025 A 
ATOM     13  C   UNL     1     143.269 -22.109  78.088  1.00  0.00     0.016 A 
ATOM     14  C   UNL     1     141.975 -21.616  78.277  1.00  0.00     0.051 A 
ATOM     15  C   UNL     1     141.529 -20.508  77.552  1.00  0.00     0.157 A 
ATOM     16  C   UNL     1     143.688 -20.379  76.446  1.00  0.00     0.062 A 
ATOM     17  C   UNL     1     142.389 -19.882  76.634  1.00  0.00     0.158 A 
BRANCH  15  18
ATOM     18  O   UNL     1     140.232 -20.040  77.760  1.00  0.00    -0.504 OA
ATOM     19  H   UNL     1     140.001 -19.413  78.521  1.00  0.00     0.293 HD
ENDBRANCH  15  18
BRANCH  17  20
ATOM     20  O   UNL     1     141.955 -18.767  75.918  1.00  0.00    -0.504 OA
ATOM     21  H   UNL     1     141.992 -18.738  74.907  1.00  0.00     0.293 HD
ENDBRANCH  17  20
ENDBRANCH   1  12
BRANCH   2  22
ATOM     22  O   UNL     1     145.576 -22.854  79.280  1.00  0.00    -0.502 OA
ATOM     23  H   UNL     1     144.652 -22.495  79.484  1.00  0.00     0.293 HD
ENDBRANCH   2  22
BRANCH   6  24
ATOM     24  O   UNL     1     150.124 -24.369  76.958  1.00  0.00    -0.507 OA
ATOM     25  H   UNL     1     149.776 -25.201  77.413  1.00  0.00     0.293 HD
ENDBRANCH   6  24
BRANCH   8  26
ATOM     26  O   UNL     1     149.727 -22.082  72.756  1.00  0.00    -0.508 OA
ATOM     27  H   UNL     1     149.388 -22.504  71.899  1.00  0.00     0.293 HD
ENDBRANCH   8  26
TORSDOF 6
ENDMDL
MODEL 3
REMARK VINA RESULT:    -4.685      4.615      9.964
REMARK INTER + INTRA:          -5.841
REMARK INTER:                  -6.260
REMARK INTRA:                   0.419
REMARK UNBOUND:                -0.198
REMARK SMILES O=c1c(O)c(-c2ccc(O)c(O)c2)oc2cc(O)cc(O)c12
REMARK SMILES IDX 5 1 3 2 2 3 1 4 22 5 20 6 19 7 17 8 16 9 15 10 14 11 6 12
REMARK SMILES IDX 7 13 8 14 9 15 13 16 11 17 10 18 12 20 4 22 21 24 18 26
REMARK H PARENT 10 19 12 21 4 23 21 25 18 27
REMARK Flexibility Score: inf
ROOT
ATOM      1  C   UNL     1     145.438 -22.402  76.957  1.00  0.00     0.180 A 
ATOM      2  C   UNL     1     146.196 -22.138  75.802  1.00  0.00     0.208 A 
ATOM      3  C   UNL     1     147.425 -22.794  75.630  1.00  0.00     0.238 A 
ATOM      4  O   UNL     1     148.073 -22.595  74.570  1.00  0.00    -0.285 OA
ATOM      5  C   UNL     1     147.889 -23.693  76.621  1.00  0.00     0.111 A 
ATOM      6  C   UNL     1     149.137 -24.382  76.570  1.00  0.00     0.134 A 
ATOM      7  C   UNL     1     149.434 -25.347  77.542  1.00  0.00     0.093 A 
ATOM      8  C   UNL     1     148.556 -25.599  78.598  1.00  0.00     0.123 A 
ATOM      9  C   UNL     1     147.362 -24.888  78.689  1.00  0.00     0.094 A 
ATOM     10  C   UNL     1     147.022 -23.946  77.716  1.00  0.00     0.146 A 
ATOM     11  O   UNL     1     145.869 -23.299  77.836  1.00  0.00    -0.452 OA
ENDROOT
BRANCH   1  12
ATOM     12  C   UNL     1     144.145 -21.730  77.220  1.00  0.00     0.025 A 
ATOM     13  C   UNL     1     143.336 -22.179  78.276  1.00  0.00     0.016 A 
ATOM     14  C   UNL     1     142.122 -21.546  78.556  1.00  0.00     0.051 A 
ATOM     15  C   UNL     1     141.705 -20.449  77.797  1.00  0.00     0.157 A 
ATOM     16  C   UNL     1     143.734 -20.613  76.471  1.00  0.00     0.062 A 
ATOM     17  C   UNL     1     142.515 -19.976  76.751  1.00  0.00     0.158 A 
BRANCH  15  18
ATOM     18  O   UNL     1     140.488 -19.840  78.098  1.00  0.00    -0.504 OA
ATOM     19  H   UNL     1     140.434 -18.976  78.625  1.00  0.00     0.293 HD
ENDBRANCH  15  18
BRANCH  17  20
ATOM     20  O   UNL     1     142.113 -18.874  75.999  1.00  0.00    -0.504 OA
ATOM     21  H   UNL     1     142.688 -18.499  75.255  1.00  0.00     0.293 HD
ENDBRANCH  17  20
ENDBRANCH   1  12
BRANCH   2  22
ATOM     22  O   UNL     1     145.710 -21.263  74.826  1.00  0.00    -0.502 OA
ATOM     23  H   UNL     1     146.246 -20.475  74.486  1.00  0.00     0.293 HD
ENDBRANCH   2  22
BRANCH   6  24
ATOM     24  O   UNL     1     150.124 -24.139  75.610  1.00  0.00    -0.507 OA
ATOM     25  H   UNL     1     150.132 -24.533  74.681  1.00  0.00     0.293 HD
ENDBRANCH   6  24
BRANCH   8  26
ATOM     26  O   UNL     1     148.866 -26.549  79.568  1.00  0.00    -0.508 OA
ATOM     27  H   UNL     1     148.200 -26.811  80.286  1.00  0.00     0.293 HD
ENDBRANCH   8  26
TORSDOF 6
ENDMDL
