MODEL 1
REMARK VINA RESULT:    -0.759      0.000      0.000
REMARK INTER + INTRA:          -3.319
REMARK INTER:                  -1.291
REMARK INTRA:                  -2.028
REMARK UNBOUND:                -2.028
REMARK SMILES CCCCCCCCCCCCCC(=O)[O-]
REMARK SMILES IDX 8 1 9 2 10 3 11 4 12 5 13 6 14 7 15 8 16 9 7 10 6 11 5 12
REMARK SMILES IDX 4 13 3 14 2 15 1 16
REMARK H PARENT
REMARK Flexibility Score: inf
ROOT
ATOM      1  C   UNL     1      35.917   3.813  41.840  1.00  0.00     0.000 C 
ENDROOT
BRANCH   1   2
ATOM      2  C   UNL     1      37.325   3.269  42.106  1.00  0.00     0.000 C 
BRANCH   2   3
ATOM      3  C   UNL     1      37.562   1.958  41.342  1.00  0.00     0.000 C 
BRANCH   3   4
ATOM      4  C   UNL     1      37.248   2.079  39.843  1.00  0.00     0.000 C 
BRANCH   4   5
ATOM      5  C   UNL     1      38.487   2.438  39.004  1.00  0.00     0.006 C 
BRANCH   5   6
ATOM      6  C   UNL     1      39.627   1.430  39.197  1.00  0.00     0.053 C 
BRANCH   6   7
ATOM      7  C   UNL     1      40.853   2.074  39.768  1.00  0.00     0.041 C 
ATOM      8  O   UNL     1      41.655   2.688  39.017  1.00  0.00    -0.550 OA
ATOM      9  O   UNL     1      41.091   2.025  41.136  1.00  0.00    -0.550 OA
ENDBRANCH   6   7
ENDBRANCH   5   6
ENDBRANCH   4   5
ENDBRANCH   3   4
ENDBRANCH   2   3
ENDBRANCH   1   2
BRANCH   1  10
ATOM     10  C   UNL     1      35.959   5.308  41.491  1.00  0.00     0.000 C 
BRANCH  10  11
ATOM     11  C   UNL     1      35.934   5.571  39.975  1.00  0.00    -0.000 C 
BRANCH  11  12
ATOM     12  C   UNL     1      37.284   5.997  39.365  1.00  0.00    -0.000 C 
BRANCH  12  13
ATOM     13  C   UNL     1      38.358   6.422  40.388  1.00  0.00    -0.000 C 
BRANCH  13  14
ATOM     14  C   UNL     1      39.652   5.585  40.360  1.00  0.00    -0.000 C 
BRANCH  14  15
ATOM     15  C   UNL     1      40.359   5.441  41.719  1.00  0.00    -0.003 C 
ATOM     16  C   UNL     1      41.881   5.485  41.606  1.00  0.00     0.004 C 
ENDBRANCH  14  15
ENDBRANCH  13  14
ENDBRANCH  12  13
ENDBRANCH  11  12
ENDBRANCH  10  11
ENDBRANCH   1  10
TORSDOF 12
ENDMDL
MODEL 2
REMARK VINA RESULT:    -0.750      3.296      4.858
REMARK INTER + INTRA:          -3.304
REMARK INTER:                  -1.020
REMARK INTRA:                  -2.285
REMARK UNBOUND:                -2.028
REMARK SMILES CCCCCCCCCCCCCC(=O)[O-]
REMARK SMILES IDX 8 1 9 2 10 3 11 4 12 5 13 6 14 7 15 8 16 9 7 10 6 11 5 12
REMARK SMILES IDX 4 13 3 14 2 15 1 16
REMARK H PARENT
REMARK Flexibility Score: inf
ROOT
ATOM      1  C   UNL     1      39.131   5.171  40.060  1.00  0.00     0.000 C 
ENDROOT
BRANCH   1   2
ATOM      2  C   UNL     1      38.979   4.668  38.620  1.00  0.00     0.000 C 
BRANCH   2   3
ATOM      3  C   UNL     1      37.518   4.299  38.317  1.00  0.00     0.000 C 
BRANCH   3   4
ATOM      4  C   UNL     1      37.394   3.175  37.277  1.00  0.00     0.000 C 
BRANCH   4   5
ATOM      5  C   UNL     1      36.455   2.044  37.735  1.00  0.00     0.006 C 
BRANCH   5   6
ATOM      6  C   UNL     1      35.639   2.437  38.974  1.00  0.00     0.053 C 
BRANCH   6   7
ATOM      7  C   UNL     1      34.165   2.379  38.713  1.00  0.00     0.041 C 
ATOM      8  O   UNL     1      33.661   3.043  37.770  1.00  0.00    -0.550 OA
ATOM      9  O   UNL     1      33.352   1.564  39.493  1.00  0.00    -0.550 OA
ENDBRANCH   6   7
ENDBRANCH   5   6
ENDBRANCH   4   5
ENDBRANCH   3   4
ENDBRANCH   2   3
ENDBRANCH   1   2
BRANCH   1  10
ATOM     10  C   UNL     1      37.880   4.848  40.892  1.00  0.00     0.000 C 
BRANCH  10  11
ATOM     11  C   UNL     1      38.181   3.943  42.099  1.00  0.00    -0.000 C 
BRANCH  11  12
ATOM     12  C   UNL     1      37.922   2.440  41.867  1.00  0.00    -0.000 C 
BRANCH  12  13
ATOM     13  C   UNL     1      39.154   1.628  41.419  1.00  0.00    -0.000 C 
BRANCH  13  14
ATOM     14  C   UNL     1      38.987   0.875  40.084  1.00  0.00    -0.000 C 
BRANCH  14  15
ATOM     15  C   UNL     1      40.064   1.184  39.029  1.00  0.00    -0.003 C 
ATOM     16  C   UNL     1      41.272   1.918  39.608  1.00  0.00     0.004 C 
ENDBRANCH  14  15
ENDBRANCH  13  14
ENDBRANCH  12  13
ENDBRANCH  11  12
ENDBRANCH  10  11
ENDBRANCH   1  10
TORSDOF 12
ENDMDL
MODEL 3
REMARK VINA RESULT:    -0.729      2.471      4.578
REMARK INTER + INTRA:          -3.269
REMARK INTER:                  -1.179
REMARK INTRA:                  -2.090
REMARK UNBOUND:                -2.028
REMARK SMILES CCCCCCCCCCCCCC(=O)[O-]
REMARK SMILES IDX 8 1 9 2 10 3 11 4 12 5 13 6 14 7 15 8 16 9 7 10 6 11 5 12
REMARK SMILES IDX 4 13 3 14 2 15 1 16
REMARK H PARENT
REMARK Flexibility Score: inf
ROOT
ATOM      1  C   UNL     1      34.388   4.467  38.497  1.00  0.00     0.000 C 
ENDROOT
BRANCH   1   2
ATOM      2  C   UNL     1      35.634   4.207  37.644  1.00  0.00     0.000 C 
BRANCH   2   3
ATOM      3  C   UNL     1      36.094   2.747  37.772  1.00  0.00     0.000 C 
BRANCH   3   4
ATOM      4  C   UNL     1      37.435   2.609  38.511  1.00  0.00     0.000 C 
BRANCH   4   5
ATOM      5  C   UNL     1      38.045   3.970  38.889  1.00  0.00     0.006 C 
BRANCH   5   6
ATOM      6  C   UNL     1      39.034   3.856  40.058  1.00  0.00     0.053 C 
BRANCH   6   7
ATOM      7  C   UNL     1      39.109   5.123  40.852  1.00  0.00     0.041 C 
ATOM      8  O   UNL     1      40.047   5.301  41.674  1.00  0.00    -0.550 OA
ATOM      9  O   UNL     1      38.163   6.122  40.661  1.00  0.00    -0.550 OA
ENDBRANCH   6   7
ENDBRANCH   5   6
ENDBRANCH   4   5
ENDBRANCH   3   4
ENDBRANCH   2   3
ENDBRANCH   1   2
BRANCH   1  10
ATOM     10  C   UNL     1      34.698   5.436  39.647  1.00  0.00     0.000 C 
BRANCH  10  11
ATOM     11  C   UNL     1      33.957   5.081  40.948  1.00  0.00    -0.000 C 
BRANCH  11  12
ATOM     12  C   UNL     1      34.865   4.671  42.124  1.00  0.00    -0.000 C 
BRANCH  12  13
ATOM     13  C   UNL     1      35.850   3.523  41.819  1.00  0.00    -0.000 C 
BRANCH  13  14
ATOM     14  C   UNL     1      35.317   2.110  42.124  1.00  0.00    -0.000 C 
BRANCH  14  15
ATOM     15  C   UNL     1      34.808   1.332  40.897  1.00  0.00    -0.003 C 
ATOM     16  C   UNL     1      33.302   1.474  40.683  1.00  0.00     0.004 C 
ENDBRANCH  14  15
ENDBRANCH  13  14
ENDBRANCH  12  13
ENDBRANCH  11  12
ENDBRANCH  10  11
ENDBRANCH   1  10
TORSDOF 12
ENDMDL
MODEL 4
REMARK VINA RESULT:    -0.718      1.665      3.104
REMARK INTER + INTRA:          -3.250
REMARK INTER:                  -1.651
REMARK INTRA:                  -1.599
REMARK UNBOUND:                -2.028
REMARK SMILES CCCCCCCCCCCCCC(=O)[O-]
REMARK SMILES IDX 8 1 9 2 10 3 11 4 12 5 13 6 14 7 15 8 16 9 7 10 6 11 5 12
REMARK SMILES IDX 4 13 3 14 2 15 1 16
REMARK H PARENT
REMARK Flexibility Score: inf
ROOT
ATOM      1  C   UNL     1      36.007   5.000  40.783  1.00  0.00     0.000 C 
ENDROOT
BRANCH   1   2
ATOM      2  C   UNL     1      35.536   4.221  42.017  1.00  0.00     0.000 C 
BRANCH   2   3
ATOM      3  C   UNL     1      34.921   2.872  41.614  1.00  0.00     0.000 C 
BRANCH   3   4
ATOM      4  C   UNL     1      35.745   1.673  42.110  1.00  0.00     0.000 C 
BRANCH   4   5
ATOM      5  C   UNL     1      36.927   1.342  41.182  1.00  0.00     0.006 C 
BRANCH   5   6
ATOM      6  C   UNL     1      38.281   1.537  41.878  1.00  0.00     0.053 C 
BRANCH   6   7
ATOM      7  C   UNL     1      39.428   1.236  40.964  1.00  0.00     0.041 C 
ATOM      8  O   UNL     1      40.606   1.216  41.409  1.00  0.00    -0.550 OA
ATOM      9  O   UNL     1      39.194   0.946  39.625  1.00  0.00    -0.550 OA
ENDBRANCH   6   7
ENDBRANCH   5   6
ENDBRANCH   4   5
ENDBRANCH   3   4
ENDBRANCH   2   3
ENDBRANCH   1   2
BRANCH   1  10
ATOM     10  C   UNL     1      37.176   5.933  41.133  1.00  0.00     0.000 C 
BRANCH  10  11
ATOM     11  C   UNL     1      38.364   5.192  41.772  1.00  0.00    -0.000 C 
BRANCH  11  12
ATOM     12  C   UNL     1      39.531   4.882  40.812  1.00  0.00    -0.000 C 
BRANCH  12  13
ATOM     13  C   UNL     1      39.418   5.529  39.417  1.00  0.00    -0.000 C 
BRANCH  13  14
ATOM     14  C   UNL     1      39.289   4.535  38.246  1.00  0.00    -0.000 C 
BRANCH  14  15
ATOM     15  C   UNL     1      37.884   3.937  38.057  1.00  0.00    -0.003 C 
ATOM     16  C   UNL     1      37.847   2.817  37.019  1.00  0.00     0.004 C 
ENDBRANCH  14  15
ENDBRANCH  13  14
ENDBRANCH  12  13
ENDBRANCH  11  12
ENDBRANCH  10  11
ENDBRANCH   1  10
TORSDOF 12
ENDMDL
MODEL 5
REMARK VINA RESULT:    -0.709      1.624      3.800
REMARK INTER + INTRA:          -3.235
REMARK INTER:                  -1.170
REMARK INTRA:                  -2.065
REMARK UNBOUND:                -2.028
REMARK SMILES CCCCCCCCCCCCCC(=O)[O-]
REMARK SMILES IDX 8 1 9 2 10 3 11 4 12 5 13 6 14 7 15 8 16 9 7 10 6 11 5 12
REMARK SMILES IDX 4 13 3 14 2 15 1 16
REMARK H PARENT
REMARK Flexibility Score: inf
ROOT
ATOM      1  C   UNL     1      39.987   4.542  38.126  1.00  0.00     0.000 C 
ENDROOT
BRANCH   1   2
ATOM      2  C   UNL     1      40.242   3.079  37.744  1.00  0.00     0.000 C 
BRANCH   2   3
ATOM      3  C   UNL     1      39.019   2.206  38.060  1.00  0.00     0.000 C 
BRANCH   3   4
ATOM      4  C   UNL     1      39.107   1.540  39.442  1.00  0.00     0.000 C 
BRANCH   4   5
ATOM      5  C   UNL     1      40.507   0.975  39.740  1.00  0.00     0.006 C 
BRANCH   5   6
ATOM      6  C   UNL     1      41.052   1.462  41.089  1.00  0.00     0.053 C 
BRANCH   6   7
ATOM      7  C   UNL     1      42.462   1.958  40.976  1.00  0.00     0.041 C 
ATOM      8  O   UNL     1      42.974   2.158  39.843  1.00  0.00    -0.550 OA
ATOM      9  O   UNL     1      43.198   2.229  42.122  1.00  0.00    -0.550 OA
ENDBRANCH   6   7
ENDBRANCH   5   6
ENDBRANCH   4   5
ENDBRANCH   3   4
ENDBRANCH   2   3
ENDBRANCH   1   2
BRANCH   1  10
ATOM     10  C   UNL     1      40.890   4.972  39.293  1.00  0.00     0.000 C 
BRANCH  10  11
ATOM     11  C   UNL     1      40.113   5.661  40.429  1.00  0.00    -0.000 C 
BRANCH  11  12
ATOM     12  C   UNL     1      39.421   4.703  41.419  1.00  0.00    -0.000 C 
BRANCH  12  13
ATOM     13  C   UNL     1      37.909   4.938  41.607  1.00  0.00    -0.000 C 
BRANCH  13  14
ATOM     14  C   UNL     1      37.035   4.553  40.397  1.00  0.00    -0.000 C 
BRANCH  14  15
ATOM     15  C   UNL     1      36.141   3.319  40.611  1.00  0.00    -0.003 C 
ATOM     16  C   UNL     1      36.403   2.618  41.943  1.00  0.00     0.004 C 
ENDBRANCH  14  15
ENDBRANCH  13  14
ENDBRANCH  12  13
ENDBRANCH  11  12
ENDBRANCH  10  11
ENDBRANCH   1  10
TORSDOF 12
ENDMDL
MODEL 6
REMARK VINA RESULT:    -0.700      2.997      4.856
REMARK INTER + INTRA:          -3.219
REMARK INTER:                  -1.192
REMARK INTRA:                  -2.027
REMARK UNBOUND:                -2.028
REMARK SMILES CCCCCCCCCCCCCC(=O)[O-]
REMARK SMILES IDX 8 1 9 2 10 3 11 4 12 5 13 6 14 7 15 8 16 9 7 10 6 11 5 12
REMARK SMILES IDX 4 13 3 14 2 15 1 16
REMARK H PARENT
REMARK Flexibility Score: inf
ROOT
ATOM      1  C   UNL     1      38.870   5.757  37.963  1.00  0.00     0.000 C 
ENDROOT
BRANCH   1   2
ATOM      2  C   UNL     1      39.323   4.483  38.686  1.00  0.00     0.000 C 
BRANCH   2   3
ATOM      3  C   UNL     1      38.161   3.849  39.465  1.00  0.00     0.000 C 
BRANCH   3   4
ATOM      4  C   UNL     1      38.528   3.529  40.923  1.00  0.00     0.000 C 
BRANCH   4   5
ATOM      5  C   UNL     1      37.383   2.839  41.685  1.00  0.00     0.006 C 
BRANCH   5   6
ATOM      6  C   UNL     1      36.300   3.834  42.125  1.00  0.00     0.053 C 
BRANCH   6   7
ATOM      7  C   UNL     1      34.940   3.425  41.649  1.00  0.00     0.041 C 
ATOM      8  O   UNL     1      34.706   2.224  41.352  1.00  0.00    -0.550 OA
ATOM      9  O   UNL     1      33.920   4.365  41.567  1.00  0.00    -0.550 OA
ENDBRANCH   6   7
ENDBRANCH   5   6
ENDBRANCH   4   5
ENDBRANCH   3   4
ENDBRANCH   2   3
ENDBRANCH   1   2
BRANCH   1  10
ATOM     10  C   UNL     1      39.811   6.931  38.271  1.00  0.00     0.000 C 
BRANCH  10  11
ATOM     11  C   UNL     1      40.451   6.836  39.667  1.00  0.00    -0.000 C 
BRANCH  11  12
ATOM     12  C   UNL     1      39.822   7.752  40.736  1.00  0.00    -0.000 C 
BRANCH  12  13
ATOM     13  C   UNL     1      38.869   7.045  41.722  1.00  0.00    -0.000 C 
BRANCH  13  14
ATOM     14  C   UNL     1      37.433   7.604  41.753  1.00  0.00    -0.000 C 
BRANCH  14  15
ATOM     15  C   UNL     1      36.803   7.847  40.370  1.00  0.00    -0.003 C 
ATOM     16  C   UNL     1      35.921   6.690  39.904  1.00  0.00     0.004 C 
ENDBRANCH  14  15
ENDBRANCH  13  14
ENDBRANCH  12  13
ENDBRANCH  11  12
ENDBRANCH  10  11
ENDBRANCH   1  10
TORSDOF 12
ENDMDL
MODEL 7
REMARK VINA RESULT:    -0.699      2.870      4.519
REMARK INTER + INTRA:          -3.218
REMARK INTER:                  -1.174
REMARK INTRA:                  -2.044
REMARK UNBOUND:                -2.028
REMARK SMILES CCCCCCCCCCCCCC(=O)[O-]
REMARK SMILES IDX 8 1 9 2 10 3 11 4 12 5 13 6 14 7 15 8 16 9 7 10 6 11 5 12
REMARK SMILES IDX 4 13 3 14 2 15 1 16
REMARK H PARENT
REMARK Flexibility Score: inf
ROOT
ATOM      1  C   UNL     1      36.606   3.955  41.274  1.00  0.00     0.000 C 
ENDROOT
BRANCH   1   2
ATOM      2  C   UNL     1      35.836   2.767  40.687  1.00  0.00     0.000 C 
BRANCH   2   3
ATOM      3  C   UNL     1      35.964   2.730  39.156  1.00  0.00     0.000 C 
BRANCH   3   4
ATOM      4  C   UNL     1      35.040   3.742  38.459  1.00  0.00     0.000 C 
BRANCH   4   5
ATOM      5  C   UNL     1      35.813   4.753  37.594  1.00  0.00     0.006 C 
BRANCH   5   6
ATOM      6  C   UNL     1      35.986   6.105  38.300  1.00  0.00     0.053 C 
BRANCH   6   7
ATOM      7  C   UNL     1      37.066   6.930  37.670  1.00  0.00     0.041 C 
ATOM      8  O   UNL     1      37.501   7.957  38.255  1.00  0.00    -0.550 OA
ATOM      9  O   UNL     1      37.613   6.547  36.452  1.00  0.00    -0.550 OA
ENDBRANCH   6   7
ENDBRANCH   5   6
ENDBRANCH   4   5
ENDBRANCH   3   4
ENDBRANCH   2   3
ENDBRANCH   1   2
BRANCH   1  10
ATOM     10  C   UNL     1      37.793   3.478  42.124  1.00  0.00     0.000 C 
BRANCH  10  11
ATOM     11  C   UNL     1      37.953   1.947  42.125  1.00  0.00    -0.000 C 
BRANCH  11  12
ATOM     12  C   UNL     1      39.190   1.421  41.371  1.00  0.00    -0.000 C 
BRANCH  12  13
ATOM     13  C   UNL     1      39.998   2.494  40.613  1.00  0.00    -0.000 C 
BRANCH  13  14
ATOM     14  C   UNL     1      39.827   2.476  39.081  1.00  0.00    -0.000 C 
BRANCH  14  15
ATOM     15  C   UNL     1      39.411   3.822  38.460  1.00  0.00    -0.003 C 
ATOM     16  C   UNL     1      39.723   5.016  39.362  1.00  0.00     0.004 C 
ENDBRANCH  14  15
ENDBRANCH  13  14
ENDBRANCH  12  13
ENDBRANCH  11  12
ENDBRANCH  10  11
ENDBRANCH   1  10
TORSDOF 12
ENDMDL
MODEL 8
REMARK VINA RESULT:    -0.677      2.612      5.302
REMARK INTER + INTRA:          -3.179
REMARK INTER:                  -1.437
REMARK INTRA:                  -1.742
REMARK UNBOUND:                -2.028
REMARK SMILES CCCCCCCCCCCCCC(=O)[O-]
REMARK SMILES IDX 8 1 9 2 10 3 11 4 12 5 13 6 14 7 15 8 16 9 7 10 6 11 5 12
REMARK SMILES IDX 4 13 3 14 2 15 1 16
REMARK H PARENT
REMARK Flexibility Score: inf
ROOT
ATOM      1  C   UNL     1      38.532   2.363  41.180  1.00  0.00     0.000 C 
ENDROOT
BRANCH   1   2
ATOM      2  C   UNL     1      38.527   1.912  39.715  1.00  0.00     0.000 C 
BRANCH   2   3
ATOM      3  C   UNL     1      37.677   2.856  38.852  1.00  0.00     0.000 C 
BRANCH   3   4
ATOM      4  C   UNL     1      38.139   4.320  38.943  1.00  0.00     0.000 C 
BRANCH   4   5
ATOM      5  C   UNL     1      36.962   5.307  39.037  1.00  0.00     0.006 C 
BRANCH   5   6
ATOM      6  C   UNL     1      36.910   6.016  40.397  1.00  0.00     0.053 C 
BRANCH   6   7
ATOM      7  C   UNL     1      38.258   6.513  40.821  1.00  0.00     0.041 C 
ATOM      8  O   UNL     1      38.731   7.567  40.320  1.00  0.00    -0.550 OA
ATOM      9  O   UNL     1      38.977   5.829  41.793  1.00  0.00    -0.550 OA
ENDBRANCH   6   7
ENDBRANCH   5   6
ENDBRANCH   4   5
ENDBRANCH   3   4
ENDBRANCH   2   3
ENDBRANCH   1   2
BRANCH   1  10
ATOM     10  C   UNL     1      37.746   1.382  42.063  1.00  0.00     0.000 C 
BRANCH  10  11
ATOM     11  C   UNL     1      36.227   1.628  42.029  1.00  0.00    -0.000 C 
BRANCH  11  12
ATOM     12  C   UNL     1      35.805   3.108  42.124  1.00  0.00    -0.000 C 
BRANCH  12  13
ATOM     13  C   UNL     1      34.414   3.429  41.541  1.00  0.00    -0.000 C 
BRANCH  13  14
ATOM     14  C   UNL     1      34.216   3.026  40.067  1.00  0.00    -0.000 C 
BRANCH  14  15
ATOM     15  C   UNL     1      32.965   2.173  39.792  1.00  0.00    -0.003 C 
ATOM     16  C   UNL     1      32.099   1.968  41.033  1.00  0.00     0.004 C 
ENDBRANCH  14  15
ENDBRANCH  13  14
ENDBRANCH  12  13
ENDBRANCH  11  12
ENDBRANCH  10  11
ENDBRANCH   1  10
TORSDOF 12
ENDMDL
MODEL 9
REMARK VINA RESULT:    -0.219      4.699      6.822
REMARK INTER + INTRA:          -2.401
REMARK INTER:                  -0.150
REMARK INTRA:                  -2.251
REMARK UNBOUND:                -2.028
REMARK SMILES CCCCCCCCCCCCCC(=O)[O-]
REMARK SMILES IDX 8 1 9 2 10 3 11 4 12 5 13 6 14 7 15 8 16 9 7 10 6 11 5 12
REMARK SMILES IDX 4 13 3 14 2 15 1 16
REMARK H PARENT
REMARK Flexibility Score: inf
ROOT
ATOM      1  C   UNL     1      35.441   7.099  38.027  1.00  0.00     0.000 C 
ENDROOT
BRANCH   1   2
ATOM      2  C   UNL     1      36.863   6.967  38.586  1.00  0.00     0.000 C 
BRANCH   2   3
ATOM      3  C   UNL     1      36.964   7.596  39.984  1.00  0.00     0.000 C 
BRANCH   3   4
ATOM      4  C   UNL     1      35.688   8.350  40.389  1.00  0.00     0.000 C 
BRANCH   4   5
ATOM      5  C   UNL     1      35.364   8.205  41.887  1.00  0.00     0.006 C 
BRANCH   5   6
ATOM      6  C   UNL     1      33.907   7.787  42.125  1.00  0.00     0.053 C 
BRANCH   6   7
ATOM      7  C   UNL     1      32.952   8.909  41.856  1.00  0.00     0.041 C 
ATOM      8  O   UNL     1      31.793   8.667  41.426  1.00  0.00    -0.550 OA
ATOM      9  O   UNL     1      33.331  10.221  42.110  1.00  0.00    -0.550 OA
ENDBRANCH   6   7
ENDBRANCH   5   6
ENDBRANCH   4   5
ENDBRANCH   3   4
ENDBRANCH   2   3
ENDBRANCH   1   2
BRANCH   1  10
ATOM     10  C   UNL     1      34.720   5.743  38.029  1.00  0.00     0.000 C 
BRANCH  10  11
ATOM     11  C   UNL     1      33.517   5.705  38.988  1.00  0.00    -0.000 C 
BRANCH  11  12
ATOM     12  C   UNL     1      33.642   4.702  40.151  1.00  0.00    -0.000 C 
BRANCH  12  13
ATOM     13  C   UNL     1      35.080   4.238  40.461  1.00  0.00    -0.000 C 
BRANCH  13  14
ATOM     14  C   UNL     1      35.528   4.438  41.923  1.00  0.00    -0.000 C 
BRANCH  14  15
ATOM     15  C   UNL     1      37.051   4.532  42.125  1.00  0.00    -0.003 C 
ATOM     16  C   UNL     1      37.844   4.101  40.892  1.00  0.00     0.004 C 
ENDBRANCH  14  15
ENDBRANCH  13  14
ENDBRANCH  12  13
ENDBRANCH  11  12
ENDBRANCH  10  11
ENDBRANCH   1  10
TORSDOF 12
ENDMDL
