MODEL 1
REMARK VINA RESULT:    76.904      0.000      0.000
REMARK INTER + INTRA:          84.021
REMARK INTER:                  83.647
REMARK INTRA:                   0.373
REMARK UNBOUND:                 0.373
REMARK SMILES C[C@@H]1[C@H](C)CC[C@]2(C(=O)[O-])CC[C@]3(C)C(=CC[C@@H]4[C@@]5(C)CC[C@@H](O)C(C)(C)[C@H]5CC[C@]43C)[C@H]12
REMARK SMILES IDX 7 1 6 2 11 3 33 4 5 5 12 6 15 7 2 8 3 9 13 10 16 11 1 12
REMARK SMILES IDX 4 13 14 14 31 15 17 16 18 17 30 18 32 19 19 20 29 21 28 22
REMARK SMILES IDX 21 23 20 24 25 25 22 26 23 27 26 28 27 29 8 30 9 31 10 32
REMARK SMILES IDX 24 33
REMARK H PARENT 24 34
REMARK Flexibility Score: inf
ROOT
ATOM      1  C   UNL     1     -18.272  45.930  30.879  1.00  0.00     0.017 C 
ATOM      2  C   UNL     1     -18.911  44.939  29.850  1.00  0.00     0.014 C 
ATOM      3  C   UNL     1     -18.688  47.380  30.480  1.00  0.00     0.014 C 
ATOM      4  C   UNL     1     -16.693  45.763  30.951  1.00  0.00     0.030 C 
ATOM      5  C   UNL     1     -18.467  43.461  29.971  1.00  0.00     0.004 C 
ATOM      6  C   UNL     1     -17.852  47.982  29.347  1.00  0.00     0.013 C 
ATOM      7  C   UNL     1     -15.839  46.997  30.582  1.00  0.00    -0.063 C 
ATOM      8  C   UNL     1     -16.130  44.424  30.364  1.00  0.00    -0.003 C 
ATOM      9  C   UNL     1     -17.107  43.267  30.678  1.00  0.00    -0.011 C 
ATOM     10  C   UNL     1     -16.314  48.124  29.644  1.00  0.00    -0.006 C 
ATOM     11  C   UNL     1     -14.637  47.099  31.193  1.00  0.00    -0.027 C 
ATOM     12  C   UNL     1     -15.747  44.494  28.875  1.00  0.00     0.008 C 
ATOM     13  C   UNL     1     -16.516  41.875  30.394  1.00  0.00     0.008 C 
ATOM     14  C   UNL     1     -15.597  47.880  28.275  1.00  0.00     0.017 C 
ATOM     15  C   UNL     1     -15.898  49.553  30.299  1.00  0.00    -0.020 C 
ATOM     16  C   UNL     1     -13.873  48.385  31.372  1.00  0.00     0.032 C 
ATOM     17  C   UNL     1     -14.347  49.601  30.518  1.00  0.00     0.006 C 
ATOM     18  C   UNL     1     -16.215  50.738  29.346  1.00  0.00     0.008 C 
ATOM     19  C   UNL     1     -16.643  49.740  31.660  1.00  0.00     0.012 C 
ATOM     20  C   UNL     1     -13.686  51.045  30.875  1.00  0.00    -0.025 C 
ATOM     21  C   UNL     1     -15.863  52.130  29.873  1.00  0.00     0.005 C 
ATOM     22  C   UNL     1     -14.739  52.240  30.949  1.00  0.00     0.003 C 
ATOM     23  C   UNL     1     -12.652  51.389  29.756  1.00  0.00     0.010 C 
ATOM     24  C   UNL     1     -12.922  50.931  32.230  1.00  0.00     0.012 C 
ATOM     25  C   UNL     1     -14.121  53.722  30.989  1.00  0.00    -0.006 C 
ATOM     26  C   UNL     1     -11.988  52.766  29.890  1.00  0.00     0.033 C 
ATOM     27  C   UNL     1     -13.011  53.913  29.899  1.00  0.00     0.120 C 
ATOM     28  C   UNL     1     -13.523  54.059  32.395  1.00  0.00     0.014 C 
ATOM     29  C   UNL     1     -15.231  54.801  30.782  1.00  0.00     0.014 C 
ENDROOT
BRANCH   1  30
ATOM     30  C   UNL     1     -18.879  45.664  32.264  1.00  0.00     0.048 C 
ATOM     31  O   UNL     1     -19.125  46.630  33.041  1.00  0.00    -0.550 OA
ATOM     32  O   UNL     1     -19.088  44.369  32.734  1.00  0.00    -0.550 OA
ENDBRANCH   1  30
BRANCH  27  33
ATOM     33  O   UNL     1     -13.563  54.020  28.608  1.00  0.00    -0.393 OA
ATOM     34  H   UNL     1     -12.949  54.582  28.062  1.00  0.00     0.210 HD
ENDBRANCH  27  33
TORSDOF 2
ENDMDL
