MODEL 1
REMARK VINA RESULT:    -4.918      0.000      0.000
REMARK INTER + INTRA:          -8.556
REMARK INTER:                  -6.787
REMARK INTRA:                  -1.769
REMARK UNBOUND:                -1.769
REMARK SMILES CC[C@@H](CC[C@@H](C)[C@H]1CC[C@@H]2[C@@H]3CC=C4C[C@H](O)CC[C@]4(C)[C@@H]3CC[C@@]21C)C(C)C
REMARK SMILES IDX 5 1 4 2 3 3 2 4 1 5 28 6 29 7 30 8 6 9 7 10 8 11 9 12 26 13
REMARK SMILES IDX 10 14 11 15 25 16 27 17 12 18 24 19 23 20 13 21 21 22 14 23
REMARK SMILES IDX 15 24 20 25 22 26 16 27 19 28 17 29 18 30
REMARK H PARENT 18 31
REMARK Flexibility Score: inf
ROOT
ATOM      1  C   UNL     1      -1.276   6.081  -5.992  1.00  0.00     0.004 C 
ENDROOT
BRANCH   1   2
ATOM      2  C   UNL     1      -2.701   5.722  -6.496  1.00  0.00     0.004 C 
BRANCH   2   3
ATOM      3  C   UNL     1      -3.413   4.614  -5.658  1.00  0.00    -0.009 C 
BRANCH   3   4
ATOM      4  C   UNL     1      -3.220   4.856  -4.134  1.00  0.00     0.000 C 
ATOM      5  C   UNL     1      -4.179   5.901  -3.560  1.00  0.00     0.004 C 
ENDBRANCH   3   4
BRANCH   3   6
ATOM      6  C   UNL     1      -2.978   3.152  -6.030  1.00  0.00    -0.014 C 
ATOM      7  C   UNL     1      -1.899   2.556  -5.106  1.00  0.00     0.007 C 
ATOM      8  C   UNL     1      -2.548   3.005  -7.495  1.00  0.00     0.007 C 
ENDBRANCH   3   6
ENDBRANCH   2   3
ENDBRANCH   1   2
BRANCH   1   9
ATOM      9  C   UNL     1      -0.115   5.681  -6.948  1.00  0.00    -0.011 C 
ATOM     10  C   UNL     1      -0.187   6.584  -8.199  1.00  0.00     0.008 C 
BRANCH   9  11
ATOM     11  C   UNL     1       1.342   5.665  -6.318  1.00  0.00    -0.002 C 
ATOM     12  C   UNL     1       1.356   5.835  -4.785  1.00  0.00     0.005 C 
ATOM     13  C   UNL     1       2.141   4.318  -6.488  1.00  0.00    -0.026 C 
ATOM     14  C   UNL     1       1.241   4.434  -4.193  1.00  0.00     0.005 C 
ATOM     15  C   UNL     1       1.575   3.450  -5.333  1.00  0.00    -0.001 C 
ATOM     16  C   UNL     1       3.690   4.587  -6.328  1.00  0.00     0.007 C 
ATOM     17  C   UNL     1       1.930   3.603  -7.845  1.00  0.00     0.012 C 
ATOM     18  C   UNL     1       2.465   2.229  -4.945  1.00  0.00     0.000 C 
ATOM     19  C   UNL     1       4.320   4.020  -5.048  1.00  0.00     0.005 C 
ATOM     20  C   UNL     1       4.003   2.518  -4.884  1.00  0.00     0.003 C 
ATOM     21  C   UNL     1       1.920   1.500  -3.713  1.00  0.00     0.031 C 
ATOM     22  C   UNL     1       4.814   1.813  -3.709  1.00  0.00    -0.008 C 
ATOM     23  C   UNL     1       2.803   0.362  -3.327  1.00  0.00    -0.027 C 
ATOM     24  C   UNL     1       4.135   0.527  -3.228  1.00  0.00    -0.065 C 
ATOM     25  C   UNL     1       4.968   2.713  -2.445  1.00  0.00     0.014 C 
ATOM     26  C   UNL     1       6.226   1.468  -4.271  1.00  0.00     0.016 C 
ATOM     27  C   UNL     1       4.855  -0.280  -2.173  1.00  0.00     0.063 C 
ATOM     28  C   UNL     1       5.647   1.997  -1.249  1.00  0.00     0.033 C 
ATOM     29  C   UNL     1       5.058   0.599  -0.920  1.00  0.00     0.118 C 
BRANCH  29  30
ATOM     30  O   UNL     1       3.862   0.711  -0.186  1.00  0.00    -0.393 OA
ATOM     31  H   UNL     1       3.991   0.255   0.685  1.00  0.00     0.210 HD
ENDBRANCH  29  30
ENDBRANCH   9  11
ENDBRANCH   1   9
TORSDOF 7
ENDMDL
MODEL 2
REMARK VINA RESULT:    -4.694      1.478      2.810
REMARK INTER + INTRA:          -8.246
REMARK INTER:                  -6.415
REMARK INTRA:                  -1.831
REMARK UNBOUND:                -1.769
REMARK SMILES CC[C@@H](CC[C@@H](C)[C@H]1CC[C@@H]2[C@@H]3CC=C4C[C@H](O)CC[C@]4(C)[C@@H]3CC[C@@]21C)C(C)C
REMARK SMILES IDX 5 1 4 2 3 3 2 4 1 5 28 6 29 7 30 8 6 9 7 10 8 11 9 12 26 13
REMARK SMILES IDX 10 14 11 15 25 16 27 17 12 18 24 19 23 20 13 21 21 22 14 23
REMARK SMILES IDX 15 24 20 25 22 26 16 27 19 28 17 29 18 30
REMARK H PARENT 18 31
REMARK Flexibility Score: inf
ROOT
ATOM      1  C   UNL     1      -3.390   4.428  -5.507  1.00  0.00     0.004 C 
ENDROOT
BRANCH   1   2
ATOM      2  C   UNL     1      -4.436   5.516  -5.878  1.00  0.00     0.004 C 
BRANCH   2   3
ATOM      3  C   UNL     1      -4.231   6.875  -5.139  1.00  0.00    -0.009 C 
BRANCH   3   4
ATOM      4  C   UNL     1      -3.298   7.817  -5.953  1.00  0.00     0.000 C 
ATOM      5  C   UNL     1      -3.675   7.913  -7.432  1.00  0.00     0.004 C 
ENDBRANCH   3   4
BRANCH   3   6
ATOM      6  C   UNL     1      -3.699   6.731  -3.669  1.00  0.00    -0.014 C 
ATOM      7  C   UNL     1      -4.800   6.757  -2.591  1.00  0.00     0.007 C 
ATOM      8  C   UNL     1      -2.605   7.749  -3.321  1.00  0.00     0.007 C 
ENDBRANCH   3   6
ENDBRANCH   2   3
ENDBRANCH   1   2
BRANCH   1   9
ATOM      9  C   UNL     1      -2.396   4.051  -6.644  1.00  0.00    -0.011 C 
ATOM     10  C   UNL     1      -3.076   4.346  -7.998  1.00  0.00     0.008 C 
BRANCH   9  11
ATOM     11  C   UNL     1      -0.950   4.700  -6.559  1.00  0.00    -0.002 C 
ATOM     12  C   UNL     1      -0.605   5.263  -5.165  1.00  0.00     0.005 C 
ATOM     13  C   UNL     1       0.253   3.713  -6.801  1.00  0.00    -0.026 C 
ATOM     14  C   UNL     1       0.022   4.116  -4.378  1.00  0.00     0.005 C 
ATOM     15  C   UNL     1       0.416   3.042  -5.411  1.00  0.00    -0.001 C 
ATOM     16  C   UNL     1       1.541   4.527  -7.224  1.00  0.00     0.007 C 
ATOM     17  C   UNL     1       0.004   2.638  -7.887  1.00  0.00     0.012 C 
ATOM     18  C   UNL     1       1.794   2.346  -5.185  1.00  0.00     0.000 C 
ATOM     19  C   UNL     1       2.658   4.568  -6.173  1.00  0.00     0.005 C 
ATOM     20  C   UNL     1       3.037   3.149  -5.699  1.00  0.00     0.003 C 
ATOM     21  C   UNL     1       1.938   1.828  -3.751  1.00  0.00     0.031 C 
ATOM     22  C   UNL     1       4.343   3.100  -4.789  1.00  0.00    -0.008 C 
ATOM     23  C   UNL     1       3.276   1.205  -3.537  1.00  0.00    -0.027 C 
ATOM     24  C   UNL     1       4.399   1.835  -3.927  1.00  0.00    -0.065 C 
ATOM     25  C   UNL     1       4.441   4.298  -3.796  1.00  0.00     0.014 C 
ATOM     26  C   UNL     1       5.570   3.123  -5.748  1.00  0.00     0.016 C 
ATOM     27  C   UNL     1       5.635   1.632  -3.081  1.00  0.00     0.063 C 
ATOM     28  C   UNL     1       5.641   4.200  -2.818  1.00  0.00     0.033 C 
ATOM     29  C   UNL     1       5.783   2.825  -2.112  1.00  0.00     0.118 C 
BRANCH  29  30
ATOM     30  O   UNL     1       4.884   2.711  -1.036  1.00  0.00    -0.393 OA
ATOM     31  H   UNL     1       4.314   3.522  -1.021  1.00  0.00     0.210 HD
ENDBRANCH  29  30
ENDBRANCH   9  11
ENDBRANCH   1   9
TORSDOF 7
ENDMDL
MODEL 3
REMARK VINA RESULT:    -4.691      1.024      1.958
REMARK INTER + INTRA:          -8.243
REMARK INTER:                  -5.924
REMARK INTRA:                  -2.319
REMARK UNBOUND:                -1.769
REMARK SMILES CC[C@@H](CC[C@@H](C)[C@H]1CC[C@@H]2[C@@H]3CC=C4C[C@H](O)CC[C@]4(C)[C@@H]3CC[C@@]21C)C(C)C
REMARK SMILES IDX 5 1 4 2 3 3 2 4 1 5 28 6 29 7 30 8 6 9 7 10 8 11 9 12 26 13
REMARK SMILES IDX 10 14 11 15 25 16 27 17 12 18 24 19 23 20 13 21 21 22 14 23
REMARK SMILES IDX 15 24 20 25 22 26 16 27 19 28 17 29 18 30
REMARK H PARENT 18 31
REMARK Flexibility Score: inf
ROOT
ATOM      1  C   UNL     1      -0.082   6.370  -6.280  1.00  0.00     0.004 C 
ENDROOT
BRANCH   1   2
ATOM      2  C   UNL     1      -1.316   5.461  -6.531  1.00  0.00     0.004 C 
BRANCH   2   3
ATOM      3  C   UNL     1      -1.017   3.933  -6.411  1.00  0.00    -0.009 C 
BRANCH   3   4
ATOM      4  C   UNL     1      -1.313   3.200  -7.750  1.00  0.00     0.000 C 
ATOM      5  C   UNL     1      -0.148   2.337  -8.239  1.00  0.00     0.004 C 
ENDBRANCH   3   4
BRANCH   3   6
ATOM      6  C   UNL     1      -1.770   3.223  -5.231  1.00  0.00    -0.014 C 
ATOM      7  C   UNL     1      -2.402   4.188  -4.210  1.00  0.00     0.007 C 
ATOM      8  C   UNL     1      -0.907   2.186  -4.502  1.00  0.00     0.007 C 
ENDBRANCH   3   6
ENDBRANCH   2   3
ENDBRANCH   1   2
BRANCH   1   9
ATOM      9  C   UNL     1       1.183   6.013  -7.112  1.00  0.00    -0.011 C 
ATOM     10  C   UNL     1       1.323   7.049  -8.249  1.00  0.00     0.008 C 
BRANCH   9  11
ATOM     11  C   UNL     1       2.537   5.848  -6.299  1.00  0.00    -0.002 C 
ATOM     12  C   UNL     1       2.365   5.995  -4.774  1.00  0.00     0.005 C 
ATOM     13  C   UNL     1       3.221   4.432  -6.399  1.00  0.00    -0.026 C 
ATOM     14  C   UNL     1       2.042   4.603  -4.238  1.00  0.00     0.005 C 
ATOM     15  C   UNL     1       2.429   3.607  -5.350  1.00  0.00    -0.001 C 
ATOM     16  C   UNL     1       4.754   4.548  -6.032  1.00  0.00     0.007 C 
ATOM     17  C   UNL     1       3.125   3.759  -7.790  1.00  0.00     0.012 C 
ATOM     18  C   UNL     1       3.141   2.300  -4.882  1.00  0.00     0.000 C 
ATOM     19  C   UNL     1       5.154   3.906  -4.697  1.00  0.00     0.005 C 
ATOM     20  C   UNL     1       4.679   2.439  -4.614  1.00  0.00     0.003 C 
ATOM     21  C   UNL     1       2.373   1.611  -3.750  1.00  0.00     0.031 C 
ATOM     22  C   UNL     1       5.258   1.643  -3.363  1.00  0.00    -0.008 C 
ATOM     23  C   UNL     1       3.087   0.388  -3.284  1.00  0.00    -0.027 C 
ATOM     24  C   UNL     1       4.404   0.422  -3.008  1.00  0.00    -0.065 C 
ATOM     25  C   UNL     1       5.327   2.507  -2.067  1.00  0.00     0.014 C 
ATOM     26  C   UNL     1       6.693   1.172  -3.746  1.00  0.00     0.016 C 
ATOM     27  C   UNL     1       4.899  -0.464  -1.889  1.00  0.00     0.063 C 
ATOM     28  C   UNL     1       5.773   1.713  -0.812  1.00  0.00     0.033 C 
ATOM     29  C   UNL     1       5.017   0.374  -0.598  1.00  0.00     0.118 C 
BRANCH  29  30
ATOM     30  O   UNL     1       3.751   0.591  -0.023  1.00  0.00    -0.393 OA
ATOM     31  H   UNL     1       3.163  -0.166  -0.278  1.00  0.00     0.210 HD
ENDBRANCH  29  30
ENDBRANCH   9  11
ENDBRANCH   1   9
TORSDOF 7
ENDMDL
MODEL 4
REMARK VINA RESULT:    -4.664      2.204      7.283
REMARK INTER + INTRA:          -8.206
REMARK INTER:                  -6.001
REMARK INTRA:                  -2.205
REMARK UNBOUND:                -1.769
REMARK SMILES CC[C@@H](CC[C@@H](C)[C@H]1CC[C@@H]2[C@@H]3CC=C4C[C@H](O)CC[C@]4(C)[C@@H]3CC[C@@]21C)C(C)C
REMARK SMILES IDX 5 1 4 2 3 3 2 4 1 5 28 6 29 7 30 8 6 9 7 10 8 11 9 12 26 13
REMARK SMILES IDX 10 14 11 15 25 16 27 17 12 18 24 19 23 20 13 21 21 22 14 23
REMARK SMILES IDX 15 24 20 25 22 26 16 27 19 28 17 29 18 30
REMARK H PARENT 18 31
REMARK Flexibility Score: inf
ROOT
ATOM      1  C   UNL     1       6.008   2.760  -5.302  1.00  0.00     0.004 C 
ENDROOT
BRANCH   1   2
ATOM      2  C   UNL     1       5.966   1.784  -4.094  1.00  0.00     0.004 C 
BRANCH   2   3
ATOM      3  C   UNL     1       4.757   2.011  -3.134  1.00  0.00    -0.009 C 
BRANCH   3   4
ATOM      4  C   UNL     1       5.225   2.625  -1.783  1.00  0.00     0.000 C 
ATOM      5  C   UNL     1       6.744   2.765  -1.675  1.00  0.00     0.004 C 
ENDBRANCH   3   4
BRANCH   3   6
ATOM      6  C   UNL     1       3.898   0.724  -2.870  1.00  0.00    -0.014 C 
ATOM      7  C   UNL     1       4.526  -0.578  -3.400  1.00  0.00     0.007 C 
ATOM      8  C   UNL     1       2.454   0.849  -3.375  1.00  0.00     0.007 C 
ENDBRANCH   3   6
ENDBRANCH   2   3
ENDBRANCH   1   2
BRANCH   1   9
ATOM      9  C   UNL     1       5.632   4.234  -4.975  1.00  0.00    -0.011 C 
ATOM     10  C   UNL     1       6.931   5.069  -4.944  1.00  0.00     0.008 C 
BRANCH   9  11
ATOM     11  C   UNL     1       4.528   4.901  -5.901  1.00  0.00    -0.002 C 
ATOM     12  C   UNL     1       3.814   3.900  -6.832  1.00  0.00     0.005 C 
ATOM     13  C   UNL     1       3.306   5.546  -5.145  1.00  0.00    -0.026 C 
ATOM     14  C   UNL     1       2.623   3.355  -6.051  1.00  0.00     0.005 C 
ATOM     15  C   UNL     1       2.403   4.316  -4.865  1.00  0.00    -0.001 C 
ATOM     16  C   UNL     1       2.596   6.607  -6.076  1.00  0.00     0.007 C 
ATOM     17  C   UNL     1       3.665   6.258  -3.818  1.00  0.00     0.012 C 
ATOM     18  C   UNL     1       0.919   4.664  -4.530  1.00  0.00     0.000 C 
ATOM     19  C   UNL     1       1.207   6.199  -6.585  1.00  0.00     0.005 C 
ATOM     20  C   UNL     1       0.281   5.783  -5.421  1.00  0.00     0.003 C 
ATOM     21  C   UNL     1       0.057   3.404  -4.402  1.00  0.00     0.031 C 
ATOM     22  C   UNL     1      -1.238   5.574  -5.848  1.00  0.00    -0.008 C 
ATOM     23  C   UNL     1      -1.366   3.753  -4.126  1.00  0.00    -0.027 C 
ATOM     24  C   UNL     1      -2.000   4.688  -4.858  1.00  0.00    -0.065 C 
ATOM     25  C   UNL     1      -1.393   4.889  -7.241  1.00  0.00     0.014 C 
ATOM     26  C   UNL     1      -1.900   6.984  -5.889  1.00  0.00     0.016 C 
ATOM     27  C   UNL     1      -3.476   4.485  -5.109  1.00  0.00     0.063 C 
ATOM     28  C   UNL     1      -2.863   4.567  -7.615  1.00  0.00     0.033 C 
ATOM     29  C   UNL     1      -3.666   3.844  -6.501  1.00  0.00     0.118 C 
BRANCH  29  30
ATOM     30  O   UNL     1      -3.363   2.470  -6.466  1.00  0.00    -0.393 OA
ATOM     31  H   UNL     1      -4.206   1.964  -6.596  1.00  0.00     0.210 HD
ENDBRANCH  29  30
ENDBRANCH   9  11
ENDBRANCH   1   9
TORSDOF 7
ENDMDL
MODEL 5
REMARK VINA RESULT:    -4.647      3.287      8.466
REMARK INTER + INTRA:          -8.183
REMARK INTER:                  -6.001
REMARK INTRA:                  -2.182
REMARK UNBOUND:                -1.769
REMARK SMILES CC[C@@H](CC[C@@H](C)[C@H]1CC[C@@H]2[C@@H]3CC=C4C[C@H](O)CC[C@]4(C)[C@@H]3CC[C@@]21C)C(C)C
REMARK SMILES IDX 5 1 4 2 3 3 2 4 1 5 28 6 29 7 30 8 6 9 7 10 8 11 9 12 26 13
REMARK SMILES IDX 10 14 11 15 25 16 27 17 12 18 24 19 23 20 13 21 21 22 14 23
REMARK SMILES IDX 15 24 20 25 22 26 16 27 19 28 17 29 18 30
REMARK H PARENT 18 31
REMARK Flexibility Score: inf
ROOT
ATOM      1  C   UNL     1      -0.434   2.557  -7.436  1.00  0.00     0.004 C 
ENDROOT
BRANCH   1   2
ATOM      2  C   UNL     1       1.046   2.927  -7.145  1.00  0.00     0.004 C 
BRANCH   2   3
ATOM      3  C   UNL     1       1.340   3.242  -5.644  1.00  0.00    -0.009 C 
BRANCH   3   4
ATOM      4  C   UNL     1       0.366   2.469  -4.710  1.00  0.00     0.000 C 
ATOM      5  C   UNL     1       1.077   1.527  -3.738  1.00  0.00     0.004 C 
ENDBRANCH   3   4
BRANCH   3   6
ATOM      6  C   UNL     1       1.321   4.772  -5.295  1.00  0.00    -0.014 C 
ATOM      7  C   UNL     1       0.317   5.158  -4.191  1.00  0.00     0.007 C 
ATOM      8  C   UNL     1       1.115   5.669  -6.523  1.00  0.00     0.007 C 
ENDBRANCH   3   6
ENDBRANCH   2   3
ENDBRANCH   1   2
BRANCH   1   9
ATOM      9  C   UNL     1      -1.194   3.545  -8.367  1.00  0.00    -0.011 C 
ATOM     10  C   UNL     1      -1.001   3.080  -9.827  1.00  0.00     0.008 C 
BRANCH   9  11
ATOM     11  C   UNL     1      -2.725   3.797  -8.028  1.00  0.00    -0.002 C 
ATOM     12  C   UNL     1      -3.213   3.043  -6.774  1.00  0.00     0.005 C 
ATOM     13  C   UNL     1      -3.106   5.281  -7.665  1.00  0.00    -0.026 C 
ATOM     14  C   UNL     1      -2.948   3.962  -5.586  1.00  0.00     0.005 C 
ATOM     15  C   UNL     1      -2.706   5.370  -6.169  1.00  0.00    -0.001 C 
ATOM     16  C   UNL     1      -4.654   5.508  -7.883  1.00  0.00     0.007 C 
ATOM     17  C   UNL     1      -2.357   6.363  -8.482  1.00  0.00     0.012 C 
ATOM     18  C   UNL     1      -3.359   6.554  -5.392  1.00  0.00     0.000 C 
ATOM     19  C   UNL     1      -5.472   5.691  -6.597  1.00  0.00     0.005 C 
ATOM     20  C   UNL     1      -4.875   6.800  -5.704  1.00  0.00     0.003 C 
ATOM     21  C   UNL     1      -3.033   6.500  -3.897  1.00  0.00     0.031 C 
ATOM     22  C   UNL     1      -5.799   7.203  -4.472  1.00  0.00    -0.008 C 
ATOM     23  C   UNL     1      -3.699   7.613  -3.161  1.00  0.00    -0.027 C 
ATOM     24  C   UNL     1      -5.004   7.880  -3.350  1.00  0.00    -0.065 C 
ATOM     25  C   UNL     1      -6.510   5.981  -3.815  1.00  0.00     0.014 C 
ATOM     26  C   UNL     1      -6.872   8.196  -5.012  1.00  0.00     0.016 C 
ATOM     27  C   UNL     1      -5.786   8.387  -2.161  1.00  0.00     0.063 C 
ATOM     28  C   UNL     1      -7.315   6.342  -2.539  1.00  0.00     0.033 C 
ATOM     29  C   UNL     1      -6.536   7.204  -1.511  1.00  0.00     0.118 C 
BRANCH  29  30
ATOM     30  O   UNL     1      -5.658   6.414  -0.746  1.00  0.00    -0.393 OA
ATOM     31  H   UNL     1      -4.775   6.864  -0.726  1.00  0.00     0.210 HD
ENDBRANCH  29  30
ENDBRANCH   9  11
ENDBRANCH   1   9
TORSDOF 7
ENDMDL
MODEL 6
REMARK VINA RESULT:    -4.528      2.825      8.066
REMARK INTER + INTRA:          -8.018
REMARK INTER:                  -5.724
REMARK INTRA:                  -2.294
REMARK UNBOUND:                -1.769
REMARK SMILES CC[C@@H](CC[C@@H](C)[C@H]1CC[C@@H]2[C@@H]3CC=C4C[C@H](O)CC[C@]4(C)[C@@H]3CC[C@@]21C)C(C)C
REMARK SMILES IDX 5 1 4 2 3 3 2 4 1 5 28 6 29 7 30 8 6 9 7 10 8 11 9 12 26 13
REMARK SMILES IDX 10 14 11 15 25 16 27 17 12 18 24 19 23 20 13 21 21 22 14 23
REMARK SMILES IDX 15 24 20 25 22 26 16 27 19 28 17 29 18 30
REMARK H PARENT 18 31
REMARK Flexibility Score: inf
ROOT
ATOM      1  C   UNL     1       0.007   2.553  -6.678  1.00  0.00     0.004 C 
ENDROOT
BRANCH   1   2
ATOM      2  C   UNL     1       1.428   3.087  -7.008  1.00  0.00     0.004 C 
BRANCH   2   3
ATOM      3  C   UNL     1       2.185   3.685  -5.781  1.00  0.00    -0.009 C 
BRANCH   3   4
ATOM      4  C   UNL     1       1.615   3.125  -4.447  1.00  0.00     0.000 C 
ATOM      5  C   UNL     1       2.368   1.895  -3.935  1.00  0.00     0.004 C 
ENDBRANCH   3   4
BRANCH   3   6
ATOM      6  C   UNL     1       2.202   5.254  -5.742  1.00  0.00    -0.014 C 
ATOM      7  C   UNL     1       1.715   5.861  -4.412  1.00  0.00     0.007 C 
ATOM      8  C   UNL     1       1.448   5.895  -6.914  1.00  0.00     0.007 C 
ENDBRANCH   3   6
ENDBRANCH   2   3
ENDBRANCH   1   2
BRANCH   1   9
ATOM      9  C   UNL     1      -1.157   3.250  -7.440  1.00  0.00    -0.011 C 
ATOM     10  C   UNL     1      -1.500   2.400  -8.682  1.00  0.00     0.008 C 
BRANCH   9  11
ATOM     11  C   UNL     1      -2.452   3.592  -6.587  1.00  0.00    -0.002 C 
ATOM     12  C   UNL     1      -2.283   3.337  -5.075  1.00  0.00     0.005 C 
ATOM     13  C   UNL     1      -2.893   5.104  -6.598  1.00  0.00    -0.026 C 
ATOM     14  C   UNL     1      -1.725   4.626  -4.478  1.00  0.00     0.005 C 
ATOM     15  C   UNL     1      -1.959   5.730  -5.529  1.00  0.00    -0.001 C 
ATOM     16  C   UNL     1      -4.418   5.223  -6.201  1.00  0.00     0.007 C 
ATOM     17  C   UNL     1      -2.708   5.826  -7.956  1.00  0.00     0.012 C 
ATOM     18  C   UNL     1      -2.438   7.109  -4.978  1.00  0.00     0.000 C 
ATOM     19  C   UNL     1      -4.685   5.850  -4.826  1.00  0.00     0.005 C 
ATOM     20  C   UNL     1      -3.972   7.212  -4.681  1.00  0.00     0.003 C 
ATOM     21  C   UNL     1      -1.548   7.601  -3.832  1.00  0.00     0.031 C 
ATOM     22  C   UNL     1      -4.393   8.024  -3.377  1.00  0.00    -0.008 C 
ATOM     23  C   UNL     1      -2.042   8.898  -3.287  1.00  0.00    -0.027 C 
ATOM     24  C   UNL     1      -3.342   9.066  -2.982  1.00  0.00    -0.065 C 
ATOM     25  C   UNL     1      -4.584   7.114  -2.125  1.00  0.00     0.014 C 
ATOM     26  C   UNL     1      -5.735   8.745  -3.701  1.00  0.00     0.016 C 
ATOM     27  C   UNL     1      -3.666   9.961  -1.809  1.00  0.00     0.063 C 
ATOM     28  C   UNL     1      -4.872   7.903  -0.821  1.00  0.00     0.033 C 
ATOM     29  C   UNL     1      -3.902   9.085  -0.559  1.00  0.00     0.118 C 
BRANCH  29  30
ATOM     30  O   UNL     1      -2.680   8.633  -0.027  1.00  0.00    -0.393 OA
ATOM     31  H   UNL     1      -2.802   8.488   0.947  1.00  0.00     0.210 HD
ENDBRANCH  29  30
ENDBRANCH   9  11
ENDBRANCH   1   9
TORSDOF 7
ENDMDL
MODEL 7
REMARK VINA RESULT:    -4.488      6.964     10.717
REMARK INTER + INTRA:          -7.963
REMARK INTER:                  -5.862
REMARK INTRA:                  -2.102
REMARK UNBOUND:                -1.769
REMARK SMILES CC[C@@H](CC[C@@H](C)[C@H]1CC[C@@H]2[C@@H]3CC=C4C[C@H](O)CC[C@]4(C)[C@@H]3CC[C@@]21C)C(C)C
REMARK SMILES IDX 5 1 4 2 3 3 2 4 1 5 28 6 29 7 30 8 6 9 7 10 8 11 9 12 26 13
REMARK SMILES IDX 10 14 11 15 25 16 27 17 12 18 24 19 23 20 13 21 21 22 14 23
REMARK SMILES IDX 15 24 20 25 22 26 16 27 19 28 17 29 18 30
REMARK H PARENT 18 31
REMARK Flexibility Score: inf
ROOT
ATOM      1  C   UNL     1       7.254   0.559  -0.662  1.00  0.00     0.004 C 
ENDROOT
BRANCH   1   2
ATOM      2  C   UNL     1       8.194   0.058  -1.793  1.00  0.00     0.004 C 
BRANCH   2   3
ATOM      3  C   UNL     1       7.639  -1.166  -2.587  1.00  0.00    -0.009 C 
BRANCH   3   4
ATOM      4  C   UNL     1       8.753  -2.223  -2.833  1.00  0.00     0.000 C 
ATOM      5  C   UNL     1       8.785  -3.327  -1.775  1.00  0.00     0.004 C 
ENDBRANCH   3   4
BRANCH   3   6
ATOM      6  C   UNL     1       6.947  -0.788  -3.944  1.00  0.00    -0.014 C 
ATOM      7  C   UNL     1       5.470  -0.371  -3.809  1.00  0.00     0.007 C 
ATOM      8  C   UNL     1       7.085  -1.877  -5.016  1.00  0.00     0.007 C 
ENDBRANCH   3   6
ENDBRANCH   2   3
ENDBRANCH   1   2
BRANCH   1   9
ATOM      9  C   UNL     1       7.305  -0.267   0.656  1.00  0.00    -0.011 C 
ATOM     10  C   UNL     1       7.941   0.614   1.754  1.00  0.00     0.008 C 
BRANCH   9  11
ATOM     11  C   UNL     1       5.935  -0.909   1.138  1.00  0.00    -0.002 C 
ATOM     12  C   UNL     1       4.847  -0.938   0.046  1.00  0.00     0.005 C 
ATOM     13  C   UNL     1       6.004  -2.428   1.547  1.00  0.00    -0.026 C 
ATOM     14  C   UNL     1       5.028  -2.249  -0.712  1.00  0.00     0.005 C 
ATOM     15  C   UNL     1       5.917  -3.146   0.174  1.00  0.00    -0.001 C 
ATOM     16  C   UNL     1       4.785  -2.789   2.486  1.00  0.00     0.007 C 
ATOM     17  C   UNL     1       7.299  -2.846   2.286  1.00  0.00     0.012 C 
ATOM     18  C   UNL     1       5.510  -4.650   0.253  1.00  0.00     0.000 C 
ATOM     19  C   UNL     1       3.723  -3.698   1.852  1.00  0.00     0.005 C 
ATOM     20  C   UNL     1       4.357  -4.976   1.261  1.00  0.00     0.003 C 
ATOM     21  C   UNL     1       5.309  -5.256  -1.139  1.00  0.00     0.031 C 
ATOM     22  C   UNL     1       3.295  -6.068   0.799  1.00  0.00    -0.008 C 
ATOM     23  C   UNL     1       4.879  -6.681  -1.048  1.00  0.00    -0.027 C 
ATOM     24  C   UNL     1       3.880  -7.046  -0.224  1.00  0.00    -0.065 C 
ATOM     25  C   UNL     1       2.033  -5.448   0.124  1.00  0.00     0.014 C 
ATOM     26  C   UNL     1       2.864  -6.855   2.073  1.00  0.00     0.016 C 
ATOM     27  C   UNL     1       2.993  -8.184  -0.676  1.00  0.00     0.063 C 
ATOM     28  C   UNL     1       1.048  -6.503  -0.441  1.00  0.00     0.033 C 
ATOM     29  C   UNL     1       1.714  -7.601  -1.314  1.00  0.00     0.118 C 
BRANCH  29  30
ATOM     30  O   UNL     1       1.971  -7.130  -2.614  1.00  0.00    -0.393 OA
ATOM     31  H   UNL     1       1.607  -6.211  -2.688  1.00  0.00     0.210 HD
ENDBRANCH  29  30
ENDBRANCH   9  11
ENDBRANCH   1   9
TORSDOF 7
ENDMDL
MODEL 8
REMARK VINA RESULT:    -4.379      8.243     11.690
REMARK INTER + INTRA:          -7.813
REMARK INTER:                  -4.998
REMARK INTRA:                  -2.815
REMARK UNBOUND:                -1.769
REMARK SMILES CC[C@@H](CC[C@@H](C)[C@H]1CC[C@@H]2[C@@H]3CC=C4C[C@H](O)CC[C@]4(C)[C@@H]3CC[C@@]21C)C(C)C
REMARK SMILES IDX 5 1 4 2 3 3 2 4 1 5 28 6 29 7 30 8 6 9 7 10 8 11 9 12 26 13
REMARK SMILES IDX 10 14 11 15 25 16 27 17 12 18 24 19 23 20 13 21 21 22 14 23
REMARK SMILES IDX 15 24 20 25 22 26 16 27 19 28 17 29 18 30
REMARK H PARENT 18 31
REMARK Flexibility Score: inf
ROOT
ATOM      1  C   UNL     1       8.486  -2.871   2.236  1.00  0.00     0.004 C 
ENDROOT
BRANCH   1   2
ATOM      2  C   UNL     1       7.652  -1.585   2.494  1.00  0.00     0.004 C 
BRANCH   2   3
ATOM      3  C   UNL     1       7.092  -0.919   1.198  1.00  0.00    -0.009 C 
BRANCH   3   4
ATOM      4  C   UNL     1       8.032   0.217   0.703  1.00  0.00     0.000 C 
ATOM      5  C   UNL     1       8.531   0.010  -0.728  1.00  0.00     0.004 C 
ENDBRANCH   3   4
BRANCH   3   6
ATOM      6  C   UNL     1       5.625  -0.380   1.338  1.00  0.00    -0.014 C 
ATOM      7  C   UNL     1       4.860  -0.929   2.558  1.00  0.00     0.007 C 
ATOM      8  C   UNL     1       4.786  -0.574   0.068  1.00  0.00     0.007 C 
ENDBRANCH   3   6
ENDBRANCH   2   3
ENDBRANCH   1   2
BRANCH   1   9
ATOM      9  C   UNL     1       8.430  -3.415   0.779  1.00  0.00    -0.011 C 
ATOM     10  C   UNL     1       9.877  -3.530   0.250  1.00  0.00     0.008 C 
BRANCH   9  11
ATOM     11  C   UNL     1       7.616  -4.761   0.560  1.00  0.00    -0.002 C 
ATOM     12  C   UNL     1       7.066  -5.370   1.866  1.00  0.00     0.005 C 
ATOM     13  C   UNL     1       6.302  -4.628  -0.297  1.00  0.00    -0.026 C 
ATOM     14  C   UNL     1       5.693  -4.746   2.091  1.00  0.00     0.005 C 
ATOM     15  C   UNL     1       5.275  -4.115   0.747  1.00  0.00    -0.001 C 
ATOM     16  C   UNL     1       5.899  -6.038  -0.887  1.00  0.00     0.007 C 
ATOM     17  C   UNL     1       6.397  -3.638  -1.484  1.00  0.00     0.012 C 
ATOM     18  C   UNL     1       3.782  -4.305   0.335  1.00  0.00     0.000 C 
ATOM     19  C   UNL     1       4.638  -6.663  -0.274  1.00  0.00     0.005 C 
ATOM     20  C   UNL     1       3.445  -5.685  -0.326  1.00  0.00     0.003 C 
ATOM     21  C   UNL     1       2.828  -3.907   1.465  1.00  0.00     0.031 C 
ATOM     22  C   UNL     1       2.052  -6.345   0.076  1.00  0.00    -0.008 C 
ATOM     23  C   UNL     1       1.407  -4.135   1.074  1.00  0.00    -0.027 C 
ATOM     24  C   UNL     1       1.024  -5.300   0.520  1.00  0.00    -0.065 C 
ATOM     25  C   UNL     1       2.172  -7.356   1.257  1.00  0.00     0.014 C 
ATOM     26  C   UNL     1       1.517  -7.086  -1.186  1.00  0.00     0.016 C 
ATOM     27  C   UNL     1      -0.366  -5.795   0.845  1.00  0.00     0.063 C 
ATOM     28  C   UNL     1       0.808  -7.913   1.740  1.00  0.00     0.033 C 
ATOM     29  C   UNL     1      -0.276  -6.831   1.987  1.00  0.00     0.118 C 
BRANCH  29  30
ATOM     30  O   UNL     1      -0.086  -6.194   3.228  1.00  0.00    -0.393 OA
ATOM     31  H   UNL     1      -0.973  -5.906   3.566  1.00  0.00     0.210 HD
ENDBRANCH  29  30
ENDBRANCH   9  11
ENDBRANCH   1   9
TORSDOF 7
ENDMDL
MODEL 9
REMARK VINA RESULT:    -4.264      6.152     11.118
REMARK INTER + INTRA:          -7.654
REMARK INTER:                  -5.471
REMARK INTRA:                  -2.184
REMARK UNBOUND:                -1.769
REMARK SMILES CC[C@@H](CC[C@@H](C)[C@H]1CC[C@@H]2[C@@H]3CC=C4C[C@H](O)CC[C@]4(C)[C@@H]3CC[C@@]21C)C(C)C
REMARK SMILES IDX 5 1 4 2 3 3 2 4 1 5 28 6 29 7 30 8 6 9 7 10 8 11 9 12 26 13
REMARK SMILES IDX 10 14 11 15 25 16 27 17 12 18 24 19 23 20 13 21 21 22 14 23
REMARK SMILES IDX 15 24 20 25 22 26 16 27 19 28 17 29 18 30
REMARK H PARENT 18 31
REMARK Flexibility Score: inf
ROOT
ATOM      1  C   UNL     1       3.763  -7.972   1.306  1.00  0.00     0.004 C 
ENDROOT
BRANCH   1   2
ATOM      2  C   UNL     1       2.907  -7.070   2.237  1.00  0.00     0.004 C 
BRANCH   2   3
ATOM      3  C   UNL     1       1.502  -6.712   1.659  1.00  0.00    -0.009 C 
BRANCH   3   4
ATOM      4  C   UNL     1       1.365  -7.190   0.185  1.00  0.00     0.000 C 
ATOM      5  C   UNL     1       0.293  -8.264  -0.006  1.00  0.00     0.004 C 
ENDBRANCH   3   4
BRANCH   3   6
ATOM      6  C   UNL     1       1.134  -5.189   1.767  1.00  0.00    -0.014 C 
ATOM      7  C   UNL     1       0.830  -4.513   0.416  1.00  0.00     0.007 C 
ATOM      8  C   UNL     1       2.179  -4.370   2.535  1.00  0.00     0.007 C 
ENDBRANCH   3   6
ENDBRANCH   2   3
ENDBRANCH   1   2
BRANCH   1   9
ATOM      9  C   UNL     1       5.292  -7.682   1.327  1.00  0.00    -0.011 C 
ATOM     10  C   UNL     1       6.036  -9.023   1.510  1.00  0.00     0.008 C 
BRANCH   9  11
ATOM     11  C   UNL     1       5.869  -6.852   0.102  1.00  0.00    -0.002 C 
ATOM     12  C   UNL     1       4.786  -6.375  -0.887  1.00  0.00     0.005 C 
ATOM     13  C   UNL     1       6.571  -5.492   0.473  1.00  0.00    -0.026 C 
ATOM     14  C   UNL     1       4.305  -5.019  -0.381  1.00  0.00     0.005 C 
ATOM     15  C   UNL     1       5.365  -4.527   0.626  1.00  0.00    -0.001 C 
ATOM     16  C   UNL     1       7.542  -5.051  -0.693  1.00  0.00     0.007 C 
ATOM     17  C   UNL     1       7.399  -5.523   1.781  1.00  0.00     0.012 C 
ATOM     18  C   UNL     1       5.732  -3.013   0.550  1.00  0.00     0.000 C 
ATOM     19  C   UNL     1       7.082  -3.825  -1.494  1.00  0.00     0.005 C 
ATOM     20  C   UNL     1       6.766  -2.634  -0.564  1.00  0.00     0.003 C 
ATOM     21  C   UNL     1       4.484  -2.126   0.569  1.00  0.00     0.031 C 
ATOM     22  C   UNL     1       6.511  -1.264  -1.335  1.00  0.00    -0.008 C 
ATOM     23  C   UNL     1       4.848  -0.685   0.453  1.00  0.00    -0.027 C 
ATOM     24  C   UNL     1       5.711  -0.266  -0.492  1.00  0.00    -0.065 C 
ATOM     25  C   UNL     1       5.706  -1.447  -2.658  1.00  0.00     0.014 C 
ATOM     26  C   UNL     1       7.908  -0.656  -1.661  1.00  0.00     0.016 C 
ATOM     27  C   UNL     1       5.478   1.105  -1.082  1.00  0.00     0.063 C 
ATOM     28  C   UNL     1       5.343  -0.111  -3.356  1.00  0.00     0.033 C 
ATOM     29  C   UNL     1       4.716   0.954  -2.417  1.00  0.00     0.118 C 
BRANCH  29  30
ATOM     30  O   UNL     1       3.353   0.692  -2.189  1.00  0.00    -0.393 OA
ATOM     31  H   UNL     1       3.282   0.069  -1.421  1.00  0.00     0.210 HD
ENDBRANCH  29  30
ENDBRANCH   9  11
ENDBRANCH   1   9
TORSDOF 7
ENDMDL
