MODEL 1
REMARK VINA RESULT:    -3.778      0.000      0.000
REMARK INTER + INTRA:          -6.103
REMARK INTER:                  -5.103
REMARK INTRA:                  -1.000
REMARK UNBOUND:                -1.000
REMARK SMILES C=C[C@](C)(CCC=C(C)C)OC(C)=O
REMARK SMILES IDX 3 1 4 2 5 3 6 4 7 5 9 6 8 7 10 8 2 9 1 10 11 11 12 12 14 13
REMARK SMILES IDX 13 14
REMARK H PARENT
REMARK Flexibility Score: inf
ROOT
ATOM      1  C   UNL     1     -13.732  -9.901  95.440  1.00  0.00     0.127 C 
ATOM      2  C   UNL     1     -12.614  -8.860  95.656  1.00  0.00     0.061 C 
ENDROOT
BRANCH   1   3
ATOM      3  C   UNL     1     -14.908  -9.580  96.398  1.00  0.00     0.057 C 
BRANCH   3   4
ATOM      4  C   UNL     1     -14.445  -9.019  97.754  1.00  0.00     0.032 C 
BRANCH   4   5
ATOM      5  C   UNL     1     -14.536 -10.077  98.826  1.00  0.00    -0.028 C 
ATOM      6  C   UNL     1     -13.713 -11.666 100.510  1.00  0.00     0.039 C 
ATOM      7  C   UNL     1     -13.473 -10.582  99.490  1.00  0.00    -0.080 C 
ATOM      8  C   UNL     1     -12.068 -10.081  99.253  1.00  0.00     0.039 C 
ENDBRANCH   4   5
ENDBRANCH   3   4
ENDBRANCH   1   3
BRANCH   1   9
ATOM      9  C   UNL     1     -13.212 -11.311  95.690  1.00  0.00     0.013 C 
ATOM     10  C   UNL     1     -11.929 -11.578  95.966  1.00  0.00     0.008 C 
ENDBRANCH   1   9
BRANCH   1  11
ATOM     11  O   UNL     1     -14.227  -9.790  94.096  1.00  0.00    -0.455 OA
BRANCH  11  12
ATOM     12  C   UNL     1     -13.971 -10.689  93.050  1.00  0.00     0.303 C 
ATOM     13  O   UNL     1     -12.943 -10.577  92.328  1.00  0.00    -0.253 OA
ATOM     14  C   UNL     1     -14.949 -11.777  92.768  1.00  0.00     0.139 C 
ENDBRANCH  11  12
ENDBRANCH   1  11
TORSDOF 6
ENDMDL
MODEL 2
REMARK VINA RESULT:    -3.777      2.609      5.607
REMARK INTER + INTRA:          -6.102
REMARK INTER:                  -5.204
REMARK INTRA:                  -0.898
REMARK UNBOUND:                -1.000
REMARK SMILES C=C[C@](C)(CCC=C(C)C)OC(C)=O
REMARK SMILES IDX 3 1 4 2 5 3 6 4 7 5 9 6 8 7 10 8 2 9 1 10 11 11 12 12 14 13
REMARK SMILES IDX 13 14
REMARK H PARENT
REMARK Flexibility Score: inf
ROOT
ATOM      1  C   UNL     1     -13.212 -10.065  98.103  1.00  0.00     0.127 C 
ATOM      2  C   UNL     1     -12.270  -9.046  97.427  1.00  0.00     0.061 C 
ENDROOT
BRANCH   1   3
ATOM      3  C   UNL     1     -13.204 -11.378  97.281  1.00  0.00     0.057 C 
BRANCH   3   4
ATOM      4  C   UNL     1     -12.448 -11.250  95.946  1.00  0.00     0.032 C 
BRANCH   4   5
ATOM      5  C   UNL     1     -13.299 -11.745  94.803  1.00  0.00    -0.028 C 
ATOM      6  C   UNL     1     -14.771 -11.578  92.843  1.00  0.00     0.039 C 
ATOM      7  C   UNL     1     -13.919 -10.942  93.911  1.00  0.00    -0.080 C 
ATOM      8  C   UNL     1     -13.768  -9.439  93.945  1.00  0.00     0.039 C 
ENDBRANCH   4   5
ENDBRANCH   3   4
ENDBRANCH   1   3
BRANCH   1   9
ATOM      9  C   UNL     1     -14.627  -9.507  98.202  1.00  0.00     0.013 C 
ATOM     10  C   UNL     1     -15.492  -9.527  97.181  1.00  0.00     0.008 C 
ENDBRANCH   1   9
BRANCH   1  11
ATOM     11  O   UNL     1     -12.711 -10.372  99.414  1.00  0.00    -0.455 OA
BRANCH  11  12
ATOM     12  C   UNL     1     -13.444 -10.959 100.456  1.00  0.00     0.303 C 
ATOM     13  O   UNL     1     -13.796 -12.169 100.406  1.00  0.00    -0.253 OA
ATOM     14  C   UNL     1     -13.841 -10.128 101.627  1.00  0.00     0.139 C 
ENDBRANCH  11  12
ENDBRANCH   1  11
TORSDOF 6
ENDMDL
MODEL 3
REMARK VINA RESULT:    -3.775      6.708      8.711
REMARK INTER + INTRA:          -6.099
REMARK INTER:                  -5.642
REMARK INTRA:                  -0.457
REMARK UNBOUND:                -1.000
REMARK SMILES C=C[C@](C)(CCC=C(C)C)OC(C)=O
REMARK SMILES IDX 3 1 4 2 5 3 6 4 7 5 9 6 8 7 10 8 2 9 1 10 11 11 12 12 14 13
REMARK SMILES IDX 13 14
REMARK H PARENT
REMARK Flexibility Score: inf
ROOT
ATOM      1  C   UNL     1      -8.565  -8.873  90.467  1.00  0.00     0.127 C 
ATOM      2  C   UNL     1      -9.386  -7.732  89.829  1.00  0.00     0.061 C 
ENDROOT
BRANCH   1   3
ATOM      3  C   UNL     1      -7.759  -8.303  91.661  1.00  0.00     0.057 C 
BRANCH   3   4
ATOM      4  C   UNL     1      -7.323  -6.842  91.453  1.00  0.00     0.032 C 
BRANCH   4   5
ATOM      5  C   UNL     1      -6.257  -6.456  92.449  1.00  0.00    -0.028 C 
ATOM      6  C   UNL     1      -4.420  -5.126  93.393  1.00  0.00     0.039 C 
ATOM      7  C   UNL     1      -5.472  -5.362  92.340  1.00  0.00    -0.080 C 
ATOM      8  C   UNL     1      -5.633  -4.369  91.213  1.00  0.00     0.039 C 
ENDBRANCH   4   5
ENDBRANCH   3   4
ENDBRANCH   1   3
BRANCH   1   9
ATOM      9  C   UNL     1      -7.629  -9.502  89.443  1.00  0.00     0.013 C 
ATOM     10  C   UNL     1      -7.852 -10.701  88.889  1.00  0.00     0.008 C 
ENDBRANCH   1   9
BRANCH   1  11
ATOM     11  O   UNL     1      -9.465  -9.865  90.987  1.00  0.00    -0.455 OA
BRANCH  11  12
ATOM     12  C   UNL     1     -10.832  -9.682  91.241  1.00  0.00     0.303 C 
ATOM     13  O   UNL     1     -11.229  -9.038  92.251  1.00  0.00    -0.253 OA
ATOM     14  C   UNL     1     -11.833 -10.287  90.317  1.00  0.00     0.139 C 
ENDBRANCH  11  12
ENDBRANCH   1  11
TORSDOF 6
ENDMDL
MODEL 4
REMARK VINA RESULT:    -3.746      6.728      8.830
REMARK INTER + INTRA:          -6.060
REMARK INTER:                  -5.278
REMARK INTRA:                  -0.783
REMARK UNBOUND:                -1.000
REMARK SMILES C=C[C@](C)(CCC=C(C)C)OC(C)=O
REMARK SMILES IDX 3 1 4 2 5 3 6 4 7 5 9 6 8 7 10 8 2 9 1 10 11 11 12 12 14 13
REMARK SMILES IDX 13 14
REMARK H PARENT
REMARK Flexibility Score: inf
ROOT
ATOM      1  C   UNL     1      -9.352  -8.486  90.681  1.00  0.00     0.127 C 
ATOM      2  C   UNL     1     -10.130  -8.029  91.934  1.00  0.00     0.061 C 
ENDROOT
BRANCH   1   3
ATOM      3  C   UNL     1      -7.850  -8.155  90.875  1.00  0.00     0.057 C 
BRANCH   3   4
ATOM      4  C   UNL     1      -7.566  -7.381  92.174  1.00  0.00     0.032 C 
BRANCH   4   5
ATOM      5  C   UNL     1      -6.487  -6.349  91.954  1.00  0.00    -0.028 C 
ATOM      6  C   UNL     1      -5.544  -4.135  91.457  1.00  0.00     0.039 C 
ATOM      7  C   UNL     1      -6.723  -5.043  91.696  1.00  0.00    -0.080 C 
ATOM      8  C   UNL     1      -8.122  -4.473  91.661  1.00  0.00     0.039 C 
ENDBRANCH   4   5
ENDBRANCH   3   4
ENDBRANCH   1   3
BRANCH   1   9
ATOM      9  C   UNL     1      -9.891  -7.801  89.432  1.00  0.00     0.013 C 
ATOM     10  C   UNL     1      -9.806  -6.480  89.229  1.00  0.00     0.008 C 
ENDBRANCH   1   9
BRANCH   1  11
ATOM     11  O   UNL     1      -9.467  -9.912  90.549  1.00  0.00    -0.455 OA
BRANCH  11  12
ATOM     12  C   UNL     1      -9.424 -10.631  89.345  1.00  0.00     0.303 C 
ATOM     13  O   UNL     1     -10.482 -10.997  88.764  1.00  0.00    -0.253 OA
ATOM     14  C   UNL     1      -8.103 -10.997  88.761  1.00  0.00     0.139 C 
ENDBRANCH  11  12
ENDBRANCH   1  11
TORSDOF 6
ENDMDL
MODEL 5
REMARK VINA RESULT:    -3.702      2.016      3.145
REMARK INTER + INTRA:          -6.000
REMARK INTER:                  -5.249
REMARK INTRA:                  -0.751
REMARK UNBOUND:                -1.000
REMARK SMILES C=C[C@](C)(CCC=C(C)C)OC(C)=O
REMARK SMILES IDX 3 1 4 2 5 3 6 4 7 5 9 6 8 7 10 8 2 9 1 10 11 11 12 12 14 13
REMARK SMILES IDX 13 14
REMARK H PARENT
REMARK Flexibility Score: inf
ROOT
ATOM      1  C   UNL     1     -12.050 -11.096  94.678  1.00  0.00     0.127 C 
ATOM      2  C   UNL     1     -11.136 -12.317  94.439  1.00  0.00     0.061 C 
ENDROOT
BRANCH   1   3
ATOM      3  C   UNL     1     -12.054 -10.761  96.191  1.00  0.00     0.057 C 
BRANCH   3   4
ATOM      4  C   UNL     1     -13.177 -11.474  96.964  1.00  0.00     0.032 C 
BRANCH   4   5
ATOM      5  C   UNL     1     -13.607 -10.653  98.155  1.00  0.00    -0.028 C 
ATOM      6  C   UNL     1     -14.902  -8.972  99.394  1.00  0.00     0.039 C 
ATOM      7  C   UNL     1     -14.611  -9.749  98.135  1.00  0.00    -0.080 C 
ATOM      8  C   UNL     1     -15.451  -9.511  96.903  1.00  0.00     0.039 C 
ENDBRANCH   4   5
ENDBRANCH   3   4
ENDBRANCH   1   3
BRANCH   1   9
ATOM      9  C   UNL     1     -13.466 -11.378  94.191  1.00  0.00     0.013 C 
ATOM     10  C   UNL     1     -14.191 -10.489  93.501  1.00  0.00     0.008 C 
ENDBRANCH   1   9
BRANCH   1  11
ATOM     11  O   UNL     1     -11.508  -9.960  93.985  1.00  0.00    -0.455 OA
BRANCH  11  12
ATOM     12  C   UNL     1     -10.577 -10.005  92.936  1.00  0.00     0.303 C 
ATOM     13  O   UNL     1      -9.340  -9.900  93.156  1.00  0.00    -0.253 OA
ATOM     14  C   UNL     1     -11.064 -10.147  91.535  1.00  0.00     0.139 C 
ENDBRANCH  11  12
ENDBRANCH   1  11
TORSDOF 6
ENDMDL
MODEL 6
REMARK VINA RESULT:    -3.621      1.384      2.196
REMARK INTER + INTRA:          -5.892
REMARK INTER:                  -5.106
REMARK INTRA:                  -0.786
REMARK UNBOUND:                -1.000
REMARK SMILES C=C[C@](C)(CCC=C(C)C)OC(C)=O
REMARK SMILES IDX 3 1 4 2 5 3 6 4 7 5 9 6 8 7 10 8 2 9 1 10 11 11 12 12 14 13
REMARK SMILES IDX 13 14
REMARK H PARENT
REMARK Flexibility Score: inf
ROOT
ATOM      1  C   UNL     1     -11.966 -10.176  95.174  1.00  0.00     0.127 C 
ATOM      2  C   UNL     1     -11.280  -8.796  95.252  1.00  0.00     0.061 C 
ENDROOT
BRANCH   1   3
ATOM      3  C   UNL     1     -11.885 -10.856  96.564  1.00  0.00     0.057 C 
BRANCH   3   4
ATOM      4  C   UNL     1     -13.254 -11.327  97.087  1.00  0.00     0.032 C 
BRANCH   4   5
ATOM      5  C   UNL     1     -13.592 -10.641  98.388  1.00  0.00    -0.028 C 
ATOM      6  C   UNL     1     -14.793  -9.116  99.893  1.00  0.00     0.039 C 
ATOM      7  C   UNL     1     -14.599  -9.752  98.541  1.00  0.00    -0.080 C 
ATOM      8  C   UNL     1     -15.536  -9.399  97.410  1.00  0.00     0.039 C 
ENDBRANCH   4   5
ENDBRANCH   3   4
ENDBRANCH   1   3
BRANCH   1   9
ATOM      9  C   UNL     1     -11.303 -11.049  94.115  1.00  0.00     0.013 C 
ATOM     10  C   UNL     1     -10.962 -12.325  94.330  1.00  0.00     0.008 C 
ENDBRANCH   1   9
BRANCH   1  11
ATOM     11  O   UNL     1     -13.357  -9.994  94.861  1.00  0.00    -0.455 OA
BRANCH  11  12
ATOM     12  C   UNL     1     -13.927 -10.066  93.581  1.00  0.00     0.303 C 
ATOM     13  O   UNL     1     -13.849  -9.099  92.776  1.00  0.00    -0.253 OA
ATOM     14  C   UNL     1     -14.666 -11.296  93.180  1.00  0.00     0.139 C 
ENDBRANCH  11  12
ENDBRANCH   1  11
TORSDOF 6
ENDMDL
MODEL 7
REMARK VINA RESULT:    -3.579      2.511      5.524
REMARK INTER + INTRA:          -5.834
REMARK INTER:                  -4.814
REMARK INTRA:                  -1.020
REMARK UNBOUND:                -1.000
REMARK SMILES C=C[C@](C)(CCC=C(C)C)OC(C)=O
REMARK SMILES IDX 3 1 4 2 5 3 6 4 7 5 9 6 8 7 10 8 2 9 1 10 11 11 12 12 14 13
REMARK SMILES IDX 13 14
REMARK H PARENT
REMARK Flexibility Score: inf
ROOT
ATOM      1  C   UNL     1     -13.002 -10.381  97.224  1.00  0.00     0.127 C 
ATOM      2  C   UNL     1     -11.601 -10.180  97.840  1.00  0.00     0.061 C 
ENDROOT
BRANCH   1   3
ATOM      3  C   UNL     1     -12.929 -11.516  96.171  1.00  0.00     0.057 C 
BRANCH   3   4
ATOM      4  C   UNL     1     -11.521 -11.701  95.580  1.00  0.00     0.032 C 
BRANCH   4   5
ATOM      5  C   UNL     1     -11.535 -11.478  94.088  1.00  0.00    -0.028 C 
ATOM      6  C   UNL     1     -11.247 -10.243  91.984  1.00  0.00     0.039 C 
ATOM      7  C   UNL     1     -11.138 -10.336  93.484  1.00  0.00    -0.080 C 
ATOM      8  C   UNL     1     -10.576  -9.171  94.264  1.00  0.00     0.039 C 
ENDBRANCH   4   5
ENDBRANCH   3   4
ENDBRANCH   1   3
BRANCH   1   9
ATOM      9  C   UNL     1     -13.499  -9.091  96.583  1.00  0.00     0.013 C 
ATOM     10  C   UNL     1     -14.189  -9.064  95.436  1.00  0.00     0.008 C 
ENDBRANCH   1   9
BRANCH   1  11
ATOM     11  O   UNL     1     -13.913 -10.802  98.252  1.00  0.00    -0.455 OA
BRANCH  11  12
ATOM     12  C   UNL     1     -13.915 -10.353  99.581  1.00  0.00     0.303 C 
ATOM     13  O   UNL     1     -14.197  -9.157  99.866  1.00  0.00    -0.253 OA
ATOM     14  C   UNL     1     -13.546 -11.299 100.671  1.00  0.00     0.139 C 
ENDBRANCH  11  12
ENDBRANCH   1  11
TORSDOF 6
ENDMDL
MODEL 8
REMARK VINA RESULT:    -3.577      6.831      8.781
REMARK INTER + INTRA:          -5.831
REMARK INTER:                  -5.251
REMARK INTRA:                  -0.580
REMARK UNBOUND:                -1.000
REMARK SMILES C=C[C@](C)(CCC=C(C)C)OC(C)=O
REMARK SMILES IDX 3 1 4 2 5 3 6 4 7 5 9 6 8 7 10 8 2 9 1 10 11 11 12 12 14 13
REMARK SMILES IDX 13 14
REMARK H PARENT
REMARK Flexibility Score: inf
ROOT
ATOM      1  C   UNL     1      -8.523  -8.679  90.588  1.00  0.00     0.127 C 
ATOM      2  C   UNL     1      -7.742  -9.443  89.498  1.00  0.00     0.061 C 
ENDROOT
BRANCH   1   3
ATOM      3  C   UNL     1      -7.530  -8.211  91.682  1.00  0.00     0.057 C 
BRANCH   3   4
ATOM      4  C   UNL     1      -7.355  -6.683  91.726  1.00  0.00     0.032 C 
BRANCH   4   5
ATOM      5  C   UNL     1      -6.227  -6.302  92.652  1.00  0.00    -0.028 C 
ATOM      6  C   UNL     1      -4.294  -5.012  93.449  1.00  0.00     0.039 C 
ATOM      7  C   UNL     1      -5.405  -5.247  92.459  1.00  0.00    -0.080 C 
ATOM      8  C   UNL     1      -5.582  -4.296  91.298  1.00  0.00     0.039 C 
ENDBRANCH   4   5
ENDBRANCH   3   4
ENDBRANCH   1   3
BRANCH   1   9
ATOM      9  C   UNL     1      -9.607  -9.562  91.194  1.00  0.00     0.013 C 
ATOM     10  C   UNL     1      -9.702  -9.802  92.508  1.00  0.00     0.008 C 
ENDBRANCH   1   9
BRANCH   1  11
ATOM     11  O   UNL     1      -9.113  -7.504  90.008  1.00  0.00    -0.455 OA
BRANCH  11  12
ATOM     12  C   UNL     1     -10.486  -7.272  89.840  1.00  0.00     0.303 C 
ATOM     13  O   UNL     1     -11.117  -7.760  88.863  1.00  0.00    -0.253 OA
ATOM     14  C   UNL     1     -11.204  -6.406  90.817  1.00  0.00     0.139 C 
ENDBRANCH  11  12
ENDBRANCH   1  11
TORSDOF 6
ENDMDL
MODEL 9
REMARK VINA RESULT:    -3.540      2.947      4.472
REMARK INTER + INTRA:          -5.781
REMARK INTER:                  -4.624
REMARK INTRA:                  -1.157
REMARK UNBOUND:                -1.000
REMARK SMILES C=C[C@](C)(CCC=C(C)C)OC(C)=O
REMARK SMILES IDX 3 1 4 2 5 3 6 4 7 5 9 6 8 7 10 8 2 9 1 10 11 11 12 12 14 13
REMARK SMILES IDX 13 14
REMARK H PARENT
REMARK Flexibility Score: inf
ROOT
ATOM      1  C   UNL     1     -11.000 -10.086  93.132  1.00  0.00     0.127 C 
ATOM      2  C   UNL     1     -12.264 -10.304  92.272  1.00  0.00     0.061 C 
ENDROOT
BRANCH   1   3
ATOM      3  C   UNL     1     -10.856 -11.272  94.119  1.00  0.00     0.057 C 
BRANCH   3   4
ATOM      4  C   UNL     1     -12.206 -11.896  94.514  1.00  0.00     0.032 C 
BRANCH   4   5
ATOM      5  C   UNL     1     -12.525 -11.606  95.959  1.00  0.00    -0.028 C 
ATOM      6  C   UNL     1     -13.638 -10.501  97.851  1.00  0.00     0.039 C 
ATOM      7  C   UNL     1     -13.456 -10.716  96.370  1.00  0.00    -0.080 C 
ATOM      8  C   UNL     1     -14.322  -9.954  95.395  1.00  0.00     0.039 C 
ENDBRANCH   4   5
ENDBRANCH   3   4
ENDBRANCH   1   3
BRANCH   1   9
ATOM      9  C   UNL     1     -11.085  -8.768  93.891  1.00  0.00     0.013 C 
ATOM     10  C   UNL     1     -10.553  -8.589  95.106  1.00  0.00     0.008 C 
ENDBRANCH   1   9
BRANCH   1  11
ATOM     11  O   UNL     1      -9.844 -10.090  92.279  1.00  0.00    -0.455 OA
BRANCH  11  12
ATOM     12  C   UNL     1      -9.286  -8.969  91.648  1.00  0.00     0.303 C 
ATOM     13  O   UNL     1      -9.880  -8.391  90.697  1.00  0.00    -0.253 OA
ATOM     14  C   UNL     1      -7.951  -8.473  92.088  1.00  0.00     0.139 C 
ENDBRANCH  11  12
ENDBRANCH   1  11
TORSDOF 6
ENDMDL
