MODEL 1
REMARK VINA RESULT:    21.262      0.000      0.000
REMARK INTER + INTRA:          39.236
REMARK INTER:                  39.907
REMARK INTRA:                  -0.671
REMARK UNBOUND:                -0.671
REMARK SMILES CCCCCCCCC=CCCCCCCCC(=O)[O-]
REMARK SMILES IDX 10 1 9 2 11 3 12 4 13 5 14 6 15 7 16 8 17 9 18 10 19 11
REMARK SMILES IDX 20 12 8 13 7 14 6 15 5 16 4 17 3 18 2 19 1 20
REMARK H PARENT
REMARK Flexibility Score: inf
ROOT
ATOM      1  C   UNL     1     -37.751  25.315 -21.239  1.00  0.00    -0.031 C 
ATOM      2  C   UNL     1     -38.259  24.218 -20.658  1.00  0.00    -0.031 C 
ENDROOT
BRANCH   1   3
ATOM      3  C   UNL     1     -38.621  26.290 -21.986  1.00  0.00     0.027 C 
BRANCH   3   4
ATOM      4  C   UNL     1     -37.855  27.570 -22.340  1.00  0.00     0.004 C 
BRANCH   4   5
ATOM      5  C   UNL     1     -37.760  28.538 -21.150  1.00  0.00     0.000 C 
BRANCH   5   6
ATOM      6  C   UNL     1     -38.734  29.710 -21.316  1.00  0.00     0.000 C 
BRANCH   6   7
ATOM      7  C   UNL     1     -40.158  29.206 -21.592  1.00  0.00     0.000 C 
BRANCH   7   8
ATOM      8  C   UNL     1     -41.236  30.225 -21.189  1.00  0.00     0.006 C 
BRANCH   8   9
ATOM      9  C   UNL     1     -42.163  30.597 -22.354  1.00  0.00     0.053 C 
BRANCH   9  10
ATOM     10  C   UNL     1     -43.309  31.425 -21.863  1.00  0.00     0.041 C 
ATOM     11  O   UNL     1     -43.574  31.476 -20.633  1.00  0.00    -0.550 OA
ATOM     12  O   UNL     1     -44.113  32.106 -22.769  1.00  0.00    -0.550 OA
ENDBRANCH   9  10
ENDBRANCH   8   9
ENDBRANCH   7   8
ENDBRANCH   6   7
ENDBRANCH   5   6
ENDBRANCH   4   5
ENDBRANCH   3   4
ENDBRANCH   1   3
BRANCH   2  13
ATOM     13  C   UNL     1     -37.396  23.271 -19.867  1.00  0.00     0.027 C 
BRANCH  13  14
ATOM     14  C   UNL     1     -38.117  22.711 -18.633  1.00  0.00     0.004 C 
BRANCH  14  15
ATOM     15  C   UNL     1     -38.875  21.409 -18.946  1.00  0.00     0.000 C 
BRANCH  15  16
ATOM     16  C   UNL     1     -40.358  21.479 -18.550  1.00  0.00     0.000 C 
BRANCH  16  17
ATOM     17  C   UNL     1     -40.805  22.901 -18.179  1.00  0.00    -0.000 C 
BRANCH  17  18
ATOM     18  C   UNL     1     -42.141  22.878 -17.426  1.00  0.00    -0.000 C 
BRANCH  18  19
ATOM     19  C   UNL     1     -42.108  23.819 -16.216  1.00  0.00    -0.003 C 
ATOM     20  C   UNL     1     -42.863  23.221 -15.032  1.00  0.00     0.004 C 
ENDBRANCH  18  19
ENDBRANCH  17  18
ENDBRANCH  16  17
ENDBRANCH  15  16
ENDBRANCH  14  15
ENDBRANCH  13  14
ENDBRANCH   2  13
TORSDOF 15
ENDMDL
MODEL 2
REMARK VINA RESULT:    21.575      0.739      1.339
REMARK INTER + INTRA:          39.823
REMARK INTER:                  40.809
REMARK INTRA:                  -0.986
REMARK UNBOUND:                -0.671
REMARK SMILES CCCCCCCCC=CCCCCCCCC(=O)[O-]
REMARK SMILES IDX 10 1 9 2 11 3 12 4 13 5 14 6 15 7 16 8 17 9 18 10 19 11
REMARK SMILES IDX 20 12 8 13 7 14 6 15 5 16 4 17 3 18 2 19 1 20
REMARK H PARENT
REMARK Flexibility Score: inf
ROOT
ATOM      1  C   UNL     1     -38.096  26.343 -21.572  1.00  0.00    -0.031 C 
ATOM      2  C   UNL     1     -37.539  25.360 -20.848  1.00  0.00    -0.031 C 
ENDROOT
BRANCH   1   3
ATOM      3  C   UNL     1     -37.345  27.607 -21.898  1.00  0.00     0.027 C 
BRANCH   3   4
ATOM      4  C   UNL     1     -38.297  28.730 -22.328  1.00  0.00     0.004 C 
BRANCH   4   5
ATOM      5  C   UNL     1     -38.569  29.728 -21.192  1.00  0.00     0.000 C 
BRANCH   5   6
ATOM      6  C   UNL     1     -39.987  29.554 -20.636  1.00  0.00     0.000 C 
BRANCH   6   7
ATOM      7  C   UNL     1     -41.001  29.347 -21.771  1.00  0.00     0.000 C 
BRANCH   7   8
ATOM      8  C   UNL     1     -41.526  30.672 -22.346  1.00  0.00     0.006 C 
BRANCH   8   9
ATOM      9  C   UNL     1     -43.025  30.623 -22.669  1.00  0.00     0.053 C 
BRANCH   9  10
ATOM     10  C   UNL     1     -43.757  31.681 -21.906  1.00  0.00     0.041 C 
ATOM     11  O   UNL     1     -44.500  32.500 -22.509  1.00  0.00    -0.550 OA
ATOM     12  O   UNL     1     -43.583  31.793 -20.531  1.00  0.00    -0.550 OA
ENDBRANCH   9  10
ENDBRANCH   8   9
ENDBRANCH   7   8
ENDBRANCH   6   7
ENDBRANCH   5   6
ENDBRANCH   4   5
ENDBRANCH   3   4
ENDBRANCH   1   3
BRANCH   2  13
ATOM     13  C   UNL     1     -38.273  24.076 -20.566  1.00  0.00     0.027 C 
BRANCH  13  14
ATOM     14  C   UNL     1     -37.522  23.177 -19.572  1.00  0.00     0.004 C 
BRANCH  14  15
ATOM     15  C   UNL     1     -38.447  22.130 -18.927  1.00  0.00     0.000 C 
BRANCH  15  16
ATOM     16  C   UNL     1     -39.578  22.768 -18.104  1.00  0.00     0.000 C 
BRANCH  16  17
ATOM     17  C   UNL     1     -40.944  22.118 -18.372  1.00  0.00    -0.000 C 
BRANCH  17  18
ATOM     18  C   UNL     1     -42.042  22.782 -17.533  1.00  0.00    -0.000 C 
BRANCH  18  19
ATOM     19  C   UNL     1     -41.493  23.989 -16.764  1.00  0.00    -0.003 C 
ATOM     20  C   UNL     1     -42.134  24.101 -15.383  1.00  0.00     0.004 C 
ENDBRANCH  18  19
ENDBRANCH  17  18
ENDBRANCH  16  17
ENDBRANCH  15  16
ENDBRANCH  14  15
ENDBRANCH  13  14
ENDBRANCH   2  13
TORSDOF 15
ENDMDL
MODEL 3
REMARK VINA RESULT:    21.658      3.095      7.903
REMARK INTER + INTRA:          39.979
REMARK INTER:                  39.951
REMARK INTRA:                   0.027
REMARK UNBOUND:                -0.671
REMARK SMILES CCCCCCCCC=CCCCCCCCC(=O)[O-]
REMARK SMILES IDX 10 1 9 2 11 3 12 4 13 5 14 6 15 7 16 8 17 9 18 10 19 11
REMARK SMILES IDX 20 12 8 13 7 14 6 15 5 16 4 17 3 18 2 19 1 20
REMARK H PARENT
REMARK Flexibility Score: inf
ROOT
ATOM      1  C   UNL     1     -37.956  25.600 -21.145  1.00  0.00    -0.031 C 
ATOM      2  C   UNL     1     -37.210  26.686 -21.396  1.00  0.00    -0.031 C 
ENDROOT
BRANCH   1   3
ATOM      3  C   UNL     1     -37.367  24.363 -20.520  1.00  0.00     0.027 C 
BRANCH   3   4
ATOM      4  C   UNL     1     -38.448  23.500 -19.856  1.00  0.00     0.004 C 
BRANCH   4   5
ATOM      5  C   UNL     1     -37.848  22.369 -19.008  1.00  0.00     0.000 C 
BRANCH   5   6
ATOM      6  C   UNL     1     -38.630  21.064 -19.199  1.00  0.00     0.000 C 
BRANCH   6   7
ATOM      7  C   UNL     1     -40.060  21.196 -18.653  1.00  0.00     0.000 C 
BRANCH   7   8
ATOM      8  C   UNL     1     -40.350  22.595 -18.085  1.00  0.00     0.006 C 
BRANCH   8   9
ATOM      9  C   UNL     1     -41.850  22.856 -17.893  1.00  0.00     0.053 C 
BRANCH   9  10
ATOM     10  C   UNL     1     -42.110  23.430 -16.536  1.00  0.00     0.041 C 
ATOM     11  O   UNL     1     -42.982  22.916 -15.786  1.00  0.00    -0.550 OA
ATOM     12  O   UNL     1     -41.420  24.561 -16.116  1.00  0.00    -0.550 OA
ENDBRANCH   9  10
ENDBRANCH   8   9
ENDBRANCH   7   8
ENDBRANCH   6   7
ENDBRANCH   5   6
ENDBRANCH   4   5
ENDBRANCH   3   4
ENDBRANCH   1   3
BRANCH   2  13
ATOM     13  C   UNL     1     -37.811  27.940 -21.974  1.00  0.00     0.027 C 
BRANCH  13  14
ATOM     14  C   UNL     1     -37.739  29.127 -21.002  1.00  0.00     0.004 C 
BRANCH  14  15
ATOM     15  C   UNL     1     -39.102  29.821 -20.836  1.00  0.00     0.000 C 
BRANCH  15  16
ATOM     16  C   UNL     1     -40.124  29.379 -21.896  1.00  0.00     0.000 C 
BRANCH  16  17
ATOM     17  C   UNL     1     -41.556  29.822 -21.560  1.00  0.00    -0.000 C 
BRANCH  17  18
ATOM     18  C   UNL     1     -42.220  30.496 -22.767  1.00  0.00    -0.000 C 
BRANCH  18  19
ATOM     19  C   UNL     1     -43.180  31.605 -22.319  1.00  0.00    -0.003 C 
ATOM     20  C   UNL     1     -43.696  31.350 -20.906  1.00  0.00     0.004 C 
ENDBRANCH  18  19
ENDBRANCH  17  18
ENDBRANCH  16  17
ENDBRANCH  15  16
ENDBRANCH  14  15
ENDBRANCH  13  14
ENDBRANCH   2  13
TORSDOF 15
ENDMDL
MODEL 4
REMARK VINA RESULT:    22.121      3.355      4.033
REMARK INTER + INTRA:          40.848
REMARK INTER:                  41.270
REMARK INTRA:                  -0.421
REMARK UNBOUND:                -0.671
REMARK SMILES CCCCCCCCC=CCCCCCCCC(=O)[O-]
REMARK SMILES IDX 10 1 9 2 11 3 12 4 13 5 14 6 15 7 16 8 17 9 18 10 19 11
REMARK SMILES IDX 20 12 8 13 7 14 6 15 5 16 4 17 3 18 2 19 1 20
REMARK H PARENT
REMARK Flexibility Score: inf
ROOT
ATOM      1  C   UNL     1     -37.801  24.320 -20.065  1.00  0.00    -0.031 C 
ATOM      2  C   UNL     1     -37.970  22.991 -19.992  1.00  0.00    -0.031 C 
ENDROOT
BRANCH   1   3
ATOM      3  C   UNL     1     -37.720  25.035 -21.386  1.00  0.00     0.027 C 
BRANCH   3   4
ATOM      4  C   UNL     1     -37.281  26.494 -21.209  1.00  0.00     0.004 C 
BRANCH   4   5
ATOM      5  C   UNL     1     -37.788  27.395 -22.346  1.00  0.00     0.000 C 
BRANCH   5   6
ATOM      6  C   UNL     1     -36.938  28.666 -22.461  1.00  0.00     0.000 C 
BRANCH   6   7
ATOM      7  C   UNL     1     -36.711  29.044 -23.932  1.00  0.00     0.000 C 
BRANCH   7   8
ATOM      8  C   UNL     1     -36.925  30.543 -24.198  1.00  0.00     0.006 C 
BRANCH   8   9
ATOM      9  C   UNL     1     -36.451  30.969 -25.594  1.00  0.00     0.053 C 
BRANCH   9  10
ATOM     10  C   UNL     1     -36.666  32.436 -25.791  1.00  0.00     0.041 C 
ATOM     11  O   UNL     1     -35.705  33.179 -26.125  1.00  0.00    -0.550 OA
ATOM     12  O   UNL     1     -37.919  32.993 -25.563  1.00  0.00    -0.550 OA
ENDBRANCH   9  10
ENDBRANCH   8   9
ENDBRANCH   7   8
ENDBRANCH   6   7
ENDBRANCH   5   6
ENDBRANCH   4   5
ENDBRANCH   3   4
ENDBRANCH   1   3
BRANCH   2  13
ATOM     13  C   UNL     1     -38.102  22.284 -18.669  1.00  0.00     0.027 C 
BRANCH  13  14
ATOM     14  C   UNL     1     -38.885  20.968 -18.783  1.00  0.00     0.004 C 
BRANCH  14  15
ATOM     15  C   UNL     1     -40.402  21.184 -18.645  1.00  0.00     0.000 C 
BRANCH  15  16
ATOM     16  C   UNL     1     -40.773  22.663 -18.451  1.00  0.00     0.000 C 
BRANCH  16  17
ATOM     17  C   UNL     1     -41.863  22.866 -17.387  1.00  0.00    -0.000 C 
BRANCH  17  18
ATOM     18  C   UNL     1     -41.722  24.235 -16.710  1.00  0.00    -0.000 C 
BRANCH  18  19
ATOM     19  C   UNL     1     -41.886  24.118 -15.190  1.00  0.00    -0.003 C 
ATOM     20  C   UNL     1     -43.017  23.159 -14.831  1.00  0.00     0.004 C 
ENDBRANCH  18  19
ENDBRANCH  17  18
ENDBRANCH  16  17
ENDBRANCH  15  16
ENDBRANCH  14  15
ENDBRANCH  13  14
ENDBRANCH   2  13
TORSDOF 15
ENDMDL
MODEL 5
REMARK VINA RESULT:    22.884      5.632      8.065
REMARK INTER + INTRA:          42.281
REMARK INTER:                  42.981
REMARK INTRA:                  -0.700
REMARK UNBOUND:                -0.671
REMARK SMILES CCCCCCCCC=CCCCCCCCC(=O)[O-]
REMARK SMILES IDX 10 1 9 2 11 3 12 4 13 5 14 6 15 7 16 8 17 9 18 10 19 11
REMARK SMILES IDX 20 12 8 13 7 14 6 15 5 16 4 17 3 18 2 19 1 20
REMARK H PARENT
REMARK Flexibility Score: inf
ROOT
ATOM      1  C   UNL     1     -34.889  31.098 -18.211  1.00  0.00    -0.031 C 
ATOM      2  C   UNL     1     -33.691  31.424 -18.719  1.00  0.00    -0.031 C 
ENDROOT
BRANCH   1   3
ATOM      3  C   UNL     1     -36.171  31.477 -18.903  1.00  0.00     0.027 C 
BRANCH   3   4
ATOM      4  C   UNL     1     -36.842  30.259 -19.550  1.00  0.00     0.004 C 
BRANCH   4   5
ATOM      5  C   UNL     1     -37.810  30.659 -20.675  1.00  0.00     0.000 C 
BRANCH   5   6
ATOM      6  C   UNL     1     -38.816  29.537 -20.958  1.00  0.00     0.000 C 
BRANCH   6   7
ATOM      7  C   UNL     1     -40.253  30.008 -20.691  1.00  0.00     0.000 C 
BRANCH   7   8
ATOM      8  C   UNL     1     -41.214  29.657 -21.839  1.00  0.00     0.006 C 
BRANCH   8   9
ATOM      9  C   UNL     1     -41.762  30.900 -22.552  1.00  0.00     0.053 C 
BRANCH   9  10
ATOM     10  C   UNL     1     -43.223  31.059 -22.271  1.00  0.00     0.041 C 
ATOM     11  O   UNL     1     -44.076  30.487 -23.001  1.00  0.00    -0.550 OA
ATOM     12  O   UNL     1     -43.647  31.877 -21.231  1.00  0.00    -0.550 OA
ENDBRANCH   9  10
ENDBRANCH   8   9
ENDBRANCH   7   8
ENDBRANCH   6   7
ENDBRANCH   5   6
ENDBRANCH   4   5
ENDBRANCH   3   4
ENDBRANCH   1   3
BRANCH   2  13
ATOM     13  C   UNL     1     -32.409  30.999 -18.053  1.00  0.00     0.027 C 
BRANCH  13  14
ATOM     14  C   UNL     1     -31.684  29.890 -18.829  1.00  0.00     0.004 C 
BRANCH  14  15
ATOM     15  C   UNL     1     -30.791  29.034 -17.914  1.00  0.00     0.000 C 
BRANCH  15  16
ATOM     16  C   UNL     1     -31.024  29.321 -16.423  1.00  0.00     0.000 C 
BRANCH  16  17
ATOM     17  C   UNL     1     -31.240  28.041 -15.600  1.00  0.00    -0.000 C 
BRANCH  17  18
ATOM     18  C   UNL     1     -30.393  26.887 -16.149  1.00  0.00    -0.000 C 
BRANCH  18  19
ATOM     19  C   UNL     1     -29.756  26.081 -15.011  1.00  0.00    -0.003 C 
ATOM     20  C   UNL     1     -28.841  24.988 -15.554  1.00  0.00     0.004 C 
ENDBRANCH  18  19
ENDBRANCH  17  18
ENDBRANCH  16  17
ENDBRANCH  15  16
ENDBRANCH  14  15
ENDBRANCH  13  14
ENDBRANCH   2  13
TORSDOF 15
ENDMDL
MODEL 6
REMARK VINA RESULT:    23.369      3.955      8.265
REMARK INTER + INTRA:          43.191
REMARK INTER:                  43.895
REMARK INTRA:                  -0.704
REMARK UNBOUND:                -0.671
REMARK SMILES CCCCCCCCC=CCCCCCCCC(=O)[O-]
REMARK SMILES IDX 10 1 9 2 11 3 12 4 13 5 14 6 15 7 16 8 17 9 18 10 19 11
REMARK SMILES IDX 20 12 8 13 7 14 6 15 5 16 4 17 3 18 2 19 1 20
REMARK H PARENT
REMARK Flexibility Score: inf
ROOT
ATOM      1  C   UNL     1     -38.431  22.783 -18.864  1.00  0.00    -0.031 C 
ATOM      2  C   UNL     1     -38.127  23.259 -20.081  1.00  0.00    -0.031 C 
ENDROOT
BRANCH   1   3
ATOM      3  C   UNL     1     -39.183  21.492 -18.685  1.00  0.00     0.027 C 
BRANCH   3   4
ATOM      4  C   UNL     1     -40.679  21.740 -18.453  1.00  0.00     0.004 C 
BRANCH   4   5
ATOM      5  C   UNL     1     -40.951  23.126 -17.850  1.00  0.00     0.000 C 
BRANCH   5   6
ATOM      6  C   UNL     1     -42.099  23.068 -16.835  1.00  0.00     0.000 C 
BRANCH   6   7
ATOM      7  C   UNL     1     -41.957  24.176 -15.781  1.00  0.00     0.000 C 
BRANCH   7   8
ATOM      8  C   UNL     1     -42.899  23.979 -14.583  1.00  0.00     0.006 C 
BRANCH   8   9
ATOM      9  C   UNL     1     -42.237  23.213 -13.430  1.00  0.00     0.053 C 
BRANCH   9  10
ATOM     10  C   UNL     1     -41.719  24.167 -12.400  1.00  0.00     0.041 C 
ATOM     11  O   UNL     1     -40.527  24.572 -12.453  1.00  0.00    -0.550 OA
ATOM     12  O   UNL     1     -42.539  24.574 -11.355  1.00  0.00    -0.550 OA
ENDBRANCH   9  10
ENDBRANCH   8   9
ENDBRANCH   7   8
ENDBRANCH   6   7
ENDBRANCH   5   6
ENDBRANCH   4   5
ENDBRANCH   3   4
ENDBRANCH   1   3
BRANCH   2  13
ATOM     13  C   UNL     1     -37.330  24.524 -20.258  1.00  0.00     0.027 C 
BRANCH  13  14
ATOM     14  C   UNL     1     -37.914  25.439 -21.344  1.00  0.00     0.004 C 
BRANCH  14  15
ATOM     15  C   UNL     1     -37.307  26.852 -21.299  1.00  0.00     0.000 C 
BRANCH  15  16
ATOM     16  C   UNL     1     -37.975  27.814 -22.293  1.00  0.00     0.000 C 
BRANCH  16  17
ATOM     17  C   UNL     1     -38.200  29.214 -21.702  1.00  0.00    -0.000 C 
BRANCH  17  18
ATOM     18  C   UNL     1     -39.580  29.316 -21.040  1.00  0.00    -0.000 C 
BRANCH  18  19
ATOM     19  C   UNL     1     -40.685  29.468 -22.092  1.00  0.00    -0.003 C 
ATOM     20  C   UNL     1     -41.873  30.246 -21.534  1.00  0.00     0.004 C 
ENDBRANCH  18  19
ENDBRANCH  17  18
ENDBRANCH  16  17
ENDBRANCH  15  16
ENDBRANCH  14  15
ENDBRANCH  13  14
ENDBRANCH   2  13
TORSDOF 15
ENDMDL
MODEL 7
REMARK VINA RESULT:    23.642      7.651     10.739
REMARK INTER + INTRA:          43.703
REMARK INTER:                  44.326
REMARK INTRA:                  -0.623
REMARK UNBOUND:                -0.671
REMARK SMILES CCCCCCCCC=CCCCCCCCC(=O)[O-]
REMARK SMILES IDX 10 1 9 2 11 3 12 4 13 5 14 6 15 7 16 8 17 9 18 10 19 11
REMARK SMILES IDX 20 12 8 13 7 14 6 15 5 16 4 17 3 18 2 19 1 20
REMARK H PARENT
REMARK Flexibility Score: inf
ROOT
ATOM      1  C   UNL     1     -34.851  31.346 -18.715  1.00  0.00    -0.031 C 
ATOM      2  C   UNL     1     -35.856  32.185 -19.008  1.00  0.00    -0.031 C 
ENDROOT
BRANCH   1   3
ATOM      3  C   UNL     1     -33.604  31.820 -18.017  1.00  0.00     0.027 C 
BRANCH   3   4
ATOM      4  C   UNL     1     -32.339  31.360 -18.753  1.00  0.00     0.004 C 
BRANCH   4   5
ATOM      5  C   UNL     1     -32.086  29.854 -18.587  1.00  0.00     0.000 C 
BRANCH   5   6
ATOM      6  C   UNL     1     -30.865  29.597 -17.695  1.00  0.00     0.000 C 
BRANCH   6   7
ATOM      7  C   UNL     1     -31.282  28.944 -16.369  1.00  0.00     0.000 C 
BRANCH   7   8
ATOM      8  C   UNL     1     -30.972  27.439 -16.326  1.00  0.00     0.006 C 
BRANCH   8   9
ATOM      9  C   UNL     1     -30.141  27.041 -15.099  1.00  0.00     0.053 C 
BRANCH   9  10
ATOM     10  C   UNL     1     -29.445  25.739 -15.343  1.00  0.00     0.041 C 
ATOM     11  O   UNL     1     -28.395  25.702 -16.039  1.00  0.00    -0.550 OA
ATOM     12  O   UNL     1     -29.979  24.560 -14.839  1.00  0.00    -0.550 OA
ENDBRANCH   9  10
ENDBRANCH   8   9
ENDBRANCH   7   8
ENDBRANCH   6   7
ENDBRANCH   5   6
ENDBRANCH   4   5
ENDBRANCH   3   4
ENDBRANCH   1   3
BRANCH   2  13
ATOM     13  C   UNL     1     -37.124  31.700 -19.660  1.00  0.00     0.027 C 
BRANCH  13  14
ATOM     14  C   UNL     1     -37.129  30.179 -19.874  1.00  0.00     0.004 C 
BRANCH  14  15
ATOM     15  C   UNL     1     -38.096  29.756 -20.993  1.00  0.00     0.000 C 
BRANCH  15  16
ATOM     16  C   UNL     1     -39.567  29.793 -20.549  1.00  0.00     0.000 C 
BRANCH  16  17
ATOM     17  C   UNL     1     -40.545  29.737 -21.733  1.00  0.00    -0.000 C 
BRANCH  17  18
ATOM     18  C   UNL     1     -41.955  30.157 -21.301  1.00  0.00    -0.000 C 
BRANCH  18  19
ATOM     19  C   UNL     1     -42.657  30.952 -22.408  1.00  0.00    -0.003 C 
ATOM     20  C   UNL     1     -43.846  31.733 -21.857  1.00  0.00     0.004 C 
ENDBRANCH  18  19
ENDBRANCH  17  18
ENDBRANCH  16  17
ENDBRANCH  15  16
ENDBRANCH  14  15
ENDBRANCH  13  14
ENDBRANCH   2  13
TORSDOF 15
ENDMDL
MODEL 8
REMARK VINA RESULT:    23.762      7.697     10.612
REMARK INTER + INTRA:          43.928
REMARK INTER:                  44.663
REMARK INTRA:                  -0.735
REMARK UNBOUND:                -0.671
REMARK SMILES CCCCCCCCC=CCCCCCCCC(=O)[O-]
REMARK SMILES IDX 10 1 9 2 11 3 12 4 13 5 14 6 15 7 16 8 17 9 18 10 19 11
REMARK SMILES IDX 20 12 8 13 7 14 6 15 5 16 4 17 3 18 2 19 1 20
REMARK H PARENT
REMARK Flexibility Score: inf
ROOT
ATOM      1  C   UNL     1     -35.167  31.286 -18.459  1.00  0.00    -0.031 C 
ATOM      2  C   UNL     1     -35.736  30.511 -19.394  1.00  0.00    -0.031 C 
ENDROOT
BRANCH   1   3
ATOM      3  C   UNL     1     -33.750  31.775 -18.592  1.00  0.00     0.027 C 
BRANCH   3   4
ATOM      4  C   UNL     1     -32.783  30.933 -17.750  1.00  0.00     0.004 C 
BRANCH   4   5
ATOM      5  C   UNL     1     -31.746  30.201 -18.615  1.00  0.00     0.000 C 
BRANCH   5   6
ATOM      6  C   UNL     1     -31.012  29.128 -17.802  1.00  0.00     0.000 C 
BRANCH   6   7
ATOM      7  C   UNL     1     -31.596  29.016 -16.386  1.00  0.00     0.000 C 
BRANCH   7   8
ATOM      8  C   UNL     1     -30.856  27.985 -15.519  1.00  0.00     0.006 C 
BRANCH   8   9
ATOM      9  C   UNL     1     -30.220  26.862 -16.350  1.00  0.00     0.053 C 
BRANCH   9  10
ATOM     10  C   UNL     1     -29.545  25.871 -15.455  1.00  0.00     0.041 C 
ATOM     11  O   UNL     1     -29.740  25.904 -14.210  1.00  0.00    -0.550 OA
ATOM     12  O   UNL     1     -28.666  24.937 -15.989  1.00  0.00    -0.550 OA
ENDBRANCH   9  10
ENDBRANCH   8   9
ENDBRANCH   7   8
ENDBRANCH   6   7
ENDBRANCH   5   6
ENDBRANCH   4   5
ENDBRANCH   3   4
ENDBRANCH   1   3
BRANCH   2  13
ATOM     13  C   UNL     1     -37.170  30.065 -19.284  1.00  0.00     0.027 C 
BRANCH  13  14
ATOM     14  C   UNL     1     -37.969  30.334 -20.568  1.00  0.00     0.004 C 
BRANCH  14  15
ATOM     15  C   UNL     1     -39.467  30.031 -20.391  1.00  0.00     0.000 C 
BRANCH  15  16
ATOM     16  C   UNL     1     -40.110  29.461 -21.665  1.00  0.00     0.000 C 
BRANCH  16  17
ATOM     17  C   UNL     1     -41.623  29.716 -21.731  1.00  0.00    -0.000 C 
BRANCH  17  18
ATOM     18  C   UNL     1     -41.975  30.634 -22.907  1.00  0.00    -0.000 C 
BRANCH  18  19
ATOM     19  C   UNL     1     -43.054  31.649 -22.511  1.00  0.00    -0.003 C 
ATOM     20  C   UNL     1     -43.555  31.394 -21.092  1.00  0.00     0.004 C 
ENDBRANCH  18  19
ENDBRANCH  17  18
ENDBRANCH  16  17
ENDBRANCH  15  16
ENDBRANCH  14  15
ENDBRANCH  13  14
ENDBRANCH   2  13
TORSDOF 15
ENDMDL
