MODEL 1
REMARK VINA RESULT:    -4.715      0.000      0.000
REMARK INTER + INTRA:          -5.832
REMARK INTER:                  -5.541
REMARK INTRA:                  -0.290
REMARK UNBOUND:                -0.290
REMARK SMILES O=c1c(O)c(-c2ccc(O)cc2)oc2cc(O)cc(O)c12
REMARK SMILES IDX 5 1 3 2 2 3 1 4 21 5 19 6 18 7 16 8 15 9 14 10 13 11 6 12
REMARK SMILES IDX 7 13 8 14 9 15 12 16 11 17 10 18 4 20 20 22 17 24
REMARK H PARENT 10 19 4 21 20 23 17 25
REMARK Flexibility Score: inf
ROOT
ATOM      1  C   UNL     1      63.561  15.159  46.975  1.00  0.00     0.180 A 
ATOM      2  C   UNL     1      63.845  14.192  47.954  1.00  0.00     0.208 A 
ATOM      3  C   UNL     1      65.179  13.803  48.163  1.00  0.00     0.238 A 
ATOM      4  O   UNL     1      65.432  12.978  49.078  1.00  0.00    -0.285 OA
ATOM      5  C   UNL     1      66.208  14.375  47.377  1.00  0.00     0.111 A 
ATOM      6  C   UNL     1      67.589  14.027  47.475  1.00  0.00     0.134 A 
ATOM      7  C   UNL     1      68.538  14.750  46.740  1.00  0.00     0.093 A 
ATOM      8  C   UNL     1      68.150  15.763  45.865  1.00  0.00     0.123 A 
ATOM      9  C   UNL     1      66.797  16.073  45.717  1.00  0.00     0.094 A 
ATOM     10  C   UNL     1      65.831  15.393  46.463  1.00  0.00     0.146 A 
ATOM     11  O   UNL     1      64.556  15.723  46.301  1.00  0.00    -0.452 OA
ENDROOT
BRANCH   1  12
ATOM     12  C   UNL     1      62.178  15.600  46.681  1.00  0.00     0.021 A 
ATOM     13  C   UNL     1      61.629  16.677  47.396  1.00  0.00     0.016 A 
ATOM     14  C   UNL     1      60.334  17.125  47.119  1.00  0.00     0.047 A 
ATOM     15  C   UNL     1      59.577  16.512  46.115  1.00  0.00     0.115 A 
ATOM     16  C   UNL     1      61.420  15.000  45.658  1.00  0.00     0.016 A 
ATOM     17  C   UNL     1      60.124  15.451  45.383  1.00  0.00     0.047 A 
BRANCH  15  18
ATOM     18  O   UNL     1      58.288  16.968  45.850  1.00  0.00    -0.508 OA
ATOM     19  H   UNL     1      57.850  17.681  46.422  1.00  0.00     0.293 HD
ENDBRANCH  15  18
ENDBRANCH   1  12
BRANCH   2  20
ATOM     20  O   UNL     1      62.816  13.655  48.734  1.00  0.00    -0.502 OA
ATOM     21  H   UNL     1      62.730  13.841  49.725  1.00  0.00     0.293 HD
ENDBRANCH   2  20
BRANCH   6  22
ATOM     22  O   UNL     1      68.076  12.970  48.250  1.00  0.00    -0.507 OA
ATOM     23  H   UNL     1      68.439  13.065  49.186  1.00  0.00     0.293 HD
ENDBRANCH   6  22
BRANCH   8  24
ATOM     24  O   UNL     1      69.119  16.452  45.138  1.00  0.00    -0.508 OA
ATOM     25  H   UNL     1      68.932  17.365  44.737  1.00  0.00     0.293 HD
ENDBRANCH   8  24
TORSDOF 5
ENDMDL
MODEL 2
REMARK VINA RESULT:    -4.456     19.215     20.513
REMARK INTER + INTRA:          -5.528
REMARK INTER:                  -5.241
REMARK INTRA:                  -0.287
REMARK UNBOUND:                -0.290
REMARK SMILES O=c1c(O)c(-c2ccc(O)cc2)oc2cc(O)cc(O)c12
REMARK SMILES IDX 5 1 3 2 2 3 1 4 21 5 19 6 18 7 16 8 15 9 14 10 13 11 6 12
REMARK SMILES IDX 7 13 8 14 9 15 12 16 11 17 10 18 4 20 20 22 17 24
REMARK H PARENT 10 19 4 21 20 23 17 25
REMARK Flexibility Score: inf
ROOT
ATOM      1  C   UNL     1      59.831   2.653  31.205  1.00  0.00     0.180 A 
ATOM      2  C   UNL     1      59.110   3.718  30.637  1.00  0.00     0.208 A 
ATOM      3  C   UNL     1      59.579   5.030  30.813  1.00  0.00     0.238 A 
ATOM      4  O   UNL     1      58.959   5.973  30.256  1.00  0.00    -0.285 OA
ATOM      5  C   UNL     1      60.753   5.262  31.568  1.00  0.00     0.111 A 
ATOM      6  C   UNL     1      61.296   6.553  31.845  1.00  0.00     0.134 A 
ATOM      7  C   UNL     1      62.535   6.657  32.491  1.00  0.00     0.093 A 
ATOM      8  C   UNL     1      63.216   5.522  32.929  1.00  0.00     0.123 A 
ATOM      9  C   UNL     1      62.665   4.257  32.717  1.00  0.00     0.094 A 
ATOM     10  C   UNL     1      61.449   4.120  32.042  1.00  0.00     0.146 A 
ATOM     11  O   UNL     1      60.964   2.899  31.852  1.00  0.00    -0.452 OA
ENDROOT
BRANCH   1  12
ATOM     12  C   UNL     1      59.386   1.246  31.084  1.00  0.00     0.021 A 
ATOM     13  C   UNL     1      58.533   0.704  32.059  1.00  0.00     0.016 A 
ATOM     14  C   UNL     1      58.083  -0.615  31.952  1.00  0.00     0.047 A 
ATOM     15  C   UNL     1      58.466  -1.404  30.864  1.00  0.00     0.115 A 
ATOM     16  C   UNL     1      59.753   0.454  29.980  1.00  0.00     0.016 A 
ATOM     17  C   UNL     1      59.300  -0.865  29.875  1.00  0.00     0.047 A 
BRANCH  15  18
ATOM     18  O   UNL     1      58.011  -2.717  30.770  1.00  0.00    -0.508 OA
ATOM     19  H   UNL     1      57.704  -3.109  29.888  1.00  0.00     0.293 HD
ENDBRANCH  15  18
ENDBRANCH   1  12
BRANCH   2  20
ATOM     20  O   UNL     1      57.964   3.465  29.876  1.00  0.00    -0.502 OA
ATOM     21  H   UNL     1      57.280   2.766  30.138  1.00  0.00     0.293 HD
ENDBRANCH   2  20
BRANCH   6  22
ATOM     22  O   UNL     1      60.654   7.754  31.533  1.00  0.00    -0.507 OA
ATOM     23  H   UNL     1      61.089   8.533  31.062  1.00  0.00     0.293 HD
ENDBRANCH   6  22
BRANCH   8  24
ATOM     24  O   UNL     1      64.438   5.663  33.583  1.00  0.00    -0.508 OA
ATOM     25  H   UNL     1      64.701   5.058  34.353  1.00  0.00     0.293 HD
ENDBRANCH   8  24
TORSDOF 5
ENDMDL
MODEL 3
REMARK VINA RESULT:    -4.404     21.011     23.203
REMARK INTER + INTRA:          -5.466
REMARK INTER:                  -5.176
REMARK INTRA:                  -0.290
REMARK UNBOUND:                -0.290
REMARK SMILES O=c1c(O)c(-c2ccc(O)cc2)oc2cc(O)cc(O)c12
REMARK SMILES IDX 5 1 3 2 2 3 1 4 21 5 19 6 18 7 16 8 15 9 14 10 13 11 6 12
REMARK SMILES IDX 7 13 8 14 9 15 12 16 11 17 10 18 4 20 20 22 17 24
REMARK H PARENT 10 19 4 21 20 23 17 25
REMARK Flexibility Score: inf
ROOT
ATOM      1  C   UNL     1      72.580  -0.585  32.876  1.00  0.00     0.180 A 
ATOM      2  C   UNL     1      71.468  -1.294  33.363  1.00  0.00     0.208 A 
ATOM      3  C   UNL     1      70.190  -0.723  33.246  1.00  0.00     0.238 A 
ATOM      4  O   UNL     1      69.194  -1.386  33.633  1.00  0.00    -0.285 OA
ATOM      5  C   UNL     1      70.043   0.557  32.659  1.00  0.00     0.111 A 
ATOM      6  C   UNL     1      68.801   1.249  32.526  1.00  0.00     0.134 A 
ATOM      7  C   UNL     1      68.755   2.453  31.812  1.00  0.00     0.093 A 
ATOM      8  C   UNL     1      69.912   3.022  31.284  1.00  0.00     0.123 A 
ATOM      9  C   UNL     1      71.142   2.384  31.459  1.00  0.00     0.094 A 
ATOM     10  C   UNL     1      71.214   1.164  32.135  1.00  0.00     0.146 A 
ATOM     11  O   UNL     1      72.401   0.584  32.273  1.00  0.00    -0.452 OA
ENDROOT
BRANCH   1  12
ATOM     12  C   UNL     1      73.960  -1.110  32.986  1.00  0.00     0.021 A 
ATOM     13  C   UNL     1      74.554  -1.734  31.876  1.00  0.00     0.016 A 
ATOM     14  C   UNL     1      75.863  -2.217  31.951  1.00  0.00     0.047 A 
ATOM     15  C   UNL     1      76.601  -2.070  33.130  1.00  0.00     0.115 A 
ATOM     16  C   UNL     1      74.714  -0.948  34.163  1.00  0.00     0.016 A 
ATOM     17  C   UNL     1      76.025  -1.431  34.235  1.00  0.00     0.047 A 
BRANCH  15  18
ATOM     18  O   UNL     1      77.904  -2.557  33.191  1.00  0.00    -0.508 OA
ATOM     19  H   UNL     1      78.434  -2.758  32.351  1.00  0.00     0.293 HD
ENDBRANCH  15  18
ENDBRANCH   1  12
BRANCH   2  20
ATOM     20  O   UNL     1      71.633  -2.566  33.919  1.00  0.00    -0.502 OA
ATOM     21  H   UNL     1      72.179  -3.290  33.469  1.00  0.00     0.293 HD
ENDBRANCH   2  20
BRANCH   6  22
ATOM     22  O   UNL     1      67.601   0.815  33.094  1.00  0.00    -0.507 OA
ATOM     23  H   UNL     1      66.894   0.283  32.609  1.00  0.00     0.293 HD
ENDBRANCH   6  22
BRANCH   8  24
ATOM     24  O   UNL     1      69.832   4.229  30.592  1.00  0.00    -0.508 OA
ATOM     25  H   UNL     1      70.108   4.303  29.619  1.00  0.00     0.293 HD
ENDBRANCH   8  24
TORSDOF 5
ENDMDL
MODEL 4
REMARK VINA RESULT:    -4.398      1.640      3.479
REMARK INTER + INTRA:          -5.460
REMARK INTER:                  -5.162
REMARK INTRA:                  -0.298
REMARK UNBOUND:                -0.290
REMARK SMILES O=c1c(O)c(-c2ccc(O)cc2)oc2cc(O)cc(O)c12
REMARK SMILES IDX 5 1 3 2 2 3 1 4 21 5 19 6 18 7 16 8 15 9 14 10 13 11 6 12
REMARK SMILES IDX 7 13 8 14 9 15 12 16 11 17 10 18 4 20 20 22 17 24
REMARK H PARENT 10 19 4 21 20 23 17 25
REMARK Flexibility Score: inf
ROOT
ATOM      1  C   UNL     1      64.770  14.670  46.866  1.00  0.00     0.180 A 
ATOM      2  C   UNL     1      65.880  15.273  46.249  1.00  0.00     0.208 A 
ATOM      3  C   UNL     1      67.165  14.775  46.519  1.00  0.00     0.238 A 
ATOM      4  O   UNL     1      68.148  15.284  45.922  1.00  0.00    -0.285 OA
ATOM      5  C   UNL     1      67.325  13.692  47.416  1.00  0.00     0.111 A 
ATOM      6  C   UNL     1      68.583  13.132  47.794  1.00  0.00     0.134 A 
ATOM      7  C   UNL     1      68.615  11.977  48.586  1.00  0.00     0.093 A 
ATOM      8  C   UNL     1      67.441  11.401  49.066  1.00  0.00     0.123 A 
ATOM      9  C   UNL     1      66.207  11.974  48.752  1.00  0.00     0.094 A 
ATOM     10  C   UNL     1      66.142  13.105  47.934  1.00  0.00     0.146 A 
ATOM     11  O   UNL     1      64.949  13.614  47.650  1.00  0.00    -0.452 OA
ENDROOT
BRANCH   1  12
ATOM     12  C   UNL     1      63.388  15.155  46.650  1.00  0.00     0.021 A 
ATOM     13  C   UNL     1      62.579  14.532  45.686  1.00  0.00     0.016 A 
ATOM     14  C   UNL     1      61.264  14.959  45.481  1.00  0.00     0.047 A 
ATOM     15  C   UNL     1      60.736  16.002  46.246  1.00  0.00     0.115 A 
ATOM     16  C   UNL     1      62.845  16.192  47.431  1.00  0.00     0.016 A 
ATOM     17  C   UNL     1      61.528  16.616  47.225  1.00  0.00     0.047 A 
BRANCH  15  18
ATOM     18  O   UNL     1      59.424  16.418  46.032  1.00  0.00    -0.508 OA
ATOM     19  H   UNL     1      58.942  16.223  45.162  1.00  0.00     0.293 HD
ENDBRANCH  15  18
ENDBRANCH   1  12
BRANCH   2  20
ATOM     20  O   UNL     1      65.698  16.329  45.350  1.00  0.00    -0.502 OA
ATOM     21  H   UNL     1      65.212  17.181  45.602  1.00  0.00     0.293 HD
ENDBRANCH   2  20
BRANCH   6  22
ATOM     22  O   UNL     1      69.819  13.683  47.444  1.00  0.00    -0.507 OA
ATOM     23  H   UNL     1      70.101  14.632  47.639  1.00  0.00     0.293 HD
ENDBRANCH   6  22
BRANCH   8  24
ATOM     24  O   UNL     1      67.510  10.261  49.865  1.00  0.00    -0.508 OA
ATOM     25  H   UNL     1      66.693   9.895  50.340  1.00  0.00     0.293 HD
ENDBRANCH   8  24
TORSDOF 5
ENDMDL
MODEL 5
REMARK VINA RESULT:    -4.363     18.866     20.194
REMARK INTER + INTRA:          -5.418
REMARK INTER:                  -5.119
REMARK INTRA:                  -0.299
REMARK UNBOUND:                -0.290
REMARK SMILES O=c1c(O)c(-c2ccc(O)cc2)oc2cc(O)cc(O)c12
REMARK SMILES IDX 5 1 3 2 2 3 1 4 21 5 19 6 18 7 16 8 15 9 14 10 13 11 6 12
REMARK SMILES IDX 7 13 8 14 9 15 12 16 11 17 10 18 4 20 20 22 17 24
REMARK H PARENT 10 19 4 21 20 23 17 25
REMARK Flexibility Score: inf
ROOT
ATOM      1  C   UNL     1      68.789   1.327  33.798  1.00  0.00     0.180 A 
ATOM      2  C   UNL     1      67.519   0.729  33.739  1.00  0.00     0.208 A 
ATOM      3  C   UNL     1      67.243  -0.371  34.568  1.00  0.00     0.238 A 
ATOM      4  O   UNL     1      66.087  -0.867  34.549  1.00  0.00    -0.285 OA
ATOM      5  C   UNL     1      68.246  -0.868  35.433  1.00  0.00     0.111 A 
ATOM      6  C   UNL     1      68.091  -2.001  36.288  1.00  0.00     0.134 A 
ATOM      7  C   UNL     1      69.105  -2.324  37.198  1.00  0.00     0.093 A 
ATOM      8  C   UNL     1      70.294  -1.597  37.240  1.00  0.00     0.123 A 
ATOM      9  C   UNL     1      70.481  -0.523  36.367  1.00  0.00     0.094 A 
ATOM     10  C   UNL     1      69.473  -0.155  35.474  1.00  0.00     0.146 A 
ATOM     11  O   UNL     1      69.686   0.879  34.668  1.00  0.00    -0.452 OA
ENDROOT
BRANCH   1  12
ATOM     12  C   UNL     1      69.162   2.473  32.938  1.00  0.00     0.021 A 
ATOM     13  C   UNL     1      69.041   3.781  33.436  1.00  0.00     0.016 A 
ATOM     14  C   UNL     1      69.409   4.876  32.649  1.00  0.00     0.047 A 
ATOM     15  C   UNL     1      69.915   4.679  31.361  1.00  0.00     0.115 A 
ATOM     16  C   UNL     1      69.692   2.279  31.648  1.00  0.00     0.016 A 
ATOM     17  C   UNL     1      70.060   3.377  30.863  1.00  0.00     0.047 A 
BRANCH  15  18
ATOM     18  O   UNL     1      70.277   5.779  30.587  1.00  0.00    -0.508 OA
ATOM     19  H   UNL     1      71.010   6.414  30.881  1.00  0.00     0.293 HD
ENDBRANCH  15  18
ENDBRANCH   1  12
BRANCH   2  20
ATOM     20  O   UNL     1      66.535   1.249  32.892  1.00  0.00    -0.502 OA
ATOM     21  H   UNL     1      66.224   0.767  32.058  1.00  0.00     0.293 HD
ENDBRANCH   2  20
BRANCH   6  22
ATOM     22  O   UNL     1      66.981  -2.850  36.263  1.00  0.00    -0.507 OA
ATOM     23  H   UNL     1      66.878  -3.677  36.832  1.00  0.00     0.293 HD
ENDBRANCH   6  22
BRANCH   8  24
ATOM     24  O   UNL     1      71.288  -1.956  38.147  1.00  0.00    -0.508 OA
ATOM     25  H   UNL     1      71.479  -2.927  38.370  1.00  0.00     0.293 HD
ENDBRANCH   8  24
TORSDOF 5
ENDMDL
MODEL 6
REMARK VINA RESULT:    -4.337     20.040     22.229
REMARK INTER + INTRA:          -5.388
REMARK INTER:                  -5.094
REMARK INTRA:                  -0.294
REMARK UNBOUND:                -0.290
REMARK SMILES O=c1c(O)c(-c2ccc(O)cc2)oc2cc(O)cc(O)c12
REMARK SMILES IDX 5 1 3 2 2 3 1 4 21 5 19 6 18 7 16 8 15 9 14 10 13 11 6 12
REMARK SMILES IDX 7 13 8 14 9 15 12 16 11 17 10 18 4 20 20 22 17 24
REMARK H PARENT 10 19 4 21 20 23 17 25
REMARK Flexibility Score: inf
ROOT
ATOM      1  C   UNL     1      71.457   0.437  33.202  1.00  0.00     0.180 A 
ATOM      2  C   UNL     1      71.263   1.651  32.520  1.00  0.00     0.208 A 
ATOM      3  C   UNL     1      69.955   2.134  32.347  1.00  0.00     0.238 A 
ATOM      4  O   UNL     1      69.793   3.247  31.784  1.00  0.00    -0.285 OA
ATOM      5  C   UNL     1      68.859   1.390  32.844  1.00  0.00     0.111 A 
ATOM      6  C   UNL     1      67.490   1.765  32.690  1.00  0.00     0.134 A 
ATOM      7  C   UNL     1      66.494   1.021  33.336  1.00  0.00     0.093 A 
ATOM      8  C   UNL     1      66.810  -0.118  34.073  1.00  0.00     0.123 A 
ATOM      9  C   UNL     1      68.140  -0.528  34.181  1.00  0.00     0.094 A 
ATOM     10  C   UNL     1      69.159   0.214  33.579  1.00  0.00     0.146 A 
ATOM     11  O   UNL     1      70.412  -0.203  33.713  1.00  0.00    -0.452 OA
ENDROOT
BRANCH   1  12
ATOM     12  C   UNL     1      72.802  -0.149  33.402  1.00  0.00     0.021 A 
ATOM     13  C   UNL     1      73.532   0.171  34.559  1.00  0.00     0.016 A 
ATOM     14  C   UNL     1      74.793  -0.388  34.778  1.00  0.00     0.047 A 
ATOM     15  C   UNL     1      75.336  -1.284  33.853  1.00  0.00     0.115 A 
ATOM     16  C   UNL     1      73.345  -1.067  32.484  1.00  0.00     0.016 A 
ATOM     17  C   UNL     1      74.608  -1.626  32.706  1.00  0.00     0.047 A 
BRANCH  15  18
ATOM     18  O   UNL     1      76.595  -1.834  34.083  1.00  0.00    -0.508 OA
ATOM     19  H   UNL     1      76.719  -2.828  34.236  1.00  0.00     0.293 HD
ENDBRANCH  15  18
ENDBRANCH   1  12
BRANCH   2  20
ATOM     20  O   UNL     1      72.361   2.381  32.056  1.00  0.00    -0.502 OA
ATOM     21  H   UNL     1      72.439   2.698  31.098  1.00  0.00     0.293 HD
ENDBRANCH   2  20
BRANCH   6  22
ATOM     22  O   UNL     1      67.056   2.832  31.899  1.00  0.00    -0.507 OA
ATOM     23  H   UNL     1      66.219   3.369  32.067  1.00  0.00     0.293 HD
ENDBRANCH   6  22
BRANCH   8  24
ATOM     24  O   UNL     1      65.792  -0.844  34.690  1.00  0.00    -0.508 OA
ATOM     25  H   UNL     1      65.523  -1.765  34.362  1.00  0.00     0.293 HD
ENDBRANCH   8  24
TORSDOF 5
ENDMDL
MODEL 7
REMARK VINA RESULT:    -4.324      1.798      6.702
REMARK INTER + INTRA:          -5.373
REMARK INTER:                  -5.108
REMARK INTRA:                  -0.264
REMARK UNBOUND:                -0.290
REMARK SMILES O=c1c(O)c(-c2ccc(O)cc2)oc2cc(O)cc(O)c12
REMARK SMILES IDX 5 1 3 2 2 3 1 4 21 5 19 6 18 7 16 8 15 9 14 10 13 11 6 12
REMARK SMILES IDX 7 13 8 14 9 15 12 16 11 17 10 18 4 20 20 22 17 24
REMARK H PARENT 10 19 4 21 20 23 17 25
REMARK Flexibility Score: inf
ROOT
ATOM      1  C   UNL     1      65.137  14.861  47.201  1.00  0.00     0.180 A 
ATOM      2  C   UNL     1      64.578  15.532  48.302  1.00  0.00     0.208 A 
ATOM      3  C   UNL     1      63.239  15.950  48.239  1.00  0.00     0.238 A 
ATOM      4  O   UNL     1      62.729  16.501  49.248  1.00  0.00    -0.285 OA
ATOM      5  C   UNL     1      62.481  15.707  47.068  1.00  0.00     0.111 A 
ATOM      6  C   UNL     1      61.128  16.122  46.878  1.00  0.00     0.134 A 
ATOM      7  C   UNL     1      60.435  15.714  45.732  1.00  0.00     0.093 A 
ATOM      8  C   UNL     1      61.062  14.962  44.741  1.00  0.00     0.123 A 
ATOM      9  C   UNL     1      62.403  14.600  44.888  1.00  0.00     0.094 A 
ATOM     10  C   UNL     1      63.110  14.962  46.037  1.00  0.00     0.146 A 
ATOM     11  O   UNL     1      64.380  14.591  46.144  1.00  0.00    -0.452 OA
ENDROOT
BRANCH   1  12
ATOM     12  C   UNL     1      66.548  14.412  47.183  1.00  0.00     0.021 A 
ATOM     13  C   UNL     1      66.897  13.203  47.807  1.00  0.00     0.016 A 
ATOM     14  C   UNL     1      68.218  12.749  47.784  1.00  0.00     0.047 A 
ATOM     15  C   UNL     1      69.205  13.489  47.125  1.00  0.00     0.115 A 
ATOM     16  C   UNL     1      67.541  15.143  46.505  1.00  0.00     0.016 A 
ATOM     17  C   UNL     1      68.863  14.686  46.482  1.00  0.00     0.047 A 
BRANCH  15  18
ATOM     18  O   UNL     1      70.518  13.026  47.110  1.00  0.00    -0.508 OA
ATOM     19  H   UNL     1      70.939  12.601  47.927  1.00  0.00     0.293 HD
ENDBRANCH  15  18
ENDBRANCH   1  12
BRANCH   2  20
ATOM     20  O   UNL     1      65.338  15.742  49.457  1.00  0.00    -0.502 OA
ATOM     21  H   UNL     1      65.262  16.586  50.012  1.00  0.00     0.293 HD
ENDBRANCH   2  20
BRANCH   6  22
ATOM     22  O   UNL     1      60.435  16.952  47.764  1.00  0.00    -0.507 OA
ATOM     23  H   UNL     1      59.433  17.072  47.773  1.00  0.00     0.293 HD
ENDBRANCH   6  22
BRANCH   8  24
ATOM     24  O   UNL     1      60.347  14.586  43.605  1.00  0.00    -0.508 OA
ATOM     25  H   UNL     1      59.841  15.264  43.048  1.00  0.00     0.293 HD
ENDBRANCH   8  24
TORSDOF 5
ENDMDL
MODEL 8
REMARK VINA RESULT:    -4.312     18.992     19.818
REMARK INTER + INTRA:          -5.359
REMARK INTER:                  -5.070
REMARK INTRA:                  -0.289
REMARK UNBOUND:                -0.290
REMARK SMILES O=c1c(O)c(-c2ccc(O)cc2)oc2cc(O)cc(O)c12
REMARK SMILES IDX 5 1 3 2 2 3 1 4 21 5 19 6 18 7 16 8 15 9 14 10 13 11 6 12
REMARK SMILES IDX 7 13 8 14 9 15 12 16 11 17 10 18 4 20 20 22 17 24
REMARK H PARENT 10 19 4 21 20 23 17 25
REMARK Flexibility Score: inf
ROOT
ATOM      1  C   UNL     1      65.387  -1.201  36.570  1.00  0.00     0.180 A 
ATOM      2  C   UNL     1      65.165  -0.693  35.279  1.00  0.00     0.208 A 
ATOM      3  C   UNL     1      66.270  -0.392  34.465  1.00  0.00     0.238 A 
ATOM      4  O   UNL     1      66.064   0.010  33.291  1.00  0.00    -0.285 OA
ATOM      5  C   UNL     1      67.581  -0.588  34.960  1.00  0.00     0.111 A 
ATOM      6  C   UNL     1      68.774  -0.279  34.238  1.00  0.00     0.134 A 
ATOM      7  C   UNL     1      70.018  -0.636  34.774  1.00  0.00     0.093 A 
ATOM      8  C   UNL     1      70.116  -1.229  36.032  1.00  0.00     0.123 A 
ATOM      9  C   UNL     1      68.960  -1.481  36.773  1.00  0.00     0.094 A 
ATOM     10  C   UNL     1      67.703  -1.170  36.248  1.00  0.00     0.146 A 
ATOM     11  O   UNL     1      66.628  -1.435  36.980  1.00  0.00    -0.452 OA
ENDROOT
BRANCH   1  12
ATOM     12  C   UNL     1      64.274  -1.518  37.495  1.00  0.00     0.021 A 
ATOM     13  C   UNL     1      63.694  -2.797  37.467  1.00  0.00     0.016 A 
ATOM     14  C   UNL     1      62.658  -3.124  38.345  1.00  0.00     0.047 A 
ATOM     15  C   UNL     1      62.198  -2.184  39.273  1.00  0.00     0.115 A 
ATOM     16  C   UNL     1      63.821  -0.582  38.443  1.00  0.00     0.016 A 
ATOM     17  C   UNL     1      62.784  -0.913  39.323  1.00  0.00     0.047 A 
BRANCH  15  18
ATOM     18  O   UNL     1      61.164  -2.524  40.143  1.00  0.00    -0.508 OA
ATOM     19  H   UNL     1      61.135  -3.425  40.604  1.00  0.00     0.293 HD
ENDBRANCH  15  18
ENDBRANCH   1  12
BRANCH   2  20
ATOM     20  O   UNL     1      63.861  -0.528  34.802  1.00  0.00    -0.502 OA
ATOM     21  H   UNL     1      63.108  -0.184  35.384  1.00  0.00     0.293 HD
ENDBRANCH   2  20
BRANCH   6  22
ATOM     22  O   UNL     1      68.793   0.395  33.014  1.00  0.00    -0.507 OA
ATOM     23  H   UNL     1      68.160   1.137  32.757  1.00  0.00     0.293 HD
ENDBRANCH   6  22
BRANCH   8  24
ATOM     24  O   UNL     1      71.371  -1.556  36.542  1.00  0.00    -0.508 OA
ATOM     25  H   UNL     1      71.986  -0.851  36.931  1.00  0.00     0.293 HD
ENDBRANCH   8  24
TORSDOF 5
ENDMDL
MODEL 9
REMARK VINA RESULT:    -3.417     18.702     20.023
REMARK INTER + INTRA:          -4.306
REMARK INTER:                  -4.017
REMARK INTRA:                  -0.289
REMARK UNBOUND:                -0.290
REMARK SMILES O=c1c(O)c(-c2ccc(O)cc2)oc2cc(O)cc(O)c12
REMARK SMILES IDX 5 1 3 2 2 3 1 4 21 5 19 6 18 7 16 8 15 9 14 10 13 11 6 12
REMARK SMILES IDX 7 13 8 14 9 15 12 16 11 17 10 18 4 20 20 22 17 24
REMARK H PARENT 10 19 4 21 20 23 17 25
REMARK Flexibility Score: inf
ROOT
ATOM      1  C   UNL     1      60.775   3.469  32.074  1.00  0.00     0.180 A 
ATOM      2  C   UNL     1      60.098   2.772  31.058  1.00  0.00     0.208 A 
ATOM      3  C   UNL     1      59.756   1.425  31.265  1.00  0.00     0.238 A 
ATOM      4  O   UNL     1      59.103   0.824  30.373  1.00  0.00    -0.285 OA
ATOM      5  C   UNL     1      60.110   0.789  32.478  1.00  0.00     0.111 A 
ATOM      6  C   UNL     1      59.850  -0.582  32.779  1.00  0.00     0.134 A 
ATOM      7  C   UNL     1      60.127  -1.072  34.062  1.00  0.00     0.093 A 
ATOM      8  C   UNL     1      60.713  -0.261  35.031  1.00  0.00     0.123 A 
ATOM      9  C   UNL     1      61.027   1.066  34.729  1.00  0.00     0.094 A 
ATOM     10  C   UNL     1      60.729   1.593  33.470  1.00  0.00     0.146 A 
ATOM     11  O   UNL     1      61.034   2.862  33.226  1.00  0.00    -0.452 OA
ENDROOT
BRANCH   1  12
ATOM     12  C   UNL     1      61.190   4.882  31.919  1.00  0.00     0.021 A 
ATOM     13  C   UNL     1      62.448   5.177  31.368  1.00  0.00     0.016 A 
ATOM     14  C   UNL     1      62.851   6.503  31.192  1.00  0.00     0.047 A 
ATOM     15  C   UNL     1      61.999   7.551  31.552  1.00  0.00     0.115 A 
ATOM     16  C   UNL     1      60.328   5.940  32.260  1.00  0.00     0.016 A 
ATOM     17  C   UNL     1      60.734   7.267  32.083  1.00  0.00     0.047 A 
BRANCH  15  18
ATOM     18  O   UNL     1      62.413   8.869  31.372  1.00  0.00    -0.508 OA
ATOM     19  H   UNL     1      61.853   9.533  30.851  1.00  0.00     0.293 HD
ENDBRANCH  15  18
ENDBRANCH   1  12
BRANCH   2  20
ATOM     20  O   UNL     1      59.739   3.426  29.875  1.00  0.00    -0.502 OA
ATOM     21  H   UNL     1      58.822   3.332  29.458  1.00  0.00     0.293 HD
ENDBRANCH   2  20
BRANCH   6  22
ATOM     22  O   UNL     1      59.351  -1.504  31.854  1.00  0.00    -0.507 OA
ATOM     23  H   UNL     1      58.539  -1.353  31.274  1.00  0.00     0.293 HD
ENDBRANCH   6  22
BRANCH   8  24
ATOM     24  O   UNL     1      60.990  -0.785  36.293  1.00  0.00    -0.508 OA
ATOM     25  H   UNL     1      60.650  -0.341  37.138  1.00  0.00     0.293 HD
ENDBRANCH   8  24
TORSDOF 5
ENDMDL
