MODEL 1
REMARK VINA RESULT:    -4.287      0.000      0.000
REMARK INTER + INTRA:         -16.167
REMARK INTER:                 -10.804
REMARK INTRA:                  -5.363
REMARK UNBOUND:                -5.363
REMARK SMILES CCCCCCCCCCCCCCCCCCCCCCCCCCCC(=O)[O-]
REMARK SMILES IDX 15 1 16 2 17 3 18 4 19 5 20 6 21 7 22 8 23 9 24 10 25 11
REMARK SMILES IDX 26 12 27 13 28 14 29 15 30 16 14 17 13 18 12 19 11 20 10 21
REMARK SMILES IDX 9 22 8 23 7 24 6 25 5 26 4 27 3 28 2 29 1 30
REMARK H PARENT
REMARK Flexibility Score: inf
ROOT
ATOM      1  C   UNL     1      41.626  22.089 222.981  1.00  0.00     0.000 C 
ENDROOT
BRANCH   1   2
ATOM      2  C   UNL     1      41.253  20.601 223.003  1.00  0.00     0.000 C 
BRANCH   2   3
ATOM      3  C   UNL     1      41.387  20.020 224.418  1.00  0.00     0.000 C 
BRANCH   3   4
ATOM      4  C   UNL     1      40.185  19.148 224.824  1.00  0.00     0.000 C 
BRANCH   4   5
ATOM      5  C   UNL     1      40.250  18.566 226.252  1.00  0.00     0.000 C 
BRANCH   5   6
ATOM      6  C   UNL     1      38.971  17.854 226.731  1.00  0.00     0.000 C 
BRANCH   6   7
ATOM      7  C   UNL     1      38.449  18.307 228.108  1.00  0.00     0.000 C 
BRANCH   7   8
ATOM      8  C   UNL     1      39.293  19.424 228.761  1.00  0.00     0.000 C 
BRANCH   8   9
ATOM      9  C   UNL     1      38.515  20.744 228.909  1.00  0.00     0.000 C 
BRANCH   9  10
ATOM     10  C   UNL     1      39.147  21.889 228.099  1.00  0.00     0.000 C 
BRANCH  10  11
ATOM     11  C   UNL     1      38.646  21.926 226.643  1.00  0.00     0.000 C 
BRANCH  11  12
ATOM     12  C   UNL     1      37.160  21.556 226.525  1.00  0.00     0.006 C 
BRANCH  12  13
ATOM     13  C   UNL     1      36.875  20.637 225.329  1.00  0.00     0.053 C 
BRANCH  13  14
ATOM     14  C   UNL     1      35.899  19.569 225.713  1.00  0.00     0.041 C 
ATOM     15  O   UNL     1      35.185  19.704 226.743  1.00  0.00    -0.550 OA
ATOM     16  O   UNL     1      35.730  18.457 224.899  1.00  0.00    -0.550 OA
ENDBRANCH  13  14
ENDBRANCH  12  13
ENDBRANCH  11  12
ENDBRANCH  10  11
ENDBRANCH   9  10
ENDBRANCH   8   9
ENDBRANCH   7   8
ENDBRANCH   6   7
ENDBRANCH   5   6
ENDBRANCH   4   5
ENDBRANCH   3   4
ENDBRANCH   2   3
ENDBRANCH   1   2
BRANCH   1  17
ATOM     17  C   UNL     1      40.901  22.855 224.099  1.00  0.00     0.000 C 
BRANCH  17  18
ATOM     18  C   UNL     1      41.752  23.986 224.697  1.00  0.00     0.000 C 
BRANCH  18  19
ATOM     19  C   UNL     1      41.857  23.907 226.230  1.00  0.00     0.000 C 
BRANCH  19  20
ATOM     20  C   UNL     1      42.661  25.078 226.819  1.00  0.00     0.000 C 
BRANCH  20  21
ATOM     21  C   UNL     1      41.786  26.036 227.646  1.00  0.00     0.000 C 
BRANCH  21  22
ATOM     22  C   UNL     1      40.502  25.370 228.175  1.00  0.00    -0.000 C 
BRANCH  22  23
ATOM     23  C   UNL     1      39.190  26.085 227.798  1.00  0.00    -0.000 C 
BRANCH  23  24
ATOM     24  C   UNL     1      38.491  25.454 226.581  1.00  0.00    -0.000 C 
BRANCH  24  25
ATOM     25  C   UNL     1      38.835  26.160 225.256  1.00  0.00    -0.000 C 
BRANCH  25  26
ATOM     26  C   UNL     1      37.814  25.956 224.121  1.00  0.00    -0.000 C 
BRANCH  26  27
ATOM     27  C   UNL     1      36.522  25.266 224.592  1.00  0.00    -0.000 C 
BRANCH  27  28
ATOM     28  C   UNL     1      36.229  23.969 223.823  1.00  0.00    -0.000 C 
BRANCH  28  29
ATOM     29  C   UNL     1      37.218  23.730 222.672  1.00  0.00    -0.003 C 
ATOM     30  C   UNL     1      36.503  23.735 221.324  1.00  0.00     0.004 C 
ENDBRANCH  28  29
ENDBRANCH  27  28
ENDBRANCH  26  27
ENDBRANCH  25  26
ENDBRANCH  24  25
ENDBRANCH  23  24
ENDBRANCH  22  23
ENDBRANCH  21  22
ENDBRANCH  20  21
ENDBRANCH  19  20
ENDBRANCH  18  19
ENDBRANCH  17  18
ENDBRANCH   1  17
TORSDOF 26
ENDMDL
MODEL 2
REMARK VINA RESULT:    -4.161      2.290      4.436
REMARK INTER + INTRA:         -15.848
REMARK INTER:                 -10.668
REMARK INTRA:                  -5.180
REMARK UNBOUND:                -5.363
REMARK SMILES CCCCCCCCCCCCCCCCCCCCCCCCCCCC(=O)[O-]
REMARK SMILES IDX 15 1 16 2 17 3 18 4 19 5 20 6 21 7 22 8 23 9 24 10 25 11
REMARK SMILES IDX 26 12 27 13 28 14 29 15 30 16 14 17 13 18 12 19 11 20 10 21
REMARK SMILES IDX 9 22 8 23 7 24 6 25 5 26 4 27 3 28 2 29 1 30
REMARK H PARENT
REMARK Flexibility Score: inf
ROOT
ATOM      1  C   UNL     1      40.172  18.976 225.069  1.00  0.00     0.000 C 
ENDROOT
BRANCH   1   2
ATOM      2  C   UNL     1      41.066  19.471 226.213  1.00  0.00     0.000 C 
BRANCH   2   3
ATOM      3  C   UNL     1      40.436  19.162 227.578  1.00  0.00     0.000 C 
BRANCH   3   4
ATOM      4  C   UNL     1      39.661  17.832 227.593  1.00  0.00     0.000 C 
BRANCH   4   5
ATOM      5  C   UNL     1      38.437  17.795 228.533  1.00  0.00     0.000 C 
BRANCH   5   6
ATOM      6  C   UNL     1      37.079  17.591 227.836  1.00  0.00     0.000 C 
BRANCH   6   7
ATOM      7  C   UNL     1      37.099  17.762 226.304  1.00  0.00     0.000 C 
BRANCH   7   8
ATOM      8  C   UNL     1      36.452  19.075 225.812  1.00  0.00     0.000 C 
BRANCH   8   9
ATOM      9  C   UNL     1      36.327  20.127 226.929  1.00  0.00     0.000 C 
BRANCH   9  10
ATOM     10  C   UNL     1      37.522  21.095 226.957  1.00  0.00     0.000 C 
BRANCH  10  11
ATOM     11  C   UNL     1      37.648  21.912 225.658  1.00  0.00     0.000 C 
BRANCH  11  12
ATOM     12  C   UNL     1      37.081  23.333 225.802  1.00  0.00     0.006 C 
BRANCH  12  13
ATOM     13  C   UNL     1      36.539  23.887 224.477  1.00  0.00     0.053 C 
BRANCH  13  14
ATOM     14  C   UNL     1      36.509  25.384 224.511  1.00  0.00     0.041 C 
ATOM     15  O   UNL     1      35.766  25.983 225.334  1.00  0.00    -0.550 OA
ATOM     16  O   UNL     1      37.347  26.115 223.681  1.00  0.00    -0.550 OA
ENDBRANCH  13  14
ENDBRANCH  12  13
ENDBRANCH  11  12
ENDBRANCH  10  11
ENDBRANCH   9  10
ENDBRANCH   8   9
ENDBRANCH   7   8
ENDBRANCH   6   7
ENDBRANCH   5   6
ENDBRANCH   4   5
ENDBRANCH   3   4
ENDBRANCH   2   3
ENDBRANCH   1   2
BRANCH   1  17
ATOM     17  C   UNL     1      40.738  19.398 223.704  1.00  0.00     0.000 C 
BRANCH  17  18
ATOM     18  C   UNL     1      42.181  19.918 223.791  1.00  0.00     0.000 C 
BRANCH  18  19
ATOM     19  C   UNL     1      42.372  21.271 223.084  1.00  0.00     0.000 C 
BRANCH  19  20
ATOM     20  C   UNL     1      41.045  22.031 222.914  1.00  0.00     0.000 C 
BRANCH  20  21
ATOM     21  C   UNL     1      41.147  23.500 223.358  1.00  0.00     0.000 C 
BRANCH  21  22
ATOM     22  C   UNL     1      41.846  23.667 224.720  1.00  0.00    -0.000 C 
BRANCH  22  23
ATOM     23  C   UNL     1      41.100  23.053 225.920  1.00  0.00    -0.000 C 
BRANCH  23  24
ATOM     24  C   UNL     1      41.542  23.646 227.269  1.00  0.00    -0.000 C 
BRANCH  24  25
ATOM     25  C   UNL     1      40.605  23.264 228.431  1.00  0.00    -0.000 C 
BRANCH  25  26
ATOM     26  C   UNL     1      39.284  24.052 228.493  1.00  0.00    -0.000 C 
BRANCH  26  27
ATOM     27  C   UNL     1      39.378  25.316 229.366  1.00  0.00    -0.000 C 
BRANCH  27  28
ATOM     28  C   UNL     1      39.259  26.611 228.548  1.00  0.00    -0.000 C 
BRANCH  28  29
ATOM     29  C   UNL     1      38.839  26.354 227.093  1.00  0.00    -0.003 C 
ATOM     30  C   UNL     1      39.949  26.747 226.123  1.00  0.00     0.004 C 
ENDBRANCH  28  29
ENDBRANCH  27  28
ENDBRANCH  26  27
ENDBRANCH  25  26
ENDBRANCH  24  25
ENDBRANCH  23  24
ENDBRANCH  22  23
ENDBRANCH  21  22
ENDBRANCH  20  21
ENDBRANCH  19  20
ENDBRANCH  18  19
ENDBRANCH  17  18
ENDBRANCH   1  17
TORSDOF 26
ENDMDL
MODEL 3
REMARK VINA RESULT:    -4.155      1.196      3.351
REMARK INTER + INTRA:         -15.834
REMARK INTER:                 -10.836
REMARK INTRA:                  -4.997
REMARK UNBOUND:                -5.363
REMARK SMILES CCCCCCCCCCCCCCCCCCCCCCCCCCCC(=O)[O-]
REMARK SMILES IDX 15 1 16 2 17 3 18 4 19 5 20 6 21 7 22 8 23 9 24 10 25 11
REMARK SMILES IDX 26 12 27 13 28 14 29 15 30 16 14 17 13 18 12 19 11 20 10 21
REMARK SMILES IDX 9 22 8 23 7 24 6 25 5 26 4 27 3 28 2 29 1 30
REMARK H PARENT
REMARK Flexibility Score: inf
ROOT
ATOM      1  C   UNL     1      42.339  19.547 224.271  1.00  0.00     0.000 C 
ENDROOT
BRANCH   1   2
ATOM      2  C   UNL     1      41.594  19.460 225.610  1.00  0.00     0.000 C 
BRANCH   2   3
ATOM      3  C   UNL     1      40.288  18.666 225.462  1.00  0.00     0.000 C 
BRANCH   3   4
ATOM      4  C   UNL     1      40.125  17.576 226.536  1.00  0.00     0.000 C 
BRANCH   4   5
ATOM      5  C   UNL     1      38.700  17.431 227.112  1.00  0.00     0.000 C 
BRANCH   5   6
ATOM      6  C   UNL     1      38.482  18.069 228.496  1.00  0.00     0.000 C 
BRANCH   6   7
ATOM      7  C   UNL     1      39.770  18.357 229.293  1.00  0.00     0.000 C 
BRANCH   7   8
ATOM      8  C   UNL     1      39.974  19.849 229.634  1.00  0.00     0.000 C 
BRANCH   8   9
ATOM      9  C   UNL     1      38.904  20.754 228.997  1.00  0.00     0.000 C 
BRANCH   9  10
ATOM     10  C   UNL     1      39.430  21.498 227.758  1.00  0.00     0.000 C 
BRANCH  10  11
ATOM     11  C   UNL     1      38.295  22.076 226.893  1.00  0.00     0.000 C 
BRANCH  11  12
ATOM     12  C   UNL     1      37.050  21.175 226.881  1.00  0.00     0.006 C 
BRANCH  12  13
ATOM     13  C   UNL     1      36.992  20.267 225.645  1.00  0.00     0.053 C 
BRANCH  13  14
ATOM     14  C   UNL     1      35.840  19.318 225.749  1.00  0.00     0.041 C 
ATOM     15  O   UNL     1      34.922  19.524 226.588  1.00  0.00    -0.550 OA
ATOM     16  O   UNL     1      35.744  18.241 224.877  1.00  0.00    -0.550 OA
ENDBRANCH  13  14
ENDBRANCH  12  13
ENDBRANCH  11  12
ENDBRANCH  10  11
ENDBRANCH   9  10
ENDBRANCH   8   9
ENDBRANCH   7   8
ENDBRANCH   6   7
ENDBRANCH   5   6
ENDBRANCH   4   5
ENDBRANCH   3   4
ENDBRANCH   2   3
ENDBRANCH   1   2
BRANCH   1  17
ATOM     17  C   UNL     1      41.368  19.852 223.119  1.00  0.00     0.000 C 
BRANCH  17  18
ATOM     18  C   UNL     1      41.637  21.212 222.456  1.00  0.00     0.000 C 
BRANCH  18  19
ATOM     19  C   UNL     1      41.598  22.381 223.456  1.00  0.00     0.000 C 
BRANCH  19  20
ATOM     20  C   UNL     1      40.166  22.717 223.905  1.00  0.00     0.000 C 
BRANCH  20  21
ATOM     21  C   UNL     1      39.537  23.846 223.071  1.00  0.00     0.000 C 
BRANCH  21  22
ATOM     22  C   UNL     1      38.107  23.521 222.602  1.00  0.00    -0.000 C 
BRANCH  22  23
ATOM     23  C   UNL     1      37.077  23.319 223.730  1.00  0.00    -0.000 C 
BRANCH  23  24
ATOM     24  C   UNL     1      36.126  24.517 223.895  1.00  0.00    -0.000 C 
BRANCH  24  25
ATOM     25  C   UNL     1      36.302  25.246 225.240  1.00  0.00    -0.000 C 
BRANCH  25  26
ATOM     26  C   UNL     1      37.727  25.755 225.527  1.00  0.00    -0.000 C 
BRANCH  26  27
ATOM     27  C   UNL     1      38.175  25.502 226.977  1.00  0.00    -0.000 C 
BRANCH  27  28
ATOM     28  C   UNL     1      39.703  25.446 227.124  1.00  0.00    -0.000 C 
BRANCH  28  29
ATOM     29  C   UNL     1      40.431  26.212 226.008  1.00  0.00    -0.003 C 
ATOM     30  C   UNL     1      40.744  27.642 226.437  1.00  0.00     0.004 C 
ENDBRANCH  28  29
ENDBRANCH  27  28
ENDBRANCH  26  27
ENDBRANCH  25  26
ENDBRANCH  24  25
ENDBRANCH  23  24
ENDBRANCH  22  23
ENDBRANCH  21  22
ENDBRANCH  20  21
ENDBRANCH  19  20
ENDBRANCH  18  19
ENDBRANCH  17  18
ENDBRANCH   1  17
TORSDOF 26
ENDMDL
MODEL 4
REMARK VINA RESULT:    -4.144      1.504      2.520
REMARK INTER + INTRA:         -15.807
REMARK INTER:                 -10.324
REMARK INTRA:                  -5.483
REMARK UNBOUND:                -5.363
REMARK SMILES CCCCCCCCCCCCCCCCCCCCCCCCCCCC(=O)[O-]
REMARK SMILES IDX 15 1 16 2 17 3 18 4 19 5 20 6 21 7 22 8 23 9 24 10 25 11
REMARK SMILES IDX 26 12 27 13 28 14 29 15 30 16 14 17 13 18 12 19 11 20 10 21
REMARK SMILES IDX 9 22 8 23 7 24 6 25 5 26 4 27 3 28 2 29 1 30
REMARK H PARENT
REMARK Flexibility Score: inf
ROOT
ATOM      1  C   UNL     1      41.784  23.353 224.564  1.00  0.00     0.000 C 
ENDROOT
BRANCH   1   2
ATOM      2  C   UNL     1      40.887  23.487 223.327  1.00  0.00     0.000 C 
BRANCH   2   3
ATOM      3  C   UNL     1      40.681  22.125 222.647  1.00  0.00     0.000 C 
BRANCH   3   4
ATOM      4  C   UNL     1      41.650  21.046 223.161  1.00  0.00     0.000 C 
BRANCH   4   5
ATOM      5  C   UNL     1      41.020  19.657 223.396  1.00  0.00     0.000 C 
BRANCH   5   6
ATOM      6  C   UNL     1      40.144  19.537 224.656  1.00  0.00     0.000 C 
BRANCH   6   7
ATOM      7  C   UNL     1      40.775  20.096 225.946  1.00  0.00     0.000 C 
BRANCH   7   8
ATOM      8  C   UNL     1      39.799  20.919 226.815  1.00  0.00     0.000 C 
BRANCH   8   9
ATOM      9  C   UNL     1      38.726  21.639 225.979  1.00  0.00     0.000 C 
BRANCH   9  10
ATOM     10  C   UNL     1      37.298  21.273 226.421  1.00  0.00     0.000 C 
BRANCH  10  11
ATOM     11  C   UNL     1      36.576  20.378 225.397  1.00  0.00     0.000 C 
BRANCH  11  12
ATOM     12  C   UNL     1      36.673  18.887 225.751  1.00  0.00     0.006 C 
BRANCH  12  13
ATOM     13  C   UNL     1      36.208  18.590 227.183  1.00  0.00     0.053 C 
BRANCH  13  14
ATOM     14  C   UNL     1      37.303  17.929 227.961  1.00  0.00     0.041 C 
ATOM     15  O   UNL     1      37.776  16.825 227.576  1.00  0.00    -0.550 OA
ATOM     16  O   UNL     1      37.848  18.561 229.071  1.00  0.00    -0.550 OA
ENDBRANCH  13  14
ENDBRANCH  12  13
ENDBRANCH  11  12
ENDBRANCH  10  11
ENDBRANCH   9  10
ENDBRANCH   8   9
ENDBRANCH   7   8
ENDBRANCH   6   7
ENDBRANCH   5   6
ENDBRANCH   4   5
ENDBRANCH   3   4
ENDBRANCH   2   3
ENDBRANCH   1   2
BRANCH   1  17
ATOM     17  C   UNL     1      42.043  24.724 225.208  1.00  0.00     0.000 C 
BRANCH  17  18
ATOM     18  C   UNL     1      42.794  24.624 226.545  1.00  0.00     0.000 C 
BRANCH  18  19
ATOM     19  C   UNL     1      41.992  23.878 227.626  1.00  0.00     0.000 C 
BRANCH  19  20
ATOM     20  C   UNL     1      41.632  24.786 228.814  1.00  0.00     0.000 C 
BRANCH  20  21
ATOM     21  C   UNL     1      40.289  25.510 228.617  1.00  0.00     0.000 C 
BRANCH  21  22
ATOM     22  C   UNL     1      39.132  24.547 228.287  1.00  0.00    -0.000 C 
BRANCH  22  23
ATOM     23  C   UNL     1      38.187  25.019 227.166  1.00  0.00    -0.000 C 
BRANCH  23  24
ATOM     24  C   UNL     1      38.922  25.757 226.032  1.00  0.00    -0.000 C 
BRANCH  24  25
ATOM     25  C   UNL     1      38.163  25.711 224.693  1.00  0.00    -0.000 C 
BRANCH  25  26
ATOM     26  C   UNL     1      36.646  25.470 224.808  1.00  0.00    -0.000 C 
BRANCH  26  27
ATOM     27  C   UNL     1      36.208  24.110 224.236  1.00  0.00    -0.000 C 
BRANCH  27  28
ATOM     28  C   UNL     1      37.215  23.541 223.225  1.00  0.00    -0.000 C 
BRANCH  28  29
ATOM     29  C   UNL     1      36.847  23.876 221.772  1.00  0.00    -0.003 C 
ATOM     30  C   UNL     1      35.368  23.613 221.505  1.00  0.00     0.004 C 
ENDBRANCH  28  29
ENDBRANCH  27  28
ENDBRANCH  26  27
ENDBRANCH  25  26
ENDBRANCH  24  25
ENDBRANCH  23  24
ENDBRANCH  22  23
ENDBRANCH  21  22
ENDBRANCH  20  21
ENDBRANCH  19  20
ENDBRANCH  18  19
ENDBRANCH  17  18
ENDBRANCH   1  17
TORSDOF 26
ENDMDL
MODEL 5
REMARK VINA RESULT:    -4.114      1.962      4.061
REMARK INTER + INTRA:         -15.731
REMARK INTER:                 -10.721
REMARK INTRA:                  -5.010
REMARK UNBOUND:                -5.363
REMARK SMILES CCCCCCCCCCCCCCCCCCCCCCCCCCCC(=O)[O-]
REMARK SMILES IDX 15 1 16 2 17 3 18 4 19 5 20 6 21 7 22 8 23 9 24 10 25 11
REMARK SMILES IDX 26 12 27 13 28 14 29 15 30 16 14 17 13 18 12 19 11 20 10 21
REMARK SMILES IDX 9 22 8 23 7 24 6 25 5 26 4 27 3 28 2 29 1 30
REMARK H PARENT
REMARK Flexibility Score: inf
ROOT
ATOM      1  C   UNL     1      40.510  18.797 225.844  1.00  0.00     0.000 C 
ENDROOT
BRANCH   1   2
ATOM      2  C   UNL     1      39.345  17.824 226.065  1.00  0.00     0.000 C 
BRANCH   2   3
ATOM      3  C   UNL     1      38.988  17.723 227.555  1.00  0.00     0.000 C 
BRANCH   3   4
ATOM      4  C   UNL     1      37.566  18.223 227.865  1.00  0.00     0.000 C 
BRANCH   4   5
ATOM      5  C   UNL     1      36.493  17.838 226.825  1.00  0.00     0.000 C 
BRANCH   5   6
ATOM      6  C   UNL     1      35.840  19.021 226.085  1.00  0.00     0.000 C 
BRANCH   6   7
ATOM      7  C   UNL     1      36.289  20.416 226.560  1.00  0.00     0.000 C 
BRANCH   7   8
ATOM      8  C   UNL     1      37.128  21.191 225.521  1.00  0.00     0.000 C 
BRANCH   8   9
ATOM      9  C   UNL     1      38.136  22.154 226.173  1.00  0.00     0.000 C 
BRANCH   9  10
ATOM     10  C   UNL     1      38.366  21.840 227.662  1.00  0.00     0.000 C 
BRANCH  10  11
ATOM     11  C   UNL     1      39.858  21.686 228.007  1.00  0.00     0.000 C 
BRANCH  11  12
ATOM     12  C   UNL     1      40.078  21.084 229.404  1.00  0.00     0.006 C 
BRANCH  12  13
ATOM     13  C   UNL     1      38.764  20.880 230.170  1.00  0.00     0.053 C 
BRANCH  13  14
ATOM     14  C   UNL     1      38.832  19.636 231.000  1.00  0.00     0.041 C 
ATOM     15  O   UNL     1      37.827  19.261 231.662  1.00  0.00    -0.550 OA
ATOM     16  O   UNL     1      39.981  18.857 230.993  1.00  0.00    -0.550 OA
ENDBRANCH  13  14
ENDBRANCH  12  13
ENDBRANCH  11  12
ENDBRANCH  10  11
ENDBRANCH   9  10
ENDBRANCH   8   9
ENDBRANCH   7   8
ENDBRANCH   6   7
ENDBRANCH   5   6
ENDBRANCH   4   5
ENDBRANCH   3   4
ENDBRANCH   2   3
ENDBRANCH   1   2
BRANCH   1  17
ATOM     17  C   UNL     1      40.230  19.733 224.658  1.00  0.00     0.000 C 
BRANCH  17  18
ATOM     18  C   UNL     1      41.071  19.395 223.418  1.00  0.00     0.000 C 
BRANCH  18  19
ATOM     19  C   UNL     1      41.315  20.614 222.511  1.00  0.00     0.000 C 
BRANCH  19  20
ATOM     20  C   UNL     1      42.164  21.694 223.203  1.00  0.00     0.000 C 
BRANCH  20  21
ATOM     21  C   UNL     1      41.382  22.998 223.434  1.00  0.00     0.000 C 
BRANCH  21  22
ATOM     22  C   UNL     1      41.291  23.388 224.922  1.00  0.00    -0.000 C 
BRANCH  22  23
ATOM     23  C   UNL     1      42.316  24.439 225.388  1.00  0.00    -0.000 C 
BRANCH  23  24
ATOM     24  C   UNL     1      41.763  25.375 226.477  1.00  0.00    -0.000 C 
BRANCH  24  25
ATOM     25  C   UNL     1      40.233  25.282 226.632  1.00  0.00    -0.000 C 
BRANCH  25  26
ATOM     26  C   UNL     1      39.428  26.285 225.785  1.00  0.00    -0.000 C 
BRANCH  26  27
ATOM     27  C   UNL     1      38.076  25.723 225.311  1.00  0.00    -0.000 C 
BRANCH  27  28
ATOM     28  C   UNL     1      38.116  25.233 223.855  1.00  0.00    -0.000 C 
BRANCH  28  29
ATOM     29  C   UNL     1      36.715  25.083 223.244  1.00  0.00    -0.003 C 
ATOM     30  C   UNL     1      36.373  23.614 223.011  1.00  0.00     0.004 C 
ENDBRANCH  28  29
ENDBRANCH  27  28
ENDBRANCH  26  27
ENDBRANCH  25  26
ENDBRANCH  24  25
ENDBRANCH  23  24
ENDBRANCH  22  23
ENDBRANCH  21  22
ENDBRANCH  20  21
ENDBRANCH  19  20
ENDBRANCH  18  19
ENDBRANCH  17  18
ENDBRANCH   1  17
TORSDOF 26
ENDMDL
MODEL 6
REMARK VINA RESULT:    -4.068      2.774      7.321
REMARK INTER + INTRA:         -15.614
REMARK INTER:                 -10.362
REMARK INTRA:                  -5.252
REMARK UNBOUND:                -5.363
REMARK SMILES CCCCCCCCCCCCCCCCCCCCCCCCCCCC(=O)[O-]
REMARK SMILES IDX 15 1 16 2 17 3 18 4 19 5 20 6 21 7 22 8 23 9 24 10 25 11
REMARK SMILES IDX 26 12 27 13 28 14 29 15 30 16 14 17 13 18 12 19 11 20 10 21
REMARK SMILES IDX 9 22 8 23 7 24 6 25 5 26 4 27 3 28 2 29 1 30
REMARK H PARENT
REMARK Flexibility Score: inf
ROOT
ATOM      1  C   UNL     1      37.860  24.206 227.135  1.00  0.00     0.000 C 
ENDROOT
BRANCH   1   2
ATOM      2  C   UNL     1      38.049  25.015 225.846  1.00  0.00     0.000 C 
BRANCH   2   3
ATOM      3  C   UNL     1      36.705  25.541 225.324  1.00  0.00     0.000 C 
BRANCH   3   4
ATOM      4  C   UNL     1      36.005  24.557 224.370  1.00  0.00     0.000 C 
BRANCH   4   5
ATOM      5  C   UNL     1      36.541  24.552 222.923  1.00  0.00     0.000 C 
BRANCH   5   6
ATOM      6  C   UNL     1      37.492  23.391 222.578  1.00  0.00     0.000 C 
BRANCH   6   7
ATOM      7  C   UNL     1      38.979  23.778 222.460  1.00  0.00     0.000 C 
BRANCH   7   8
ATOM      8  C   UNL     1      39.890  23.084 223.495  1.00  0.00     0.000 C 
BRANCH   8   9
ATOM      9  C   UNL     1      41.228  23.820 223.694  1.00  0.00     0.000 C 
BRANCH   9  10
ATOM     10  C   UNL     1      41.759  23.689 225.132  1.00  0.00     0.000 C 
BRANCH  10  11
ATOM     11  C   UNL     1      42.481  24.962 225.611  1.00  0.00     0.000 C 
BRANCH  11  12
ATOM     12  C   UNL     1      41.724  25.674 226.742  1.00  0.00     0.006 C 
BRANCH  12  13
ATOM     13  C   UNL     1      41.095  26.998 226.287  1.00  0.00     0.053 C 
BRANCH  13  14
ATOM     14  C   UNL     1      40.470  27.705 227.449  1.00  0.00     0.041 C 
ATOM     15  O   UNL     1      41.193  28.315 228.283  1.00  0.00    -0.550 OA
ATOM     16  O   UNL     1      39.088  27.747 227.577  1.00  0.00    -0.550 OA
ENDBRANCH  13  14
ENDBRANCH  12  13
ENDBRANCH  11  12
ENDBRANCH  10  11
ENDBRANCH   9  10
ENDBRANCH   8   9
ENDBRANCH   7   8
ENDBRANCH   6   7
ENDBRANCH   5   6
ENDBRANCH   4   5
ENDBRANCH   3   4
ENDBRANCH   2   3
ENDBRANCH   1   2
BRANCH   1  17
ATOM     17  C   UNL     1      39.057  23.275 227.384  1.00  0.00     0.000 C 
BRANCH  17  18
ATOM     18  C   UNL     1      38.799  21.834 226.918  1.00  0.00     0.000 C 
BRANCH  18  19
ATOM     19  C   UNL     1      37.305  21.532 226.711  1.00  0.00     0.000 C 
BRANCH  19  20
ATOM     20  C   UNL     1      37.008  21.000 225.298  1.00  0.00     0.000 C 
BRANCH  20  21
ATOM     21  C   UNL     1      36.126  19.740 225.317  1.00  0.00     0.000 C 
BRANCH  21  22
ATOM     22  C   UNL     1      35.862  19.213 226.740  1.00  0.00    -0.000 C 
BRANCH  22  23
ATOM     23  C   UNL     1      36.489  17.843 227.058  1.00  0.00    -0.000 C 
BRANCH  23  24
ATOM     24  C   UNL     1      37.491  17.897 228.225  1.00  0.00    -0.000 C 
BRANCH  24  25
ATOM     25  C   UNL     1      38.915  18.279 227.780  1.00  0.00    -0.000 C 
BRANCH  25  26
ATOM     26  C   UNL     1      39.329  17.755 226.392  1.00  0.00    -0.000 C 
BRANCH  26  27
ATOM     27  C   UNL     1      40.842  17.871 226.132  1.00  0.00    -0.000 C 
BRANCH  27  28
ATOM     28  C   UNL     1      41.246  19.254 225.601  1.00  0.00    -0.000 C 
BRANCH  28  29
ATOM     29  C   UNL     1      40.394  19.700 224.403  1.00  0.00    -0.003 C 
ATOM     30  C   UNL     1      41.105  19.409 223.085  1.00  0.00     0.004 C 
ENDBRANCH  28  29
ENDBRANCH  27  28
ENDBRANCH  26  27
ENDBRANCH  25  26
ENDBRANCH  24  25
ENDBRANCH  23  24
ENDBRANCH  22  23
ENDBRANCH  21  22
ENDBRANCH  20  21
ENDBRANCH  19  20
ENDBRANCH  18  19
ENDBRANCH  17  18
ENDBRANCH   1  17
TORSDOF 26
ENDMDL
MODEL 7
REMARK VINA RESULT:    -4.045      1.400      4.005
REMARK INTER + INTRA:         -15.556
REMARK INTER:                 -10.267
REMARK INTRA:                  -5.289
REMARK UNBOUND:                -5.363
REMARK SMILES CCCCCCCCCCCCCCCCCCCCCCCCCCCC(=O)[O-]
REMARK SMILES IDX 15 1 16 2 17 3 18 4 19 5 20 6 21 7 22 8 23 9 24 10 25 11
REMARK SMILES IDX 26 12 27 13 28 14 29 15 30 16 14 17 13 18 12 19 11 20 10 21
REMARK SMILES IDX 9 22 8 23 7 24 6 25 5 26 4 27 3 28 2 29 1 30
REMARK H PARENT
REMARK Flexibility Score: inf
ROOT
ATOM      1  C   UNL     1      40.631  22.325 222.625  1.00  0.00     0.000 C 
ENDROOT
BRANCH   1   2
ATOM      2  C   UNL     1      40.874  23.628 223.397  1.00  0.00     0.000 C 
BRANCH   2   3
ATOM      3  C   UNL     1      41.752  23.381 224.632  1.00  0.00     0.000 C 
BRANCH   3   4
ATOM      4  C   UNL     1      42.137  24.680 225.363  1.00  0.00     0.000 C 
BRANCH   4   5
ATOM      5  C   UNL     1      42.715  24.488 226.781  1.00  0.00     0.000 C 
BRANCH   5   6
ATOM      6  C   UNL     1      41.688  24.114 227.865  1.00  0.00     0.000 C 
BRANCH   6   7
ATOM      7  C   UNL     1      42.029  22.851 228.680  1.00  0.00     0.000 C 
BRANCH   7   8
ATOM      8  C   UNL     1      40.881  21.820 228.749  1.00  0.00     0.000 C 
BRANCH   8   9
ATOM      9  C   UNL     1      40.366  21.602 230.183  1.00  0.00     0.000 C 
BRANCH   9  10
ATOM     10  C   UNL     1      38.925  21.064 230.212  1.00  0.00     0.000 C 
BRANCH  10  11
ATOM     11  C   UNL     1      38.580  20.238 228.959  1.00  0.00     0.000 C 
BRANCH  11  12
ATOM     12  C   UNL     1      38.377  18.749 229.276  1.00  0.00     0.006 C 
BRANCH  12  13
ATOM     13  C   UNL     1      38.480  17.862 228.028  1.00  0.00     0.053 C 
BRANCH  13  14
ATOM     14  C   UNL     1      37.115  17.499 227.531  1.00  0.00     0.041 C 
ATOM     15  O   UNL     1      36.550  18.209 226.657  1.00  0.00    -0.550 OA
ATOM     16  O   UNL     1      36.495  16.342 227.984  1.00  0.00    -0.550 OA
ENDBRANCH  13  14
ENDBRANCH  12  13
ENDBRANCH  11  12
ENDBRANCH  10  11
ENDBRANCH   9  10
ENDBRANCH   8   9
ENDBRANCH   7   8
ENDBRANCH   6   7
ENDBRANCH   5   6
ENDBRANCH   4   5
ENDBRANCH   3   4
ENDBRANCH   2   3
ENDBRANCH   1   2
BRANCH   1  17
ATOM     17  C   UNL     1      41.815  21.359 222.788  1.00  0.00     0.000 C 
BRANCH  17  18
ATOM     18  C   UNL     1      41.377  19.889 222.887  1.00  0.00     0.000 C 
BRANCH  18  19
ATOM     19  C   UNL     1      41.397  19.357 224.331  1.00  0.00     0.000 C 
BRANCH  19  20
ATOM     20  C   UNL     1      39.985  19.244 224.929  1.00  0.00     0.000 C 
BRANCH  20  21
ATOM     21  C   UNL     1      39.507  20.561 225.564  1.00  0.00     0.000 C 
BRANCH  21  22
ATOM     22  C   UNL     1      38.033  20.878 225.250  1.00  0.00    -0.000 C 
BRANCH  22  23
ATOM     23  C   UNL     1      37.445  22.081 226.012  1.00  0.00    -0.000 C 
BRANCH  23  24
ATOM     24  C   UNL     1      38.518  23.086 226.467  1.00  0.00    -0.000 C 
BRANCH  24  25
ATOM     25  C   UNL     1      38.002  24.536 226.519  1.00  0.00    -0.000 C 
BRANCH  25  26
ATOM     26  C   UNL     1      38.559  25.469 225.426  1.00  0.00    -0.000 C 
BRANCH  26  27
ATOM     27  C   UNL     1      37.525  25.802 224.336  1.00  0.00    -0.000 C 
BRANCH  27  28
ATOM     28  C   UNL     1      36.191  25.068 224.540  1.00  0.00    -0.000 C 
BRANCH  28  29
ATOM     29  C   UNL     1      35.852  24.125 223.376  1.00  0.00    -0.003 C 
ATOM     30  C   UNL     1      37.106  23.741 222.596  1.00  0.00     0.004 C 
ENDBRANCH  28  29
ENDBRANCH  27  28
ENDBRANCH  26  27
ENDBRANCH  25  26
ENDBRANCH  24  25
ENDBRANCH  23  24
ENDBRANCH  22  23
ENDBRANCH  21  22
ENDBRANCH  20  21
ENDBRANCH  19  20
ENDBRANCH  18  19
ENDBRANCH  17  18
ENDBRANCH   1  17
TORSDOF 26
ENDMDL
MODEL 8
REMARK VINA RESULT:    -3.991      2.104      4.638
REMARK INTER + INTRA:         -15.421
REMARK INTER:                  -9.851
REMARK INTRA:                  -5.569
REMARK UNBOUND:                -5.363
REMARK SMILES CCCCCCCCCCCCCCCCCCCCCCCCCCCC(=O)[O-]
REMARK SMILES IDX 15 1 16 2 17 3 18 4 19 5 20 6 21 7 22 8 23 9 24 10 25 11
REMARK SMILES IDX 26 12 27 13 28 14 29 15 30 16 14 17 13 18 12 19 11 20 10 21
REMARK SMILES IDX 9 22 8 23 7 24 6 25 5 26 4 27 3 28 2 29 1 30
REMARK H PARENT
REMARK Flexibility Score: inf
ROOT
ATOM      1  C   UNL     1      41.031  20.962 225.676  1.00  0.00     0.000 C 
ENDROOT
BRANCH   1   2
ATOM      2  C   UNL     1      40.161  20.186 224.678  1.00  0.00     0.000 C 
BRANCH   2   3
ATOM      3  C   UNL     1      39.878  18.764 225.183  1.00  0.00     0.000 C 
BRANCH   3   4
ATOM      4  C   UNL     1      39.868  18.665 226.719  1.00  0.00     0.000 C 
BRANCH   4   5
ATOM      5  C   UNL     1      38.844  17.670 227.305  1.00  0.00     0.000 C 
BRANCH   5   6
ATOM      6  C   UNL     1      37.502  18.287 227.741  1.00  0.00     0.000 C 
BRANCH   6   7
ATOM      7  C   UNL     1      36.438  18.388 226.629  1.00  0.00     0.000 C 
BRANCH   7   8
ATOM      8  C   UNL     1      36.250  19.816 226.071  1.00  0.00     0.000 C 
BRANCH   8   9
ATOM      9  C   UNL     1      36.846  20.895 226.993  1.00  0.00     0.000 C 
BRANCH   9  10
ATOM     10  C   UNL     1      37.457  22.066 226.203  1.00  0.00     0.000 C 
BRANCH  10  11
ATOM     11  C   UNL     1      37.105  22.013 224.705  1.00  0.00     0.000 C 
BRANCH  11  12
ATOM     12  C   UNL     1      37.871  23.062 223.885  1.00  0.00     0.006 C 
BRANCH  12  13
ATOM     13  C   UNL     1      36.937  24.056 223.181  1.00  0.00     0.053 C 
BRANCH  13  14
ATOM     14  C   UNL     1      36.311  24.980 224.179  1.00  0.00     0.041 C 
ATOM     15  O   UNL     1      36.935  26.002 224.575  1.00  0.00    -0.550 OA
ATOM     16  O   UNL     1      35.016  24.751 224.622  1.00  0.00    -0.550 OA
ENDBRANCH  13  14
ENDBRANCH  12  13
ENDBRANCH  11  12
ENDBRANCH  10  11
ENDBRANCH   9  10
ENDBRANCH   8   9
ENDBRANCH   7   8
ENDBRANCH   6   7
ENDBRANCH   5   6
ENDBRANCH   4   5
ENDBRANCH   3   4
ENDBRANCH   2   3
ENDBRANCH   1   2
BRANCH   1  17
ATOM     17  C   UNL     1      41.281  22.398 225.190  1.00  0.00     0.000 C 
BRANCH  17  18
ATOM     18  C   UNL     1      41.833  23.314 226.294  1.00  0.00     0.000 C 
BRANCH  18  19
ATOM     19  C   UNL     1      41.729  24.807 225.938  1.00  0.00     0.000 C 
BRANCH  19  20
ATOM     20  C   UNL     1      40.285  25.230 225.616  1.00  0.00     0.000 C 
BRANCH  20  21
ATOM     21  C   UNL     1      39.955  26.639 226.137  1.00  0.00     0.000 C 
BRANCH  21  22
ATOM     22  C   UNL     1      39.570  26.653 227.628  1.00  0.00    -0.000 C 
BRANCH  22  23
ATOM     23  C   UNL     1      38.685  25.479 228.087  1.00  0.00    -0.000 C 
BRANCH  23  24
ATOM     24  C   UNL     1      39.052  24.963 229.490  1.00  0.00    -0.000 C 
BRANCH  24  25
ATOM     25  C   UNL     1      40.091  23.826 229.461  1.00  0.00    -0.000 C 
BRANCH  25  26
ATOM     26  C   UNL     1      39.529  22.435 229.112  1.00  0.00    -0.000 C 
BRANCH  26  27
ATOM     27  C   UNL     1      40.550  21.303 229.326  1.00  0.00    -0.000 C 
BRANCH  27  28
ATOM     28  C   UNL     1      40.085  20.276 230.369  1.00  0.00    -0.000 C 
BRANCH  28  29
ATOM     29  C   UNL     1      38.567  20.315 230.600  1.00  0.00    -0.003 C 
ATOM     30  C   UNL     1      38.175  19.482 231.817  1.00  0.00     0.004 C 
ENDBRANCH  28  29
ENDBRANCH  27  28
ENDBRANCH  26  27
ENDBRANCH  25  26
ENDBRANCH  24  25
ENDBRANCH  23  24
ENDBRANCH  22  23
ENDBRANCH  21  22
ENDBRANCH  20  21
ENDBRANCH  19  20
ENDBRANCH  18  19
ENDBRANCH  17  18
ENDBRANCH   1  17
TORSDOF 26
ENDMDL
MODEL 9
REMARK VINA RESULT:    -3.988      2.174      3.414
REMARK INTER + INTRA:         -15.413
REMARK INTER:                 -10.978
REMARK INTRA:                  -4.434
REMARK UNBOUND:                -5.363
REMARK SMILES CCCCCCCCCCCCCCCCCCCCCCCCCCCC(=O)[O-]
REMARK SMILES IDX 15 1 16 2 17 3 18 4 19 5 20 6 21 7 22 8 23 9 24 10 25 11
REMARK SMILES IDX 26 12 27 13 28 14 29 15 30 16 14 17 13 18 12 19 11 20 10 21
REMARK SMILES IDX 9 22 8 23 7 24 6 25 5 26 4 27 3 28 2 29 1 30
REMARK H PARENT
REMARK Flexibility Score: inf
ROOT
ATOM      1  C   UNL     1      41.623  22.142 222.974  1.00  0.00     0.000 C 
ENDROOT
BRANCH   1   2
ATOM      2  C   UNL     1      41.419  20.785 222.290  1.00  0.00     0.000 C 
BRANCH   2   3
ATOM      3  C   UNL     1      41.523  19.636 223.304  1.00  0.00     0.000 C 
BRANCH   3   4
ATOM      4  C   UNL     1      41.919  20.114 224.712  1.00  0.00     0.000 C 
BRANCH   4   5
ATOM      5  C   UNL     1      40.814  19.988 225.782  1.00  0.00     0.000 C 
BRANCH   5   6
ATOM      6  C   UNL     1      39.371  20.103 225.256  1.00  0.00     0.000 C 
BRANCH   6   7
ATOM      7  C   UNL     1      38.534  21.233 225.889  1.00  0.00     0.000 C 
BRANCH   7   8
ATOM      8  C   UNL     1      37.713  20.789 227.119  1.00  0.00     0.000 C 
BRANCH   8   9
ATOM      9  C   UNL     1      36.334  20.223 226.736  1.00  0.00     0.000 C 
BRANCH   9  10
ATOM     10  C   UNL     1      36.282  18.689 226.839  1.00  0.00     0.000 C 
BRANCH  10  11
ATOM     11  C   UNL     1      37.274  18.135 227.878  1.00  0.00     0.000 C 
BRANCH  11  12
ATOM     12  C   UNL     1      38.308  17.185 227.254  1.00  0.00     0.006 C 
BRANCH  12  13
ATOM     13  C   UNL     1      39.692  17.310 227.905  1.00  0.00     0.053 C 
BRANCH  13  14
ATOM     14  C   UNL     1      40.084  16.018 228.550  1.00  0.00     0.041 C 
ATOM     15  O   UNL     1      40.986  15.302 228.036  1.00  0.00    -0.550 OA
ATOM     16  O   UNL     1      39.502  15.635 229.751  1.00  0.00    -0.550 OA
ENDBRANCH  13  14
ENDBRANCH  12  13
ENDBRANCH  11  12
ENDBRANCH  10  11
ENDBRANCH   9  10
ENDBRANCH   8   9
ENDBRANCH   7   8
ENDBRANCH   6   7
ENDBRANCH   5   6
ENDBRANCH   4   5
ENDBRANCH   3   4
ENDBRANCH   2   3
ENDBRANCH   1   2
BRANCH   1  17
ATOM     17  C   UNL     1      40.310  22.940 223.018  1.00  0.00     0.000 C 
BRANCH  17  18
ATOM     18  C   UNL     1      40.412  24.211 223.876  1.00  0.00     0.000 C 
BRANCH  18  19
ATOM     19  C   UNL     1      40.903  23.927 225.306  1.00  0.00     0.000 C 
BRANCH  19  20
ATOM     20  C   UNL     1      41.028  25.210 226.144  1.00  0.00     0.000 C 
BRANCH  20  21
ATOM     21  C   UNL     1      39.675  25.913 226.350  1.00  0.00     0.000 C 
BRANCH  21  22
ATOM     22  C   UNL     1      38.678  25.068 227.164  1.00  0.00    -0.000 C 
BRANCH  22  23
ATOM     23  C   UNL     1      37.377  24.698 226.426  1.00  0.00    -0.000 C 
BRANCH  23  24
ATOM     24  C   UNL     1      37.173  25.501 225.130  1.00  0.00    -0.000 C 
BRANCH  24  25
ATOM     25  C   UNL     1      36.121  24.878 224.193  1.00  0.00    -0.000 C 
BRANCH  25  26
ATOM     26  C   UNL     1      36.485  23.490 223.632  1.00  0.00    -0.000 C 
BRANCH  26  27
ATOM     27  C   UNL     1      36.121  23.329 222.145  1.00  0.00    -0.000 C 
BRANCH  27  28
ATOM     28  C   UNL     1      37.271  23.728 221.208  1.00  0.00    -0.000 C 
BRANCH  28  29
ATOM     29  C   UNL     1      36.974  23.401 219.737  1.00  0.00    -0.003 C 
ATOM     30  C   UNL     1      35.719  24.125 219.255  1.00  0.00     0.004 C 
ENDBRANCH  28  29
ENDBRANCH  27  28
ENDBRANCH  26  27
ENDBRANCH  25  26
ENDBRANCH  24  25
ENDBRANCH  23  24
ENDBRANCH  22  23
ENDBRANCH  21  22
ENDBRANCH  20  21
ENDBRANCH  19  20
ENDBRANCH  18  19
ENDBRANCH  17  18
ENDBRANCH   1  17
TORSDOF 26
ENDMDL
