MODEL 1
REMARK VINA RESULT:    -3.317      0.000      0.000
REMARK INTER + INTRA:          -3.317
REMARK INTER:                  -3.317
REMARK INTRA:                   0.000
REMARK UNBOUND:                 0.000
REMARK SMILES CC1(C)O[C@]2(C)CC[C@H]1CC2
REMARK SMILES IDX 1 1 2 2 9 3 10 4 11 5 5 6 4 7 7 8 8 9 6 10 3 11
REMARK H PARENT
REMARK Flexibility Score: inf
ROOT
ATOM      1  C   UNL     1      58.186   6.901  31.405  1.00  0.00     0.042 C 
ATOM      2  C   UNL     1      59.433   6.039  31.113  1.00  0.00     0.066 C 
ATOM      3  C   UNL     1      59.865   5.230  32.397  1.00  0.00     0.021 C 
ATOM      4  C   UNL     1      61.145   4.428  32.062  1.00  0.00     0.009 C 
ATOM      5  C   UNL     1      62.198   5.382  31.449  1.00  0.00     0.035 C 
ATOM      6  C   UNL     1      61.657   6.840  31.458  1.00  0.00     0.066 C 
ATOM      7  O   UNL     1      60.479   6.908  30.654  1.00  0.00    -0.369 OA
ATOM      8  C   UNL     1      61.301   7.238  32.920  1.00  0.00     0.035 C 
ATOM      9  C   UNL     1      60.269   6.240  33.499  1.00  0.00     0.009 C 
ATOM     10  C   UNL     1      62.704   7.801  30.885  1.00  0.00     0.042 C 
ATOM     11  C   UNL     1      59.067   5.079  29.961  1.00  0.00     0.042 C 
ENDROOT
TORSDOF 0
ENDMDL
MODEL 2
REMARK VINA RESULT:    -3.208      0.978      3.321
REMARK INTER + INTRA:          -3.208
REMARK INTER:                  -3.208
REMARK INTRA:                   0.000
REMARK UNBOUND:                 0.000
REMARK SMILES CC1(C)O[C@]2(C)CC[C@H]1CC2
REMARK SMILES IDX 1 1 2 2 9 3 10 4 11 5 5 6 4 7 7 8 8 9 6 10 3 11
REMARK H PARENT
REMARK Flexibility Score: inf
ROOT
ATOM      1  C   UNL     1      62.850   5.530  31.274  1.00  0.00     0.042 C 
ATOM      2  C   UNL     1      61.919   6.664  31.754  1.00  0.00     0.066 C 
ATOM      3  C   UNL     1      61.500   6.443  33.259  1.00  0.00     0.021 C 
ATOM      4  C   UNL     1      60.530   7.576  33.669  1.00  0.00     0.009 C 
ATOM      5  C   UNL     1      59.386   7.668  32.631  1.00  0.00     0.035 C 
ATOM      6  C   UNL     1      59.541   6.536  31.575  1.00  0.00     0.066 C 
ATOM      7  O   UNL     1      60.779   6.705  30.884  1.00  0.00    -0.369 OA
ATOM      8  C   UNL     1      59.546   5.161  32.305  1.00  0.00     0.035 C 
ATOM      9  C   UNL     1      60.686   5.128  33.352  1.00  0.00     0.009 C 
ATOM     10  C   UNL     1      58.395   6.594  30.559  1.00  0.00     0.042 C 
ATOM     11  C   UNL     1      62.693   7.991  31.594  1.00  0.00     0.042 C 
ENDROOT
TORSDOF 0
ENDMDL
MODEL 3
REMARK VINA RESULT:    -3.130     21.221     22.720
REMARK INTER + INTRA:          -3.130
REMARK INTER:                  -3.130
REMARK INTRA:                   0.000
REMARK UNBOUND:                 0.000
REMARK SMILES CC1(C)O[C@]2(C)CC[C@H]1CC2
REMARK SMILES IDX 1 1 2 2 9 3 10 4 11 5 5 6 4 7 7 8 8 9 6 10 3 11
REMARK H PARENT
REMARK Flexibility Score: inf
ROOT
ATOM      1  C   UNL     1      78.125   9.236  47.814  1.00  0.00     0.042 C 
ATOM      2  C   UNL     1      77.023  10.291  48.053  1.00  0.00     0.066 C 
ATOM      3  C   UNL     1      75.594   9.625  48.007  1.00  0.00     0.021 C 
ATOM      4  C   UNL     1      74.530  10.732  48.200  1.00  0.00     0.009 C 
ATOM      5  C   UNL     1      74.801  11.878  47.196  1.00  0.00     0.035 C 
ATOM      6  C   UNL     1      75.991  11.496  46.268  1.00  0.00     0.066 C 
ATOM      7  O   UNL     1      77.165  11.318  47.061  1.00  0.00    -0.369 OA
ATOM      8  C   UNL     1      75.656  10.161  45.542  1.00  0.00     0.035 C 
ATOM      9  C   UNL     1      75.365   9.055  46.585  1.00  0.00     0.009 C 
ATOM     10  C   UNL     1      76.248  12.609  45.246  1.00  0.00     0.042 C 
ATOM     11  C   UNL     1      77.286  10.922  49.438  1.00  0.00     0.042 C 
ENDROOT
TORSDOF 0
ENDMDL
MODEL 4
REMARK VINA RESULT:    -3.079     19.987     21.456
REMARK INTER + INTRA:          -3.079
REMARK INTER:                  -3.079
REMARK INTRA:                   0.000
REMARK UNBOUND:                 0.000
REMARK SMILES CC1(C)O[C@]2(C)CC[C@H]1CC2
REMARK SMILES IDX 1 1 2 2 9 3 10 4 11 5 5 6 4 7 7 8 8 9 6 10 3 11
REMARK H PARENT
REMARK Flexibility Score: inf
ROOT
ATOM      1  C   UNL     1      73.999  12.240  47.113  1.00  0.00     0.042 C 
ATOM      2  C   UNL     1      74.954  11.029  47.026  1.00  0.00     0.066 C 
ATOM      3  C   UNL     1      76.441  11.507  46.803  1.00  0.00     0.021 C 
ATOM      4  C   UNL     1      77.342  10.257  46.671  1.00  0.00     0.009 C 
ATOM      5  C   UNL     1      76.745   9.309  45.604  1.00  0.00     0.035 C 
ATOM      6  C   UNL     1      75.493   9.967  44.955  1.00  0.00     0.066 C 
ATOM      7  O   UNL     1      74.502  10.180  45.961  1.00  0.00    -0.369 OA
ATOM      8  C   UNL     1      75.903  11.338  44.343  1.00  0.00     0.035 C 
ATOM      9  C   UNL     1      76.521  12.238  45.440  1.00  0.00     0.009 C 
ATOM     10  C   UNL     1      74.911   9.053  43.872  1.00  0.00     0.042 C 
ATOM     11  C   UNL     1      74.825  10.248  48.350  1.00  0.00     0.042 C 
ENDROOT
TORSDOF 0
ENDMDL
MODEL 5
REMARK VINA RESULT:    -3.049      8.802     10.583
REMARK INTER + INTRA:          -3.049
REMARK INTER:                  -3.049
REMARK INTRA:                   0.000
REMARK UNBOUND:                 0.000
REMARK SMILES CC1(C)O[C@]2(C)CC[C@H]1CC2
REMARK SMILES IDX 1 1 2 2 9 3 10 4 11 5 5 6 4 7 7 8 8 9 6 10 3 11
REMARK H PARENT
REMARK Flexibility Score: inf
ROOT
ATOM      1  C   UNL     1      63.463  15.891  37.718  1.00  0.00     0.042 C 
ATOM      2  C   UNL     1      64.187  15.776  36.359  1.00  0.00     0.066 C 
ATOM      3  C   UNL     1      63.183  16.027  35.168  1.00  0.00     0.021 C 
ATOM      4  C   UNL     1      63.948  15.849  33.835  1.00  0.00     0.009 C 
ATOM      5  C   UNL     1      64.687  14.489  33.851  1.00  0.00     0.035 C 
ATOM      6  C   UNL     1      64.342  13.717  35.157  1.00  0.00     0.066 C 
ATOM      7  O   UNL     1      64.789  14.475  36.282  1.00  0.00    -0.369 OA
ATOM      8  C   UNL     1      62.799  13.534  35.244  1.00  0.00     0.035 C 
ATOM      9  C   UNL     1      62.104  14.916  35.195  1.00  0.00     0.009 C 
ATOM     10  C   UNL     1      65.041  12.353  35.171  1.00  0.00     0.042 C 
ATOM     11  C   UNL     1      65.317  16.828  36.351  1.00  0.00     0.042 C 
ENDROOT
TORSDOF 0
ENDMDL
MODEL 6
REMARK VINA RESULT:    -3.044      1.436      3.003
REMARK INTER + INTRA:          -3.044
REMARK INTER:                  -3.044
REMARK INTRA:                   0.000
REMARK UNBOUND:                 0.000
REMARK SMILES CC1(C)O[C@]2(C)CC[C@H]1CC2
REMARK SMILES IDX 1 1 2 2 9 3 10 4 11 5 5 6 4 7 7 8 8 9 6 10 3 11
REMARK H PARENT
REMARK Flexibility Score: inf
ROOT
ATOM      1  C   UNL     1      59.644   6.596  30.556  1.00  0.00     0.042 C 
ATOM      2  C   UNL     1      60.311   6.771  31.937  1.00  0.00     0.066 C 
ATOM      3  C   UNL     1      61.581   7.701  31.829  1.00  0.00     0.021 C 
ATOM      4  C   UNL     1      62.237   7.799  33.227  1.00  0.00     0.009 C 
ATOM      5  C   UNL     1      62.460   6.374  33.785  1.00  0.00     0.035 C 
ATOM      6  C   UNL     1      62.037   5.319  32.722  1.00  0.00     0.066 C 
ATOM      7  O   UNL     1      60.646   5.470  32.440  1.00  0.00    -0.369 OA
ATOM      8  C   UNL     1      62.852   5.561  31.419  1.00  0.00     0.035 C 
ATOM      9  C   UNL     1      62.621   7.006  30.916  1.00  0.00     0.009 C 
ATOM     10  C   UNL     1      62.285   3.902  33.250  1.00  0.00     0.042 C 
ATOM     11  C   UNL     1      59.258   7.394  32.879  1.00  0.00     0.042 C 
ENDROOT
TORSDOF 0
ENDMDL
MODEL 7
REMARK VINA RESULT:    -3.040      1.077      3.359
REMARK INTER + INTRA:          -3.040
REMARK INTER:                  -3.040
REMARK INTRA:                   0.000
REMARK UNBOUND:                 0.000
REMARK SMILES CC1(C)O[C@]2(C)CC[C@H]1CC2
REMARK SMILES IDX 1 1 2 2 9 3 10 4 11 5 5 6 4 7 7 8 8 9 6 10 3 11
REMARK H PARENT
REMARK Flexibility Score: inf
ROOT
ATOM      1  C   UNL     1      63.195   5.213  32.346  1.00  0.00     0.042 C 
ATOM      2  C   UNL     1      62.042   6.062  31.770  1.00  0.00     0.066 C 
ATOM      3  C   UNL     1      61.079   6.549  32.920  1.00  0.00     0.021 C 
ATOM      4  C   UNL     1      59.918   7.348  32.282  1.00  0.00     0.009 C 
ATOM      5  C   UNL     1      59.284   6.507  31.149  1.00  0.00     0.035 C 
ATOM      6  C   UNL     1      59.961   5.107  31.089  1.00  0.00     0.066 C 
ATOM      7  O   UNL     1      61.348   5.270  30.794  1.00  0.00    -0.369 OA
ATOM      8  C   UNL     1      59.810   4.414  32.475  1.00  0.00     0.035 C 
ATOM      9  C   UNL     1      60.432   5.305  33.577  1.00  0.00     0.009 C 
ATOM     10  C   UNL     1      59.319   4.250  29.993  1.00  0.00     0.042 C 
ATOM     11  C   UNL     1      62.678   7.267  31.044  1.00  0.00     0.042 C 
ENDROOT
TORSDOF 0
ENDMDL
MODEL 8
REMARK VINA RESULT:    -3.026      9.125     10.625
REMARK INTER + INTRA:          -3.026
REMARK INTER:                  -3.026
REMARK INTRA:                   0.000
REMARK UNBOUND:                 0.000
REMARK SMILES CC1(C)O[C@]2(C)CC[C@H]1CC2
REMARK SMILES IDX 1 1 2 2 9 3 10 4 11 5 5 6 4 7 7 8 8 9 6 10 3 11
REMARK H PARENT
REMARK Flexibility Score: inf
ROOT
ATOM      1  C   UNL     1      63.497  16.955  33.795  1.00  0.00     0.042 C 
ATOM      2  C   UNL     1      64.125  15.652  34.336  1.00  0.00     0.066 C 
ATOM      3  C   UNL     1      63.005  14.620  34.745  1.00  0.00     0.021 C 
ATOM      4  C   UNL     1      63.688  13.359  35.325  1.00  0.00     0.009 C 
ATOM      5  C   UNL     1      64.684  13.784  36.431  1.00  0.00     0.035 C 
ATOM      6  C   UNL     1      64.601  15.322  36.653  1.00  0.00     0.066 C 
ATOM      7  O   UNL     1      64.969  15.991  35.446  1.00  0.00    -0.369 OA
ATOM      8  C   UNL     1      63.137  15.700  37.021  1.00  0.00     0.035 C 
ATOM      9  C   UNL     1      62.176  15.230  35.903  1.00  0.00     0.009 C 
ATOM     10  C   UNL     1      65.559  15.752  37.769  1.00  0.00     0.042 C 
ATOM     11  C   UNL     1      65.017  15.074  33.216  1.00  0.00     0.042 C 
ENDROOT
TORSDOF 0
ENDMDL
MODEL 9
REMARK VINA RESULT:    -3.010     21.748     23.138
REMARK INTER + INTRA:          -3.010
REMARK INTER:                  -3.010
REMARK INTRA:                   0.000
REMARK UNBOUND:                 0.000
REMARK SMILES CC1(C)O[C@]2(C)CC[C@H]1CC2
REMARK SMILES IDX 1 1 2 2 9 3 10 4 11 5 5 6 4 7 7 8 8 9 6 10 3 11
REMARK H PARENT
REMARK Flexibility Score: inf
ROOT
ATOM      1  C   UNL     1      73.638  10.001  48.481  1.00  0.00     0.042 C 
ATOM      2  C   UNL     1      74.862  10.711  47.864  1.00  0.00     0.066 C 
ATOM      3  C   UNL     1      75.703   9.709  46.981  1.00  0.00     0.021 C 
ATOM      4  C   UNL     1      76.940  10.459  46.433  1.00  0.00     0.009 C 
ATOM      5  C   UNL     1      77.679  11.148  47.606  1.00  0.00     0.035 C 
ATOM      6  C   UNL     1      76.988  10.783  48.951  1.00  0.00     0.066 C 
ATOM      7  O   UNL     1      75.643  11.264  48.933  1.00  0.00    -0.369 OA
ATOM      8  C   UNL     1      76.974   9.235  49.109  1.00  0.00     0.035 C 
ATOM      9  C   UNL     1      76.253   8.591  47.900  1.00  0.00     0.009 C 
ATOM     10  C   UNL     1      77.730  11.431  50.125  1.00  0.00     0.042 C 
ATOM     11  C   UNL     1      74.330  11.879  47.006  1.00  0.00     0.042 C 
ENDROOT
TORSDOF 0
ENDMDL
