MODEL 1
REMARK VINA RESULT:    -3.866      0.000      0.000
REMARK INTER + INTRA:          -9.116
REMARK INTER:                  -7.256
REMARK INTRA:                  -1.860
REMARK UNBOUND:                -1.860
REMARK SMILES CCCCCCCCC=CCCCCCCCC(=O)[O-]
REMARK SMILES IDX 10 1 9 2 11 3 12 4 13 5 14 6 15 7 16 8 17 9 18 10 19 11
REMARK SMILES IDX 20 12 8 13 7 14 6 15 5 16 4 17 3 18 2 19 1 20
REMARK H PARENT
REMARK Flexibility Score: inf
ROOT
ATOM      1  C   UNL     1      -2.083   6.783  -4.010  1.00  0.00    -0.031 C 
ATOM      2  C   UNL     1      -3.406   6.845  -3.805  1.00  0.00    -0.031 C 
ENDROOT
BRANCH   1   3
ATOM      3  C   UNL     1      -1.122   6.849  -2.854  1.00  0.00     0.027 C 
BRANCH   3   4
ATOM      4  C   UNL     1      -1.402   5.734  -1.836  1.00  0.00     0.004 C 
BRANCH   4   5
ATOM      5  C   UNL     1      -1.320   6.226  -0.383  1.00  0.00     0.000 C 
BRANCH   5   6
ATOM      6  C   UNL     1      -2.633   6.010   0.390  1.00  0.00     0.000 C 
BRANCH   6   7
ATOM      7  C   UNL     1      -3.805   5.638  -0.533  1.00  0.00     0.000 C 
BRANCH   7   8
ATOM      8  C   UNL     1      -4.844   6.767  -0.652  1.00  0.00     0.006 C 
BRANCH   8   9
ATOM      9  C   UNL     1      -6.192   6.261  -1.184  1.00  0.00     0.053 C 
BRANCH   9  10
ATOM     10  C   UNL     1      -7.196   6.097  -0.083  1.00  0.00     0.041 C 
ATOM     11  O   UNL     1      -8.180   6.878  -0.004  1.00  0.00    -0.550 OA
ATOM     12  O   UNL     1      -7.023   5.107   0.876  1.00  0.00    -0.550 OA
ENDBRANCH   9  10
ENDBRANCH   8   9
ENDBRANCH   7   8
ENDBRANCH   6   7
ENDBRANCH   5   6
ENDBRANCH   4   5
ENDBRANCH   3   4
ENDBRANCH   1   3
BRANCH   2  13
ATOM     13  C   UNL     1      -4.383   6.808  -4.947  1.00  0.00     0.027 C 
BRANCH  13  14
ATOM     14  C   UNL     1      -5.358   5.628  -4.806  1.00  0.00     0.004 C 
BRANCH  14  15
ATOM     15  C   UNL     1      -6.148   5.360  -6.097  1.00  0.00     0.000 C 
BRANCH  15  16
ATOM     16  C   UNL     1      -5.728   4.048  -6.782  1.00  0.00     0.000 C 
BRANCH  16  17
ATOM     17  C   UNL     1      -4.644   4.262  -7.850  1.00  0.00    -0.000 C 
BRANCH  17  18
ATOM     18  C   UNL     1      -5.145   5.101  -9.039  1.00  0.00    -0.000 C 
BRANCH  18  19
ATOM     19  C   UNL     1      -4.297   6.362  -9.269  1.00  0.00    -0.003 C 
ATOM     20  C   UNL     1      -3.068   6.419  -8.361  1.00  0.00     0.004 C 
ENDBRANCH  18  19
ENDBRANCH  17  18
ENDBRANCH  16  17
ENDBRANCH  15  16
ENDBRANCH  14  15
ENDBRANCH  13  14
ENDBRANCH   2  13
TORSDOF 15
ENDMDL
MODEL 2
REMARK VINA RESULT:    -3.712     14.549     16.244
REMARK INTER + INTRA:          -8.828
REMARK INTER:                  -7.801
REMARK INTRA:                  -1.026
REMARK UNBOUND:                -1.860
REMARK SMILES CCCCCCCCC=CCCCCCCCC(=O)[O-]
REMARK SMILES IDX 10 1 9 2 11 3 12 4 13 5 14 6 15 7 16 8 17 9 18 10 19 11
REMARK SMILES IDX 20 12 8 13 7 14 6 15 5 16 4 17 3 18 2 19 1 20
REMARK H PARENT
REMARK Flexibility Score: inf
ROOT
ATOM      1  C   UNL     1       6.844  -6.280  -9.295  1.00  0.00    -0.031 C 
ATOM      2  C   UNL     1       7.131  -7.577  -9.115  1.00  0.00    -0.031 C 
ENDROOT
BRANCH   1   3
ATOM      3  C   UNL     1       7.839  -5.356  -9.943  1.00  0.00     0.027 C 
BRANCH   3   4
ATOM      4  C   UNL     1       8.987  -5.015  -8.981  1.00  0.00     0.004 C 
BRANCH   4   5
ATOM      5  C   UNL     1       9.343  -3.520  -8.993  1.00  0.00     0.000 C 
BRANCH   5   6
ATOM      6  C   UNL     1       8.650  -2.739  -7.863  1.00  0.00     0.000 C 
BRANCH   6   7
ATOM      7  C   UNL     1       9.518  -2.638  -6.599  1.00  0.00     0.000 C 
BRANCH   7   8
ATOM      8  C   UNL     1       9.119  -1.453  -5.702  1.00  0.00     0.006 C 
BRANCH   8   9
ATOM      9  C   UNL     1       7.627  -1.472  -5.344  1.00  0.00     0.053 C 
BRANCH   9  10
ATOM     10  C   UNL     1       7.404  -1.249  -3.879  1.00  0.00     0.041 C 
ATOM     11  O   UNL     1       7.824  -0.198  -3.328  1.00  0.00    -0.550 OA
ATOM     12  O   UNL     1       6.766  -2.219  -3.116  1.00  0.00    -0.550 OA
ENDBRANCH   9  10
ENDBRANCH   8   9
ENDBRANCH   7   8
ENDBRANCH   6   7
ENDBRANCH   5   6
ENDBRANCH   4   5
ENDBRANCH   3   4
ENDBRANCH   1   3
BRANCH   2  13
ATOM     13  C   UNL     1       6.163  -8.513  -8.446  1.00  0.00     0.027 C 
BRANCH  13  14
ATOM     14  C   UNL     1       4.926  -8.755  -9.326  1.00  0.00     0.004 C 
BRANCH  14  15
ATOM     15  C   UNL     1       3.615  -8.399  -8.608  1.00  0.00     0.000 C 
BRANCH  15  16
ATOM     16  C   UNL     1       2.539  -7.875  -9.574  1.00  0.00     0.000 C 
BRANCH  16  17
ATOM     17  C   UNL     1       2.421  -6.342  -9.550  1.00  0.00    -0.000 C 
BRANCH  17  18
ATOM     18  C   UNL     1       2.702  -5.752  -8.157  1.00  0.00    -0.000 C 
BRANCH  18  19
ATOM     19  C   UNL     1       1.776  -4.572  -7.821  1.00  0.00    -0.003 C 
ATOM     20  C   UNL     1       1.727  -4.271  -6.323  1.00  0.00     0.004 C 
ENDBRANCH  18  19
ENDBRANCH  17  18
ENDBRANCH  16  17
ENDBRANCH  15  16
ENDBRANCH  14  15
ENDBRANCH  13  14
ENDBRANCH   2  13
TORSDOF 15
ENDMDL
MODEL 3
REMARK VINA RESULT:    -3.625     14.506     16.694
REMARK INTER + INTRA:          -8.664
REMARK INTER:                  -7.391
REMARK INTRA:                  -1.273
REMARK UNBOUND:                -1.860
REMARK SMILES CCCCCCCCC=CCCCCCCCC(=O)[O-]
REMARK SMILES IDX 10 1 9 2 11 3 12 4 13 5 14 6 15 7 16 8 17 9 18 10 19 11
REMARK SMILES IDX 20 12 8 13 7 14 6 15 5 16 4 17 3 18 2 19 1 20
REMARK H PARENT
REMARK Flexibility Score: inf
ROOT
ATOM      1  C   UNL     1       7.181  -6.253  -9.196  1.00  0.00    -0.031 C 
ATOM      2  C   UNL     1       8.315  -5.821  -9.767  1.00  0.00    -0.031 C 
ENDROOT
BRANCH   1   3
ATOM      3  C   UNL     1       6.616  -7.605  -9.537  1.00  0.00     0.027 C 
BRANCH   3   4
ATOM      4  C   UNL     1       5.941  -8.247  -8.316  1.00  0.00     0.004 C 
BRANCH   4   5
ATOM      5  C   UNL     1       4.647  -8.992  -8.681  1.00  0.00     0.000 C 
BRANCH   5   6
ATOM      6  C   UNL     1       3.383  -8.192  -8.319  1.00  0.00     0.000 C 
BRANCH   6   7
ATOM      7  C   UNL     1       2.616  -7.709  -9.560  1.00  0.00     0.000 C 
BRANCH   7   8
ATOM      8  C   UNL     1       2.174  -6.240  -9.448  1.00  0.00     0.006 C 
BRANCH   8   9
ATOM      9  C   UNL     1       2.787  -5.542  -8.226  1.00  0.00     0.053 C 
BRANCH   9  10
ATOM     10  C   UNL     1       1.884  -4.477  -7.683  1.00  0.00     0.041 C 
ATOM     11  O   UNL     1       1.425  -3.586  -8.446  1.00  0.00    -0.550 OA
ATOM     12  O   UNL     1       1.579  -4.445  -6.328  1.00  0.00    -0.550 OA
ENDBRANCH   9  10
ENDBRANCH   8   9
ENDBRANCH   7   8
ENDBRANCH   6   7
ENDBRANCH   5   6
ENDBRANCH   4   5
ENDBRANCH   3   4
ENDBRANCH   1   3
BRANCH   2  13
ATOM     13  C   UNL     1       8.883  -4.464  -9.463  1.00  0.00     0.027 C 
BRANCH  13  14
ATOM     14  C   UNL     1       9.766  -4.500  -8.205  1.00  0.00     0.004 C 
BRANCH  14  15
ATOM     15  C   UNL     1       9.590  -3.251  -7.327  1.00  0.00     0.000 C 
BRANCH  15  16
ATOM     16  C   UNL     1       8.587  -2.249  -7.922  1.00  0.00     0.000 C 
BRANCH  16  17
ATOM     17  C   UNL     1       8.320  -1.056  -6.991  1.00  0.00    -0.000 C 
BRANCH  17  18
ATOM     18  C   UNL     1       7.410  -1.425  -5.806  1.00  0.00    -0.000 C 
BRANCH  18  19
ATOM     19  C   UNL     1       8.159  -1.423  -4.465  1.00  0.00    -0.003 C 
ATOM     20  C   UNL     1       9.236  -0.341  -4.393  1.00  0.00     0.004 C 
ENDBRANCH  18  19
ENDBRANCH  17  18
ENDBRANCH  16  17
ENDBRANCH  15  16
ENDBRANCH  14  15
ENDBRANCH  13  14
ENDBRANCH   2  13
TORSDOF 15
ENDMDL
MODEL 4
REMARK VINA RESULT:    -3.580     13.845     16.676
REMARK INTER + INTRA:          -8.580
REMARK INTER:                  -6.301
REMARK INTRA:                  -2.279
REMARK UNBOUND:                -1.860
REMARK SMILES CCCCCCCCC=CCCCCCCCC(=O)[O-]
REMARK SMILES IDX 10 1 9 2 11 3 12 4 13 5 14 6 15 7 16 8 17 9 18 10 19 11
REMARK SMILES IDX 20 12 8 13 7 14 6 15 5 16 4 17 3 18 2 19 1 20
REMARK H PARENT
REMARK Flexibility Score: inf
ROOT
ATOM      1  C   UNL     1       3.820   2.655   8.645  1.00  0.00    -0.031 C 
ATOM      2  C   UNL     1       4.303   3.479   9.585  1.00  0.00    -0.031 C 
ENDROOT
BRANCH   1   3
ATOM      3  C   UNL     1       4.098   1.178   8.701  1.00  0.00     0.027 C 
BRANCH   3   4
ATOM      4  C   UNL     1       5.587   0.904   8.961  1.00  0.00     0.004 C 
BRANCH   4   5
ATOM      5  C   UNL     1       5.839  -0.505   9.521  1.00  0.00     0.000 C 
BRANCH   5   6
ATOM      6  C   UNL     1       6.925  -1.266   8.741  1.00  0.00     0.000 C 
BRANCH   6   7
ATOM      7  C   UNL     1       7.856  -0.327   7.959  1.00  0.00     0.000 C 
BRANCH   7   8
ATOM      8  C   UNL     1       8.283  -0.913   6.602  1.00  0.00     0.006 C 
BRANCH   8   9
ATOM      9  C   UNL     1       9.120   0.077   5.780  1.00  0.00     0.053 C 
BRANCH   9  10
ATOM     10  C   UNL     1       8.939  -0.132   4.307  1.00  0.00     0.041 C 
ATOM     11  O   UNL     1       9.036   0.841   3.514  1.00  0.00    -0.550 OA
ATOM     12  O   UNL     1       8.624  -1.392   3.816  1.00  0.00    -0.550 OA
ENDBRANCH   9  10
ENDBRANCH   8   9
ENDBRANCH   7   8
ENDBRANCH   6   7
ENDBRANCH   5   6
ENDBRANCH   4   5
ENDBRANCH   3   4
ENDBRANCH   1   3
BRANCH   2  13
ATOM     13  C   UNL     1       4.060   4.962   9.535  1.00  0.00     0.027 C 
BRANCH  13  14
ATOM     14  C   UNL     1       4.435   5.540   8.161  1.00  0.00     0.004 C 
BRANCH  14  15
ATOM     15  C   UNL     1       5.953   5.710   7.989  1.00  0.00     0.000 C 
BRANCH  15  16
ATOM     16  C   UNL     1       6.478   5.046   6.705  1.00  0.00     0.000 C 
BRANCH  16  17
ATOM     17  C   UNL     1       7.032   3.634   6.955  1.00  0.00    -0.000 C 
BRANCH  17  18
ATOM     18  C   UNL     1       6.477   2.599   5.960  1.00  0.00    -0.000 C 
BRANCH  18  19
ATOM     19  C   UNL     1       6.611   3.056   4.499  1.00  0.00    -0.003 C 
ATOM     20  C   UNL     1       5.632   2.342   3.566  1.00  0.00     0.004 C 
ENDBRANCH  18  19
ENDBRANCH  17  18
ENDBRANCH  16  17
ENDBRANCH  15  16
ENDBRANCH  14  15
ENDBRANCH  13  14
ENDBRANCH   2  13
TORSDOF 15
ENDMDL
MODEL 5
REMARK VINA RESULT:    -3.484     13.407     15.897
REMARK INTER + INTRA:          -8.398
REMARK INTER:                  -6.258
REMARK INTRA:                  -2.140
REMARK UNBOUND:                -1.860
REMARK SMILES CCCCCCCCC=CCCCCCCCC(=O)[O-]
REMARK SMILES IDX 10 1 9 2 11 3 12 4 13 5 14 6 15 7 16 8 17 9 18 10 19 11
REMARK SMILES IDX 20 12 8 13 7 14 6 15 5 16 4 17 3 18 2 19 1 20
REMARK H PARENT
REMARK Flexibility Score: inf
ROOT
ATOM      1  C   UNL     1       8.139  -0.227   5.416  1.00  0.00    -0.031 C 
ATOM      2  C   UNL     1       7.724   1.048   5.406  1.00  0.00    -0.031 C 
ENDROOT
BRANCH   1   3
ATOM      3  C   UNL     1       8.397  -0.940   6.716  1.00  0.00     0.027 C 
BRANCH   3   4
ATOM      4  C   UNL     1       8.048  -0.049   7.916  1.00  0.00     0.004 C 
BRANCH   4   5
ATOM      5  C   UNL     1       7.055  -0.718   8.880  1.00  0.00     0.000 C 
BRANCH   5   6
ATOM      6  C   UNL     1       5.750   0.083   9.033  1.00  0.00     0.000 C 
BRANCH   6   7
ATOM      7  C   UNL     1       5.802   1.438   8.312  1.00  0.00     0.000 C 
BRANCH   7   8
ATOM      8  C   UNL     1       4.404   2.032   8.067  1.00  0.00     0.006 C 
BRANCH   8   9
ATOM      9  C   UNL     1       3.332   1.373   8.946  1.00  0.00     0.053 C 
BRANCH   9  10
ATOM     10  C   UNL     1       1.988   1.380   8.283  1.00  0.00     0.041 C 
ATOM     11  O   UNL     1       1.880   1.069   7.068  1.00  0.00    -0.550 OA
ATOM     12  O   UNL     1       0.861   1.769   8.997  1.00  0.00    -0.550 OA
ENDBRANCH   9  10
ENDBRANCH   8   9
ENDBRANCH   7   8
ENDBRANCH   6   7
ENDBRANCH   5   6
ENDBRANCH   4   5
ENDBRANCH   3   4
ENDBRANCH   1   3
BRANCH   2  13
ATOM     13  C   UNL     1       7.486   1.789   4.120  1.00  0.00     0.027 C 
BRANCH  13  14
ATOM     14  C   UNL     1       6.062   2.364   4.066  1.00  0.00     0.004 C 
BRANCH  14  15
ATOM     15  C   UNL     1       6.050   3.895   3.930  1.00  0.00     0.000 C 
BRANCH  15  16
ATOM     16  C   UNL     1       7.021   4.580   4.907  1.00  0.00     0.000 C 
BRANCH  16  17
ATOM     17  C   UNL     1       6.424   4.745   6.313  1.00  0.00    -0.000 C 
BRANCH  17  18
ATOM     18  C   UNL     1       7.305   5.613   7.229  1.00  0.00    -0.000 C 
BRANCH  18  19
ATOM     19  C   UNL     1       7.997   4.792   8.329  1.00  0.00    -0.003 C 
ATOM     20  C   UNL     1       8.807   3.622   7.769  1.00  0.00     0.004 C 
ENDBRANCH  18  19
ENDBRANCH  17  18
ENDBRANCH  16  17
ENDBRANCH  15  16
ENDBRANCH  14  15
ENDBRANCH  13  14
ENDBRANCH   2  13
TORSDOF 15
ENDMDL
MODEL 6
REMARK VINA RESULT:    -3.482      2.918      4.460
REMARK INTER + INTRA:          -8.396
REMARK INTER:                  -7.038
REMARK INTRA:                  -1.358
REMARK UNBOUND:                -1.860
REMARK SMILES CCCCCCCCC=CCCCCCCCC(=O)[O-]
REMARK SMILES IDX 10 1 9 2 11 3 12 4 13 5 14 6 15 7 16 8 17 9 18 10 19 11
REMARK SMILES IDX 20 12 8 13 7 14 6 15 5 16 4 17 3 18 2 19 1 20
REMARK H PARENT
REMARK Flexibility Score: inf
ROOT
ATOM      1  C   UNL     1      -6.697   7.049  -2.457  1.00  0.00    -0.031 C 
ATOM      2  C   UNL     1      -7.858   6.740  -3.051  1.00  0.00    -0.031 C 
ENDROOT
BRANCH   1   3
ATOM      3  C   UNL     1      -6.598   7.123  -0.958  1.00  0.00     0.027 C 
BRANCH   3   4
ATOM      4  C   UNL     1      -5.997   5.834  -0.377  1.00  0.00     0.004 C 
BRANCH   4   5
ATOM      5  C   UNL     1      -4.694   5.421  -1.079  1.00  0.00     0.000 C 
BRANCH   5   6
ATOM      6  C   UNL     1      -3.450   6.062  -0.440  1.00  0.00     0.000 C 
BRANCH   6   7
ATOM      7  C   UNL     1      -2.241   5.113  -0.426  1.00  0.00     0.000 C 
BRANCH   7   8
ATOM      8  C   UNL     1      -1.123   5.567  -1.381  1.00  0.00     0.006 C 
BRANCH   8   9
ATOM      9  C   UNL     1      -1.431   6.922  -2.033  1.00  0.00     0.053 C 
BRANCH   9  10
ATOM     10  C   UNL     1      -1.676   6.787  -3.505  1.00  0.00     0.041 C 
ATOM     11  O   UNL     1      -0.706   6.698  -4.303  1.00  0.00    -0.550 OA
ATOM     12  O   UNL     1      -2.975   6.798  -3.999  1.00  0.00    -0.550 OA
ENDBRANCH   9  10
ENDBRANCH   8   9
ENDBRANCH   7   8
ENDBRANCH   6   7
ENDBRANCH   5   6
ENDBRANCH   4   5
ENDBRANCH   3   4
ENDBRANCH   1   3
BRANCH   2  13
ATOM     13  C   UNL     1      -7.988   6.687  -4.548  1.00  0.00     0.027 C 
BRANCH  13  14
ATOM     14  C   UNL     1      -9.202   5.844  -4.970  1.00  0.00     0.004 C 
BRANCH  14  15
ATOM     15  C   UNL     1      -8.819   4.688  -5.908  1.00  0.00     0.000 C 
BRANCH  15  16
ATOM     16  C   UNL     1      -8.773   5.118  -7.384  1.00  0.00     0.000 C 
BRANCH  16  17
ATOM     17  C   UNL     1      -7.345   5.417  -7.867  1.00  0.00    -0.000 C 
BRANCH  17  18
ATOM     18  C   UNL     1      -6.488   4.145  -7.996  1.00  0.00    -0.000 C 
BRANCH  18  19
ATOM     19  C   UNL     1      -5.440   4.025  -6.879  1.00  0.00    -0.003 C 
ATOM     20  C   UNL     1      -5.029   5.382  -6.308  1.00  0.00     0.004 C 
ENDBRANCH  18  19
ENDBRANCH  17  18
ENDBRANCH  16  17
ENDBRANCH  15  16
ENDBRANCH  14  15
ENDBRANCH  13  14
ENDBRANCH   2  13
TORSDOF 15
ENDMDL
MODEL 7
REMARK VINA RESULT:    -3.468      1.484      2.565
REMARK INTER + INTRA:          -8.370
REMARK INTER:                  -6.907
REMARK INTRA:                  -1.463
REMARK UNBOUND:                -1.860
REMARK SMILES CCCCCCCCC=CCCCCCCCC(=O)[O-]
REMARK SMILES IDX 10 1 9 2 11 3 12 4 13 5 14 6 15 7 16 8 17 9 18 10 19 11
REMARK SMILES IDX 20 12 8 13 7 14 6 15 5 16 4 17 3 18 2 19 1 20
REMARK H PARENT
REMARK Flexibility Score: inf
ROOT
ATOM      1  C   UNL     1      -1.879   6.806  -3.785  1.00  0.00    -0.031 C 
ATOM      2  C   UNL     1      -3.219   6.750  -3.793  1.00  0.00    -0.031 C 
ENDROOT
BRANCH   1   3
ATOM      3  C   UNL     1      -1.120   6.832  -2.487  1.00  0.00     0.027 C 
BRANCH   3   4
ATOM      4  C   UNL     1      -1.423   5.587  -1.641  1.00  0.00     0.004 C 
BRANCH   4   5
ATOM      5  C   UNL     1      -1.552   5.908  -0.143  1.00  0.00     0.000 C 
BRANCH   5   6
ATOM      6  C   UNL     1      -3.013   6.105   0.296  1.00  0.00     0.000 C 
BRANCH   6   7
ATOM      7  C   UNL     1      -4.016   5.582  -0.744  1.00  0.00     0.000 C 
BRANCH   7   8
ATOM      8  C   UNL     1      -5.476   5.878  -0.358  1.00  0.00     0.006 C 
BRANCH   8   9
ATOM      9  C   UNL     1      -6.274   6.477  -1.525  1.00  0.00     0.053 C 
BRANCH   9  10
ATOM     10  C   UNL     1      -7.716   6.673  -1.168  1.00  0.00     0.041 C 
ATOM     11  O   UNL     1      -8.103   6.505   0.017  1.00  0.00    -0.550 OA
ATOM     12  O   UNL     1      -8.639   7.003  -2.153  1.00  0.00    -0.550 OA
ENDBRANCH   9  10
ENDBRANCH   8   9
ENDBRANCH   7   8
ENDBRANCH   6   7
ENDBRANCH   5   6
ENDBRANCH   4   5
ENDBRANCH   3   4
ENDBRANCH   1   3
BRANCH   2  13
ATOM     13  C   UNL     1      -4.000   6.750  -5.078  1.00  0.00     0.027 C 
BRANCH  13  14
ATOM     14  C   UNL     1      -5.143   5.723  -5.032  1.00  0.00     0.004 C 
BRANCH  14  15
ATOM     15  C   UNL     1      -5.750   5.456  -6.418  1.00  0.00     0.000 C 
BRANCH  15  16
ATOM     16  C   UNL     1      -6.119   3.977  -6.625  1.00  0.00     0.000 C 
BRANCH  16  17
ATOM     17  C   UNL     1      -7.609   3.780  -6.944  1.00  0.00    -0.000 C 
BRANCH  17  18
ATOM     18  C   UNL     1      -8.273   5.063  -7.474  1.00  0.00    -0.000 C 
BRANCH  18  19
ATOM     19  C   UNL     1      -9.465   5.509  -6.612  1.00  0.00    -0.003 C 
ATOM     20  C   UNL     1      -9.591   4.702  -5.319  1.00  0.00     0.004 C 
ENDBRANCH  18  19
ENDBRANCH  17  18
ENDBRANCH  16  17
ENDBRANCH  15  16
ENDBRANCH  14  15
ENDBRANCH  13  14
ENDBRANCH   2  13
TORSDOF 15
ENDMDL
MODEL 8
REMARK VINA RESULT:    -3.439     14.110     16.955
REMARK INTER + INTRA:          -8.314
REMARK INTER:                  -5.802
REMARK INTRA:                  -2.513
REMARK UNBOUND:                -1.860
REMARK SMILES CCCCCCCCC=CCCCCCCCC(=O)[O-]
REMARK SMILES IDX 10 1 9 2 11 3 12 4 13 5 14 6 15 7 16 8 17 9 18 10 19 11
REMARK SMILES IDX 20 12 8 13 7 14 6 15 5 16 4 17 3 18 2 19 1 20
REMARK H PARENT
REMARK Flexibility Score: inf
ROOT
ATOM      1  C   UNL     1       4.191   0.934   8.704  1.00  0.00    -0.031 C 
ATOM      2  C   UNL     1       4.783   0.527   9.836  1.00  0.00    -0.031 C 
ENDROOT
BRANCH   1   3
ATOM      3  C   UNL     1       3.426   2.229   8.659  1.00  0.00     0.027 C 
BRANCH   3   4
ATOM      4  C   UNL     1       4.288   3.400   9.152  1.00  0.00     0.004 C 
BRANCH   4   5
ATOM      5  C   UNL     1       5.301   3.873   8.097  1.00  0.00     0.000 C 
BRANCH   5   6
ATOM      6  C   UNL     1       6.746   3.475   8.445  1.00  0.00     0.000 C 
BRANCH   6   7
ATOM      7  C   UNL     1       7.373   2.553   7.387  1.00  0.00     0.000 C 
BRANCH   7   8
ATOM      8  C   UNL     1       6.448   2.324   6.179  1.00  0.00     0.006 C 
BRANCH   8   9
ATOM      9  C   UNL     1       7.080   2.802   4.865  1.00  0.00     0.053 C 
BRANCH   9  10
ATOM     10  C   UNL     1       6.521   4.123   4.429  1.00  0.00     0.041 C 
ATOM     11  O   UNL     1       5.817   4.200   3.388  1.00  0.00    -0.550 OA
ATOM     12  O   UNL     1       6.810   5.274   5.151  1.00  0.00    -0.550 OA
ENDBRANCH   9  10
ENDBRANCH   8   9
ENDBRANCH   7   8
ENDBRANCH   6   7
ENDBRANCH   5   6
ENDBRANCH   4   5
ENDBRANCH   3   4
ENDBRANCH   1   3
BRANCH   2  13
ATOM     13  C   UNL     1       5.529  -0.775   9.911  1.00  0.00     0.027 C 
BRANCH  13  14
ATOM     14  C   UNL     1       6.676  -0.818   8.888  1.00  0.00     0.004 C 
BRANCH  14  15
ATOM     15  C   UNL     1       7.448  -2.147   8.925  1.00  0.00     0.000 C 
BRANCH  15  16
ATOM     16  C   UNL     1       8.620  -2.174   7.929  1.00  0.00     0.000 C 
BRANCH  16  17
ATOM     17  C   UNL     1       8.380  -1.268   6.711  1.00  0.00    -0.000 C 
BRANCH  17  18
ATOM     18  C   UNL     1       9.562  -0.320   6.440  1.00  0.00    -0.000 C 
BRANCH  18  19
ATOM     19  C   UNL     1       9.630   0.133   4.973  1.00  0.00    -0.003 C 
ATOM     20  C   UNL     1       8.721  -0.691   4.060  1.00  0.00     0.004 C 
ENDBRANCH  18  19
ENDBRANCH  17  18
ENDBRANCH  16  17
ENDBRANCH  15  16
ENDBRANCH  14  15
ENDBRANCH  13  14
ENDBRANCH   2  13
TORSDOF 15
ENDMDL
