MODEL 1
REMARK VINA RESULT:    -1.858      0.000      0.000
REMARK INTER + INTRA:          -1.535
REMARK INTER:                  -2.021
REMARK INTRA:                   0.486
REMARK UNBOUND:                 0.486
REMARK SMILES C[C@@H]1[C@H](C)CC[C@]2(C(=O)[O-])CC[C@]3(C)C(=CC[C@H]4[C@]5(C)CC[C@@H](O)C(C)(C)[C@@H]5CC[C@]43C)[C@@H]12
REMARK SMILES IDX 7 1 6 2 11 3 33 4 5 5 12 6 15 7 2 8 3 9 13 10 16 11 1 12
REMARK SMILES IDX 4 13 14 14 31 15 17 16 18 17 30 18 32 19 19 20 29 21 28 22
REMARK SMILES IDX 21 23 20 24 25 25 22 26 23 27 26 28 27 29 8 30 9 31 10 32
REMARK SMILES IDX 24 33
REMARK H PARENT 24 34
REMARK Flexibility Score: inf
ROOT
ATOM      1  C   UNL     1      27.819   0.679  27.962  1.00  0.00     0.017 C 
ATOM      2  C   UNL     1      28.082   1.761  29.064  1.00  0.00     0.014 C 
ATOM      3  C   UNL     1      29.114   0.276  27.115  1.00  0.00     0.014 C 
ATOM      4  C   UNL     1      26.649   1.240  27.066  1.00  0.00     0.030 C 
ATOM      5  C   UNL     1      26.793   2.154  29.851  1.00  0.00     0.004 C 
ATOM      6  C   UNL     1      29.232   0.635  25.583  1.00  0.00     0.013 C 
ATOM      7  C   UNL     1      26.809   0.732  25.695  1.00  0.00    -0.063 C 
ATOM      8  C   UNL     1      25.324   1.387  27.877  1.00  0.00    -0.003 C 
ATOM      9  C   UNL     1      25.559   2.508  28.938  1.00  0.00    -0.011 C 
ATOM     10  C   UNL     1      28.002   1.351  24.927  1.00  0.00    -0.006 C 
ATOM     11  C   UNL     1      26.299  -0.471  25.315  1.00  0.00    -0.027 C 
ATOM     12  C   UNL     1      24.083   1.584  26.995  1.00  0.00     0.008 C 
ATOM     13  C   UNL     1      25.739   3.946  28.373  1.00  0.00     0.008 C 
ATOM     14  C   UNL     1      28.331   2.868  25.214  1.00  0.00     0.017 C 
ATOM     15  C   UNL     1      27.752   1.159  23.292  1.00  0.00    -0.020 C 
ATOM     16  C   UNL     1      26.808  -1.125  24.100  1.00  0.00     0.032 C 
ATOM     17  C   UNL     1      26.720  -0.054  22.947  1.00  0.00     0.006 C 
ATOM     18  C   UNL     1      27.185   2.457  22.612  1.00  0.00     0.008 C 
ATOM     19  C   UNL     1      29.133   0.905  22.537  1.00  0.00     0.012 C 
ATOM     20  C   UNL     1      25.206   0.378  22.548  1.00  0.00    -0.025 C 
ATOM     21  C   UNL     1      25.757   2.862  23.007  1.00  0.00     0.005 C 
ATOM     22  C   UNL     1      24.742   1.700  23.276  1.00  0.00     0.003 C 
ATOM     23  C   UNL     1      25.030   0.605  20.992  1.00  0.00     0.010 C 
ATOM     24  C   UNL     1      24.290  -0.844  22.912  1.00  0.00     0.012 C 
ATOM     25  C   UNL     1      23.273   2.215  22.908  1.00  0.00    -0.006 C 
ATOM     26  C   UNL     1      23.610   1.052  20.619  1.00  0.00     0.033 C 
ATOM     27  C   UNL     1      23.082   2.301  21.347  1.00  0.00     0.120 C 
ATOM     28  C   UNL     1      22.148   1.358  23.562  1.00  0.00     0.014 C 
ATOM     29  C   UNL     1      22.955   3.691  23.497  1.00  0.00     0.014 C 
ENDROOT
BRANCH   1  30
ATOM     30  C   UNL     1      27.411  -0.636  28.686  1.00  0.00     0.048 C 
ATOM     31  O   UNL     1      28.095  -1.123  29.636  1.00  0.00    -0.550 OA
ATOM     32  O   UNL     1      26.118  -1.124  28.474  1.00  0.00    -0.550 OA
ENDBRANCH   1  30
BRANCH  27  33
ATOM     33  O   UNL     1      21.720   2.429  20.991  1.00  0.00    -0.393 OA
ATOM     34  H   UNL     1      21.668   2.988  20.157  1.00  0.00     0.210 HD
ENDBRANCH  27  33
TORSDOF 2
ENDMDL
MODEL 2
REMARK VINA RESULT:    -0.677      2.917      5.748
REMARK INTER + INTRA:          -0.251
REMARK INTER:                  -0.527
REMARK INTRA:                   0.276
REMARK UNBOUND:                 0.486
REMARK SMILES C[C@@H]1[C@H](C)CC[C@]2(C(=O)[O-])CC[C@]3(C)C(=CC[C@H]4[C@]5(C)CC[C@@H](O)C(C)(C)[C@@H]5CC[C@]43C)[C@@H]12
REMARK SMILES IDX 7 1 6 2 11 3 33 4 5 5 12 6 15 7 2 8 3 9 13 10 16 11 1 12
REMARK SMILES IDX 4 13 14 14 31 15 17 16 18 17 30 18 32 19 19 20 29 21 28 22
REMARK SMILES IDX 21 23 20 24 25 25 22 26 23 27 26 28 27 29 8 30 9 31 10 32
REMARK SMILES IDX 24 33
REMARK H PARENT 24 34
REMARK Flexibility Score: inf
ROOT
ATOM      1  C   UNL     1      29.107   3.436  31.218  1.00  0.00     0.017 C 
ATOM      2  C   UNL     1      30.627   3.466  31.593  1.00  0.00     0.014 C 
ATOM      3  C   UNL     1      28.202   2.567  32.211  1.00  0.00     0.014 C 
ATOM      4  C   UNL     1      29.031   2.936  29.724  1.00  0.00     0.030 C 
ATOM      5  C   UNL     1      31.485   4.296  30.587  1.00  0.00     0.004 C 
ATOM      6  C   UNL     1      27.513   1.232  31.730  1.00  0.00     0.013 C 
ATOM      7  C   UNL     1      27.768   2.210  29.523  1.00  0.00    -0.063 C 
ATOM      8  C   UNL     1      29.715   3.943  28.747  1.00  0.00    -0.003 C 
ATOM      9  C   UNL     1      31.242   3.933  29.074  1.00  0.00    -0.011 C 
ATOM     10  C   UNL     1      27.712   0.834  30.228  1.00  0.00    -0.006 C 
ATOM     11  C   UNL     1      26.618   2.857  29.190  1.00  0.00    -0.027 C 
ATOM     12  C   UNL     1      29.370   3.698  27.271  1.00  0.00     0.008 C 
ATOM     13  C   UNL     1      31.995   2.613  28.739  1.00  0.00     0.008 C 
ATOM     14  C   UNL     1      29.055   0.007  30.297  1.00  0.00     0.017 C 
ATOM     15  C   UNL     1      26.546  -0.103  29.495  1.00  0.00    -0.020 C 
ATOM     16  C   UNL     1      25.324   2.190  29.393  1.00  0.00     0.032 C 
ATOM     17  C   UNL     1      25.435   0.780  28.696  1.00  0.00     0.006 C 
ATOM     18  C   UNL     1      27.153  -1.125  28.467  1.00  0.00     0.008 C 
ATOM     19  C   UNL     1      25.813  -1.029  30.565  1.00  0.00     0.012 C 
ATOM     20  C   UNL     1      25.587   0.843  27.080  1.00  0.00    -0.025 C 
ATOM     21  C   UNL     1      27.780  -0.523  27.200  1.00  0.00     0.005 C 
ATOM     22  C   UNL     1      27.092   0.755  26.611  1.00  0.00     0.003 C 
ATOM     23  C   UNL     1      24.793  -0.316  26.350  1.00  0.00     0.010 C 
ATOM     24  C   UNL     1      24.909   2.183  26.626  1.00  0.00     0.012 C 
ATOM     25  C   UNL     1      27.328   0.772  25.028  1.00  0.00    -0.006 C 
ATOM     26  C   UNL     1      24.971  -0.281  24.826  1.00  0.00     0.033 C 
ATOM     27  C   UNL     1      26.422  -0.300  24.314  1.00  0.00     0.120 C 
ATOM     28  C   UNL     1      27.124   2.184  24.400  1.00  0.00     0.014 C 
ATOM     29  C   UNL     1      28.858   0.439  24.614  1.00  0.00     0.014 C 
ENDROOT
BRANCH   1  30
ATOM     30  C   UNL     1      28.559   4.884  31.370  1.00  0.00     0.048 C 
ATOM     31  O   UNL     1      27.317   5.136  31.398  1.00  0.00    -0.550 OA
ATOM     32  O   UNL     1      29.453   5.882  31.772  1.00  0.00    -0.550 OA
ENDBRANCH   1  30
BRANCH  27  33
ATOM     33  O   UNL     1      26.359  -0.088  22.917  1.00  0.00    -0.393 OA
ATOM     34  H   UNL     1      26.514  -0.970  22.463  1.00  0.00     0.210 HD
ENDBRANCH  27  33
TORSDOF 2
ENDMDL
MODEL 3
REMARK VINA RESULT:    -0.196      1.594      6.545
REMARK INTER + INTRA:           0.273
REMARK INTER:                  -0.037
REMARK INTRA:                   0.310
REMARK UNBOUND:                 0.486
REMARK SMILES C[C@@H]1[C@H](C)CC[C@]2(C(=O)[O-])CC[C@]3(C)C(=CC[C@H]4[C@]5(C)CC[C@@H](O)C(C)(C)[C@@H]5CC[C@]43C)[C@@H]12
REMARK SMILES IDX 7 1 6 2 11 3 33 4 5 5 12 6 15 7 2 8 3 9 13 10 16 11 1 12
REMARK SMILES IDX 4 13 14 14 31 15 17 16 18 17 30 18 32 19 19 20 29 21 28 22
REMARK SMILES IDX 21 23 20 24 25 25 22 26 23 27 26 28 27 29 8 30 9 31 10 32
REMARK SMILES IDX 24 33
REMARK H PARENT 24 34
REMARK Flexibility Score: inf
ROOT
ATOM      1  C   UNL     1      24.709   1.794  22.599  1.00  0.00     0.017 C 
ATOM      2  C   UNL     1      23.433   1.041  22.093  1.00  0.00     0.014 C 
ATOM      3  C   UNL     1      26.024   1.514  21.732  1.00  0.00     0.014 C 
ATOM      4  C   UNL     1      24.879   1.400  24.116  1.00  0.00     0.030 C 
ATOM      5  C   UNL     1      22.176   1.312  22.978  1.00  0.00     0.004 C 
ATOM      6  C   UNL     1      27.246   0.720  22.336  1.00  0.00     0.013 C 
ATOM      7  C   UNL     1      26.309   1.425  24.461  1.00  0.00    -0.063 C 
ATOM      8  C   UNL     1      23.684   1.913  24.980  1.00  0.00    -0.003 C 
ATOM      9  C   UNL     1      22.417   1.121  24.523  1.00  0.00    -0.011 C 
ATOM     10  C   UNL     1      27.129   0.273  23.833  1.00  0.00    -0.006 C 
ATOM     11  C   UNL     1      26.928   2.569  24.861  1.00  0.00    -0.027 C 
ATOM     12  C   UNL     1      23.957   1.875  26.490  1.00  0.00     0.008 C 
ATOM     13  C   UNL     1      22.415  -0.399  24.855  1.00  0.00     0.008 C 
ATOM     14  C   UNL     1      26.411  -1.125  23.689  1.00  0.00     0.017 C 
ATOM     15  C   UNL     1      28.530   0.066  24.710  1.00  0.00    -0.020 C 
ATOM     16  C   UNL     1      28.394   2.660  24.804  1.00  0.00     0.032 C 
ATOM     17  C   UNL     1      28.949   1.392  25.558  1.00  0.00     0.006 C 
ATOM     18  C   UNL     1      28.431  -1.125  25.731  1.00  0.00     0.008 C 
ATOM     19  C   UNL     1      29.736  -0.351  23.755  1.00  0.00     0.012 C 
ATOM     20  C   UNL     1      28.626   1.364  27.149  1.00  0.00    -0.025 C 
ATOM     21  C   UNL     1      27.462  -0.932  26.907  1.00  0.00     0.005 C 
ATOM     22  C   UNL     1      27.338   0.516  27.490  1.00  0.00     0.003 C 
ATOM     23  C   UNL     1      29.822   0.775  28.002  1.00  0.00     0.010 C 
ATOM     24  C   UNL     1      28.476   2.862  27.594  1.00  0.00     0.012 C 
ATOM     25  C   UNL     1      26.970   0.407  29.044  1.00  0.00    -0.006 C 
ATOM     26  C   UNL     1      29.501   0.711  29.501  1.00  0.00     0.033 C 
ATOM     27  C   UNL     1      28.221  -0.051  29.885  1.00  0.00     0.120 C 
ATOM     28  C   UNL     1      26.361   1.721  29.616  1.00  0.00     0.014 C 
ATOM     29  C   UNL     1      25.792  -0.665  29.340  1.00  0.00     0.014 C 
ENDROOT
BRANCH   1  30
ATOM     30  C   UNL     1      24.453   3.319  22.423  1.00  0.00     0.048 C 
ATOM     31  O   UNL     1      25.399   4.161  22.378  1.00  0.00    -0.550 OA
ATOM     32  O   UNL     1      23.176   3.724  22.021  1.00  0.00    -0.550 OA
ENDBRANCH   1  30
BRANCH  27  33
ATOM     33  O   UNL     1      28.027   0.161  31.270  1.00  0.00    -0.393 OA
ATOM     34  H   UNL     1      27.040   0.251  31.435  1.00  0.00     0.210 HD
ENDBRANCH  27  33
TORSDOF 2
ENDMDL
MODEL 4
REMARK VINA RESULT:    -0.068      1.426      6.403
REMARK INTER + INTRA:           0.412
REMARK INTER:                   0.156
REMARK INTRA:                   0.255
REMARK UNBOUND:                 0.486
REMARK SMILES C[C@@H]1[C@H](C)CC[C@]2(C(=O)[O-])CC[C@]3(C)C(=CC[C@H]4[C@]5(C)CC[C@@H](O)C(C)(C)[C@@H]5CC[C@]43C)[C@@H]12
REMARK SMILES IDX 7 1 6 2 11 3 33 4 5 5 12 6 15 7 2 8 3 9 13 10 16 11 1 12
REMARK SMILES IDX 4 13 14 14 31 15 17 16 18 17 30 18 32 19 19 20 29 21 28 22
REMARK SMILES IDX 21 23 20 24 25 25 22 26 23 27 26 28 27 29 8 30 9 31 10 32
REMARK SMILES IDX 24 33
REMARK H PARENT 24 34
REMARK Flexibility Score: inf
ROOT
ATOM      1  C   UNL     1      22.722   2.808  22.689  1.00  0.00     0.017 C 
ATOM      2  C   UNL     1      21.229   2.335  22.698  1.00  0.00     0.014 C 
ATOM      3  C   UNL     1      23.480   2.563  21.303  1.00  0.00     0.014 C 
ATOM      4  C   UNL     1      23.419   2.087  23.906  1.00  0.00     0.030 C 
ATOM      5  C   UNL     1      20.527   2.561  24.074  1.00  0.00     0.004 C 
ATOM      6  C   UNL     1      24.660   1.520  21.191  1.00  0.00     0.013 C 
ATOM      7  C   UNL     1      24.838   1.869  23.586  1.00  0.00    -0.063 C 
ATOM      8  C   UNL     1      22.811   2.544  25.269  1.00  0.00    -0.003 C 
ATOM      9  C   UNL     1      21.339   2.022  25.312  1.00  0.00    -0.011 C 
ATOM     10  C   UNL     1      25.082   0.786  22.508  1.00  0.00    -0.006 C 
ATOM     11  C   UNL     1      25.779   2.822  23.827  1.00  0.00    -0.027 C 
ATOM     12  C   UNL     1      23.667   2.158  26.484  1.00  0.00     0.008 C 
ATOM     13  C   UNL     1      21.173   0.478  25.398  1.00  0.00     0.008 C 
ATOM     14  C   UNL     1      24.107  -0.456  22.503  1.00  0.00     0.017 C 
ATOM     15  C   UNL     1      26.648   0.234  22.641  1.00  0.00    -0.020 C 
ATOM     16  C   UNL     1      27.078   2.748  23.143  1.00  0.00     0.032 C 
ATOM     17  C   UNL     1      27.632   1.293  23.392  1.00  0.00     0.006 C 
ATOM     18  C   UNL     1      26.744  -1.125  23.425  1.00  0.00     0.008 C 
ATOM     19  C   UNL     1      27.246  -0.112  21.204  1.00  0.00     0.012 C 
ATOM     20  C   UNL     1      27.992   0.970  24.942  1.00  0.00    -0.025 C 
ATOM     21  C   UNL     1      26.402  -1.070  24.922  1.00  0.00     0.005 C 
ATOM     22  C   UNL     1      26.818   0.228  25.694  1.00  0.00     0.003 C 
ATOM     23  C   UNL     1      29.291   0.077  25.090  1.00  0.00     0.010 C 
ATOM     24  C   UNL     1      28.337   2.348  25.610  1.00  0.00     0.012 C 
ATOM     25  C   UNL     1      27.108  -0.162  27.219  1.00  0.00    -0.006 C 
ATOM     26  C   UNL     1      29.608  -0.263  26.552  1.00  0.00     0.033 C 
ATOM     27  C   UNL     1      28.475  -0.931  27.352  1.00  0.00     0.120 C 
ATOM     28  C   UNL     1      27.061   1.066  28.177  1.00  0.00     0.014 C 
ATOM     29  C   UNL     1      25.969  -1.124  27.852  1.00  0.00     0.014 C 
ENDROOT
BRANCH   1  30
ATOM     30  C   UNL     1      22.723   4.355  22.857  1.00  0.00     0.048 C 
ATOM     31  O   UNL     1      23.776   5.047  22.723  1.00  0.00    -0.550 OA
ATOM     32  O   UNL     1      21.488   5.012  22.871  1.00  0.00    -0.550 OA
ENDBRANCH   1  30
BRANCH  27  33
ATOM     33  O   UNL     1      28.914  -0.994  28.695  1.00  0.00    -0.393 OA
ATOM     34  H   UNL     1      28.440  -1.760  29.140  1.00  0.00     0.210 HD
ENDBRANCH  27  33
TORSDOF 2
ENDMDL
