MODEL 1
REMARK VINA RESULT:    -0.714      0.000      0.000
REMARK INTER + INTRA:          -3.492
REMARK INTER:                  -1.882
REMARK INTRA:                  -1.610
REMARK UNBOUND:                -1.610
REMARK SMILES CCCCCCCCCCCCCCCCCCCCCCCCCCCCCC(=O)[O-]
REMARK SMILES IDX 16 1 17 2 18 3 19 4 20 5 21 6 22 7 23 8 24 9 25 10 26 11
REMARK SMILES IDX 27 12 28 13 29 14 30 15 31 16 32 17 15 18 14 19 13 20 12 21
REMARK SMILES IDX 11 22 10 23 9 24 8 25 7 26 6 27 5 28 4 29 3 30 2 31 1 32
REMARK H PARENT
REMARK Flexibility Score: inf
ROOT
ATOM      1  C   UNL     1     -22.063   1.781   9.957  1.00  0.00     0.000 C 
ENDROOT
BRANCH   1   2
ATOM      2  C   UNL     1     -21.322   3.093   9.617  1.00  0.00     0.000 C 
BRANCH   2   3
ATOM      3  C   UNL     1     -22.163   4.084   8.795  1.00  0.00     0.000 C 
BRANCH   3   4
ATOM      4  C   UNL     1     -21.873   5.549   9.160  1.00  0.00     0.000 C 
BRANCH   4   5
ATOM      5  C   UNL     1     -20.376   5.896   9.108  1.00  0.00     0.000 C 
BRANCH   5   6
ATOM      6  C   UNL     1     -19.789   6.490  10.403  1.00  0.00     0.000 C 
BRANCH   6   7
ATOM      7  C   UNL     1     -18.251   6.627  10.394  1.00  0.00     0.000 C 
BRANCH   7   8
ATOM      8  C   UNL     1     -17.794   8.035   9.973  1.00  0.00     0.000 C 
BRANCH   8   9
ATOM      9  C   UNL     1     -16.285   8.257  10.169  1.00  0.00     0.000 C 
BRANCH   9  10
ATOM     10  C   UNL     1     -15.811   9.611   9.614  1.00  0.00     0.000 C 
BRANCH  10  11
ATOM     11  C   UNL     1     -14.809  10.323  10.541  1.00  0.00     0.000 C 
BRANCH  11  12
ATOM     12  C   UNL     1     -14.907   9.948  12.033  1.00  0.00     0.000 C 
BRANCH  12  13
ATOM     13  C   UNL     1     -14.765  11.124  13.020  1.00  0.00     0.006 C 
BRANCH  13  14
ATOM     14  C   UNL     1     -13.896  10.804  14.251  1.00  0.00     0.053 C 
BRANCH  14  15
ATOM     15  C   UNL     1     -12.472  10.511  13.888  1.00  0.00     0.041 C 
ATOM     16  O   UNL     1     -11.712   9.940  14.715  1.00  0.00    -0.550 OA
ATOM     17  O   UNL     1     -11.971  10.902  12.652  1.00  0.00    -0.550 OA
ENDBRANCH  14  15
ENDBRANCH  13  14
ENDBRANCH  12  13
ENDBRANCH  11  12
ENDBRANCH  10  11
ENDBRANCH   9  10
ENDBRANCH   8   9
ENDBRANCH   7   8
ENDBRANCH   6   7
ENDBRANCH   5   6
ENDBRANCH   4   5
ENDBRANCH   3   4
ENDBRANCH   2   3
ENDBRANCH   1   2
BRANCH   1  18
ATOM     18  C   UNL     1     -22.258   1.580  11.471  1.00  0.00     0.000 C 
BRANCH  18  19
ATOM     19  C   UNL     1     -20.945   1.273  12.215  1.00  0.00     0.000 C 
BRANCH  19  20
ATOM     20  C   UNL     1     -20.895   1.729  13.685  1.00  0.00     0.000 C 
BRANCH  20  21
ATOM     21  C   UNL     1     -20.671   0.568  14.671  1.00  0.00     0.000 C 
BRANCH  21  22
ATOM     22  C   UNL     1     -21.884  -0.374  14.766  1.00  0.00     0.000 C 
BRANCH  22  23
ATOM     23  C   UNL     1     -21.674  -1.781  14.171  1.00  0.00     0.000 C 
BRANCH  23  24
ATOM     24  C   UNL     1     -20.429  -1.933  13.276  1.00  0.00    -0.000 C 
BRANCH  24  25
ATOM     25  C   UNL     1     -20.722  -2.279  11.805  1.00  0.00    -0.000 C 
BRANCH  25  26
ATOM     26  C   UNL     1     -19.591  -1.850  10.854  1.00  0.00    -0.000 C 
BRANCH  26  27
ATOM     27  C   UNL     1     -19.328  -2.876   9.735  1.00  0.00    -0.000 C 
BRANCH  27  28
ATOM     28  C   UNL     1     -20.005  -2.567   8.384  1.00  0.00    -0.000 C 
BRANCH  28  29
ATOM     29  C   UNL     1     -19.915  -1.099   7.930  1.00  0.00    -0.000 C 
BRANCH  29  30
ATOM     30  C   UNL     1     -20.970  -0.740   6.869  1.00  0.00    -0.000 C 
BRANCH  30  31
ATOM     31  C   UNL     1     -20.633   0.558   6.120  1.00  0.00    -0.003 C 
ATOM     32  C   UNL     1     -20.280   1.708   7.064  1.00  0.00     0.004 C 
ENDBRANCH  30  31
ENDBRANCH  29  30
ENDBRANCH  28  29
ENDBRANCH  27  28
ENDBRANCH  26  27
ENDBRANCH  25  26
ENDBRANCH  24  25
ENDBRANCH  23  24
ENDBRANCH  22  23
ENDBRANCH  21  22
ENDBRANCH  20  21
ENDBRANCH  19  20
ENDBRANCH  18  19
ENDBRANCH   1  18
TORSDOF 28
ENDMDL
MODEL 2
REMARK VINA RESULT:    -0.562      1.443      2.580
REMARK INTER + INTRA:          -3.093
REMARK INTER:                  -1.712
REMARK INTRA:                  -1.381
REMARK UNBOUND:                -1.610
REMARK SMILES CCCCCCCCCCCCCCCCCCCCCCCCCCCCCC(=O)[O-]
REMARK SMILES IDX 16 1 17 2 18 3 19 4 20 5 21 6 22 7 23 8 24 9 25 10 26 11
REMARK SMILES IDX 27 12 28 13 29 14 30 15 31 16 32 17 15 18 14 19 13 20 12 21
REMARK SMILES IDX 11 22 10 23 9 24 8 25 7 26 6 27 5 28 4 29 3 30 2 31 1 32
REMARK H PARENT
REMARK Flexibility Score: inf
ROOT
ATOM      1  C   UNL     1     -21.876   2.123   9.480  1.00  0.00     0.000 C 
ENDROOT
BRANCH   1   2
ATOM      2  C   UNL     1     -21.131   3.469   9.357  1.00  0.00     0.000 C 
BRANCH   2   3
ATOM      3  C   UNL     1     -21.959   4.578   8.685  1.00  0.00     0.000 C 
BRANCH   3   4
ATOM      4  C   UNL     1     -21.507   5.987   9.102  1.00  0.00     0.000 C 
BRANCH   4   5
ATOM      5  C   UNL     1     -19.978   6.145   9.127  1.00  0.00     0.000 C 
BRANCH   5   6
ATOM      6  C   UNL     1     -19.382   6.588  10.477  1.00  0.00     0.000 C 
BRANCH   6   7
ATOM      7  C   UNL     1     -17.873   6.915  10.423  1.00  0.00     0.000 C 
BRANCH   7   8
ATOM      8  C   UNL     1     -17.610   8.402  10.127  1.00  0.00     0.000 C 
BRANCH   8   9
ATOM      9  C   UNL     1     -16.252   8.644   9.448  1.00  0.00     0.000 C 
BRANCH   9  10
ATOM     10  C   UNL     1     -15.498   9.843  10.048  1.00  0.00     0.000 C 
BRANCH  10  11
ATOM     11  C   UNL     1     -15.229   9.690  11.556  1.00  0.00     0.000 C 
BRANCH  11  12
ATOM     12  C   UNL     1     -14.622  10.925  12.249  1.00  0.00     0.000 C 
BRANCH  12  13
ATOM     13  C   UNL     1     -13.108  11.123  12.039  1.00  0.00     0.006 C 
BRANCH  13  14
ATOM     14  C   UNL     1     -12.266  10.890  13.307  1.00  0.00     0.053 C 
BRANCH  14  15
ATOM     15  C   UNL     1     -10.848  10.516  12.995  1.00  0.00     0.041 C 
ATOM     16  O   UNL     1     -10.364  10.757  11.858  1.00  0.00    -0.550 OA
ATOM     17  O   UNL     1     -10.071   9.867  13.949  1.00  0.00    -0.550 OA
ENDBRANCH  14  15
ENDBRANCH  13  14
ENDBRANCH  12  13
ENDBRANCH  11  12
ENDBRANCH  10  11
ENDBRANCH   9  10
ENDBRANCH   8   9
ENDBRANCH   7   8
ENDBRANCH   6   7
ENDBRANCH   5   6
ENDBRANCH   4   5
ENDBRANCH   3   4
ENDBRANCH   2   3
ENDBRANCH   1   2
BRANCH   1  18
ATOM     18  C   UNL     1     -22.168   1.732  10.941  1.00  0.00     0.000 C 
BRANCH  18  19
ATOM     19  C   UNL     1     -20.945   1.891  11.865  1.00  0.00     0.000 C 
BRANCH  19  20
ATOM     20  C   UNL     1     -21.228   1.725  13.370  1.00  0.00     0.000 C 
BRANCH  20  21
ATOM     21  C   UNL     1     -20.714   0.389  13.937  1.00  0.00     0.000 C 
BRANCH  21  22
ATOM     22  C   UNL     1     -21.588  -0.809  13.523  1.00  0.00     0.000 C 
BRANCH  22  23
ATOM     23  C   UNL     1     -20.814  -2.088  13.143  1.00  0.00     0.000 C 
BRANCH  23  24
ATOM     24  C   UNL     1     -20.679  -2.346  11.631  1.00  0.00    -0.000 C 
BRANCH  24  25
ATOM     25  C   UNL     1     -19.811  -1.329  10.869  1.00  0.00    -0.000 C 
BRANCH  25  26
ATOM     26  C   UNL     1     -20.442  -0.882   9.539  1.00  0.00    -0.000 C 
BRANCH  26  27
ATOM     27  C   UNL     1     -20.077  -1.806   8.362  1.00  0.00    -0.000 C 
BRANCH  27  28
ATOM     28  C   UNL     1     -20.131  -3.317   8.667  1.00  0.00    -0.000 C 
BRANCH  28  29
ATOM     29  C   UNL     1     -18.793  -4.062   8.511  1.00  0.00    -0.000 C 
BRANCH  29  30
ATOM     30  C   UNL     1     -18.921  -5.572   8.774  1.00  0.00    -0.000 C 
BRANCH  30  31
ATOM     31  C   UNL     1     -20.206  -6.167   8.176  1.00  0.00    -0.003 C 
ATOM     32  C   UNL     1     -21.326  -6.305   9.207  1.00  0.00     0.004 C 
ENDBRANCH  30  31
ENDBRANCH  29  30
ENDBRANCH  28  29
ENDBRANCH  27  28
ENDBRANCH  26  27
ENDBRANCH  25  26
ENDBRANCH  24  25
ENDBRANCH  23  24
ENDBRANCH  22  23
ENDBRANCH  21  22
ENDBRANCH  20  21
ENDBRANCH  19  20
ENDBRANCH  18  19
ENDBRANCH   1  18
TORSDOF 28
ENDMDL
MODEL 3
REMARK VINA RESULT:    -0.292      3.725     11.539
REMARK INTER + INTRA:          -2.380
REMARK INTER:                  -0.286
REMARK INTRA:                  -2.094
REMARK UNBOUND:                -1.610
REMARK SMILES CCCCCCCCCCCCCCCCCCCCCCCCCCCCCC(=O)[O-]
REMARK SMILES IDX 16 1 17 2 18 3 19 4 20 5 21 6 22 7 23 8 24 9 25 10 26 11
REMARK SMILES IDX 27 12 28 13 29 14 30 15 31 16 32 17 15 18 14 19 13 20 12 21
REMARK SMILES IDX 11 22 10 23 9 24 8 25 7 26 6 27 5 28 4 29 3 30 2 31 1 32
REMARK H PARENT
REMARK Flexibility Score: inf
ROOT
ATOM      1  C   UNL     1     -22.114   2.669   9.356  1.00  0.00     0.000 C 
ENDROOT
BRANCH   1   2
ATOM      2  C   UNL     1     -21.249   2.586  10.632  1.00  0.00     0.000 C 
BRANCH   2   3
ATOM      3  C   UNL     1     -21.368   1.245  11.376  1.00  0.00     0.000 C 
BRANCH   3   4
ATOM      4  C   UNL     1     -21.042   1.370  12.874  1.00  0.00     0.000 C 
BRANCH   4   5
ATOM      5  C   UNL     1     -22.114   0.740  13.777  1.00  0.00     0.000 C 
BRANCH   5   6
ATOM      6  C   UNL     1     -21.588  -0.239  14.844  1.00  0.00     0.000 C 
BRANCH   6   7
ATOM      7  C   UNL     1     -20.402  -1.109  14.372  1.00  0.00     0.000 C 
BRANCH   7   8
ATOM      8  C   UNL     1     -20.867  -2.435  13.744  1.00  0.00     0.000 C 
BRANCH   8   9
ATOM      9  C   UNL     1     -21.026  -2.348  12.217  1.00  0.00     0.000 C 
BRANCH   9  10
ATOM     10  C   UNL     1     -19.715  -1.962  11.509  1.00  0.00     0.000 C 
BRANCH  10  11
ATOM     11  C   UNL     1     -19.918  -1.601  10.026  1.00  0.00     0.000 C 
BRANCH  11  12
ATOM     12  C   UNL     1     -19.815  -2.779   9.038  1.00  0.00     0.000 C 
BRANCH  12  13
ATOM     13  C   UNL     1     -19.818  -2.391   7.546  1.00  0.00     0.006 C 
BRANCH  13  14
ATOM     14  C   UNL     1     -20.776  -1.236   7.202  1.00  0.00     0.053 C 
BRANCH  14  15
ATOM     15  C   UNL     1     -20.059  -0.034   6.666  1.00  0.00     0.041 C 
ATOM     16  O   UNL     1     -20.360   1.119   7.073  1.00  0.00    -0.550 OA
ATOM     17  O   UNL     1     -19.083  -0.183   5.687  1.00  0.00    -0.550 OA
ENDBRANCH  14  15
ENDBRANCH  13  14
ENDBRANCH  12  13
ENDBRANCH  11  12
ENDBRANCH  10  11
ENDBRANCH   9  10
ENDBRANCH   8   9
ENDBRANCH   7   8
ENDBRANCH   6   7
ENDBRANCH   5   6
ENDBRANCH   4   5
ENDBRANCH   3   4
ENDBRANCH   2   3
ENDBRANCH   1   2
BRANCH   1  18
ATOM     18  C   UNL     1     -21.712   3.837   8.436  1.00  0.00     0.000 C 
BRANCH  18  19
ATOM     19  C   UNL     1     -21.825   5.213   9.121  1.00  0.00     0.000 C 
BRANCH  19  20
ATOM     20  C   UNL     1     -20.502   5.986   9.273  1.00  0.00     0.000 C 
BRANCH  20  21
ATOM     21  C   UNL     1     -19.884   5.857  10.677  1.00  0.00     0.000 C 
BRANCH  21  22
ATOM     22  C   UNL     1     -18.540   6.597  10.806  1.00  0.00     0.000 C 
BRANCH  22  23
ATOM     23  C   UNL     1     -18.182   7.522   9.626  1.00  0.00     0.000 C 
BRANCH  23  24
ATOM     24  C   UNL     1     -17.480   8.837  10.015  1.00  0.00    -0.000 C 
BRANCH  24  25
ATOM     25  C   UNL     1     -15.958   8.729  10.221  1.00  0.00    -0.000 C 
BRANCH  25  26
ATOM     26  C   UNL     1     -15.207  10.007   9.810  1.00  0.00    -0.000 C 
BRANCH  26  27
ATOM     27  C   UNL     1     -14.518  10.704  10.999  1.00  0.00    -0.000 C 
BRANCH  27  28
ATOM     28  C   UNL     1     -15.007  10.268  12.394  1.00  0.00    -0.000 C 
BRANCH  28  29
ATOM     29  C   UNL     1     -14.001  10.490  13.538  1.00  0.00    -0.000 C 
BRANCH  29  30
ATOM     30  C   UNL     1     -12.652  11.041  13.042  1.00  0.00    -0.000 C 
BRANCH  30  31
ATOM     31  C   UNL     1     -11.512  10.789  14.041  1.00  0.00    -0.003 C 
ATOM     32  C   UNL     1     -10.218  10.345  13.357  1.00  0.00     0.004 C 
ENDBRANCH  30  31
ENDBRANCH  29  30
ENDBRANCH  28  29
ENDBRANCH  27  28
ENDBRANCH  26  27
ENDBRANCH  25  26
ENDBRANCH  24  25
ENDBRANCH  23  24
ENDBRANCH  22  23
ENDBRANCH  21  22
ENDBRANCH  20  21
ENDBRANCH  19  20
ENDBRANCH  18  19
ENDBRANCH   1  18
TORSDOF 28
ENDMDL
MODEL 4
REMARK VINA RESULT:    -0.183      3.951     11.978
REMARK INTER + INTRA:          -2.094
REMARK INTER:                  -0.711
REMARK INTRA:                  -1.383
REMARK UNBOUND:                -1.610
REMARK SMILES CCCCCCCCCCCCCCCCCCCCCCCCCCCCCC(=O)[O-]
REMARK SMILES IDX 16 1 17 2 18 3 19 4 20 5 21 6 22 7 23 8 24 9 25 10 26 11
REMARK SMILES IDX 27 12 28 13 29 14 30 15 31 16 32 17 15 18 14 19 13 20 12 21
REMARK SMILES IDX 11 22 10 23 9 24 8 25 7 26 6 27 5 28 4 29 3 30 2 31 1 32
REMARK H PARENT
REMARK Flexibility Score: inf
ROOT
ATOM      1  C   UNL     1     -20.743   4.144   8.368  1.00  0.00     0.000 C 
ENDROOT
BRANCH   1   2
ATOM      2  C   UNL     1     -21.439   2.810   8.716  1.00  0.00     0.000 C 
BRANCH   2   3
ATOM      3  C   UNL     1     -22.294   2.871   9.994  1.00  0.00     0.000 C 
BRANCH   3   4
ATOM      4  C   UNL     1     -21.900   1.794  11.018  1.00  0.00     0.000 C 
BRANCH   4   5
ATOM      5  C   UNL     1     -21.157   2.367  12.237  1.00  0.00     0.000 C 
BRANCH   5   6
ATOM      6  C   UNL     1     -20.860   1.358  13.364  1.00  0.00     0.000 C 
BRANCH   6   7
ATOM      7  C   UNL     1     -21.664   0.043  13.261  1.00  0.00     0.000 C 
BRANCH   7   8
ATOM      8  C   UNL     1     -21.049  -1.083  14.110  1.00  0.00     0.000 C 
BRANCH   8   9
ATOM      9  C   UNL     1     -20.339  -2.151  13.261  1.00  0.00     0.000 C 
BRANCH   9  10
ATOM     10  C   UNL     1     -20.881  -2.217  11.823  1.00  0.00     0.000 C 
BRANCH  10  11
ATOM     11  C   UNL     1     -19.860  -1.741  10.773  1.00  0.00     0.000 C 
BRANCH  11  12
ATOM     12  C   UNL     1     -19.576  -2.734   9.630  1.00  0.00     0.000 C 
BRANCH  12  13
ATOM     13  C   UNL     1     -19.820  -2.190   8.208  1.00  0.00     0.006 C 
BRANCH  13  14
ATOM     14  C   UNL     1     -20.206  -0.700   8.166  1.00  0.00     0.053 C 
BRANCH  14  15
ATOM     15  C   UNL     1     -20.202  -0.143   6.775  1.00  0.00     0.041 C 
ATOM     16  O   UNL     1     -19.541  -0.712   5.866  1.00  0.00    -0.550 OA
ATOM     17  O   UNL     1     -20.899   1.025   6.488  1.00  0.00    -0.550 OA
ENDBRANCH  14  15
ENDBRANCH  13  14
ENDBRANCH  12  13
ENDBRANCH  11  12
ENDBRANCH  10  11
ENDBRANCH   9  10
ENDBRANCH   8   9
ENDBRANCH   7   8
ENDBRANCH   6   7
ENDBRANCH   5   6
ENDBRANCH   4   5
ENDBRANCH   3   4
ENDBRANCH   2   3
ENDBRANCH   1   2
BRANCH   1  18
ATOM     18  C   UNL     1     -20.993   5.240   9.420  1.00  0.00     0.000 C 
BRANCH  18  19
ATOM     19  C   UNL     1     -20.098   6.480   9.227  1.00  0.00     0.000 C 
BRANCH  19  20
ATOM     20  C   UNL     1     -18.958   6.638  10.249  1.00  0.00     0.000 C 
BRANCH  20  21
ATOM     21  C   UNL     1     -18.282   8.020  10.191  1.00  0.00     0.000 C 
BRANCH  21  22
ATOM     22  C   UNL     1     -16.756   7.929  10.001  1.00  0.00     0.000 C 
BRANCH  22  23
ATOM     23  C   UNL     1     -15.945   9.077  10.633  1.00  0.00     0.000 C 
BRANCH  23  24
ATOM     24  C   UNL     1     -15.231  10.004   9.631  1.00  0.00    -0.000 C 
BRANCH  24  25
ATOM     25  C   UNL     1     -14.387  11.124  10.264  1.00  0.00    -0.000 C 
BRANCH  25  26
ATOM     26  C   UNL     1     -13.240  10.587  11.138  1.00  0.00    -0.000 C 
BRANCH  26  27
ATOM     27  C   UNL     1     -11.848  10.959  10.594  1.00  0.00    -0.000 C 
BRANCH  27  28
ATOM     28  C   UNL     1     -10.657  10.500  11.459  1.00  0.00    -0.000 C 
BRANCH  28  29
ATOM     29  C   UNL     1     -10.592  11.125  12.865  1.00  0.00    -0.000 C 
BRANCH  29  30
ATOM     30  C   UNL     1     -11.012  10.142  13.971  1.00  0.00    -0.000 C 
BRANCH  30  31
ATOM     31  C   UNL     1     -12.113  10.714  14.879  1.00  0.00    -0.003 C 
ATOM     32  C   UNL     1     -13.461  10.833  14.165  1.00  0.00     0.004 C 
ENDBRANCH  30  31
ENDBRANCH  29  30
ENDBRANCH  28  29
ENDBRANCH  27  28
ENDBRANCH  26  27
ENDBRANCH  25  26
ENDBRANCH  24  25
ENDBRANCH  23  24
ENDBRANCH  22  23
ENDBRANCH  21  22
ENDBRANCH  20  21
ENDBRANCH  19  20
ENDBRANCH  18  19
ENDBRANCH   1  18
TORSDOF 28
ENDMDL
MODEL 5
REMARK VINA RESULT:     0.235      1.941      3.271
REMARK INTER + INTRA:          -0.990
REMARK INTER:                   0.531
REMARK INTRA:                  -1.521
REMARK UNBOUND:                -1.610
REMARK SMILES CCCCCCCCCCCCCCCCCCCCCCCCCCCCCC(=O)[O-]
REMARK SMILES IDX 16 1 17 2 18 3 19 4 20 5 21 6 22 7 23 8 24 9 25 10 26 11
REMARK SMILES IDX 27 12 28 13 29 14 30 15 31 16 32 17 15 18 14 19 13 20 12 21
REMARK SMILES IDX 11 22 10 23 9 24 8 25 7 26 6 27 5 28 4 29 3 30 2 31 1 32
REMARK H PARENT
REMARK Flexibility Score: inf
ROOT
ATOM      1  C   UNL     1     -21.002   2.046  11.174  1.00  0.00     0.000 C 
ENDROOT
BRANCH   1   2
ATOM      2  C   UNL     1     -21.869   2.031   9.896  1.00  0.00     0.000 C 
BRANCH   2   3
ATOM      3  C   UNL     1     -21.471   3.100   8.864  1.00  0.00     0.000 C 
BRANCH   3   4
ATOM      4  C   UNL     1     -22.298   4.389   9.000  1.00  0.00     0.000 C 
BRANCH   4   5
ATOM      5  C   UNL     1     -21.459   5.664   8.817  1.00  0.00     0.000 C 
BRANCH   5   6
ATOM      6  C   UNL     1     -20.387   5.911   9.897  1.00  0.00     0.000 C 
BRANCH   6   7
ATOM      7  C   UNL     1     -19.109   6.599   9.371  1.00  0.00     0.000 C 
BRANCH   7   8
ATOM      8  C   UNL     1     -18.482   7.541  10.415  1.00  0.00     0.000 C 
BRANCH   8   9
ATOM      9  C   UNL     1     -16.953   7.401  10.503  1.00  0.00     0.000 C 
BRANCH   9  10
ATOM     10  C   UNL     1     -16.218   8.369   9.559  1.00  0.00     0.000 C 
BRANCH  10  11
ATOM     11  C   UNL     1     -15.778   9.669  10.256  1.00  0.00     0.000 C 
BRANCH  11  12
ATOM     12  C   UNL     1     -15.087   9.487  11.621  1.00  0.00     0.000 C 
BRANCH  12  13
ATOM     13  C   UNL     1     -14.662  10.790  12.326  1.00  0.00     0.006 C 
BRANCH  13  14
ATOM     14  C   UNL     1     -14.147  10.584  13.763  1.00  0.00     0.053 C 
BRANCH  14  15
ATOM     15  C   UNL     1     -12.660  10.740  13.869  1.00  0.00     0.041 C 
ATOM     16  O   UNL     1     -12.096  10.693  14.994  1.00  0.00    -0.550 OA
ATOM     17  O   UNL     1     -11.900  10.976  12.729  1.00  0.00    -0.550 OA
ENDBRANCH  14  15
ENDBRANCH  13  14
ENDBRANCH  12  13
ENDBRANCH  11  12
ENDBRANCH  10  11
ENDBRANCH   9  10
ENDBRANCH   8   9
ENDBRANCH   7   8
ENDBRANCH   6   7
ENDBRANCH   5   6
ENDBRANCH   4   5
ENDBRANCH   3   4
ENDBRANCH   2   3
ENDBRANCH   1   2
BRANCH   1  18
ATOM     18  C   UNL     1     -21.707   1.403  12.382  1.00  0.00     0.000 C 
BRANCH  18  19
ATOM     19  C   UNL     1     -20.732   0.705  13.350  1.00  0.00     0.000 C 
BRANCH  19  20
ATOM     20  C   UNL     1     -21.284  -0.546  14.058  1.00  0.00     0.000 C 
BRANCH  20  21
ATOM     21  C   UNL     1     -21.230  -1.810  13.180  1.00  0.00     0.000 C 
BRANCH  21  22
ATOM     22  C   UNL     1     -19.907  -1.939  12.403  1.00  0.00     0.000 C 
BRANCH  22  23
ATOM     23  C   UNL     1     -20.051  -2.336  10.920  1.00  0.00     0.000 C 
BRANCH  23  24
ATOM     24  C   UNL     1     -20.475  -1.196   9.976  1.00  0.00    -0.000 C 
BRANCH  24  25
ATOM     25  C   UNL     1     -19.850  -1.245   8.570  1.00  0.00    -0.000 C 
BRANCH  25  26
ATOM     26  C   UNL     1     -20.111  -2.578   7.847  1.00  0.00    -0.000 C 
BRANCH  26  27
ATOM     27  C   UNL     1     -19.024  -3.633   8.125  1.00  0.00    -0.000 C 
BRANCH  27  28
ATOM     28  C   UNL     1     -19.468  -4.823   9.001  1.00  0.00    -0.000 C 
BRANCH  28  29
ATOM     29  C   UNL     1     -20.431  -5.811   8.319  1.00  0.00    -0.000 C 
BRANCH  29  30
ATOM     30  C   UNL     1     -21.335  -6.547   9.322  1.00  0.00    -0.000 C 
BRANCH  30  31
ATOM     31  C   UNL     1     -22.716  -6.881   8.735  1.00  0.00    -0.003 C 
ATOM     32  C   UNL     1     -22.867  -8.364   8.396  1.00  0.00     0.004 C 
ENDBRANCH  30  31
ENDBRANCH  29  30
ENDBRANCH  28  29
ENDBRANCH  27  28
ENDBRANCH  26  27
ENDBRANCH  25  26
ENDBRANCH  24  25
ENDBRANCH  23  24
ENDBRANCH  22  23
ENDBRANCH  21  22
ENDBRANCH  20  21
ENDBRANCH  19  20
ENDBRANCH  18  19
ENDBRANCH   1  18
TORSDOF 28
ENDMDL
MODEL 6
REMARK VINA RESULT:     0.286      6.736     14.216
REMARK INTER + INTRA:          -0.856
REMARK INTER:                   0.000
REMARK INTRA:                  -0.856
REMARK UNBOUND:                -1.610
REMARK SMILES CCCCCCCCCCCCCCCCCCCCCCCCCCCCCC(=O)[O-]
REMARK SMILES IDX 16 1 17 2 18 3 19 4 20 5 21 6 22 7 23 8 24 9 25 10 26 11
REMARK SMILES IDX 27 12 28 13 29 14 30 15 31 16 32 17 15 18 14 19 13 20 12 21
REMARK SMILES IDX 11 22 10 23 9 24 8 25 7 26 6 27 5 28 4 29 3 30 2 31 1 32
REMARK H PARENT
REMARK Flexibility Score: inf
ROOT
ATOM      1  C   UNL     1     -20.937   0.902   9.524  1.00  0.00     0.000 C 
ENDROOT
BRANCH   1   2
ATOM      2  C   UNL     1     -20.379   0.795   8.088  1.00  0.00     0.000 C 
BRANCH   2   3
ATOM      3  C   UNL     1     -20.877  -0.441   7.320  1.00  0.00     0.000 C 
BRANCH   3   4
ATOM      4  C   UNL     1     -19.921  -1.640   7.447  1.00  0.00     0.000 C 
BRANCH   4   5
ATOM      5  C   UNL     1     -19.964  -2.298   8.835  1.00  0.00     0.000 C 
BRANCH   5   6
ATOM      6  C   UNL     1     -18.944  -3.431   9.062  1.00  0.00     0.000 C 
BRANCH   6   7
ATOM      7  C   UNL     1     -19.383  -4.798   8.491  1.00  0.00     0.000 C 
BRANCH   7   8
ATOM      8  C   UNL     1     -20.669  -5.321   9.156  1.00  0.00     0.000 C 
BRANCH   8   9
ATOM      9  C   UNL     1     -21.213  -6.592   8.484  1.00  0.00     0.000 C 
BRANCH   9  10
ATOM     10  C   UNL     1     -22.497  -7.110   9.155  1.00  0.00     0.000 C 
BRANCH  10  11
ATOM     11  C   UNL     1     -23.654  -7.315   8.160  1.00  0.00     0.000 C 
BRANCH  11  12
ATOM     12  C   UNL     1     -24.461  -8.614   8.343  1.00  0.00     0.000 C 
BRANCH  12  13
ATOM     13  C   UNL     1     -25.777  -8.469   9.133  1.00  0.00     0.006 C 
BRANCH  13  14
ATOM     14  C   UNL     1     -25.843  -7.206  10.010  1.00  0.00     0.053 C 
BRANCH  14  15
ATOM     15  C   UNL     1     -26.797  -7.351  11.157  1.00  0.00     0.041 C 
ATOM     16  O   UNL     1     -27.238  -8.487  11.475  1.00  0.00    -0.550 OA
ATOM     17  O   UNL     1     -27.229  -6.227  11.853  1.00  0.00    -0.550 OA
ENDBRANCH  14  15
ENDBRANCH  13  14
ENDBRANCH  12  13
ENDBRANCH  11  12
ENDBRANCH  10  11
ENDBRANCH   9  10
ENDBRANCH   8   9
ENDBRANCH   7   8
ENDBRANCH   6   7
ENDBRANCH   5   6
ENDBRANCH   4   5
ENDBRANCH   3   4
ENDBRANCH   2   3
ENDBRANCH   1   2
BRANCH   1  18
ATOM     18  C   UNL     1     -21.878   2.106   9.712  1.00  0.00     0.000 C 
BRANCH  18  19
ATOM     19  C   UNL     1     -21.129   3.449   9.812  1.00  0.00     0.000 C 
BRANCH  19  20
ATOM     20  C   UNL     1     -21.561   4.524   8.798  1.00  0.00     0.000 C 
BRANCH  20  21
ATOM     21  C   UNL     1     -20.874   5.883   9.028  1.00  0.00     0.000 C 
BRANCH  21  22
ATOM     22  C   UNL     1     -20.276   6.016  10.440  1.00  0.00     0.000 C 
BRANCH  22  23
ATOM     23  C   UNL     1     -18.750   6.227  10.492  1.00  0.00     0.000 C 
BRANCH  23  24
ATOM     24  C   UNL     1     -18.257   7.582   9.950  1.00  0.00    -0.000 C 
BRANCH  24  25
ATOM     25  C   UNL     1     -16.735   7.800  10.022  1.00  0.00    -0.000 C 
BRANCH  25  26
ATOM     26  C   UNL     1     -16.354   9.258  10.331  1.00  0.00    -0.000 C 
BRANCH  26  27
ATOM     27  C   UNL     1     -15.004   9.668   9.713  1.00  0.00    -0.000 C 
BRANCH  27  28
ATOM     28  C   UNL     1     -14.438  11.017  10.199  1.00  0.00    -0.000 C 
BRANCH  28  29
ATOM     29  C   UNL     1     -13.729  10.972  11.565  1.00  0.00    -0.000 C 
BRANCH  29  30
ATOM     30  C   UNL     1     -14.708  10.788  12.737  1.00  0.00    -0.000 C 
BRANCH  30  31
ATOM     31  C   UNL     1     -13.997  10.755  14.099  1.00  0.00    -0.003 C 
ATOM     32  C   UNL     1     -12.500  10.468  13.973  1.00  0.00     0.004 C 
ENDBRANCH  30  31
ENDBRANCH  29  30
ENDBRANCH  28  29
ENDBRANCH  27  28
ENDBRANCH  26  27
ENDBRANCH  25  26
ENDBRANCH  24  25
ENDBRANCH  23  24
ENDBRANCH  22  23
ENDBRANCH  21  22
ENDBRANCH  20  21
ENDBRANCH  19  20
ENDBRANCH  18  19
ENDBRANCH   1  18
TORSDOF 28
ENDMDL
MODEL 7
REMARK VINA RESULT:     0.469      4.911     12.071
REMARK INTER + INTRA:          -0.374
REMARK INTER:                   1.502
REMARK INTRA:                  -1.876
REMARK UNBOUND:                -1.610
REMARK SMILES CCCCCCCCCCCCCCCCCCCCCCCCCCCCCC(=O)[O-]
REMARK SMILES IDX 16 1 17 2 18 3 19 4 20 5 21 6 22 7 23 8 24 9 25 10 26 11
REMARK SMILES IDX 27 12 28 13 29 14 30 15 31 16 32 17 15 18 14 19 13 20 12 21
REMARK SMILES IDX 11 22 10 23 9 24 8 25 7 26 6 27 5 28 4 29 3 30 2 31 1 32
REMARK H PARENT
REMARK Flexibility Score: inf
ROOT
ATOM      1  C   UNL     1     -21.802   2.284   9.152  1.00  0.00     0.000 C 
ENDROOT
BRANCH   1   2
ATOM      2  C   UNL     1     -21.717   2.543  10.671  1.00  0.00     0.000 C 
BRANCH   2   3
ATOM      3  C   UNL     1     -21.205   1.338  11.478  1.00  0.00     0.000 C 
BRANCH   3   4
ATOM      4  C   UNL     1     -21.058   1.651  12.977  1.00  0.00     0.000 C 
BRANCH   4   5
ATOM      5  C   UNL     1     -21.956   0.774  13.865  1.00  0.00     0.000 C 
BRANCH   5   6
ATOM      6  C   UNL     1     -21.213  -0.134  14.864  1.00  0.00     0.000 C 
BRANCH   6   7
ATOM      7  C   UNL     1     -20.164  -1.063  14.213  1.00  0.00     0.000 C 
BRANCH   7   8
ATOM      8  C   UNL     1     -20.764  -2.419  13.801  1.00  0.00     0.000 C 
BRANCH   8   9
ATOM      9  C   UNL     1     -21.058  -2.508  12.294  1.00  0.00     0.000 C 
BRANCH   9  10
ATOM     10  C   UNL     1     -19.866  -2.053  11.433  1.00  0.00     0.000 C 
BRANCH  10  11
ATOM     11  C   UNL     1     -20.295  -1.258  10.186  1.00  0.00     0.000 C 
BRANCH  11  12
ATOM     12  C   UNL     1     -19.610  -1.673   8.870  1.00  0.00     0.000 C 
BRANCH  12  13
ATOM     13  C   UNL     1     -19.946  -3.091   8.368  1.00  0.00     0.006 C 
BRANCH  13  14
ATOM     14  C   UNL     1     -18.924  -4.162   8.791  1.00  0.00     0.053 C 
BRANCH  14  15
ATOM     15  C   UNL     1     -19.389  -5.554   8.486  1.00  0.00     0.041 C 
ATOM     16  O   UNL     1     -18.689  -6.313   7.766  1.00  0.00    -0.550 OA
ATOM     17  O   UNL     1     -20.615  -6.001   8.966  1.00  0.00    -0.550 OA
ENDBRANCH  14  15
ENDBRANCH  13  14
ENDBRANCH  12  13
ENDBRANCH  11  12
ENDBRANCH  10  11
ENDBRANCH   9  10
ENDBRANCH   8   9
ENDBRANCH   7   8
ENDBRANCH   6   7
ENDBRANCH   5   6
ENDBRANCH   4   5
ENDBRANCH   3   4
ENDBRANCH   2   3
ENDBRANCH   1   2
BRANCH   1  18
ATOM     18  C   UNL     1     -21.335   3.487   8.312  1.00  0.00     0.000 C 
BRANCH  18  19
ATOM     19  C   UNL     1     -21.828   4.838   8.866  1.00  0.00     0.000 C 
BRANCH  19  20
ATOM     20  C   UNL     1     -20.731   5.891   9.114  1.00  0.00     0.000 C 
BRANCH  20  21
ATOM     21  C   UNL     1     -20.182   5.864  10.552  1.00  0.00     0.000 C 
BRANCH  21  22
ATOM     22  C   UNL     1     -18.735   6.381  10.647  1.00  0.00     0.000 C 
BRANCH  22  23
ATOM     23  C   UNL     1     -18.337   7.422   9.581  1.00  0.00     0.000 C 
BRANCH  23  24
ATOM     24  C   UNL     1     -17.709   8.716  10.131  1.00  0.00    -0.000 C 
BRANCH  24  25
ATOM     25  C   UNL     1     -16.199   8.638  10.420  1.00  0.00    -0.000 C 
BRANCH  25  26
ATOM     26  C   UNL     1     -15.409   9.795   9.786  1.00  0.00    -0.000 C 
BRANCH  26  27
ATOM     27  C   UNL     1     -14.276  10.314  10.691  1.00  0.00    -0.000 C 
BRANCH  27  28
ATOM     28  C   UNL     1     -14.734  11.025  11.980  1.00  0.00    -0.000 C 
BRANCH  28  29
ATOM     29  C   UNL     1     -14.334  10.323  13.290  1.00  0.00    -0.000 C 
BRANCH  29  30
ATOM     30  C   UNL     1     -13.179  11.035  14.016  1.00  0.00    -0.000 C 
BRANCH  30  31
ATOM     31  C   UNL     1     -11.910  10.171  14.091  1.00  0.00    -0.003 C 
ATOM     32  C   UNL     1     -10.669  10.904  13.580  1.00  0.00     0.004 C 
ENDBRANCH  30  31
ENDBRANCH  29  30
ENDBRANCH  28  29
ENDBRANCH  27  28
ENDBRANCH  26  27
ENDBRANCH  25  26
ENDBRANCH  24  25
ENDBRANCH  23  24
ENDBRANCH  22  23
ENDBRANCH  21  22
ENDBRANCH  20  21
ENDBRANCH  19  20
ENDBRANCH  18  19
ENDBRANCH   1  18
TORSDOF 28
ENDMDL
MODEL 8
REMARK VINA RESULT:     0.600      2.921      4.508
REMARK INTER + INTRA:          -0.029
REMARK INTER:                   1.325
REMARK INTRA:                  -1.353
REMARK UNBOUND:                -1.610
REMARK SMILES CCCCCCCCCCCCCCCCCCCCCCCCCCCCCC(=O)[O-]
REMARK SMILES IDX 16 1 17 2 18 3 19 4 20 5 21 6 22 7 23 8 24 9 25 10 26 11
REMARK SMILES IDX 27 12 28 13 29 14 30 15 31 16 32 17 15 18 14 19 13 20 12 21
REMARK SMILES IDX 11 22 10 23 9 24 8 25 7 26 6 27 5 28 4 29 3 30 2 31 1 32
REMARK H PARENT
REMARK Flexibility Score: inf
ROOT
ATOM      1  C   UNL     1     -21.115   1.810  13.286  1.00  0.00     0.000 C 
ENDROOT
BRANCH   1   2
ATOM      2  C   UNL     1     -20.979   1.881  11.750  1.00  0.00     0.000 C 
BRANCH   2   3
ATOM      3  C   UNL     1     -22.317   1.759  11.002  1.00  0.00     0.000 C 
BRANCH   3   4
ATOM      4  C   UNL     1     -22.300   2.473   9.641  1.00  0.00     0.000 C 
BRANCH   4   5
ATOM      5  C   UNL     1     -21.085   3.399   9.463  1.00  0.00     0.000 C 
BRANCH   5   6
ATOM      6  C   UNL     1     -21.416   4.886   9.228  1.00  0.00     0.000 C 
BRANCH   6   7
ATOM      7  C   UNL     1     -20.644   5.856  10.149  1.00  0.00     0.000 C 
BRANCH   7   8
ATOM      8  C   UNL     1     -19.549   6.631   9.392  1.00  0.00     0.000 C 
BRANCH   8   9
ATOM      9  C   UNL     1     -18.346   6.985  10.282  1.00  0.00     0.000 C 
BRANCH   9  10
ATOM     10  C   UNL     1     -17.735   8.353   9.929  1.00  0.00     0.000 C 
BRANCH  10  11
ATOM     11  C   UNL     1     -16.296   8.520  10.450  1.00  0.00     0.000 C 
BRANCH  11  12
ATOM     12  C   UNL     1     -15.441   9.565   9.708  1.00  0.00     0.000 C 
BRANCH  12  13
ATOM     13  C   UNL     1     -14.737  10.601  10.606  1.00  0.00     0.006 C 
BRANCH  13  14
ATOM     14  C   UNL     1     -15.114  10.495  12.096  1.00  0.00     0.053 C 
BRANCH  14  15
ATOM     15  C   UNL     1     -13.946  10.740  13.003  1.00  0.00     0.041 C 
ATOM     16  O   UNL     1     -12.802  10.950  12.521  1.00  0.00    -0.550 OA
ATOM     17  O   UNL     1     -14.114  10.698  14.383  1.00  0.00    -0.550 OA
ENDBRANCH  14  15
ENDBRANCH  13  14
ENDBRANCH  12  13
ENDBRANCH  11  12
ENDBRANCH  10  11
ENDBRANCH   9  10
ENDBRANCH   8   9
ENDBRANCH   7   8
ENDBRANCH   6   7
ENDBRANCH   5   6
ENDBRANCH   4   5
ENDBRANCH   3   4
ENDBRANCH   2   3
ENDBRANCH   1   2
BRANCH   1  18
ATOM     18  C   UNL     1     -20.640   0.466  13.867  1.00  0.00     0.000 C 
BRANCH  18  19
ATOM     19  C   UNL     1     -21.615  -0.694  13.585  1.00  0.00     0.000 C 
BRANCH  19  20
ATOM     20  C   UNL     1     -20.984  -1.952  12.961  1.00  0.00     0.000 C 
BRANCH  20  21
ATOM     21  C   UNL     1     -19.805  -1.634  12.022  1.00  0.00     0.000 C 
BRANCH  21  22
ATOM     22  C   UNL     1     -20.254  -0.977  10.705  1.00  0.00     0.000 C 
BRANCH  22  23
ATOM     23  C   UNL     1     -19.857  -1.736   9.422  1.00  0.00     0.000 C 
BRANCH  23  24
ATOM     24  C   UNL     1     -20.023  -3.266   9.489  1.00  0.00    -0.000 C 
BRANCH  24  25
ATOM     25  C   UNL     1     -19.219  -4.057   8.442  1.00  0.00    -0.000 C 
BRANCH  25  26
ATOM     26  C   UNL     1     -19.226  -5.573   8.703  1.00  0.00    -0.000 C 
BRANCH  26  27
ATOM     27  C   UNL     1     -20.555  -6.071   9.300  1.00  0.00    -0.000 C 
BRANCH  27  28
ATOM     28  C   UNL     1     -21.457  -6.865   8.334  1.00  0.00    -0.000 C 
BRANCH  28  29
ATOM     29  C   UNL     1     -22.886  -7.128   8.842  1.00  0.00    -0.000 C 
BRANCH  29  30
ATOM     30  C   UNL     1     -23.478  -8.440   8.299  1.00  0.00    -0.000 C 
BRANCH  30  31
ATOM     31  C   UNL     1     -24.987  -8.337   8.027  1.00  0.00    -0.003 C 
ATOM     32  C   UNL     1     -25.831  -8.848   9.195  1.00  0.00     0.004 C 
ENDBRANCH  30  31
ENDBRANCH  29  30
ENDBRANCH  28  29
ENDBRANCH  27  28
ENDBRANCH  26  27
ENDBRANCH  25  26
ENDBRANCH  24  25
ENDBRANCH  23  24
ENDBRANCH  22  23
ENDBRANCH  21  22
ENDBRANCH  20  21
ENDBRANCH  19  20
ENDBRANCH  18  19
ENDBRANCH   1  18
TORSDOF 28
ENDMDL
MODEL 9
REMARK VINA RESULT:     0.644      3.304     10.794
REMARK INTER + INTRA:           0.087
REMARK INTER:                   1.710
REMARK INTRA:                  -1.623
REMARK UNBOUND:                -1.610
REMARK SMILES CCCCCCCCCCCCCCCCCCCCCCCCCCCCCC(=O)[O-]
REMARK SMILES IDX 16 1 17 2 18 3 19 4 20 5 21 6 22 7 23 8 24 9 25 10 26 11
REMARK SMILES IDX 27 12 28 13 29 14 30 15 31 16 32 17 15 18 14 19 13 20 12 21
REMARK SMILES IDX 11 22 10 23 9 24 8 25 7 26 6 27 5 28 4 29 3 30 2 31 1 32
REMARK H PARENT
REMARK Flexibility Score: inf
ROOT
ATOM      1  C   UNL     1     -21.050   1.574   7.163  1.00  0.00     0.000 C 
ENDROOT
BRANCH   1   2
ATOM      2  C   UNL     1     -20.379   0.442   7.970  1.00  0.00     0.000 C 
BRANCH   2   3
ATOM      3  C   UNL     1     -19.741  -0.650   7.094  1.00  0.00     0.000 C 
BRANCH   3   4
ATOM      4  C   UNL     1     -20.445  -2.010   7.241  1.00  0.00     0.000 C 
BRANCH   4   5
ATOM      5  C   UNL     1     -19.475  -3.157   7.568  1.00  0.00     0.000 C 
BRANCH   5   6
ATOM      6  C   UNL     1     -19.511  -3.658   9.025  1.00  0.00     0.000 C 
BRANCH   6   7
ATOM      7  C   UNL     1     -19.139  -2.584  10.071  1.00  0.00     0.000 C 
BRANCH   7   8
ATOM      8  C   UNL     1     -20.370  -2.069  10.838  1.00  0.00     0.000 C 
BRANCH   8   9
ATOM      9  C   UNL     1     -20.058  -1.728  12.305  1.00  0.00     0.000 C 
BRANCH   9  10
ATOM     10  C   UNL     1     -21.016  -2.422  13.288  1.00  0.00     0.000 C 
BRANCH  10  11
ATOM     11  C   UNL     1     -21.767  -1.430  14.195  1.00  0.00     0.000 C 
BRANCH  11  12
ATOM     12  C   UNL     1     -20.876  -0.513  15.054  1.00  0.00     0.000 C 
BRANCH  12  13
ATOM     13  C   UNL     1     -20.425   0.795  14.375  1.00  0.00     0.006 C 
BRANCH  13  14
ATOM     14  C   UNL     1     -21.547   1.521  13.610  1.00  0.00     0.053 C 
BRANCH  14  15
ATOM     15  C   UNL     1     -21.178   1.812  12.187  1.00  0.00     0.041 C 
ATOM     16  O   UNL     1     -20.506   2.839  11.903  1.00  0.00    -0.550 OA
ATOM     17  O   UNL     1     -21.607   0.969  11.168  1.00  0.00    -0.550 OA
ENDBRANCH  14  15
ENDBRANCH  13  14
ENDBRANCH  12  13
ENDBRANCH  11  12
ENDBRANCH  10  11
ENDBRANCH   9  10
ENDBRANCH   8   9
ENDBRANCH   7   8
ENDBRANCH   6   7
ENDBRANCH   5   6
ENDBRANCH   4   5
ENDBRANCH   3   4
ENDBRANCH   2   3
ENDBRANCH   1   2
BRANCH   1  18
ATOM     18  C   UNL     1     -20.585   2.976   7.598  1.00  0.00     0.000 C 
BRANCH  18  19
ATOM     19  C   UNL     1     -21.274   3.470   8.884  1.00  0.00     0.000 C 
BRANCH  19  20
ATOM     20  C   UNL     1     -22.269   4.631   8.697  1.00  0.00     0.000 C 
BRANCH  20  21
ATOM     21  C   UNL     1     -21.710   5.988   9.161  1.00  0.00     0.000 C 
BRANCH  21  22
ATOM     22  C   UNL     1     -20.430   5.846  10.005  1.00  0.00     0.000 C 
BRANCH  22  23
ATOM     23  C   UNL     1     -19.216   6.653   9.501  1.00  0.00     0.000 C 
BRANCH  23  24
ATOM     24  C   UNL     1     -18.171   7.005  10.576  1.00  0.00    -0.000 C 
BRANCH  24  25
ATOM     25  C   UNL     1     -16.823   7.513  10.036  1.00  0.00    -0.000 C 
BRANCH  25  26
ATOM     26  C   UNL     1     -16.663   9.038  10.167  1.00  0.00    -0.000 C 
BRANCH  26  27
ATOM     27  C   UNL     1     -15.286   9.538   9.691  1.00  0.00    -0.000 C 
BRANCH  27  28
ATOM     28  C   UNL     1     -14.804  10.854  10.334  1.00  0.00    -0.000 C 
BRANCH  28  29
ATOM     29  C   UNL     1     -13.936  10.685  11.595  1.00  0.00    -0.000 C 
BRANCH  29  30
ATOM     30  C   UNL     1     -14.772  10.420  12.859  1.00  0.00    -0.000 C 
BRANCH  30  31
ATOM     31  C   UNL     1     -14.056  10.869  14.142  1.00  0.00    -0.003 C 
ATOM     32  C   UNL     1     -12.533  10.803  14.019  1.00  0.00     0.004 C 
ENDBRANCH  30  31
ENDBRANCH  29  30
ENDBRANCH  28  29
ENDBRANCH  27  28
ENDBRANCH  26  27
ENDBRANCH  25  26
ENDBRANCH  24  25
ENDBRANCH  23  24
ENDBRANCH  22  23
ENDBRANCH  21  22
ENDBRANCH  20  21
ENDBRANCH  19  20
ENDBRANCH  18  19
ENDBRANCH   1  18
TORSDOF 28
ENDMDL
