MODEL 1
REMARK VINA RESULT:    -3.939      0.000      0.000
REMARK INTER + INTRA:         -10.058
REMARK INTER:                  -7.623
REMARK INTRA:                  -2.435
REMARK UNBOUND:                -2.435
REMARK SMILES CCCCCCCCCCCCCCCCCC(=O)[O-]
REMARK SMILES IDX 10 1 11 2 12 3 13 4 14 5 15 6 16 7 17 8 18 9 19 10 20 11
REMARK SMILES IDX 9 12 8 13 7 14 6 15 5 16 4 17 3 18 2 19 1 20
REMARK H PARENT
REMARK Flexibility Score: inf
ROOT
ATOM      1  C   UNL     1      13.027 -23.205  39.350  1.00  0.00     0.000 C 
ENDROOT
BRANCH   1   2
ATOM      2  C   UNL     1      14.538 -23.054  39.072  1.00  0.00     0.000 C 
BRANCH   2   3
ATOM      3  C   UNL     1      15.434 -23.682  40.159  1.00  0.00     0.000 C 
BRANCH   3   4
ATOM      4  C   UNL     1      14.706 -24.598  41.159  1.00  0.00     0.000 C 
BRANCH   4   5
ATOM      5  C   UNL     1      15.013 -26.100  41.004  1.00  0.00     0.000 C 
BRANCH   5   6
ATOM      6  C   UNL     1      13.781 -26.914  40.570  1.00  0.00     0.000 C 
BRANCH   6   7
ATOM      7  C   UNL     1      13.962 -27.570  39.191  1.00  0.00     0.006 C 
BRANCH   7   8
ATOM      8  C   UNL     1      13.160 -26.869  38.087  1.00  0.00     0.053 C 
BRANCH   8   9
ATOM      9  C   UNL     1      14.080 -26.171  37.136  1.00  0.00     0.041 C 
ATOM     10  O   UNL     1      15.318 -26.134  37.362  1.00  0.00    -0.550 OA
ATOM     11  O   UNL     1      13.565 -25.524  36.020  1.00  0.00    -0.550 OA
ENDBRANCH   8   9
ENDBRANCH   7   8
ENDBRANCH   6   7
ENDBRANCH   5   6
ENDBRANCH   4   5
ENDBRANCH   3   4
ENDBRANCH   2   3
ENDBRANCH   1   2
BRANCH   1  12
ATOM     12  C   UNL     1      12.371 -21.869  39.742  1.00  0.00     0.000 C 
BRANCH  12  13
ATOM     13  C   UNL     1      12.151 -21.743  41.258  1.00  0.00    -0.000 C 
BRANCH  13  14
ATOM     14  C   UNL     1      11.068 -22.702  41.778  1.00  0.00    -0.000 C 
BRANCH  14  15
ATOM     15  C   UNL     1       9.857 -22.804  40.834  1.00  0.00    -0.000 C 
BRANCH  15  16
ATOM     16  C   UNL     1       9.583 -24.238  40.332  1.00  0.00    -0.000 C 
BRANCH  16  17
ATOM     17  C   UNL     1      10.499 -25.279  41.000  1.00  0.00    -0.000 C 
BRANCH  17  18
ATOM     18  C   UNL     1       9.696 -26.371  41.739  1.00  0.00    -0.000 C 
BRANCH  18  19
ATOM     19  C   UNL     1       8.210 -26.415  41.343  1.00  0.00    -0.003 C 
ATOM     20  C   UNL     1       7.814 -27.716  40.649  1.00  0.00     0.004 C 
ENDBRANCH  18  19
ENDBRANCH  17  18
ENDBRANCH  16  17
ENDBRANCH  15  16
ENDBRANCH  14  15
ENDBRANCH  13  14
ENDBRANCH  12  13
ENDBRANCH   1  12
TORSDOF 16
ENDMDL
MODEL 2
REMARK VINA RESULT:    -3.836      1.661      5.053
REMARK INTER + INTRA:          -9.859
REMARK INTER:                  -7.450
REMARK INTRA:                  -2.409
REMARK UNBOUND:                -2.435
REMARK SMILES CCCCCCCCCCCCCCCCCC(=O)[O-]
REMARK SMILES IDX 10 1 11 2 12 3 13 4 14 5 15 6 16 7 17 8 18 9 19 10 20 11
REMARK SMILES IDX 9 12 8 13 7 14 6 15 5 16 4 17 3 18 2 19 1 20
REMARK H PARENT
REMARK Flexibility Score: inf
ROOT
ATOM      1  C   UNL     1       9.787 -22.645  40.630  1.00  0.00     0.000 C 
ENDROOT
BRANCH   1   2
ATOM      2  C   UNL     1       9.853 -24.103  40.126  1.00  0.00     0.000 C 
BRANCH   2   3
ATOM      3  C   UNL     1      10.321 -25.109  41.197  1.00  0.00     0.000 C 
BRANCH   3   4
ATOM      4  C   UNL     1      10.035 -26.588  40.875  1.00  0.00     0.000 C 
BRANCH   4   5
ATOM      5  C   UNL     1      11.204 -27.346  40.220  1.00  0.00     0.000 C 
BRANCH   5   6
ATOM      6  C   UNL     1      12.571 -26.716  40.539  1.00  0.00     0.000 C 
BRANCH   6   7
ATOM      7  C   UNL     1      13.539 -26.769  39.346  1.00  0.00     0.006 C 
BRANCH   7   8
ATOM      8  C   UNL     1      12.837 -26.557  37.999  1.00  0.00     0.053 C 
BRANCH   8   9
ATOM      9  C   UNL     1      13.804 -26.039  36.982  1.00  0.00     0.041 C 
ATOM     10  O   UNL     1      13.431 -25.836  35.797  1.00  0.00    -0.550 OA
ATOM     11  O   UNL     1      15.130 -25.817  37.333  1.00  0.00    -0.550 OA
ENDBRANCH   8   9
ENDBRANCH   7   8
ENDBRANCH   6   7
ENDBRANCH   5   6
ENDBRANCH   4   5
ENDBRANCH   3   4
ENDBRANCH   2   3
ENDBRANCH   1   2
BRANCH   1  12
ATOM     12  C   UNL     1      10.980 -22.286  41.533  1.00  0.00     0.000 C 
BRANCH  12  13
ATOM     13  C   UNL     1      12.240 -21.924  40.731  1.00  0.00    -0.000 C 
BRANCH  13  14
ATOM     14  C   UNL     1      13.328 -23.007  40.824  1.00  0.00    -0.000 C 
BRANCH  14  15
ATOM     15  C   UNL     1      14.179 -23.111  39.547  1.00  0.00    -0.000 C 
BRANCH  15  16
ATOM     16  C   UNL     1      13.414 -22.727  38.262  1.00  0.00    -0.000 C 
BRANCH  16  17
ATOM     17  C   UNL     1      14.175 -21.695  37.412  1.00  0.00    -0.000 C 
BRANCH  17  18
ATOM     18  C   UNL     1      13.829 -20.244  37.811  1.00  0.00    -0.000 C 
BRANCH  18  19
ATOM     19  C   UNL     1      14.873 -19.596  38.736  1.00  0.00    -0.003 C 
ATOM     20  C   UNL     1      14.301 -18.460  39.580  1.00  0.00     0.004 C 
ENDBRANCH  18  19
ENDBRANCH  17  18
ENDBRANCH  16  17
ENDBRANCH  15  16
ENDBRANCH  14  15
ENDBRANCH  13  14
ENDBRANCH  12  13
ENDBRANCH   1  12
TORSDOF 16
ENDMDL
MODEL 3
REMARK VINA RESULT:    -3.810      2.148      4.998
REMARK INTER + INTRA:          -9.808
REMARK INTER:                  -7.777
REMARK INTRA:                  -2.031
REMARK UNBOUND:                -2.435
REMARK SMILES CCCCCCCCCCCCCCCCCC(=O)[O-]
REMARK SMILES IDX 10 1 11 2 12 3 13 4 14 5 15 6 16 7 17 8 18 9 19 10 20 11
REMARK SMILES IDX 9 12 8 13 7 14 6 15 5 16 4 17 3 18 2 19 1 20
REMARK H PARENT
REMARK Flexibility Score: inf
ROOT
ATOM      1  C   UNL     1      12.443 -30.309  42.003  1.00  0.00     0.000 C 
ENDROOT
BRANCH   1   2
ATOM      2  C   UNL     1      11.672 -30.980  40.847  1.00  0.00     0.000 C 
BRANCH   2   3
ATOM      3  C   UNL     1      12.547 -31.290  39.615  1.00  0.00     0.000 C 
BRANCH   3   4
ATOM      4  C   UNL     1      13.968 -30.699  39.657  1.00  0.00     0.000 C 
BRANCH   4   5
ATOM      5  C   UNL     1      14.194 -29.491  38.729  1.00  0.00     0.000 C 
BRANCH   5   6
ATOM      6  C   UNL     1      12.944 -29.133  37.907  1.00  0.00     0.000 C 
BRANCH   6   7
ATOM      7  C   UNL     1      12.450 -27.702  38.175  1.00  0.00     0.006 C 
BRANCH   7   8
ATOM      8  C   UNL     1      13.554 -26.781  38.709  1.00  0.00     0.053 C 
BRANCH   8   9
ATOM      9  C   UNL     1      14.237 -26.074  37.581  1.00  0.00     0.041 C 
ATOM     10  O   UNL     1      13.587 -25.300  36.831  1.00  0.00    -0.550 OA
ATOM     11  O   UNL     1      15.584 -26.303  37.332  1.00  0.00    -0.550 OA
ENDBRANCH   8   9
ENDBRANCH   7   8
ENDBRANCH   6   7
ENDBRANCH   5   6
ENDBRANCH   4   5
ENDBRANCH   3   4
ENDBRANCH   2   3
ENDBRANCH   1   2
BRANCH   1  12
ATOM     12  C   UNL     1      12.074 -28.824  42.165  1.00  0.00     0.000 C 
BRANCH  12  13
ATOM     13  C   UNL     1      10.755 -28.463  41.463  1.00  0.00    -0.000 C 
BRANCH  13  14
ATOM     14  C   UNL     1      10.386 -26.980  41.631  1.00  0.00    -0.000 C 
BRANCH  14  15
ATOM     15  C   UNL     1       8.887 -26.710  41.414  1.00  0.00    -0.000 C 
BRANCH  15  16
ATOM     16  C   UNL     1       8.578 -25.266  40.962  1.00  0.00    -0.000 C 
BRANCH  16  17
ATOM     17  C   UNL     1       9.814 -24.556  40.382  1.00  0.00    -0.000 C 
BRANCH  17  18
ATOM     18  C   UNL     1       9.647 -23.021  40.364  1.00  0.00    -0.000 C 
BRANCH  18  19
ATOM     19  C   UNL     1      10.838 -22.266  40.981  1.00  0.00    -0.003 C 
ATOM     20  C   UNL     1      11.297 -22.859  42.311  1.00  0.00     0.004 C 
ENDBRANCH  18  19
ENDBRANCH  17  18
ENDBRANCH  16  17
ENDBRANCH  15  16
ENDBRANCH  14  15
ENDBRANCH  13  14
ENDBRANCH  12  13
ENDBRANCH   1  12
TORSDOF 16
ENDMDL
MODEL 4
REMARK VINA RESULT:    -3.787      2.090      4.897
REMARK INTER + INTRA:          -9.765
REMARK INTER:                  -7.803
REMARK INTRA:                  -1.961
REMARK UNBOUND:                -2.435
REMARK SMILES CCCCCCCCCCCCCCCCCC(=O)[O-]
REMARK SMILES IDX 10 1 11 2 12 3 13 4 14 5 15 6 16 7 17 8 18 9 19 10 20 11
REMARK SMILES IDX 9 12 8 13 7 14 6 15 5 16 4 17 3 18 2 19 1 20
REMARK H PARENT
REMARK Flexibility Score: inf
ROOT
ATOM      1  C   UNL     1      10.653 -25.191  40.814  1.00  0.00     0.000 C 
ENDROOT
BRANCH   1   2
ATOM      2  C   UNL     1       9.808 -24.150  40.049  1.00  0.00     0.000 C 
BRANCH   2   3
ATOM      3  C   UNL     1       9.931 -22.718  40.607  1.00  0.00     0.000 C 
BRANCH   3   4
ATOM      4  C   UNL     1      10.838 -22.574  41.843  1.00  0.00     0.000 C 
BRANCH   4   5
ATOM      5  C   UNL     1      12.143 -21.791  41.601  1.00  0.00     0.000 C 
BRANCH   5   6
ATOM      6  C   UNL     1      13.397 -22.668  41.757  1.00  0.00     0.000 C 
BRANCH   6   7
ATOM      7  C   UNL     1      13.894 -23.232  40.416  1.00  0.00     0.006 C 
BRANCH   7   8
ATOM      8  C   UNL     1      13.503 -22.356  39.219  1.00  0.00     0.053 C 
BRANCH   8   9
ATOM      9  C   UNL     1      13.432 -23.178  37.971  1.00  0.00     0.041 C 
ATOM     10  O   UNL     1      12.963 -24.345  38.006  1.00  0.00    -0.550 OA
ATOM     11  O   UNL     1      13.923 -22.669  36.775  1.00  0.00    -0.550 OA
ENDBRANCH   8   9
ENDBRANCH   7   8
ENDBRANCH   6   7
ENDBRANCH   5   6
ENDBRANCH   4   5
ENDBRANCH   3   4
ENDBRANCH   2   3
ENDBRANCH   1   2
BRANCH   1  12
ATOM     12  C   UNL     1       9.802 -26.042  41.773  1.00  0.00     0.000 C 
BRANCH  12  13
ATOM     13  C   UNL     1       8.358 -26.222  41.278  1.00  0.00    -0.000 C 
BRANCH  13  14
ATOM     14  C   UNL     1       7.914 -27.694  41.279  1.00  0.00    -0.000 C 
BRANCH  14  15
ATOM     15  C   UNL     1       8.742 -28.566  42.239  1.00  0.00    -0.000 C 
BRANCH  15  16
ATOM     16  C   UNL     1       8.694 -30.072  41.902  1.00  0.00    -0.000 C 
BRANCH  16  17
ATOM     17  C   UNL     1      10.073 -30.630  41.508  1.00  0.00    -0.000 C 
BRANCH  17  18
ATOM     18  C   UNL     1      11.096 -29.508  41.228  1.00  0.00    -0.000 C 
BRANCH  18  19
ATOM     19  C   UNL     1      12.498 -29.799  41.792  1.00  0.00    -0.003 C 
ATOM     20  C   UNL     1      12.663 -29.355  43.242  1.00  0.00     0.004 C 
ENDBRANCH  18  19
ENDBRANCH  17  18
ENDBRANCH  16  17
ENDBRANCH  15  16
ENDBRANCH  14  15
ENDBRANCH  13  14
ENDBRANCH  12  13
ENDBRANCH   1  12
TORSDOF 16
ENDMDL
MODEL 5
REMARK VINA RESULT:    -3.769      2.197      4.861
REMARK INTER + INTRA:          -9.729
REMARK INTER:                  -7.187
REMARK INTRA:                  -2.542
REMARK UNBOUND:                -2.435
REMARK SMILES CCCCCCCCCCCCCCCCCC(=O)[O-]
REMARK SMILES IDX 10 1 11 2 12 3 13 4 14 5 15 6 16 7 17 8 18 9 19 10 20 11
REMARK SMILES IDX 9 12 8 13 7 14 6 15 5 16 4 17 3 18 2 19 1 20
REMARK H PARENT
REMARK Flexibility Score: inf
ROOT
ATOM      1  C   UNL     1      10.287 -25.290  40.981  1.00  0.00     0.000 C 
ENDROOT
BRANCH   1   2
ATOM      2  C   UNL     1      11.355 -26.043  40.160  1.00  0.00     0.000 C 
BRANCH   2   3
ATOM      3  C   UNL     1      12.766 -25.432  40.268  1.00  0.00     0.000 C 
BRANCH   3   4
ATOM      4  C   UNL     1      13.828 -26.070  39.353  1.00  0.00     0.000 C 
BRANCH   4   5
ATOM      5  C   UNL     1      14.612 -25.074  38.478  1.00  0.00     0.000 C 
BRANCH   5   6
ATOM      6  C   UNL     1      13.780 -23.837  38.099  1.00  0.00     0.000 C 
BRANCH   6   7
ATOM      7  C   UNL     1      14.597 -22.536  38.153  1.00  0.00     0.006 C 
BRANCH   7   8
ATOM      8  C   UNL     1      13.872 -21.349  37.506  1.00  0.00     0.053 C 
BRANCH   8   9
ATOM      9  C   UNL     1      14.333 -21.160  36.095  1.00  0.00     0.041 C 
ATOM     10  O   UNL     1      13.494 -21.035  35.165  1.00  0.00    -0.550 OA
ATOM     11  O   UNL     1      15.691 -21.164  35.802  1.00  0.00    -0.550 OA
ENDBRANCH   8   9
ENDBRANCH   7   8
ENDBRANCH   6   7
ENDBRANCH   5   6
ENDBRANCH   4   5
ENDBRANCH   3   4
ENDBRANCH   2   3
ENDBRANCH   1   2
BRANCH   1  12
ATOM     12  C   UNL     1       9.539 -24.240  40.141  1.00  0.00     0.000 C 
BRANCH  12  13
ATOM     13  C   UNL     1       9.534 -22.852  40.801  1.00  0.00    -0.000 C 
BRANCH  13  14
ATOM     14  C   UNL     1      10.858 -22.535  41.516  1.00  0.00    -0.000 C 
BRANCH  14  15
ATOM     15  C   UNL     1      11.837 -21.741  40.635  1.00  0.00    -0.000 C 
BRANCH  15  16
ATOM     16  C   UNL     1      13.156 -21.377  41.349  1.00  0.00    -0.000 C 
BRANCH  16  17
ATOM     17  C   UNL     1      13.213 -21.919  42.788  1.00  0.00    -0.000 C 
BRANCH  17  18
ATOM     18  C   UNL     1      14.636 -22.369  43.184  1.00  0.00    -0.000 C 
BRANCH  18  19
ATOM     19  C   UNL     1      15.050 -23.715  42.565  1.00  0.00    -0.003 C 
ATOM     20  C   UNL     1      16.125 -23.573  41.491  1.00  0.00     0.004 C 
ENDBRANCH  18  19
ENDBRANCH  17  18
ENDBRANCH  16  17
ENDBRANCH  15  16
ENDBRANCH  14  15
ENDBRANCH  13  14
ENDBRANCH  12  13
ENDBRANCH   1  12
TORSDOF 16
ENDMDL
MODEL 6
REMARK VINA RESULT:    -3.750      3.203      7.167
REMARK INTER + INTRA:          -9.692
REMARK INTER:                  -6.415
REMARK INTRA:                  -3.277
REMARK UNBOUND:                -2.435
REMARK SMILES CCCCCCCCCCCCCCCCCC(=O)[O-]
REMARK SMILES IDX 10 1 11 2 12 3 13 4 14 5 15 6 16 7 17 8 18 9 19 10 20 11
REMARK SMILES IDX 9 12 8 13 7 14 6 15 5 16 4 17 3 18 2 19 1 20
REMARK H PARENT
REMARK Flexibility Score: inf
ROOT
ATOM      1  C   UNL     1      10.405 -29.698  42.480  1.00  0.00     0.000 C 
ENDROOT
BRANCH   1   2
ATOM      2  C   UNL     1       9.506 -30.722  41.755  1.00  0.00     0.000 C 
BRANCH   2   3
ATOM      3  C   UNL     1       8.923 -30.204  40.425  1.00  0.00     0.000 C 
BRANCH   3   4
ATOM      4  C   UNL     1       9.062 -28.687  40.196  1.00  0.00     0.000 C 
BRANCH   4   5
ATOM      5  C   UNL     1       7.818 -27.860  40.570  1.00  0.00     0.000 C 
BRANCH   5   6
ATOM      6  C   UNL     1       8.163 -26.623  41.417  1.00  0.00     0.000 C 
BRANCH   6   7
ATOM      7  C   UNL     1       9.658 -26.269  41.366  1.00  0.00     0.006 C 
BRANCH   7   8
ATOM      8  C   UNL     1       9.922 -24.877  40.779  1.00  0.00     0.053 C 
BRANCH   8   9
ATOM      9  C   UNL     1      10.197 -24.972  39.312  1.00  0.00     0.041 C 
ATOM     10  O   UNL     1      11.364 -24.801  38.873  1.00  0.00    -0.550 OA
ATOM     11  O   UNL     1       9.155 -25.208  38.424  1.00  0.00    -0.550 OA
ENDBRANCH   8   9
ENDBRANCH   7   8
ENDBRANCH   6   7
ENDBRANCH   5   6
ENDBRANCH   4   5
ENDBRANCH   3   4
ENDBRANCH   2   3
ENDBRANCH   1   2
BRANCH   1  12
ATOM     12  C   UNL     1      11.734 -30.317  42.947  1.00  0.00     0.000 C 
BRANCH  12  13
ATOM     13  C   UNL     1      12.075 -31.616  42.199  1.00  0.00    -0.000 C 
BRANCH  13  14
ATOM     14  C   UNL     1      13.552 -31.681  41.776  1.00  0.00    -0.000 C 
BRANCH  14  15
ATOM     15  C   UNL     1      13.739 -31.621  40.250  1.00  0.00    -0.000 C 
BRANCH  15  16
ATOM     16  C   UNL     1      12.413 -31.677  39.462  1.00  0.00    -0.000 C 
BRANCH  16  17
ATOM     17  C   UNL     1      12.172 -30.407  38.627  1.00  0.00    -0.000 C 
BRANCH  17  18
ATOM     18  C   UNL     1      13.170 -29.283  38.977  1.00  0.00    -0.000 C 
BRANCH  18  19
ATOM     19  C   UNL     1      12.533 -28.113  39.748  1.00  0.00    -0.003 C 
ATOM     20  C   UNL     1      13.366 -27.661  40.944  1.00  0.00     0.004 C 
ENDBRANCH  18  19
ENDBRANCH  17  18
ENDBRANCH  16  17
ENDBRANCH  15  16
ENDBRANCH  14  15
ENDBRANCH  13  14
ENDBRANCH  12  13
ENDBRANCH   1  12
TORSDOF 16
ENDMDL
MODEL 7
REMARK VINA RESULT:    -3.647      2.192      5.304
REMARK INTER + INTRA:          -9.494
REMARK INTER:                  -7.231
REMARK INTRA:                  -2.262
REMARK UNBOUND:                -2.435
REMARK SMILES CCCCCCCCCCCCCCCCCC(=O)[O-]
REMARK SMILES IDX 10 1 11 2 12 3 13 4 14 5 15 6 16 7 17 8 18 9 19 10 20 11
REMARK SMILES IDX 9 12 8 13 7 14 6 15 5 16 4 17 3 18 2 19 1 20
REMARK H PARENT
REMARK Flexibility Score: inf
ROOT
ATOM      1  C   UNL     1      11.774 -25.150  40.580  1.00  0.00     0.000 C 
ENDROOT
BRANCH   1   2
ATOM      2  C   UNL     1      10.542 -24.309  40.976  1.00  0.00     0.000 C 
BRANCH   2   3
ATOM      3  C   UNL     1      10.708 -22.800  40.705  1.00  0.00     0.000 C 
BRANCH   3   4
ATOM      4  C   UNL     1      11.559 -22.039  41.740  1.00  0.00     0.000 C 
BRANCH   4   5
ATOM      5  C   UNL     1      12.819 -21.362  41.170  1.00  0.00     0.000 C 
BRANCH   5   6
ATOM      6  C   UNL     1      12.781 -21.235  39.637  1.00  0.00     0.000 C 
BRANCH   6   7
ATOM      7  C   UNL     1      14.120 -20.759  39.050  1.00  0.00     0.006 C 
BRANCH   7   8
ATOM      8  C   UNL     1      13.985 -20.214  37.622  1.00  0.00     0.053 C 
BRANCH   8   9
ATOM      9  C   UNL     1      14.670 -21.121  36.650  1.00  0.00     0.041 C 
ATOM     10  O   UNL     1      15.923 -21.092  36.530  1.00  0.00    -0.550 OA
ATOM     11  O   UNL     1      13.921 -21.971  35.846  1.00  0.00    -0.550 OA
ENDBRANCH   8   9
ENDBRANCH   7   8
ENDBRANCH   6   7
ENDBRANCH   5   6
ENDBRANCH   4   5
ENDBRANCH   3   4
ENDBRANCH   2   3
ENDBRANCH   1   2
BRANCH   1  12
ATOM     12  C   UNL     1      12.329 -24.758  39.200  1.00  0.00     0.000 C 
BRANCH  12  13
ATOM     13  C   UNL     1      13.863 -24.663  39.186  1.00  0.00    -0.000 C 
BRANCH  13  14
ATOM     14  C   UNL     1      14.463 -24.626  40.602  1.00  0.00    -0.000 C 
BRANCH  14  15
ATOM     15  C   UNL     1      15.548 -25.695  40.819  1.00  0.00    -0.000 C 
BRANCH  15  16
ATOM     16  C   UNL     1      15.662 -26.705  39.657  1.00  0.00    -0.000 C 
BRANCH  16  17
ATOM     17  C   UNL     1      14.938 -28.029  39.958  1.00  0.00    -0.000 C 
BRANCH  17  18
ATOM     18  C   UNL     1      14.992 -29.007  38.764  1.00  0.00    -0.000 C 
BRANCH  18  19
ATOM     19  C   UNL     1      13.604 -29.413  38.239  1.00  0.00    -0.003 C 
ATOM     20  C   UNL     1      12.675 -28.222  38.023  1.00  0.00     0.004 C 
ENDBRANCH  18  19
ENDBRANCH  17  18
ENDBRANCH  16  17
ENDBRANCH  15  16
ENDBRANCH  14  15
ENDBRANCH  13  14
ENDBRANCH  12  13
ENDBRANCH   1  12
TORSDOF 16
ENDMDL
MODEL 8
REMARK VINA RESULT:    -3.634      1.682      3.455
REMARK INTER + INTRA:          -9.469
REMARK INTER:                  -6.778
REMARK INTRA:                  -2.691
REMARK UNBOUND:                -2.435
REMARK SMILES CCCCCCCCCCCCCCCCCC(=O)[O-]
REMARK SMILES IDX 10 1 11 2 12 3 13 4 14 5 15 6 16 7 17 8 18 9 19 10 20 11
REMARK SMILES IDX 9 12 8 13 7 14 6 15 5 16 4 17 3 18 2 19 1 20
REMARK H PARENT
REMARK Flexibility Score: inf
ROOT
ATOM      1  C   UNL     1       9.702 -22.913  40.678  1.00  0.00     0.000 C 
ENDROOT
BRANCH   1   2
ATOM      2  C   UNL     1      10.906 -22.571  41.580  1.00  0.00     0.000 C 
BRANCH   2   3
ATOM      3  C   UNL     1      12.022 -21.791  40.856  1.00  0.00     0.000 C 
BRANCH   3   4
ATOM      4  C   UNL     1      12.494 -22.408  39.526  1.00  0.00     0.000 C 
BRANCH   4   5
ATOM      5  C   UNL     1      13.498 -23.568  39.670  1.00  0.00     0.000 C 
BRANCH   5   6
ATOM      6  C   UNL     1      13.944 -24.137  38.312  1.00  0.00     0.000 C 
BRANCH   6   7
ATOM      7  C   UNL     1      14.587 -25.528  38.437  1.00  0.00     0.006 C 
BRANCH   7   8
ATOM      8  C   UNL     1      13.883 -26.589  37.581  1.00  0.00     0.053 C 
BRANCH   8   9
ATOM      9  C   UNL     1      14.275 -27.962  38.027  1.00  0.00     0.041 C 
ATOM     10  O   UNL     1      13.586 -28.960  37.687  1.00  0.00    -0.550 OA
ATOM     11  O   UNL     1      15.379 -28.137  38.852  1.00  0.00    -0.550 OA
ENDBRANCH   8   9
ENDBRANCH   7   8
ENDBRANCH   6   7
ENDBRANCH   5   6
ENDBRANCH   4   5
ENDBRANCH   3   4
ENDBRANCH   2   3
ENDBRANCH   1   2
BRANCH   1  12
ATOM     12  C   UNL     1       9.373 -24.416  40.690  1.00  0.00     0.000 C 
BRANCH  12  13
ATOM     13  C   UNL     1       9.553 -25.071  39.311  1.00  0.00    -0.000 C 
BRANCH  13  14
ATOM     14  C   UNL     1      10.719 -26.073  39.283  1.00  0.00    -0.000 C 
BRANCH  14  15
ATOM     15  C   UNL     1      11.440 -26.189  40.637  1.00  0.00    -0.000 C 
BRANCH  15  16
ATOM     16  C   UNL     1      12.039 -27.587  40.901  1.00  0.00    -0.000 C 
BRANCH  16  17
ATOM     17  C   UNL     1      11.026 -28.717  40.647  1.00  0.00    -0.000 C 
BRANCH  17  18
ATOM     18  C   UNL     1      10.211 -29.063  41.913  1.00  0.00    -0.000 C 
BRANCH  18  19
ATOM     19  C   UNL     1       8.692 -29.106  41.673  1.00  0.00    -0.003 C 
ATOM     20  C   UNL     1       8.066 -27.719  41.557  1.00  0.00     0.004 C 
ENDBRANCH  18  19
ENDBRANCH  17  18
ENDBRANCH  16  17
ENDBRANCH  15  16
ENDBRANCH  14  15
ENDBRANCH  13  14
ENDBRANCH  12  13
ENDBRANCH   1  12
TORSDOF 16
ENDMDL
MODEL 9
REMARK VINA RESULT:    -3.620      1.885      2.658
REMARK INTER + INTRA:          -9.440
REMARK INTER:                  -6.846
REMARK INTRA:                  -2.594
REMARK UNBOUND:                -2.435
REMARK SMILES CCCCCCCCCCCCCCCCCC(=O)[O-]
REMARK SMILES IDX 10 1 11 2 12 3 13 4 14 5 15 6 16 7 17 8 18 9 19 10 20 11
REMARK SMILES IDX 9 12 8 13 7 14 6 15 5 16 4 17 3 18 2 19 1 20
REMARK H PARENT
REMARK Flexibility Score: inf
ROOT
ATOM      1  C   UNL     1      12.601 -22.007  42.978  1.00  0.00     0.000 C 
ENDROOT
BRANCH   1   2
ATOM      2  C   UNL     1      13.681 -21.890  41.881  1.00  0.00     0.000 C 
BRANCH   2   3
ATOM      3  C   UNL     1      14.804 -22.940  42.001  1.00  0.00     0.000 C 
BRANCH   3   4
ATOM      4  C   UNL     1      14.929 -23.903  40.805  1.00  0.00     0.000 C 
BRANCH   4   5
ATOM      5  C   UNL     1      13.663 -24.725  40.500  1.00  0.00     0.000 C 
BRANCH   5   6
ATOM      6  C   UNL     1      13.328 -24.762  38.999  1.00  0.00     0.000 C 
BRANCH   6   7
ATOM      7  C   UNL     1      14.334 -25.595  38.189  1.00  0.00     0.006 C 
BRANCH   7   8
ATOM      8  C   UNL     1      13.953 -27.079  38.112  1.00  0.00     0.053 C 
BRANCH   8   9
ATOM      9  C   UNL     1      15.037 -27.928  38.698  1.00  0.00     0.041 C 
ATOM     10  O   UNL     1      15.700 -27.517  39.686  1.00  0.00    -0.550 OA
ATOM     11  O   UNL     1      15.343 -29.157  38.126  1.00  0.00    -0.550 OA
ENDBRANCH   8   9
ENDBRANCH   7   8
ENDBRANCH   6   7
ENDBRANCH   5   6
ENDBRANCH   4   5
ENDBRANCH   3   4
ENDBRANCH   2   3
ENDBRANCH   1   2
BRANCH   1  12
ATOM     12  C   UNL     1      11.293 -22.617  42.445  1.00  0.00     0.000 C 
BRANCH  12  13
ATOM     13  C   UNL     1      11.015 -22.232  40.983  1.00  0.00    -0.000 C 
BRANCH  13  14
ATOM     14  C   UNL     1       9.782 -22.952  40.409  1.00  0.00    -0.000 C 
BRANCH  14  15
ATOM     15  C   UNL     1       9.672 -24.413  40.877  1.00  0.00    -0.000 C 
BRANCH  15  16
ATOM     16  C   UNL     1       9.322 -25.400  39.744  1.00  0.00    -0.000 C 
BRANCH  16  17
ATOM     17  C   UNL     1      10.314 -26.574  39.661  1.00  0.00    -0.000 C 
BRANCH  17  18
ATOM     18  C   UNL     1      10.669 -27.135  41.054  1.00  0.00    -0.000 C 
BRANCH  18  19
ATOM     19  C   UNL     1      11.991 -27.922  41.081  1.00  0.00    -0.003 C 
ATOM     20  C   UNL     1      11.880 -29.300  40.433  1.00  0.00     0.004 C 
ENDBRANCH  18  19
ENDBRANCH  17  18
ENDBRANCH  16  17
ENDBRANCH  15  16
ENDBRANCH  14  15
ENDBRANCH  13  14
ENDBRANCH  12  13
ENDBRANCH   1  12
TORSDOF 16
ENDMDL
