MODEL 1
REMARK VINA RESULT:    -4.136      0.000      0.000
REMARK INTER + INTRA:          -8.936
REMARK INTER:                  -7.037
REMARK INTRA:                  -1.899
REMARK UNBOUND:                -1.899
REMARK SMILES CCCCCCCCCCCCCC(=O)[O-]
REMARK SMILES IDX 8 1 9 2 10 3 11 4 12 5 13 6 14 7 15 8 16 9 7 10 6 11 5 12
REMARK SMILES IDX 4 13 3 14 2 15 1 16
REMARK H PARENT
REMARK Flexibility Score: inf
ROOT
ATOM      1  C   UNL     1      31.664  22.645  14.114  1.00  0.00     0.000 C 
ENDROOT
BRANCH   1   2
ATOM      2  C   UNL     1      30.795  22.671  12.845  1.00  0.00     0.000 C 
BRANCH   2   3
ATOM      3  C   UNL     1      31.636  22.698  11.559  1.00  0.00     0.000 C 
BRANCH   3   4
ATOM      4  C   UNL     1      30.795  22.422  10.300  1.00  0.00     0.000 C 
BRANCH   4   5
ATOM      5  C   UNL     1      29.304  22.196  10.609  1.00  0.00     0.006 C 
BRANCH   5   6
ATOM      6  C   UNL     1      28.744  20.875  10.050  1.00  0.00     0.053 C 
BRANCH   6   7
ATOM      7  C   UNL     1      27.649  20.309  10.904  1.00  0.00     0.041 C 
ATOM      8  O   UNL     1      26.525  20.875  10.950  1.00  0.00    -0.550 OA
ATOM      9  O   UNL     1      27.879  19.179  11.679  1.00  0.00    -0.550 OA
ENDBRANCH   6   7
ENDBRANCH   5   6
ENDBRANCH   4   5
ENDBRANCH   3   4
ENDBRANCH   2   3
ENDBRANCH   1   2
BRANCH   1  10
ATOM     10  C   UNL     1      33.156  22.412  13.814  1.00  0.00     0.000 C 
BRANCH  10  11
ATOM     11  C   UNL     1      33.718  21.064  14.304  1.00  0.00    -0.000 C 
BRANCH  11  12
ATOM     12  C   UNL     1      33.546  19.935  13.278  1.00  0.00    -0.000 C 
BRANCH  12  13
ATOM     13  C   UNL     1      32.337  19.057  13.626  1.00  0.00    -0.000 C 
BRANCH  13  14
ATOM     14  C   UNL     1      31.318  19.046  12.476  1.00  0.00    -0.000 C 
BRANCH  14  15
ATOM     15  C   UNL     1      31.987  19.083  11.094  1.00  0.00    -0.003 C 
ATOM     16  C   UNL     1      31.495  17.970  10.168  1.00  0.00     0.004 C 
ENDBRANCH  14  15
ENDBRANCH  13  14
ENDBRANCH  12  13
ENDBRANCH  11  12
ENDBRANCH  10  11
ENDBRANCH   1  10
TORSDOF 12
ENDMDL
MODEL 2
REMARK VINA RESULT:    -4.012      2.872      5.891
REMARK INTER + INTRA:          -8.726
REMARK INTER:                  -7.243
REMARK INTRA:                  -1.482
REMARK UNBOUND:                -1.899
REMARK SMILES CCCCCCCCCCCCCC(=O)[O-]
REMARK SMILES IDX 8 1 9 2 10 3 11 4 12 5 13 6 14 7 15 8 16 9 7 10 6 11 5 12
REMARK SMILES IDX 4 13 3 14 2 15 1 16
REMARK H PARENT
REMARK Flexibility Score: inf
ROOT
ATOM      1  C   UNL     1      30.329  19.004  11.671  1.00  0.00     0.000 C 
ENDROOT
BRANCH   1   2
ATOM      2  C   UNL     1      31.295  18.447  10.611  1.00  0.00     0.000 C 
BRANCH   2   3
ATOM      3  C   UNL     1      32.645  19.181  10.605  1.00  0.00     0.000 C 
BRANCH   3   4
ATOM      4  C   UNL     1      32.692  20.335  11.621  1.00  0.00     0.000 C 
BRANCH   4   5
ATOM      5  C   UNL     1      33.750  20.129  12.720  1.00  0.00     0.006 C 
BRANCH   5   6
ATOM      6  C   UNL     1      33.226  20.373  14.146  1.00  0.00     0.053 C 
BRANCH   6   7
ATOM      7  C   UNL     1      33.689  21.682  14.712  1.00  0.00     0.041 C 
ATOM      8  O   UNL     1      34.730  21.734  15.418  1.00  0.00    -0.550 OA
ATOM      9  O   UNL     1      32.951  22.839  14.494  1.00  0.00    -0.550 OA
ENDBRANCH   6   7
ENDBRANCH   5   6
ENDBRANCH   4   5
ENDBRANCH   3   4
ENDBRANCH   2   3
ENDBRANCH   1   2
BRANCH   1  10
ATOM     10  C   UNL     1      28.890  18.482  11.505  1.00  0.00     0.000 C 
BRANCH  10  11
ATOM     11  C   UNL     1      27.794  19.563  11.553  1.00  0.00    -0.000 C 
BRANCH  11  12
ATOM     12  C   UNL     1      27.550  20.228  10.190  1.00  0.00    -0.000 C 
BRANCH  12  13
ATOM     13  C   UNL     1      27.924  21.715  10.231  1.00  0.00    -0.000 C 
BRANCH  13  14
ATOM     14  C   UNL     1      29.405  21.919   9.875  1.00  0.00    -0.000 C 
BRANCH  14  15
ATOM     15  C   UNL     1      30.055  23.053  10.684  1.00  0.00    -0.003 C 
ATOM     16  C   UNL     1      30.259  22.687  12.154  1.00  0.00     0.004 C 
ENDBRANCH  14  15
ENDBRANCH  13  14
ENDBRANCH  12  13
ENDBRANCH  11  12
ENDBRANCH  10  11
ENDBRANCH   1  10
TORSDOF 12
ENDMDL
MODEL 3
REMARK VINA RESULT:    -3.864      3.311      5.910
REMARK INTER + INTRA:          -8.475
REMARK INTER:                  -7.294
REMARK INTRA:                  -1.181
REMARK UNBOUND:                -1.899
REMARK SMILES CCCCCCCCCCCCCC(=O)[O-]
REMARK SMILES IDX 8 1 9 2 10 3 11 4 12 5 13 6 14 7 15 8 16 9 7 10 6 11 5 12
REMARK SMILES IDX 4 13 3 14 2 15 1 16
REMARK H PARENT
REMARK Flexibility Score: inf
ROOT
ATOM      1  C   UNL     1      31.742  19.044  11.525  1.00  0.00     0.000 C 
ENDROOT
BRANCH   1   2
ATOM      2  C   UNL     1      32.846  20.089  11.287  1.00  0.00     0.000 C 
BRANCH   2   3
ATOM      3  C   UNL     1      32.564  21.415  12.010  1.00  0.00     0.000 C 
BRANCH   3   4
ATOM      4  C   UNL     1      31.956  21.206  13.407  1.00  0.00     0.000 C 
BRANCH   4   5
ATOM      5  C   UNL     1      32.388  22.281  14.421  1.00  0.00     0.006 C 
BRANCH   5   6
ATOM      6  C   UNL     1      33.889  22.621  14.370  1.00  0.00     0.053 C 
BRANCH   6   7
ATOM      7  C   UNL     1      34.748  21.505  14.886  1.00  0.00     0.041 C 
ATOM      8  O   UNL     1      34.996  21.415  16.117  1.00  0.00    -0.550 OA
ATOM      9  O   UNL     1      35.307  20.588  14.005  1.00  0.00    -0.550 OA
ENDBRANCH   6   7
ENDBRANCH   5   6
ENDBRANCH   4   5
ENDBRANCH   3   4
ENDBRANCH   2   3
ENDBRANCH   1   2
BRANCH   1  10
ATOM     10  C   UNL     1      30.746  18.947  10.355  1.00  0.00     0.000 C 
BRANCH  10  11
ATOM     11  C   UNL     1      29.410  18.258  10.690  1.00  0.00    -0.000 C 
BRANCH  11  12
ATOM     12  C   UNL     1      28.188  19.062  10.224  1.00  0.00    -0.000 C 
BRANCH  12  13
ATOM     13  C   UNL     1      27.463  19.700  11.416  1.00  0.00    -0.000 C 
BRANCH  13  14
ATOM     14  C   UNL     1      27.113  21.167  11.125  1.00  0.00    -0.000 C 
BRANCH  14  15
ATOM     15  C   UNL     1      28.138  21.847  10.204  1.00  0.00    -0.003 C 
ATOM     16  C   UNL     1      29.334  22.417  10.968  1.00  0.00     0.004 C 
ENDBRANCH  14  15
ENDBRANCH  13  14
ENDBRANCH  12  13
ENDBRANCH  11  12
ENDBRANCH  10  11
ENDBRANCH   1  10
TORSDOF 12
ENDMDL
MODEL 4
REMARK VINA RESULT:    -3.852      1.424      3.656
REMARK INTER + INTRA:          -8.454
REMARK INTER:                  -7.154
REMARK INTRA:                  -1.300
REMARK UNBOUND:                -1.899
REMARK SMILES CCCCCCCCCCCCCC(=O)[O-]
REMARK SMILES IDX 8 1 9 2 10 3 11 4 12 5 13 6 14 7 15 8 16 9 7 10 6 11 5 12
REMARK SMILES IDX 4 13 3 14 2 15 1 16
REMARK H PARENT
REMARK Flexibility Score: inf
ROOT
ATOM      1  C   UNL     1      31.601  20.318  12.346  1.00  0.00     0.000 C 
ENDROOT
BRANCH   1   2
ATOM      2  C   UNL     1      31.769  18.956  11.652  1.00  0.00     0.000 C 
BRANCH   2   3
ATOM      3  C   UNL     1      30.981  18.868  10.335  1.00  0.00     0.000 C 
BRANCH   3   4
ATOM      4  C   UNL     1      29.620  18.173  10.510  1.00  0.00     0.000 C 
BRANCH   4   5
ATOM      5  C   UNL     1      28.434  19.053  10.075  1.00  0.00     0.006 C 
BRANCH   5   6
ATOM      6  C   UNL     1      27.527  19.497  11.236  1.00  0.00     0.053 C 
BRANCH   6   7
ATOM      7  C   UNL     1      27.429  20.989  11.350  1.00  0.00     0.041 C 
ATOM      8  O   UNL     1      28.416  21.659  11.753  1.00  0.00    -0.550 OA
ATOM      9  O   UNL     1      26.237  21.637  11.049  1.00  0.00    -0.550 OA
ENDBRANCH   6   7
ENDBRANCH   5   6
ENDBRANCH   4   5
ENDBRANCH   3   4
ENDBRANCH   2   3
ENDBRANCH   1   2
BRANCH   1  10
ATOM     10  C   UNL     1      31.764  21.507  11.382  1.00  0.00     0.000 C 
BRANCH  10  11
ATOM     11  C   UNL     1      32.042  22.863  12.058  1.00  0.00    -0.000 C 
BRANCH  11  12
ATOM     12  C   UNL     1      31.975  22.792  13.591  1.00  0.00    -0.000 C 
BRANCH  12  13
ATOM     13  C   UNL     1      33.362  23.004  14.211  1.00  0.00    -0.000 C 
BRANCH  13  14
ATOM     14  C   UNL     1      33.758  21.811  15.093  1.00  0.00    -0.000 C 
BRANCH  14  15
ATOM     15  C   UNL     1      35.093  21.180  14.668  1.00  0.00    -0.003 C 
ATOM     16  C   UNL     1      34.940  20.202  13.503  1.00  0.00     0.004 C 
ENDBRANCH  14  15
ENDBRANCH  13  14
ENDBRANCH  12  13
ENDBRANCH  11  12
ENDBRANCH  10  11
ENDBRANCH   1  10
TORSDOF 12
ENDMDL
MODEL 5
REMARK VINA RESULT:    -3.742      1.813      4.025
REMARK INTER + INTRA:          -8.267
REMARK INTER:                  -6.609
REMARK INTRA:                  -1.658
REMARK UNBOUND:                -1.899
REMARK SMILES CCCCCCCCCCCCCC(=O)[O-]
REMARK SMILES IDX 8 1 9 2 10 3 11 4 12 5 13 6 14 7 15 8 16 9 7 10 6 11 5 12
REMARK SMILES IDX 4 13 3 14 2 15 1 16
REMARK H PARENT
REMARK Flexibility Score: inf
ROOT
ATOM      1  C   UNL     1      33.144  21.876  14.666  1.00  0.00     0.000 C 
ENDROOT
BRANCH   1   2
ATOM      2  C   UNL     1      34.154  20.837  14.148  1.00  0.00     0.000 C 
BRANCH   2   3
ATOM      3  C   UNL     1      33.650  20.104  12.894  1.00  0.00     0.000 C 
BRANCH   3   4
ATOM      4  C   UNL     1      32.595  19.034  13.223  1.00  0.00     0.000 C 
BRANCH   4   5
ATOM      5  C   UNL     1      31.154  19.505  12.953  1.00  0.00     0.006 C 
BRANCH   5   6
ATOM      6  C   UNL     1      30.443  18.729  11.831  1.00  0.00     0.053 C 
BRANCH   6   7
ATOM      7  C   UNL     1      31.274  18.628  10.586  1.00  0.00     0.041 C 
ATOM      8  O   UNL     1      31.475  19.648   9.875  1.00  0.00    -0.550 OA
ATOM      9  O   UNL     1      31.794  17.402  10.190  1.00  0.00    -0.550 OA
ENDBRANCH   6   7
ENDBRANCH   5   6
ENDBRANCH   4   5
ENDBRANCH   3   4
ENDBRANCH   2   3
ENDBRANCH   1   2
BRANCH   1  10
ATOM     10  C   UNL     1      33.003  23.093  13.733  1.00  0.00     0.000 C 
BRANCH  10  11
ATOM     11  C   UNL     1      31.726  23.112  12.873  1.00  0.00    -0.000 C 
BRANCH  11  12
ATOM     12  C   UNL     1      32.013  22.952  11.373  1.00  0.00    -0.000 C 
BRANCH  12  13
ATOM     13  C   UNL     1      30.708  22.916  10.566  1.00  0.00    -0.000 C 
BRANCH  13  14
ATOM     14  C   UNL     1      29.546  22.394  11.423  1.00  0.00    -0.000 C 
BRANCH  14  15
ATOM     15  C   UNL     1      28.497  21.634  10.596  1.00  0.00    -0.003 C 
ATOM     16  C   UNL     1      27.494  20.876  11.466  1.00  0.00     0.004 C 
ENDBRANCH  14  15
ENDBRANCH  13  14
ENDBRANCH  12  13
ENDBRANCH  11  12
ENDBRANCH  10  11
ENDBRANCH   1  10
TORSDOF 12
ENDMDL
MODEL 6
REMARK VINA RESULT:    -3.718     15.748     18.042
REMARK INTER + INTRA:          -8.226
REMARK INTER:                  -6.755
REMARK INTRA:                  -1.471
REMARK UNBOUND:                -1.899
REMARK SMILES CCCCCCCCCCCCCC(=O)[O-]
REMARK SMILES IDX 8 1 9 2 10 3 11 4 12 5 13 6 14 7 15 8 16 9 7 10 6 11 5 12
REMARK SMILES IDX 4 13 3 14 2 15 1 16
REMARK H PARENT
REMARK Flexibility Score: inf
ROOT
ATOM      1  C   UNL     1      45.001  15.416  20.433  1.00  0.00     0.000 C 
ENDROOT
BRANCH   1   2
ATOM      2  C   UNL     1      44.185  16.337  21.356  1.00  0.00     0.000 C 
BRANCH   2   3
ATOM      3  C   UNL     1      42.832  16.732  20.742  1.00  0.00     0.000 C 
BRANCH   3   4
ATOM      4  C   UNL     1      41.644  16.071  21.463  1.00  0.00     0.000 C 
BRANCH   4   5
ATOM      5  C   UNL     1      42.062  15.284  22.718  1.00  0.00     0.006 C 
BRANCH   5   6
ATOM      6  C   UNL     1      41.399  13.899  22.836  1.00  0.00     0.053 C 
BRANCH   6   7
ATOM      7  C   UNL     1      41.273  13.442  24.258  1.00  0.00     0.041 C 
ATOM      8  O   UNL     1      40.271  12.769  24.620  1.00  0.00    -0.550 OA
ATOM      9  O   UNL     1      42.239  13.790  25.194  1.00  0.00    -0.550 OA
ENDBRANCH   6   7
ENDBRANCH   5   6
ENDBRANCH   4   5
ENDBRANCH   3   4
ENDBRANCH   2   3
ENDBRANCH   1   2
BRANCH   1  10
ATOM     10  C   UNL     1      45.859  14.399  21.209  1.00  0.00     0.000 C 
BRANCH  10  11
ATOM     11  C   UNL     1      45.598  14.347  22.726  1.00  0.00    -0.000 C 
BRANCH  11  12
ATOM     12  C   UNL     1      45.094  12.975  23.199  1.00  0.00    -0.000 C 
BRANCH  12  13
ATOM     13  C   UNL     1      44.894  12.025  22.012  1.00  0.00    -0.000 C 
BRANCH  13  14
ATOM     14  C   UNL     1      43.649  11.148  22.214  1.00  0.00    -0.000 C 
BRANCH  14  15
ATOM     15  C   UNL     1      43.917   9.665  21.914  1.00  0.00    -0.003 C 
ATOM     16  C   UNL     1      44.938   9.464  20.794  1.00  0.00     0.004 C 
ENDBRANCH  14  15
ENDBRANCH  13  14
ENDBRANCH  12  13
ENDBRANCH  11  12
ENDBRANCH  10  11
ENDBRANCH   1  10
TORSDOF 12
ENDMDL
MODEL 7
REMARK VINA RESULT:    -3.701     16.192     18.501
REMARK INTER + INTRA:          -8.197
REMARK INTER:                  -6.942
REMARK INTRA:                  -1.255
REMARK UNBOUND:                -1.899
REMARK SMILES CCCCCCCCCCCCCC(=O)[O-]
REMARK SMILES IDX 8 1 9 2 10 3 11 4 12 5 13 6 14 7 15 8 16 9 7 10 6 11 5 12
REMARK SMILES IDX 4 13 3 14 2 15 1 16
REMARK H PARENT
REMARK Flexibility Score: inf
ROOT
ATOM      1  C   UNL     1      44.232  16.254  21.363  1.00  0.00     0.000 C 
ENDROOT
BRANCH   1   2
ATOM      2  C   UNL     1      45.160  15.590  20.330  1.00  0.00     0.000 C 
BRANCH   2   3
ATOM      3  C   UNL     1      46.045  14.499  20.954  1.00  0.00     0.000 C 
BRANCH   3   4
ATOM      4  C   UNL     1      45.341  13.755  22.101  1.00  0.00     0.000 C 
BRANCH   4   5
ATOM      5  C   UNL     1      45.523  12.228  22.030  1.00  0.00     0.006 C 
BRANCH   5   6
ATOM      6  C   UNL     1      44.200  11.441  22.026  1.00  0.00     0.053 C 
BRANCH   6   7
ATOM      7  C   UNL     1      44.397   9.989  21.707  1.00  0.00     0.041 C 
ATOM      8  O   UNL     1      43.948   9.104  22.483  1.00  0.00    -0.550 OA
ATOM      9  O   UNL     1      45.107   9.611  20.574  1.00  0.00    -0.550 OA
ENDBRANCH   6   7
ENDBRANCH   5   6
ENDBRANCH   4   5
ENDBRANCH   3   4
ENDBRANCH   2   3
ENDBRANCH   1   2
BRANCH   1  10
ATOM     10  C   UNL     1      42.877  16.677  20.766  1.00  0.00     0.000 C 
BRANCH  10  11
ATOM     11  C   UNL     1      41.642  16.068  21.456  1.00  0.00    -0.000 C 
BRANCH  11  12
ATOM     12  C   UNL     1      42.007  15.133  22.619  1.00  0.00    -0.000 C 
BRANCH  12  13
ATOM     13  C   UNL     1      41.280  13.788  22.491  1.00  0.00    -0.000 C 
BRANCH  13  14
ATOM     14  C   UNL     1      41.084  13.136  23.867  1.00  0.00    -0.000 C 
BRANCH  14  15
ATOM     15  C   UNL     1      41.666  13.982  25.010  1.00  0.00    -0.003 C 
ATOM     16  C   UNL     1      40.718  14.097  26.204  1.00  0.00     0.004 C 
ENDBRANCH  14  15
ENDBRANCH  13  14
ENDBRANCH  12  13
ENDBRANCH  11  12
ENDBRANCH  10  11
ENDBRANCH   1  10
TORSDOF 12
ENDMDL
MODEL 8
REMARK VINA RESULT:    -3.697     16.258     18.826
REMARK INTER + INTRA:          -8.190
REMARK INTER:                  -6.569
REMARK INTRA:                  -1.620
REMARK UNBOUND:                -1.899
REMARK SMILES CCCCCCCCCCCCCC(=O)[O-]
REMARK SMILES IDX 8 1 9 2 10 3 11 4 12 5 13 6 14 7 15 8 16 9 7 10 6 11 5 12
REMARK SMILES IDX 4 13 3 14 2 15 1 16
REMARK H PARENT
REMARK Flexibility Score: inf
ROOT
ATOM      1  C   UNL     1      41.653  16.084  21.577  1.00  0.00     0.000 C 
ENDROOT
BRANCH   1   2
ATOM      2  C   UNL     1      42.050  15.188  22.763  1.00  0.00     0.000 C 
BRANCH   2   3
ATOM      3  C   UNL     1      41.642  13.722  22.552  1.00  0.00     0.000 C 
BRANCH   3   4
ATOM      4  C   UNL     1      42.458  12.752  23.424  1.00  0.00     0.000 C 
BRANCH   4   5
ATOM      5  C   UNL     1      43.727  12.234  22.725  1.00  0.00     0.006 C 
BRANCH   5   6
ATOM      6  C   UNL     1      43.575  10.828  22.116  1.00  0.00     0.053 C 
BRANCH   6   7
ATOM      7  C   UNL     1      44.895  10.200  21.782  1.00  0.00     0.041 C 
ATOM      8  O   UNL     1      45.874  10.332  22.563  1.00  0.00    -0.550 OA
ATOM      9  O   UNL     1      45.056   9.503  20.591  1.00  0.00    -0.550 OA
ENDBRANCH   6   7
ENDBRANCH   5   6
ENDBRANCH   4   5
ENDBRANCH   3   4
ENDBRANCH   2   3
ENDBRANCH   1   2
BRANCH   1  10
ATOM     10  C   UNL     1      42.861  16.532  20.734  1.00  0.00     0.000 C 
BRANCH  10  11
ATOM     11  C   UNL     1      44.229  16.038  21.240  1.00  0.00    -0.000 C 
BRANCH  11  12
ATOM     12  C   UNL     1      45.170  17.186  21.636  1.00  0.00    -0.000 C 
BRANCH  12  13
ATOM     13  C   UNL     1      45.866  16.889  22.970  1.00  0.00    -0.000 C 
BRANCH  13  14
ATOM     14  C   UNL     1      45.739  15.402  23.337  1.00  0.00    -0.000 C 
BRANCH  14  15
ATOM     15  C   UNL     1      45.162  15.189  24.745  1.00  0.00    -0.003 C 
ATOM     16  C   UNL     1      44.442  16.427  25.283  1.00  0.00     0.004 C 
ENDBRANCH  14  15
ENDBRANCH  13  14
ENDBRANCH  12  13
ENDBRANCH  11  12
ENDBRANCH  10  11
ENDBRANCH   1  10
TORSDOF 12
ENDMDL
MODEL 9
REMARK VINA RESULT:    -3.647     16.098     18.885
REMARK INTER + INTRA:          -8.104
REMARK INTER:                  -6.219
REMARK INTRA:                  -1.885
REMARK UNBOUND:                -1.899
REMARK SMILES CCCCCCCCCCCCCC(=O)[O-]
REMARK SMILES IDX 8 1 9 2 10 3 11 4 12 5 13 6 14 7 15 8 16 9 7 10 6 11 5 12
REMARK SMILES IDX 4 13 3 14 2 15 1 16
REMARK H PARENT
REMARK Flexibility Score: inf
ROOT
ATOM      1  C   UNL     1      41.564  13.897  24.338  1.00  0.00     0.000 C 
ENDROOT
BRANCH   1   2
ATOM      2  C   UNL     1      41.337  13.403  22.898  1.00  0.00     0.000 C 
BRANCH   2   3
ATOM      3  C   UNL     1      42.405  12.393  22.450  1.00  0.00     0.000 C 
BRANCH   3   4
ATOM      4  C   UNL     1      43.195  11.808  23.634  1.00  0.00     0.000 C 
BRANCH   4   5
ATOM      5  C   UNL     1      44.720  11.861  23.426  1.00  0.00     0.006 C 
BRANCH   5   6
ATOM      6  C   UNL     1      45.160  11.639  21.969  1.00  0.00     0.053 C 
BRANCH   6   7
ATOM      7  C   UNL     1      45.444  10.197  21.667  1.00  0.00     0.041 C 
ATOM      8  O   UNL     1      45.036   9.683  20.592  1.00  0.00    -0.550 OA
ATOM      9  O   UNL     1      46.125   9.411  22.588  1.00  0.00    -0.550 OA
ENDBRANCH   6   7
ENDBRANCH   5   6
ENDBRANCH   4   5
ENDBRANCH   3   4
ENDBRANCH   2   3
ENDBRANCH   1   2
BRANCH   1  10
ATOM     10  C   UNL     1      42.278  15.260  24.398  1.00  0.00     0.000 C 
BRANCH  10  11
ATOM     11  C   UNL     1      43.771  15.199  24.768  1.00  0.00    -0.000 C 
BRANCH  11  12
ATOM     12  C   UNL     1      44.658  16.016  23.816  1.00  0.00    -0.000 C 
BRANCH  12  13
ATOM     13  C   UNL     1      44.616  15.437  22.396  1.00  0.00    -0.000 C 
BRANCH  13  14
ATOM     14  C   UNL     1      44.521  16.557  21.349  1.00  0.00    -0.000 C 
BRANCH  14  15
ATOM     15  C   UNL     1      43.306  16.397  20.422  1.00  0.00    -0.003 C 
ATOM     16  C   UNL     1      41.981  16.675  21.131  1.00  0.00     0.004 C 
ENDBRANCH  14  15
ENDBRANCH  13  14
ENDBRANCH  12  13
ENDBRANCH  11  12
ENDBRANCH  10  11
ENDBRANCH   1  10
TORSDOF 12
ENDMDL
