MODEL 1
REMARK VINA RESULT:    -6.227      0.000      0.000
REMARK INTER + INTRA:          -7.467
REMARK INTER:                  -7.319
REMARK INTRA:                  -0.148
REMARK UNBOUND:                -0.148
REMARK SMILES O=C([O-])C=Cc1ccc(O)c(O)c1
REMARK SMILES IDX 6 1 13 2 7 3 11 4 8 5 9 6 5 7 4 8 2 9 1 10 3 11 12 12 10 14
REMARK H PARENT 12 13 10 15
REMARK Flexibility Score: inf
ROOT
ATOM      1  C   UNL     1     -25.190 -22.802 -13.127  1.00  0.00    -0.022 A 
ATOM      2  C   UNL     1     -25.986 -23.558 -14.012  1.00  0.00     0.058 A 
ATOM      3  C   UNL     1     -23.968 -23.336 -12.689  1.00  0.00     0.012 A 
ATOM      4  C   UNL     1     -25.553 -24.810 -14.467  1.00  0.00     0.157 A 
ATOM      5  C   UNL     1     -23.534 -24.583 -13.144  1.00  0.00     0.051 A 
ATOM      6  C   UNL     1     -24.320 -25.324 -14.034  1.00  0.00     0.157 A 
ENDROOT
BRANCH   1   7
ATOM      7  C   UNL     1     -25.612 -21.476 -12.609  1.00  0.00     0.010 C 
ATOM      8  C   UNL     1     -24.850 -20.709 -11.817  1.00  0.00     0.025 C 
BRANCH   8   9
ATOM      9  C   UNL     1     -25.307 -19.403 -11.312  1.00  0.00     0.064 C 
ATOM     10  O   UNL     1     -25.032 -18.335 -11.920  1.00  0.00    -0.545 OA
ATOM     11  O   UNL     1     -26.054 -19.348 -10.142  1.00  0.00    -0.545 OA
ENDBRANCH   8   9
ENDBRANCH   1   7
BRANCH   4  12
ATOM     12  O   UNL     1     -26.365 -25.528 -15.344  1.00  0.00    -0.504 OA
ATOM     13  H   UNL     1     -26.987 -26.262 -15.023  1.00  0.00     0.293 HD
ENDBRANCH   4  12
BRANCH   6  14
ATOM     14  O   UNL     1     -23.882 -26.568 -14.486  1.00  0.00    -0.504 OA
ATOM     15  H   UNL     1     -23.833 -26.787 -15.474  1.00  0.00     0.293 HD
ENDBRANCH   6  14
TORSDOF 4
ENDMDL
MODEL 2
REMARK VINA RESULT:    -6.130      0.741      1.909
REMARK INTER + INTRA:          -7.352
REMARK INTER:                  -7.206
REMARK INTRA:                  -0.146
REMARK UNBOUND:                -0.148
REMARK SMILES O=C([O-])C=Cc1ccc(O)c(O)c1
REMARK SMILES IDX 6 1 13 2 7 3 11 4 8 5 9 6 5 7 4 8 2 9 1 10 3 11 12 12 10 14
REMARK H PARENT 12 13 10 15
REMARK Flexibility Score: inf
ROOT
ATOM      1  C   UNL     1     -25.363 -22.735 -13.123  1.00  0.00    -0.022 A 
ATOM      2  C   UNL     1     -24.481 -23.831 -13.213  1.00  0.00     0.058 A 
ATOM      3  C   UNL     1     -26.554 -22.761 -13.866  1.00  0.00     0.012 A 
ATOM      4  C   UNL     1     -24.800 -24.939 -14.008  1.00  0.00     0.157 A 
ATOM      5  C   UNL     1     -26.874 -23.865 -14.657  1.00  0.00     0.051 A 
ATOM      6  C   UNL     1     -26.003 -24.959 -14.731  1.00  0.00     0.157 A 
ENDROOT
BRANCH   1   7
ATOM      7  C   UNL     1     -25.063 -21.534 -12.303  1.00  0.00     0.010 C 
ATOM      8  C   UNL     1     -26.005 -20.744 -11.768  1.00  0.00     0.025 C 
BRANCH   8   9
ATOM      9  C   UNL     1     -25.670 -19.553 -10.969  1.00  0.00     0.064 C 
ATOM     10  O   UNL     1     -25.098 -18.558 -11.488  1.00  0.00    -0.545 OA
ATOM     11  O   UNL     1     -25.988 -19.528  -9.617  1.00  0.00    -0.545 OA
ENDBRANCH   8   9
ENDBRANCH   1   7
BRANCH   4  12
ATOM     12  O   UNL     1     -23.905 -26.006 -14.069  1.00  0.00    -0.504 OA
ATOM     13  H   UNL     1     -23.258 -26.123 -14.841  1.00  0.00     0.293 HD
ENDBRANCH   4  12
BRANCH   6  14
ATOM     14  O   UNL     1     -26.326 -26.061 -15.522  1.00  0.00    -0.504 OA
ATOM     15  H   UNL     1     -25.684 -26.422 -16.216  1.00  0.00     0.293 HD
ENDBRANCH   6  14
TORSDOF 4
ENDMDL
MODEL 3
REMARK VINA RESULT:    -5.940      2.841      3.671
REMARK INTER + INTRA:          -7.129
REMARK INTER:                  -7.006
REMARK INTRA:                  -0.124
REMARK UNBOUND:                -0.148
REMARK SMILES O=C([O-])C=Cc1ccc(O)c(O)c1
REMARK SMILES IDX 6 1 13 2 7 3 11 4 8 5 9 6 5 7 4 8 2 9 1 10 3 11 12 12 10 14
REMARK H PARENT 12 13 10 15
REMARK Flexibility Score: inf
ROOT
ATOM      1  C   UNL     1     -25.621 -19.999 -13.167  1.00  0.00    -0.022 A 
ATOM      2  C   UNL     1     -25.380 -20.706 -14.363  1.00  0.00     0.058 A 
ATOM      3  C   UNL     1     -26.337 -20.632 -12.139  1.00  0.00     0.012 A 
ATOM      4  C   UNL     1     -25.823 -22.026 -14.512  1.00  0.00     0.157 A 
ATOM      5  C   UNL     1     -26.777 -21.949 -12.285  1.00  0.00     0.051 A 
ATOM      6  C   UNL     1     -26.522 -22.652 -13.468  1.00  0.00     0.157 A 
ENDROOT
BRANCH   1   7
ATOM      7  C   UNL     1     -25.181 -18.596 -12.967  1.00  0.00     0.010 C 
ATOM      8  C   UNL     1     -24.667 -17.830 -13.941  1.00  0.00     0.025 C 
BRANCH   8   9
ATOM      9  C   UNL     1     -24.230 -16.444 -13.702  1.00  0.00     0.064 C 
ATOM     10  O   UNL     1     -23.384 -16.171 -12.810  1.00  0.00    -0.545 OA
ATOM     11  O   UNL     1     -24.761 -15.419 -14.474  1.00  0.00    -0.545 OA
ENDBRANCH   8   9
ENDBRANCH   1   7
BRANCH   4  12
ATOM     12  O   UNL     1     -25.563 -22.696 -15.708  1.00  0.00    -0.504 OA
ATOM     13  H   UNL     1     -25.467 -22.205 -16.590  1.00  0.00     0.293 HD
ENDBRANCH   4  12
BRANCH   6  14
ATOM     14  O   UNL     1     -26.963 -23.968 -13.610  1.00  0.00    -0.504 OA
ATOM     15  H   UNL     1     -26.648 -24.703 -12.990  1.00  0.00     0.293 HD
ENDBRANCH   6  14
TORSDOF 4
ENDMDL
MODEL 4
REMARK VINA RESULT:    -5.867      1.422      1.651
REMARK INTER + INTRA:          -7.043
REMARK INTER:                  -6.920
REMARK INTRA:                  -0.124
REMARK UNBOUND:                -0.148
REMARK SMILES O=C([O-])C=Cc1ccc(O)c(O)c1
REMARK SMILES IDX 6 1 13 2 7 3 11 4 8 5 9 6 5 7 4 8 2 9 1 10 3 11 12 12 10 14
REMARK H PARENT 12 13 10 15
REMARK Flexibility Score: inf
ROOT
ATOM      1  C   UNL     1     -24.429 -22.092 -13.446  1.00  0.00    -0.022 A 
ATOM      2  C   UNL     1     -25.403 -22.720 -14.250  1.00  0.00     0.058 A 
ATOM      3  C   UNL     1     -23.410 -22.875 -12.881  1.00  0.00     0.012 A 
ATOM      4  C   UNL     1     -25.341 -24.096 -14.500  1.00  0.00     0.157 A 
ATOM      5  C   UNL     1     -23.346 -24.247 -13.131  1.00  0.00     0.051 A 
ATOM      6  C   UNL     1     -24.306 -24.863 -13.942  1.00  0.00     0.157 A 
ENDROOT
BRANCH   1   7
ATOM      7  C   UNL     1     -24.459 -20.639 -13.143  1.00  0.00     0.010 C 
ATOM      8  C   UNL     1     -25.049 -19.727 -13.929  1.00  0.00     0.025 C 
BRANCH   8   9
ATOM      9  C   UNL     1     -25.049 -18.291 -13.601  1.00  0.00     0.064 C 
ATOM     10  O   UNL     1     -25.399 -17.428 -14.450  1.00  0.00    -0.545 OA
ATOM     11  O   UNL     1     -24.654 -17.881 -12.335  1.00  0.00    -0.545 OA
ENDBRANCH   8   9
ENDBRANCH   1   7
BRANCH   4  12
ATOM     12  O   UNL     1     -26.320 -24.682 -15.302  1.00  0.00    -0.504 OA
ATOM     13  H   UNL     1     -26.932 -25.412 -14.958  1.00  0.00     0.293 HD
ENDBRANCH   4  12
BRANCH   6  14
ATOM     14  O   UNL     1     -24.238 -26.234 -14.191  1.00  0.00    -0.504 OA
ATOM     15  H   UNL     1     -24.794 -26.670 -14.916  1.00  0.00     0.293 HD
ENDBRANCH   6  14
TORSDOF 4
ENDMDL
MODEL 5
REMARK VINA RESULT:    -5.717      2.342      6.165
REMARK INTER + INTRA:          -6.867
REMARK INTER:                  -6.734
REMARK INTRA:                  -0.133
REMARK UNBOUND:                -0.148
REMARK SMILES O=C([O-])C=Cc1ccc(O)c(O)c1
REMARK SMILES IDX 6 1 13 2 7 3 11 4 8 5 9 6 5 7 4 8 2 9 1 10 3 11 12 12 10 14
REMARK H PARENT 12 13 10 15
REMARK Flexibility Score: inf
ROOT
ATOM      1  C   UNL     1     -24.358 -20.738 -13.279  1.00  0.00    -0.022 A 
ATOM      2  C   UNL     1     -23.356 -19.777 -13.522  1.00  0.00     0.058 A 
ATOM      3  C   UNL     1     -25.704 -20.366 -13.432  1.00  0.00     0.012 A 
ATOM      4  C   UNL     1     -23.694 -18.482 -13.933  1.00  0.00     0.157 A 
ATOM      5  C   UNL     1     -26.043 -19.076 -13.843  1.00  0.00     0.051 A 
ATOM      6  C   UNL     1     -25.043 -18.130 -14.098  1.00  0.00     0.157 A 
ENDROOT
BRANCH   1   7
ATOM      7  C   UNL     1     -24.049 -22.119 -12.832  1.00  0.00     0.010 C 
ATOM      8  C   UNL     1     -24.313 -23.214 -13.558  1.00  0.00     0.025 C 
BRANCH   8   9
ATOM      9  C   UNL     1     -24.002 -24.571 -13.075  1.00  0.00     0.064 C 
ATOM     10  O   UNL     1     -24.148 -24.882 -11.863  1.00  0.00    -0.545 OA
ATOM     11  O   UNL     1     -23.539 -25.524 -13.973  1.00  0.00    -0.545 OA
ENDBRANCH   8   9
ENDBRANCH   1   7
BRANCH   4  12
ATOM     12  O   UNL     1     -22.675 -17.559 -14.167  1.00  0.00    -0.504 OA
ATOM     13  H   UNL     1     -22.786 -16.786 -14.814  1.00  0.00     0.293 HD
ENDBRANCH   4  12
BRANCH   6  14
ATOM     14  O   UNL     1     -25.386 -16.842 -14.510  1.00  0.00    -0.504 OA
ATOM     15  H   UNL     1     -25.920 -16.680 -15.355  1.00  0.00     0.293 HD
ENDBRANCH   6  14
TORSDOF 4
ENDMDL
MODEL 6
REMARK VINA RESULT:    -5.600      4.391      7.714
REMARK INTER + INTRA:          -6.730
REMARK INTER:                  -6.578
REMARK INTRA:                  -0.152
REMARK UNBOUND:                -0.148
REMARK SMILES O=C([O-])C=Cc1ccc(O)c(O)c1
REMARK SMILES IDX 6 1 13 2 7 3 11 4 8 5 9 6 5 7 4 8 2 9 1 10 3 11 12 12 10 14
REMARK H PARENT 12 13 10 15
REMARK Flexibility Score: inf
ROOT
ATOM      1  C   UNL     1     -24.573 -16.992 -13.823  1.00  0.00    -0.022 A 
ATOM      2  C   UNL     1     -23.384 -16.291 -14.109  1.00  0.00     0.058 A 
ATOM      3  C   UNL     1     -25.751 -16.632 -14.496  1.00  0.00     0.012 A 
ATOM      4  C   UNL     1     -23.373 -15.270 -15.068  1.00  0.00     0.157 A 
ATOM      5  C   UNL     1     -25.741 -15.616 -15.453  1.00  0.00     0.051 A 
ATOM      6  C   UNL     1     -24.555 -14.933 -15.746  1.00  0.00     0.157 A 
ENDROOT
BRANCH   1   7
ATOM      7  C   UNL     1     -24.637 -18.073 -12.807  1.00  0.00     0.010 C 
ATOM      8  C   UNL     1     -25.633 -18.967 -12.734  1.00  0.00     0.025 C 
BRANCH   8   9
ATOM      9  C   UNL     1     -25.669 -20.020 -11.704  1.00  0.00     0.064 C 
ATOM     10  O   UNL     1     -24.861 -20.015 -10.737  1.00  0.00    -0.545 OA
ATOM     11  O   UNL     1     -26.609 -21.038 -11.802  1.00  0.00    -0.545 OA
ENDBRANCH   8   9
ENDBRANCH   1   7
BRANCH   4  12
ATOM     12  O   UNL     1     -22.178 -14.600 -15.328  1.00  0.00    -0.504 OA
ATOM     13  H   UNL     1     -21.273 -15.025 -15.156  1.00  0.00     0.293 HD
ENDBRANCH   4  12
BRANCH   6  14
ATOM     14  O   UNL     1     -24.548 -13.919 -16.704  1.00  0.00    -0.504 OA
ATOM     15  H   UNL     1     -25.396 -13.432 -16.967  1.00  0.00     0.293 HD
ENDBRANCH   6  14
TORSDOF 4
ENDMDL
MODEL 7
REMARK VINA RESULT:    -5.527      3.550      5.597
REMARK INTER + INTRA:          -6.644
REMARK INTER:                  -6.515
REMARK INTRA:                  -0.129
REMARK UNBOUND:                -0.148
REMARK SMILES O=C([O-])C=Cc1ccc(O)c(O)c1
REMARK SMILES IDX 6 1 13 2 7 3 11 4 8 5 9 6 5 7 4 8 2 9 1 10 3 11 12 12 10 14
REMARK H PARENT 12 13 10 15
REMARK Flexibility Score: inf
ROOT
ATOM      1  C   UNL     1     -25.198 -18.466 -13.620  1.00  0.00    -0.022 A 
ATOM      2  C   UNL     1     -25.314 -18.646 -12.226  1.00  0.00     0.058 A 
ATOM      3  C   UNL     1     -25.438 -19.560 -14.466  1.00  0.00     0.012 A 
ATOM      4  C   UNL     1     -25.688 -19.888 -11.697  1.00  0.00     0.157 A 
ATOM      5  C   UNL     1     -25.813 -20.797 -13.940  1.00  0.00     0.051 A 
ATOM      6  C   UNL     1     -25.942 -20.968 -12.557  1.00  0.00     0.157 A 
ENDROOT
BRANCH   1   7
ATOM      7  C   UNL     1     -24.794 -17.173 -14.226  1.00  0.00     0.010 C 
ATOM      8  C   UNL     1     -25.631 -16.374 -14.904  1.00  0.00     0.025 C 
BRANCH   8   9
ATOM      9  C   UNL     1     -25.191 -15.102 -15.503  1.00  0.00     0.064 C 
ATOM     10  O   UNL     1     -25.608 -13.997 -15.066  1.00  0.00    -0.545 OA
ATOM     11  O   UNL     1     -24.303 -15.123 -16.569  1.00  0.00    -0.545 OA
ENDBRANCH   8   9
ENDBRANCH   1   7
BRANCH   4  12
ATOM     12  O   UNL     1     -25.796 -20.028 -10.314  1.00  0.00    -0.504 OA
ATOM     13  H   UNL     1     -25.780 -20.935  -9.861  1.00  0.00     0.293 HD
ENDBRANCH   4  12
BRANCH   6  14
ATOM     14  O   UNL     1     -26.317 -22.205 -12.035  1.00  0.00    -0.504 OA
ATOM     15  H   UNL     1     -27.188 -22.650 -12.298  1.00  0.00     0.293 HD
ENDBRANCH   6  14
TORSDOF 4
ENDMDL
MODEL 8
REMARK VINA RESULT:    -5.482      2.585      3.500
REMARK INTER + INTRA:          -6.591
REMARK INTER:                  -6.446
REMARK INTRA:                  -0.145
REMARK UNBOUND:                -0.148
REMARK SMILES O=C([O-])C=Cc1ccc(O)c(O)c1
REMARK SMILES IDX 6 1 13 2 7 3 11 4 8 5 9 6 5 7 4 8 2 9 1 10 3 11 12 12 10 14
REMARK H PARENT 12 13 10 15
REMARK Flexibility Score: inf
ROOT
ATOM      1  C   UNL     1     -25.650 -20.446 -13.428  1.00  0.00    -0.022 A 
ATOM      2  C   UNL     1     -26.388 -21.157 -12.460  1.00  0.00     0.058 A 
ATOM      3  C   UNL     1     -25.344 -21.076 -14.644  1.00  0.00     0.012 A 
ATOM      4  C   UNL     1     -26.829 -22.461 -12.716  1.00  0.00     0.157 A 
ATOM      5  C   UNL     1     -25.785 -22.375 -14.903  1.00  0.00     0.051 A 
ATOM      6  C   UNL     1     -26.530 -23.072 -13.945  1.00  0.00     0.157 A 
ENDROOT
BRANCH   1   7
ATOM      7  C   UNL     1     -25.152 -19.067 -13.197  1.00  0.00     0.010 C 
ATOM      8  C   UNL     1     -25.105 -18.123 -14.147  1.00  0.00     0.025 C 
BRANCH   8   9
ATOM      9  C   UNL     1     -24.592 -16.767 -13.884  1.00  0.00     0.064 C 
ATOM     10  O   UNL     1     -24.875 -15.803 -14.644  1.00  0.00    -0.545 OA
ATOM     11  O   UNL     1     -23.781 -16.549 -12.778  1.00  0.00    -0.545 OA
ENDBRANCH   8   9
ENDBRANCH   1   7
BRANCH   4  12
ATOM     12  O   UNL     1     -27.559 -23.133 -11.736  1.00  0.00    -0.504 OA
ATOM     13  H   UNL     1     -27.441 -22.939 -10.748  1.00  0.00     0.293 HD
ENDBRANCH   4  12
BRANCH   6  14
ATOM     14  O   UNL     1     -26.970 -24.370 -14.207  1.00  0.00    -0.504 OA
ATOM     15  H   UNL     1     -26.982 -24.746 -15.146  1.00  0.00     0.293 HD
ENDBRANCH   6  14
TORSDOF 4
ENDMDL
