MODEL 1
REMARK VINA RESULT:    -5.051      0.000      0.000
REMARK INTER + INTRA:         -15.806
REMARK INTER:                 -11.548
REMARK INTRA:                  -4.258
REMARK UNBOUND:                -4.258
REMARK SMILES CCCCCCCCCCCCCCCCCCCCCCCC(=O)[O-]
REMARK SMILES IDX 13 1 14 2 15 3 16 4 17 5 18 6 19 7 20 8 21 9 22 10 23 11
REMARK SMILES IDX 24 12 25 13 26 14 12 15 11 16 10 17 9 18 8 19 7 20 6 21 5 22
REMARK SMILES IDX 4 23 3 24 2 25 1 26
REMARK H PARENT
REMARK Flexibility Score: inf
ROOT
ATOM      1  C   UNL     1     120.366 178.458 124.151  1.00  0.00     0.000 C 
ENDROOT
BRANCH   1   2
ATOM      2  C   UNL     1     120.307 179.750 124.987  1.00  0.00     0.000 C 
BRANCH   2   3
ATOM      3  C   UNL     1     120.611 179.509 126.476  1.00  0.00     0.000 C 
BRANCH   3   4
ATOM      4  C   UNL     1     122.036 178.979 126.712  1.00  0.00     0.000 C 
BRANCH   4   5
ATOM      5  C   UNL     1     122.166 178.206 128.036  1.00  0.00     0.000 C 
BRANCH   5   6
ATOM      6  C   UNL     1     120.841 178.124 128.814  1.00  0.00     0.000 C 
BRANCH   6   7
ATOM      7  C   UNL     1     120.218 176.715 128.903  1.00  0.00     0.000 C 
BRANCH   7   8
ATOM      8  C   UNL     1     118.813 176.581 128.281  1.00  0.00     0.000 C 
BRANCH   8   9
ATOM      9  C   UNL     1     118.787 175.999 126.853  1.00  0.00     0.000 C 
BRANCH   9  10
ATOM     10  C   UNL     1     117.981 176.823 125.828  1.00  0.00     0.006 C 
BRANCH  10  11
ATOM     11  C   UNL     1     116.889 177.711 126.445  1.00  0.00     0.053 C 
BRANCH  11  12
ATOM     12  C   UNL     1     116.286 178.639 125.436  1.00  0.00     0.041 C 
ATOM     13  O   UNL     1     115.479 179.535 125.803  1.00  0.00    -0.550 OA
ATOM     14  O   UNL     1     116.652 178.547 124.099  1.00  0.00    -0.550 OA
ENDBRANCH  11  12
ENDBRANCH  10  11
ENDBRANCH   9  10
ENDBRANCH   8   9
ENDBRANCH   7   8
ENDBRANCH   6   7
ENDBRANCH   5   6
ENDBRANCH   4   5
ENDBRANCH   3   4
ENDBRANCH   2   3
ENDBRANCH   1   2
BRANCH   1  15
ATOM     15  C   UNL     1     121.637 178.295 123.296  1.00  0.00     0.000 C 
BRANCH  15  16
ATOM     16  C   UNL     1     122.391 176.990 123.590  1.00  0.00     0.000 C 
BRANCH  16  17
ATOM     17  C   UNL     1     121.498 176.001 124.354  1.00  0.00     0.000 C 
BRANCH  17  18
ATOM     18  C   UNL     1     122.217 175.331 125.539  1.00  0.00    -0.000 C 
BRANCH  18  19
ATOM     19  C   UNL     1     121.847 173.855 125.775  1.00  0.00    -0.000 C 
BRANCH  19  20
ATOM     20  C   UNL     1     122.174 173.375 127.198  1.00  0.00    -0.000 C 
BRANCH  20  21
ATOM     21  C   UNL     1     120.906 173.325 128.064  1.00  0.00    -0.000 C 
BRANCH  21  22
ATOM     22  C   UNL     1     120.524 171.894 128.479  1.00  0.00    -0.000 C 
BRANCH  22  23
ATOM     23  C   UNL     1     119.281 171.324 127.770  1.00  0.00    -0.000 C 
BRANCH  23  24
ATOM     24  C   UNL     1     118.332 172.407 127.211  1.00  0.00    -0.000 C 
BRANCH  24  25
ATOM     25  C   UNL     1     118.429 172.535 125.683  1.00  0.00    -0.003 C 
ATOM     26  C   UNL     1     119.187 171.355 125.079  1.00  0.00     0.004 C 
ENDBRANCH  24  25
ENDBRANCH  23  24
ENDBRANCH  22  23
ENDBRANCH  21  22
ENDBRANCH  20  21
ENDBRANCH  19  20
ENDBRANCH  18  19
ENDBRANCH  17  18
ENDBRANCH  16  17
ENDBRANCH  15  16
ENDBRANCH   1  15
TORSDOF 22
ENDMDL
MODEL 2
REMARK VINA RESULT:    -5.041      2.949      5.963
REMARK INTER + INTRA:         -15.783
REMARK INTER:                 -12.229
REMARK INTRA:                  -3.554
REMARK UNBOUND:                -4.258
REMARK SMILES CCCCCCCCCCCCCCCCCCCCCCCC(=O)[O-]
REMARK SMILES IDX 13 1 14 2 15 3 16 4 17 5 18 6 19 7 20 8 21 9 22 10 23 11
REMARK SMILES IDX 24 12 25 13 26 14 12 15 11 16 10 17 9 18 8 19 7 20 6 21 5 22
REMARK SMILES IDX 4 23 3 24 2 25 1 26
REMARK H PARENT
REMARK Flexibility Score: inf
ROOT
ATOM      1  C   UNL     1     121.025 175.171 125.440  1.00  0.00     0.000 C 
ENDROOT
BRANCH   1   2
ATOM      2  C   UNL     1     120.514 175.383 126.877  1.00  0.00     0.000 C 
BRANCH   2   3
ATOM      3  C   UNL     1     121.538 174.955 127.942  1.00  0.00     0.000 C 
BRANCH   3   4
ATOM      4  C   UNL     1     121.782 176.043 129.002  1.00  0.00     0.000 C 
BRANCH   4   5
ATOM      5  C   UNL     1     121.127 177.386 128.631  1.00  0.00     0.000 C 
BRANCH   5   6
ATOM      6  C   UNL     1     122.149 178.445 128.180  1.00  0.00     0.000 C 
BRANCH   6   7
ATOM      7  C   UNL     1     121.814 179.156 126.852  1.00  0.00     0.000 C 
BRANCH   7   8
ATOM      8  C   UNL     1     120.317 179.173 126.480  1.00  0.00     0.000 C 
BRANCH   8   9
ATOM      9  C   UNL     1     120.023 179.338 124.975  1.00  0.00     0.000 C 
BRANCH   9  10
ATOM     10  C   UNL     1     118.951 178.383 124.411  1.00  0.00     0.006 C 
BRANCH  10  11
ATOM     11  C   UNL     1     117.956 177.856 125.457  1.00  0.00     0.053 C 
BRANCH  11  12
ATOM     12  C   UNL     1     116.544 178.225 125.123  1.00  0.00     0.041 C 
ATOM     13  O   UNL     1     115.694 178.375 126.041  1.00  0.00    -0.550 OA
ATOM     14  O   UNL     1     116.177 178.450 123.801  1.00  0.00    -0.550 OA
ENDBRANCH  11  12
ENDBRANCH  10  11
ENDBRANCH   9  10
ENDBRANCH   8   9
ENDBRANCH   7   8
ENDBRANCH   6   7
ENDBRANCH   5   6
ENDBRANCH   4   5
ENDBRANCH   3   4
ENDBRANCH   2   3
ENDBRANCH   1   2
BRANCH   1  15
ATOM     15  C   UNL     1     122.240 176.032 125.049  1.00  0.00     0.000 C 
BRANCH  15  16
ATOM     16  C   UNL     1     122.105 176.657 123.652  1.00  0.00     0.000 C 
BRANCH  16  17
ATOM     17  C   UNL     1     123.461 177.171 123.148  1.00  0.00     0.000 C 
BRANCH  17  18
ATOM     18  C   UNL     1     124.655 176.390 123.727  1.00  0.00    -0.000 C 
BRANCH  18  19
ATOM     19  C   UNL     1     125.755 177.259 124.364  1.00  0.00    -0.000 C 
BRANCH  19  20
ATOM     20  C   UNL     1     127.118 176.553 124.423  1.00  0.00    -0.000 C 
BRANCH  20  21
ATOM     21  C   UNL     1     128.209 177.411 123.763  1.00  0.00    -0.000 C 
BRANCH  21  22
ATOM     22  C   UNL     1     127.636 178.469 122.805  1.00  0.00    -0.000 C 
BRANCH  22  23
ATOM     23  C   UNL     1     127.623 178.059 121.320  1.00  0.00    -0.000 C 
BRANCH  23  24
ATOM     24  C   UNL     1     126.231 178.164 120.658  1.00  0.00    -0.000 C 
BRANCH  24  25
ATOM     25  C   UNL     1     125.699 176.798 120.200  1.00  0.00    -0.003 C 
ATOM     26  C   UNL     1     124.340 176.938 119.518  1.00  0.00     0.004 C 
ENDBRANCH  24  25
ENDBRANCH  23  24
ENDBRANCH  22  23
ENDBRANCH  21  22
ENDBRANCH  20  21
ENDBRANCH  19  20
ENDBRANCH  18  19
ENDBRANCH  17  18
ENDBRANCH  16  17
ENDBRANCH  15  16
ENDBRANCH   1  15
TORSDOF 22
ENDMDL
MODEL 3
REMARK VINA RESULT:    -5.011      2.638      5.508
REMARK INTER + INTRA:         -15.714
REMARK INTER:                 -12.274
REMARK INTRA:                  -3.440
REMARK UNBOUND:                -4.258
REMARK SMILES CCCCCCCCCCCCCCCCCCCCCCCC(=O)[O-]
REMARK SMILES IDX 13 1 14 2 15 3 16 4 17 5 18 6 19 7 20 8 21 9 22 10 23 11
REMARK SMILES IDX 24 12 25 13 26 14 12 15 11 16 10 17 9 18 8 19 7 20 6 21 5 22
REMARK SMILES IDX 4 23 3 24 2 25 1 26
REMARK H PARENT
REMARK Flexibility Score: inf
ROOT
ATOM      1  C   UNL     1     121.014 178.632 124.225  1.00  0.00     0.000 C 
ENDROOT
BRANCH   1   2
ATOM      2  C   UNL     1     120.076 179.590 124.982  1.00  0.00     0.000 C 
BRANCH   2   3
ATOM      3  C   UNL     1     120.373 179.646 126.490  1.00  0.00     0.000 C 
BRANCH   3   4
ATOM      4  C   UNL     1     121.832 179.288 126.821  1.00  0.00     0.000 C 
BRANCH   4   5
ATOM      5  C   UNL     1     121.945 178.271 127.970  1.00  0.00     0.000 C 
BRANCH   5   6
ATOM      6  C   UNL     1     120.591 177.646 128.351  1.00  0.00     0.000 C 
BRANCH   6   7
ATOM      7  C   UNL     1     120.404 176.175 127.921  1.00  0.00     0.000 C 
BRANCH   7   8
ATOM      8  C   UNL     1     119.026 175.842 127.316  1.00  0.00     0.000 C 
BRANCH   8   9
ATOM      9  C   UNL     1     118.029 177.018 127.280  1.00  0.00     0.000 C 
BRANCH   9  10
ATOM     10  C   UNL     1     117.414 177.310 125.896  1.00  0.00     0.006 C 
BRANCH  10  11
ATOM     11  C   UNL     1     116.164 178.203 125.932  1.00  0.00     0.053 C 
BRANCH  11  12
ATOM     12  C   UNL     1     115.821 178.742 124.578  1.00  0.00     0.041 C 
ATOM     13  O   UNL     1     116.619 178.589 123.614  1.00  0.00    -0.550 OA
ATOM     14  O   UNL     1     114.600 179.371 124.367  1.00  0.00    -0.550 OA
ENDBRANCH  11  12
ENDBRANCH  10  11
ENDBRANCH   9  10
ENDBRANCH   8   9
ENDBRANCH   7   8
ENDBRANCH   6   7
ENDBRANCH   5   6
ENDBRANCH   4   5
ENDBRANCH   3   4
ENDBRANCH   2   3
ENDBRANCH   1   2
BRANCH   1  15
ATOM     15  C   UNL     1     120.604 177.149 124.271  1.00  0.00     0.000 C 
BRANCH  15  16
ATOM     16  C   UNL     1     121.751 176.200 123.896  1.00  0.00     0.000 C 
BRANCH  16  17
ATOM     17  C   UNL     1     122.821 176.170 124.999  1.00  0.00     0.000 C 
BRANCH  17  18
ATOM     18  C   UNL     1     124.006 177.111 124.713  1.00  0.00    -0.000 C 
BRANCH  18  19
ATOM     19  C   UNL     1     124.557 177.046 123.277  1.00  0.00    -0.000 C 
BRANCH  19  20
ATOM     20  C   UNL     1     125.853 176.227 123.168  1.00  0.00    -0.000 C 
BRANCH  20  21
ATOM     21  C   UNL     1     127.081 177.148 123.111  1.00  0.00    -0.000 C 
BRANCH  21  22
ATOM     22  C   UNL     1     126.908 178.309 122.116  1.00  0.00    -0.000 C 
BRANCH  22  23
ATOM     23  C   UNL     1     126.876 177.892 120.633  1.00  0.00    -0.000 C 
BRANCH  23  24
ATOM     24  C   UNL     1     125.777 178.602 119.812  1.00  0.00    -0.000 C 
BRANCH  24  25
ATOM     25  C   UNL     1     124.839 177.607 119.111  1.00  0.00    -0.003 C 
ATOM     26  C   UNL     1     123.532 177.447 119.883  1.00  0.00     0.004 C 
ENDBRANCH  24  25
ENDBRANCH  23  24
ENDBRANCH  22  23
ENDBRANCH  21  22
ENDBRANCH  20  21
ENDBRANCH  19  20
ENDBRANCH  18  19
ENDBRANCH  17  18
ENDBRANCH  16  17
ENDBRANCH  15  16
ENDBRANCH   1  15
TORSDOF 22
ENDMDL
MODEL 4
REMARK VINA RESULT:    -5.003      4.063      7.605
REMARK INTER + INTRA:         -15.695
REMARK INTER:                 -11.703
REMARK INTRA:                  -3.991
REMARK UNBOUND:                -4.258
REMARK SMILES CCCCCCCCCCCCCCCCCCCCCCCC(=O)[O-]
REMARK SMILES IDX 13 1 14 2 15 3 16 4 17 5 18 6 19 7 20 8 21 9 22 10 23 11
REMARK SMILES IDX 24 12 25 13 26 14 12 15 11 16 10 17 9 18 8 19 7 20 6 21 5 22
REMARK SMILES IDX 4 23 3 24 2 25 1 26
REMARK H PARENT
REMARK Flexibility Score: inf
ROOT
ATOM      1  C   UNL     1     120.744 174.936 125.543  1.00  0.00     0.000 C 
ENDROOT
BRANCH   1   2
ATOM      2  C   UNL     1     121.508 175.739 124.474  1.00  0.00     0.000 C 
BRANCH   2   3
ATOM      3  C   UNL     1     123.016 175.832 124.765  1.00  0.00     0.000 C 
BRANCH   3   4
ATOM      4  C   UNL     1     123.665 177.079 124.141  1.00  0.00     0.000 C 
BRANCH   4   5
ATOM      5  C   UNL     1     122.777 177.732 123.068  1.00  0.00     0.000 C 
BRANCH   5   6
ATOM      6  C   UNL     1     123.424 177.727 121.671  1.00  0.00     0.000 C 
BRANCH   6   7
ATOM      7  C   UNL     1     124.799 177.031 121.588  1.00  0.00     0.000 C 
BRANCH   7   8
ATOM      8  C   UNL     1     125.997 177.976 121.359  1.00  0.00     0.000 C 
BRANCH   8   9
ATOM      9  C   UNL     1     127.365 177.407 121.787  1.00  0.00     0.000 C 
BRANCH   9  10
ATOM     10  C   UNL     1     127.816 177.796 123.210  1.00  0.00     0.006 C 
BRANCH  10  11
ATOM     11  C   UNL     1     127.288 176.872 124.319  1.00  0.00     0.053 C 
BRANCH  11  12
ATOM     12  C   UNL     1     127.386 175.427 123.938  1.00  0.00     0.041 C 
ATOM     13  O   UNL     1     126.342 174.732 123.812  1.00  0.00    -0.550 OA
ATOM     14  O   UNL     1     128.627 174.859 123.674  1.00  0.00    -0.550 OA
ENDBRANCH  11  12
ENDBRANCH  10  11
ENDBRANCH   9  10
ENDBRANCH   8   9
ENDBRANCH   7   8
ENDBRANCH   6   7
ENDBRANCH   5   6
ENDBRANCH   4   5
ENDBRANCH   3   4
ENDBRANCH   2   3
ENDBRANCH   1   2
BRANCH   1  15
ATOM     15  C   UNL     1     121.633 174.219 126.576  1.00  0.00     0.000 C 
BRANCH  15  16
ATOM     16  C   UNL     1     121.683 174.947 127.928  1.00  0.00     0.000 C 
BRANCH  16  17
ATOM     17  C   UNL     1     120.420 175.794 128.142  1.00  0.00     0.000 C 
BRANCH  17  18
ATOM     18  C   UNL     1     120.723 177.293 128.316  1.00  0.00    -0.000 C 
BRANCH  18  19
ATOM     19  C   UNL     1     122.041 177.769 127.679  1.00  0.00    -0.000 C 
BRANCH  19  20
ATOM     20  C   UNL     1     121.865 179.010 126.790  1.00  0.00    -0.000 C 
BRANCH  20  21
ATOM     21  C   UNL     1     120.379 179.264 126.492  1.00  0.00    -0.000 C 
BRANCH  21  22
ATOM     22  C   UNL     1     120.079 179.343 124.986  1.00  0.00    -0.000 C 
BRANCH  22  23
ATOM     23  C   UNL     1     119.017 178.345 124.484  1.00  0.00    -0.000 C 
BRANCH  23  24
ATOM     24  C   UNL     1     118.231 177.650 125.617  1.00  0.00    -0.000 C 
BRANCH  24  25
ATOM     25  C   UNL     1     116.729 177.966 125.563  1.00  0.00    -0.003 C 
ATOM     26  C   UNL     1     116.333 178.524 124.198  1.00  0.00     0.004 C 
ENDBRANCH  24  25
ENDBRANCH  23  24
ENDBRANCH  22  23
ENDBRANCH  21  22
ENDBRANCH  20  21
ENDBRANCH  19  20
ENDBRANCH  18  19
ENDBRANCH  17  18
ENDBRANCH  16  17
ENDBRANCH  15  16
ENDBRANCH   1  15
TORSDOF 22
ENDMDL
MODEL 5
REMARK VINA RESULT:    -4.966      3.245      5.756
REMARK INTER + INTRA:         -15.611
REMARK INTER:                 -12.371
REMARK INTRA:                  -3.241
REMARK UNBOUND:                -4.258
REMARK SMILES CCCCCCCCCCCCCCCCCCCCCCCC(=O)[O-]
REMARK SMILES IDX 13 1 14 2 15 3 16 4 17 5 18 6 19 7 20 8 21 9 22 10 23 11
REMARK SMILES IDX 24 12 25 13 26 14 12 15 11 16 10 17 9 18 8 19 7 20 6 21 5 22
REMARK SMILES IDX 4 23 3 24 2 25 1 26
REMARK H PARENT
REMARK Flexibility Score: inf
ROOT
ATOM      1  C   UNL     1     121.595 176.666 123.792  1.00  0.00     0.000 C 
ENDROOT
BRANCH   1   2
ATOM      2  C   UNL     1     120.356 177.384 124.358  1.00  0.00     0.000 C 
BRANCH   2   3
ATOM      3  C   UNL     1     120.406 178.908 124.154  1.00  0.00     0.000 C 
BRANCH   3   4
ATOM      4  C   UNL     1     120.221 179.688 125.467  1.00  0.00     0.000 C 
BRANCH   4   5
ATOM      5  C   UNL     1     121.234 179.273 126.549  1.00  0.00     0.000 C 
BRANCH   5   6
ATOM      6  C   UNL     1     120.560 178.834 127.862  1.00  0.00     0.000 C 
BRANCH   6   7
ATOM      7  C   UNL     1     120.360 177.312 128.019  1.00  0.00     0.000 C 
BRANCH   7   8
ATOM      8  C   UNL     1     118.897 176.862 128.213  1.00  0.00     0.000 C 
BRANCH   8   9
ATOM      9  C   UNL     1     118.099 176.665 126.908  1.00  0.00     0.000 C 
BRANCH   9  10
ATOM     10  C   UNL     1     117.106 177.797 126.574  1.00  0.00     0.006 C 
BRANCH  10  11
ATOM     11  C   UNL     1     116.590 177.781 125.126  1.00  0.00     0.053 C 
BRANCH  11  12
ATOM     12  C   UNL     1     116.371 179.164 124.594  1.00  0.00     0.041 C 
ATOM     13  O   UNL     1     115.863 179.331 123.453  1.00  0.00    -0.550 OA
ATOM     14  O   UNL     1     116.682 180.268 125.378  1.00  0.00    -0.550 OA
ENDBRANCH  11  12
ENDBRANCH  10  11
ENDBRANCH   9  10
ENDBRANCH   8   9
ENDBRANCH   7   8
ENDBRANCH   6   7
ENDBRANCH   5   6
ENDBRANCH   4   5
ENDBRANCH   3   4
ENDBRANCH   2   3
ENDBRANCH   1   2
BRANCH   1  15
ATOM     15  C   UNL     1     122.941 177.339 124.119  1.00  0.00     0.000 C 
BRANCH  15  16
ATOM     16  C   UNL     1     124.029 177.033 123.079  1.00  0.00     0.000 C 
BRANCH  16  17
ATOM     17  C   UNL     1     123.640 177.586 121.699  1.00  0.00     0.000 C 
BRANCH  17  18
ATOM     18  C   UNL     1     124.801 177.555 120.689  1.00  0.00    -0.000 C 
BRANCH  18  19
ATOM     19  C   UNL     1     125.820 176.421 120.903  1.00  0.00    -0.000 C 
BRANCH  19  20
ATOM     20  C   UNL     1     127.264 176.929 121.037  1.00  0.00    -0.000 C 
BRANCH  20  21
ATOM     21  C   UNL     1     127.305 178.283 121.763  1.00  0.00    -0.000 C 
BRANCH  21  22
ATOM     22  C   UNL     1     128.029 178.211 123.118  1.00  0.00    -0.000 C 
BRANCH  22  23
ATOM     23  C   UNL     1     127.429 177.207 124.120  1.00  0.00    -0.000 C 
BRANCH  23  24
ATOM     24  C   UNL     1     128.451 176.182 124.660  1.00  0.00    -0.000 C 
BRANCH  24  25
ATOM     25  C   UNL     1     128.192 174.764 124.126  1.00  0.00    -0.003 C 
ATOM     26  C   UNL     1     126.698 174.510 123.941  1.00  0.00     0.004 C 
ENDBRANCH  24  25
ENDBRANCH  23  24
ENDBRANCH  22  23
ENDBRANCH  21  22
ENDBRANCH  20  21
ENDBRANCH  19  20
ENDBRANCH  18  19
ENDBRANCH  17  18
ENDBRANCH  16  17
ENDBRANCH  15  16
ENDBRANCH   1  15
TORSDOF 22
ENDMDL
MODEL 6
REMARK VINA RESULT:    -4.951      5.085      8.078
REMARK INTER + INTRA:         -15.576
REMARK INTER:                 -11.948
REMARK INTRA:                  -3.629
REMARK UNBOUND:                -4.258
REMARK SMILES CCCCCCCCCCCCCCCCCCCCCCCC(=O)[O-]
REMARK SMILES IDX 13 1 14 2 15 3 16 4 17 5 18 6 19 7 20 8 21 9 22 10 23 11
REMARK SMILES IDX 24 12 25 13 26 14 12 15 11 16 10 17 9 18 8 19 7 20 6 21 5 22
REMARK SMILES IDX 4 23 3 24 2 25 1 26
REMARK H PARENT
REMARK Flexibility Score: inf
ROOT
ATOM      1  C   UNL     1     123.914 177.055 123.934  1.00  0.00     0.000 C 
ENDROOT
BRANCH   1   2
ATOM      2  C   UNL     1     123.016 177.578 122.798  1.00  0.00     0.000 C 
BRANCH   2   3
ATOM      3  C   UNL     1     123.765 177.713 121.461  1.00  0.00     0.000 C 
BRANCH   3   4
ATOM      4  C   UNL     1     125.058 176.880 121.420  1.00  0.00     0.000 C 
BRANCH   4   5
ATOM      5  C   UNL     1     126.294 177.726 121.065  1.00  0.00     0.000 C 
BRANCH   5   6
ATOM      6  C   UNL     1     126.930 178.400 122.294  1.00  0.00     0.000 C 
BRANCH   6   7
ATOM      7  C   UNL     1     128.264 177.783 122.763  1.00  0.00     0.000 C 
BRANCH   7   8
ATOM      8  C   UNL     1     128.308 177.374 124.250  1.00  0.00     0.000 C 
BRANCH   8   9
ATOM      9  C   UNL     1     128.358 175.854 124.505  1.00  0.00     0.000 C 
BRANCH   9  10
ATOM     10  C   UNL     1     127.052 175.096 124.189  1.00  0.00     0.006 C 
BRANCH  10  11
ATOM     11  C   UNL     1     127.109 174.236 122.917  1.00  0.00     0.053 C 
BRANCH  11  12
ATOM     12  C   UNL     1     128.487 173.713 122.655  1.00  0.00     0.041 C 
ATOM     13  O   UNL     1     128.935 172.745 123.326  1.00  0.00    -0.550 OA
ATOM     14  O   UNL     1     129.259 174.262 121.638  1.00  0.00    -0.550 OA
ENDBRANCH  11  12
ENDBRANCH  10  11
ENDBRANCH   9  10
ENDBRANCH   8   9
ENDBRANCH   7   8
ENDBRANCH   6   7
ENDBRANCH   5   6
ENDBRANCH   4   5
ENDBRANCH   3   4
ENDBRANCH   2   3
ENDBRANCH   1   2
BRANCH   1  15
ATOM     15  C   UNL     1     123.351 177.257 125.353  1.00  0.00     0.000 C 
BRANCH  15  16
ATOM     16  C   UNL     1     124.093 178.348 126.140  1.00  0.00     0.000 C 
BRANCH  16  17
ATOM     17  C   UNL     1     123.131 179.105 127.068  1.00  0.00     0.000 C 
BRANCH  17  18
ATOM     18  C   UNL     1     122.559 178.221 128.192  1.00  0.00    -0.000 C 
BRANCH  18  19
ATOM     19  C   UNL     1     121.073 178.459 128.514  1.00  0.00    -0.000 C 
BRANCH  19  20
ATOM     20  C   UNL     1     120.278 177.154 128.680  1.00  0.00    -0.000 C 
BRANCH  20  21
ATOM     21  C   UNL     1     120.794 176.073 127.718  1.00  0.00    -0.000 C 
BRANCH  21  22
ATOM     22  C   UNL     1     119.760 175.687 126.647  1.00  0.00    -0.000 C 
BRANCH  22  23
ATOM     23  C   UNL     1     119.944 176.388 125.287  1.00  0.00    -0.000 C 
BRANCH  23  24
ATOM     24  C   UNL     1     119.230 177.754 125.191  1.00  0.00    -0.000 C 
BRANCH  24  25
ATOM     25  C   UNL     1     120.139 178.849 124.612  1.00  0.00    -0.003 C 
ATOM     26  C   UNL     1     120.051 180.130 125.437  1.00  0.00     0.004 C 
ENDBRANCH  24  25
ENDBRANCH  23  24
ENDBRANCH  22  23
ENDBRANCH  21  22
ENDBRANCH  20  21
ENDBRANCH  19  20
ENDBRANCH  18  19
ENDBRANCH  17  18
ENDBRANCH  16  17
ENDBRANCH  15  16
ENDBRANCH   1  15
TORSDOF 22
ENDMDL
MODEL 7
REMARK VINA RESULT:    -4.941      2.494      5.940
REMARK INTER + INTRA:         -15.554
REMARK INTER:                 -11.924
REMARK INTRA:                  -3.630
REMARK UNBOUND:                -4.258
REMARK SMILES CCCCCCCCCCCCCCCCCCCCCCCC(=O)[O-]
REMARK SMILES IDX 13 1 14 2 15 3 16 4 17 5 18 6 19 7 20 8 21 9 22 10 23 11
REMARK SMILES IDX 24 12 25 13 26 14 12 15 11 16 10 17 9 18 8 19 7 20 6 21 5 22
REMARK SMILES IDX 4 23 3 24 2 25 1 26
REMARK H PARENT
REMARK Flexibility Score: inf
ROOT
ATOM      1  C   UNL     1     119.914 175.573 126.991  1.00  0.00     0.000 C 
ENDROOT
BRANCH   1   2
ATOM      2  C   UNL     1     120.312 175.778 128.464  1.00  0.00     0.000 C 
BRANCH   2   3
ATOM      3  C   UNL     1     121.815 176.057 128.640  1.00  0.00     0.000 C 
BRANCH   3   4
ATOM      4  C   UNL     1     122.122 177.552 128.832  1.00  0.00     0.000 C 
BRANCH   4   5
ATOM      5  C   UNL     1     123.004 178.123 127.708  1.00  0.00     0.000 C 
BRANCH   5   6
ATOM      6  C   UNL     1     122.294 179.214 126.886  1.00  0.00     0.000 C 
BRANCH   6   7
ATOM      7  C   UNL     1     120.754 179.215 126.990  1.00  0.00     0.000 C 
BRANCH   7   8
ATOM      8  C   UNL     1     120.020 179.859 125.796  1.00  0.00     0.000 C 
BRANCH   8   9
ATOM      9  C   UNL     1     119.877 178.953 124.555  1.00  0.00     0.000 C 
BRANCH   9  10
ATOM     10  C   UNL     1     118.717 177.939 124.618  1.00  0.00     0.006 C 
BRANCH  10  11
ATOM     11  C   UNL     1     117.317 178.569 124.543  1.00  0.00     0.053 C 
BRANCH  11  12
ATOM     12  C   UNL     1     116.508 178.285 125.770  1.00  0.00     0.041 C 
ATOM     13  O   UNL     1     116.972 177.545 126.678  1.00  0.00    -0.550 OA
ATOM     14  O   UNL     1     115.261 178.876 125.934  1.00  0.00    -0.550 OA
ENDBRANCH  11  12
ENDBRANCH  10  11
ENDBRANCH   9  10
ENDBRANCH   8   9
ENDBRANCH   7   8
ENDBRANCH   6   7
ENDBRANCH   5   6
ENDBRANCH   4   5
ENDBRANCH   3   4
ENDBRANCH   2   3
ENDBRANCH   1   2
BRANCH   1  15
ATOM     15  C   UNL     1     120.389 174.247 126.367  1.00  0.00     0.000 C 
BRANCH  15  16
ATOM     16  C   UNL     1     121.176 174.449 125.064  1.00  0.00     0.000 C 
BRANCH  16  17
ATOM     17  C   UNL     1     121.757 175.869 124.988  1.00  0.00     0.000 C 
BRANCH  17  18
ATOM     18  C   UNL     1     123.261 175.887 124.659  1.00  0.00    -0.000 C 
BRANCH  18  19
ATOM     19  C   UNL     1     123.797 177.232 124.136  1.00  0.00    -0.000 C 
BRANCH  19  20
ATOM     20  C   UNL     1     123.014 177.759 122.923  1.00  0.00    -0.000 C 
BRANCH  20  21
ATOM     21  C   UNL     1     123.736 177.414 121.612  1.00  0.00    -0.000 C 
BRANCH  21  22
ATOM     22  C   UNL     1     125.171 176.909 121.837  1.00  0.00    -0.000 C 
BRANCH  22  23
ATOM     23  C   UNL     1     126.216 177.467 120.852  1.00  0.00    -0.000 C 
BRANCH  23  24
ATOM     24  C   UNL     1     127.425 178.136 121.541  1.00  0.00    -0.000 C 
BRANCH  24  25
ATOM     25  C   UNL     1     127.149 178.459 123.018  1.00  0.00    -0.003 C 
ATOM     26  C   UNL     1     128.167 177.778 123.929  1.00  0.00     0.004 C 
ENDBRANCH  24  25
ENDBRANCH  23  24
ENDBRANCH  22  23
ENDBRANCH  21  22
ENDBRANCH  20  21
ENDBRANCH  19  20
ENDBRANCH  18  19
ENDBRANCH  17  18
ENDBRANCH  16  17
ENDBRANCH  15  16
ENDBRANCH   1  15
TORSDOF 22
ENDMDL
MODEL 8
REMARK VINA RESULT:    -4.929      3.309      6.168
REMARK INTER + INTRA:         -15.526
REMARK INTER:                 -12.283
REMARK INTRA:                  -3.244
REMARK UNBOUND:                -4.258
REMARK SMILES CCCCCCCCCCCCCCCCCCCCCCCC(=O)[O-]
REMARK SMILES IDX 13 1 14 2 15 3 16 4 17 5 18 6 19 7 20 8 21 9 22 10 23 11
REMARK SMILES IDX 24 12 25 13 26 14 12 15 11 16 10 17 9 18 8 19 7 20 6 21 5 22
REMARK SMILES IDX 4 23 3 24 2 25 1 26
REMARK H PARENT
REMARK Flexibility Score: inf
ROOT
ATOM      1  C   UNL     1     122.713 176.221 124.701  1.00  0.00     0.000 C 
ENDROOT
BRANCH   1   2
ATOM      2  C   UNL     1     121.334 175.536 124.681  1.00  0.00     0.000 C 
BRANCH   2   3
ATOM      3  C   UNL     1     120.603 175.631 126.032  1.00  0.00     0.000 C 
BRANCH   3   4
ATOM      4  C   UNL     1     121.390 176.441 127.076  1.00  0.00     0.000 C 
BRANCH   4   5
ATOM      5  C   UNL     1     120.472 177.248 128.011  1.00  0.00     0.000 C 
BRANCH   5   6
ATOM      6  C   UNL     1     120.674 178.769 127.882  1.00  0.00     0.000 C 
BRANCH   6   7
ATOM      7  C   UNL     1     121.232 179.243 126.524  1.00  0.00     0.000 C 
BRANCH   7   8
ATOM      8  C   UNL     1     120.196 179.887 125.580  1.00  0.00     0.000 C 
BRANCH   8   9
ATOM      9  C   UNL     1     119.515 178.911 124.599  1.00  0.00     0.000 C 
BRANCH   9  10
ATOM     10  C   UNL     1     118.210 178.271 125.117  1.00  0.00     0.006 C 
BRANCH  10  11
ATOM     11  C   UNL     1     116.986 178.507 124.218  1.00  0.00     0.053 C 
BRANCH  11  12
ATOM     12  C   UNL     1     116.029 179.487 124.822  1.00  0.00     0.041 C 
ATOM     13  O   UNL     1     114.796 179.228 124.858  1.00  0.00    -0.550 OA
ATOM     14  O   UNL     1     116.502 180.665 125.387  1.00  0.00    -0.550 OA
ENDBRANCH  11  12
ENDBRANCH  10  11
ENDBRANCH   9  10
ENDBRANCH   8   9
ENDBRANCH   7   8
ENDBRANCH   6   7
ENDBRANCH   5   6
ENDBRANCH   4   5
ENDBRANCH   3   4
ENDBRANCH   2   3
ENDBRANCH   1   2
BRANCH   1  15
ATOM     15  C   UNL     1     122.858 177.416 123.740  1.00  0.00     0.000 C 
BRANCH  15  16
ATOM     16  C   UNL     1     123.845 177.146 122.595  1.00  0.00     0.000 C 
BRANCH  16  17
ATOM     17  C   UNL     1     123.440 177.914 121.328  1.00  0.00     0.000 C 
BRANCH  17  18
ATOM     18  C   UNL     1     124.623 178.175 120.379  1.00  0.00    -0.000 C 
BRANCH  18  19
ATOM     19  C   UNL     1     125.095 176.950 119.574  1.00  0.00    -0.000 C 
BRANCH  19  20
ATOM     20  C   UNL     1     126.583 177.016 119.198  1.00  0.00    -0.000 C 
BRANCH  20  21
ATOM     21  C   UNL     1     127.463 176.511 120.353  1.00  0.00    -0.000 C 
BRANCH  21  22
ATOM     22  C   UNL     1     126.997 175.154 120.907  1.00  0.00    -0.000 C 
BRANCH  22  23
ATOM     23  C   UNL     1     126.710 175.137 122.421  1.00  0.00    -0.000 C 
BRANCH  23  24
ATOM     24  C   UNL     1     127.876 175.672 123.281  1.00  0.00    -0.000 C 
BRANCH  24  25
ATOM     25  C   UNL     1     127.417 176.734 124.291  1.00  0.00    -0.003 C 
ATOM     26  C   UNL     1     127.186 178.080 123.607  1.00  0.00     0.004 C 
ENDBRANCH  24  25
ENDBRANCH  23  24
ENDBRANCH  22  23
ENDBRANCH  21  22
ENDBRANCH  20  21
ENDBRANCH  19  20
ENDBRANCH  18  19
ENDBRANCH  17  18
ENDBRANCH  16  17
ENDBRANCH  15  16
ENDBRANCH   1  15
TORSDOF 22
ENDMDL
MODEL 9
REMARK VINA RESULT:    -4.908      5.155      8.168
REMARK INTER + INTRA:         -15.478
REMARK INTER:                 -11.557
REMARK INTRA:                  -3.921
REMARK UNBOUND:                -4.258
REMARK SMILES CCCCCCCCCCCCCCCCCCCCCCCC(=O)[O-]
REMARK SMILES IDX 13 1 14 2 15 3 16 4 17 5 18 6 19 7 20 8 21 9 22 10 23 11
REMARK SMILES IDX 24 12 25 13 26 14 12 15 11 16 10 17 9 18 8 19 7 20 6 21 5 22
REMARK SMILES IDX 4 23 3 24 2 25 1 26
REMARK H PARENT
REMARK Flexibility Score: inf
ROOT
ATOM      1  C   UNL     1     124.108 177.410 122.276  1.00  0.00     0.000 C 
ENDROOT
BRANCH   1   2
ATOM      2  C   UNL     1     123.798 177.383 120.768  1.00  0.00     0.000 C 
BRANCH   2   3
ATOM      3  C   UNL     1     125.067 177.416 119.899  1.00  0.00     0.000 C 
BRANCH   3   4
ATOM      4  C   UNL     1     126.126 178.396 120.432  1.00  0.00     0.000 C 
BRANCH   4   5
ATOM      5  C   UNL     1     127.556 177.841 120.317  1.00  0.00     0.000 C 
BRANCH   5   6
ATOM      6  C   UNL     1     128.336 177.917 121.643  1.00  0.00     0.000 C 
BRANCH   6   7
ATOM      7  C   UNL     1     127.478 178.207 122.892  1.00  0.00     0.000 C 
BRANCH   7   8
ATOM      8  C   UNL     1     127.456 177.080 123.945  1.00  0.00     0.000 C 
BRANCH   8   9
ATOM      9  C   UNL     1     127.768 175.672 123.398  1.00  0.00     0.000 C 
BRANCH   9  10
ATOM     10  C   UNL     1     126.550 174.903 122.845  1.00  0.00     0.006 C 
BRANCH  10  11
ATOM     11  C   UNL     1     126.695 174.449 121.384  1.00  0.00     0.053 C 
BRANCH  11  12
ATOM     12  C   UNL     1     127.547 173.224 121.260  1.00  0.00     0.041 C 
ATOM     13  O   UNL     1     127.128 172.115 121.687  1.00  0.00    -0.550 OA
ATOM     14  O   UNL     1     128.782 173.296 120.627  1.00  0.00    -0.550 OA
ENDBRANCH  11  12
ENDBRANCH  10  11
ENDBRANCH   9  10
ENDBRANCH   8   9
ENDBRANCH   7   8
ENDBRANCH   6   7
ENDBRANCH   5   6
ENDBRANCH   4   5
ENDBRANCH   3   4
ENDBRANCH   2   3
ENDBRANCH   1   2
BRANCH   1  15
ATOM     15  C   UNL     1     122.926 177.037 123.189  1.00  0.00     0.000 C 
BRANCH  15  16
ATOM     16  C   UNL     1     123.372 176.575 124.585  1.00  0.00     0.000 C 
BRANCH  16  17
ATOM     17  C   UNL     1     123.992 177.738 125.374  1.00  0.00     0.000 C 
BRANCH  17  18
ATOM     18  C   UNL     1     123.322 177.961 126.743  1.00  0.00    -0.000 C 
BRANCH  18  19
ATOM     19  C   UNL     1     122.572 179.297 126.891  1.00  0.00    -0.000 C 
BRANCH  19  20
ATOM     20  C   UNL     1     121.048 179.123 126.981  1.00  0.00    -0.000 C 
BRANCH  20  21
ATOM     21  C   UNL     1     120.356 179.706 125.739  1.00  0.00    -0.000 C 
BRANCH  21  22
ATOM     22  C   UNL     1     119.974 178.630 124.709  1.00  0.00    -0.000 C 
BRANCH  22  23
ATOM     23  C   UNL     1     119.183 177.437 125.281  1.00  0.00    -0.000 C 
BRANCH  23  24
ATOM     24  C   UNL     1     119.988 176.120 125.322  1.00  0.00    -0.000 C 
BRANCH  24  25
ATOM     25  C   UNL     1     119.747 175.330 126.618  1.00  0.00    -0.003 C 
ATOM     26  C   UNL     1     121.003 175.299 127.485  1.00  0.00     0.004 C 
ENDBRANCH  24  25
ENDBRANCH  23  24
ENDBRANCH  22  23
ENDBRANCH  21  22
ENDBRANCH  20  21
ENDBRANCH  19  20
ENDBRANCH  18  19
ENDBRANCH  17  18
ENDBRANCH  16  17
ENDBRANCH  15  16
ENDBRANCH   1  15
TORSDOF 22
ENDMDL
