MODEL 1
REMARK VINA RESULT:    -4.512      0.000      0.000
REMARK INTER + INTRA:          -8.606
REMARK INTER:                  -7.149
REMARK INTRA:                  -1.456
REMARK UNBOUND:                -1.456
REMARK SMILES CCCCCCCCCCCC(=O)[O-]
REMARK SMILES IDX 7 1 8 2 9 3 10 4 11 5 12 6 13 7 14 8 6 9 5 10 4 11 3 12 2 13
REMARK SMILES IDX 1 14
REMARK H PARENT
REMARK Flexibility Score: inf
ROOT
ATOM      1  C   UNL     1      63.494  29.322  13.679  1.00  0.00     0.000 C 
ENDROOT
BRANCH   1   2
ATOM      2  C   UNL     1      61.969  29.486  13.818  1.00  0.00     0.000 C 
BRANCH   2   3
ATOM      3  C   UNL     1      61.139  28.750  12.750  1.00  0.00     0.000 C 
BRANCH   3   4
ATOM      4  C   UNL     1      60.513  29.701  11.716  1.00  0.00     0.006 C 
BRANCH   4   5
ATOM      5  C   UNL     1      61.539  30.199  10.690  1.00  0.00     0.053 C 
BRANCH   5   6
ATOM      6  C   UNL     1      62.302  29.066  10.075  1.00  0.00     0.041 C 
ATOM      7  O   UNL     1      63.550  28.988  10.223  1.00  0.00    -0.550 OA
ATOM      8  O   UNL     1      61.640  28.116   9.307  1.00  0.00    -0.550 OA
ENDBRANCH   5   6
ENDBRANCH   4   5
ENDBRANCH   3   4
ENDBRANCH   2   3
ENDBRANCH   1   2
BRANCH   1   9
ATOM      9  C   UNL     1      64.304  30.623  13.839  1.00  0.00     0.000 C 
BRANCH   9  10
ATOM     10  C   UNL     1      64.331  31.497  12.566  1.00  0.00    -0.000 C 
BRANCH  10  11
ATOM     11  C   UNL     1      64.037  32.976  12.865  1.00  0.00    -0.000 C 
BRANCH  11  12
ATOM     12  C   UNL     1      63.047  33.168  14.027  1.00  0.00    -0.000 C 
BRANCH  12  13
ATOM     13  C   UNL     1      61.589  33.414  13.602  1.00  0.00    -0.003 C 
ATOM     14  C   UNL     1      60.585  32.571  14.389  1.00  0.00     0.004 C 
ENDBRANCH  12  13
ENDBRANCH  11  12
ENDBRANCH  10  11
ENDBRANCH   9  10
ENDBRANCH   1   9
TORSDOF 10
ENDMDL
MODEL 2
REMARK VINA RESULT:    -4.438      2.679      5.011
REMARK INTER + INTRA:          -8.489
REMARK INTER:                  -6.996
REMARK INTRA:                  -1.493
REMARK UNBOUND:                -1.456
REMARK SMILES CCCCCCCCCCCC(=O)[O-]
REMARK SMILES IDX 7 1 8 2 9 3 10 4 11 5 12 6 13 7 14 8 6 9 5 10 4 11 3 12 2 13
REMARK SMILES IDX 1 14
REMARK H PARENT
REMARK Flexibility Score: inf
ROOT
ATOM      1  C   UNL     1      63.217  29.250  13.391  1.00  0.00     0.000 C 
ENDROOT
BRANCH   1   2
ATOM      2  C   UNL     1      64.034  30.530  13.648  1.00  0.00     0.000 C 
BRANCH   2   3
ATOM      3  C   UNL     1      63.776  31.675  12.651  1.00  0.00     0.000 C 
BRANCH   3   4
ATOM      4  C   UNL     1      63.261  32.956  13.329  1.00  0.00     0.006 C 
BRANCH   4   5
ATOM      5  C   UNL     1      61.737  33.095  13.221  1.00  0.00     0.053 C 
BRANCH   5   6
ATOM      6  C   UNL     1      61.069  32.927  14.551  1.00  0.00     0.041 C 
ATOM      7  O   UNL     1      61.622  33.355  15.597  1.00  0.00    -0.550 OA
ATOM      8  O   UNL     1      59.851  32.263  14.640  1.00  0.00    -0.550 OA
ENDBRANCH   5   6
ENDBRANCH   4   5
ENDBRANCH   3   4
ENDBRANCH   2   3
ENDBRANCH   1   2
BRANCH   1   9
ATOM      9  C   UNL     1      61.730  29.339  13.783  1.00  0.00     0.000 C 
BRANCH   9  10
ATOM     10  C   UNL     1      60.764  28.955  12.641  1.00  0.00    -0.000 C 
BRANCH  10  11
ATOM     11  C   UNL     1      60.585  30.089  11.618  1.00  0.00    -0.000 C 
BRANCH  11  12
ATOM     12  C   UNL     1      60.891  29.649  10.176  1.00  0.00    -0.000 C 
BRANCH  12  13
ATOM     13  C   UNL     1      62.039  28.633  10.039  1.00  0.00    -0.003 C 
ATOM     14  C   UNL     1      63.367  29.280   9.645  1.00  0.00     0.004 C 
ENDBRANCH  12  13
ENDBRANCH  11  12
ENDBRANCH  10  11
ENDBRANCH   9  10
ENDBRANCH   1   9
TORSDOF 10
ENDMDL
MODEL 3
REMARK VINA RESULT:    -4.378      2.729      5.012
REMARK INTER + INTRA:          -8.393
REMARK INTER:                  -7.046
REMARK INTRA:                  -1.347
REMARK UNBOUND:                -1.456
REMARK SMILES CCCCCCCCCCCC(=O)[O-]
REMARK SMILES IDX 7 1 8 2 9 3 10 4 11 5 12 6 13 7 14 8 6 9 5 10 4 11 3 12 2 13
REMARK SMILES IDX 1 14
REMARK H PARENT
REMARK Flexibility Score: inf
ROOT
ATOM      1  C   UNL     1      60.231  29.245  12.521  1.00  0.00     0.000 C 
ENDROOT
BRANCH   1   2
ATOM      2  C   UNL     1      61.341  28.616  13.383  1.00  0.00     0.000 C 
BRANCH   2   3
ATOM      3  C   UNL     1      62.610  29.475  13.535  1.00  0.00     0.000 C 
BRANCH   3   4
ATOM      4  C   UNL     1      62.452  30.600  14.572  1.00  0.00     0.006 C 
BRANCH   4   5
ATOM      5  C   UNL     1      62.589  31.992  13.941  1.00  0.00     0.053 C 
BRANCH   5   6
ATOM      6  C   UNL     1      61.363  32.824  14.160  1.00  0.00     0.041 C 
ATOM      7  O   UNL     1      61.451  34.077  14.227  1.00  0.00    -0.550 OA
ATOM      8  O   UNL     1      60.127  32.211  14.326  1.00  0.00    -0.550 OA
ENDBRANCH   5   6
ENDBRANCH   4   5
ENDBRANCH   3   4
ENDBRANCH   2   3
ENDBRANCH   1   2
BRANCH   1   9
ATOM      9  C   UNL     1      60.730  30.035  11.295  1.00  0.00     0.000 C 
BRANCH   9  10
ATOM     10  C   UNL     1      60.590  29.267   9.963  1.00  0.00    -0.000 C 
BRANCH  10  11
ATOM     11  C   UNL     1      61.890  28.551   9.561  1.00  0.00    -0.000 C 
BRANCH  11  12
ATOM     12  C   UNL     1      63.033  29.526   9.229  1.00  0.00    -0.000 C 
BRANCH  12  13
ATOM     13  C   UNL     1      64.265  29.416  10.144  1.00  0.00    -0.003 C 
ATOM     14  C   UNL     1      64.682  30.755  10.749  1.00  0.00     0.004 C 
ENDBRANCH  12  13
ENDBRANCH  11  12
ENDBRANCH  10  11
ENDBRANCH   9  10
ENDBRANCH   1   9
TORSDOF 10
ENDMDL
MODEL 4
REMARK VINA RESULT:    -4.315      2.753      4.961
REMARK INTER + INTRA:          -8.295
REMARK INTER:                  -6.806
REMARK INTRA:                  -1.489
REMARK UNBOUND:                -1.456
REMARK SMILES CCCCCCCCCCCC(=O)[O-]
REMARK SMILES IDX 7 1 8 2 9 3 10 4 11 5 12 6 13 7 14 8 6 9 5 10 4 11 3 12 2 13
REMARK SMILES IDX 1 14
REMARK H PARENT
REMARK Flexibility Score: inf
ROOT
ATOM      1  C   UNL     1      64.292  29.660  10.390  1.00  0.00     0.000 C 
ENDROOT
BRANCH   1   2
ATOM      2  C   UNL     1      64.377  30.271  11.802  1.00  0.00     0.000 C 
BRANCH   2   3
ATOM      3  C   UNL     1      64.026  31.768  11.882  1.00  0.00     0.000 C 
BRANCH   3   4
ATOM      4  C   UNL     1      63.343  32.153  13.205  1.00  0.00     0.006 C 
BRANCH   4   5
ATOM      5  C   UNL     1      61.986  32.834  12.980  1.00  0.00     0.053 C 
BRANCH   5   6
ATOM      6  C   UNL     1      61.156  32.841  14.226  1.00  0.00     0.041 C 
ATOM      7  O   UNL     1      60.056  32.230  14.258  1.00  0.00    -0.550 OA
ATOM      8  O   UNL     1      61.578  33.555  15.341  1.00  0.00    -0.550 OA
ENDBRANCH   5   6
ENDBRANCH   4   5
ENDBRANCH   3   4
ENDBRANCH   2   3
ENDBRANCH   1   2
BRANCH   1   9
ATOM      9  C   UNL     1      63.017  30.018   9.603  1.00  0.00     0.000 C 
BRANCH   9  10
ATOM     10  C   UNL     1      62.050  28.829   9.415  1.00  0.00    -0.000 C 
BRANCH  10  11
ATOM     11  C   UNL     1      60.637  29.133   9.941  1.00  0.00    -0.000 C 
BRANCH  11  12
ATOM     12  C   UNL     1      60.648  29.890  11.281  1.00  0.00    -0.000 C 
BRANCH  12  13
ATOM     13  C   UNL     1      60.308  29.032  12.512  1.00  0.00    -0.003 C 
ATOM     14  C   UNL     1      61.459  28.941  13.514  1.00  0.00     0.004 C 
ENDBRANCH  12  13
ENDBRANCH  11  12
ENDBRANCH  10  11
ENDBRANCH   9  10
ENDBRANCH   1   9
TORSDOF 10
ENDMDL
MODEL 5
REMARK VINA RESULT:    -4.312      1.235      2.668
REMARK INTER + INTRA:          -8.289
REMARK INTER:                  -6.998
REMARK INTRA:                  -1.291
REMARK UNBOUND:                -1.456
REMARK SMILES CCCCCCCCCCCC(=O)[O-]
REMARK SMILES IDX 7 1 8 2 9 3 10 4 11 5 12 6 13 7 14 8 6 9 5 10 4 11 3 12 2 13
REMARK SMILES IDX 1 14
REMARK H PARENT
REMARK Flexibility Score: inf
ROOT
ATOM      1  C   UNL     1      62.803  29.072  13.236  1.00  0.00     0.000 C 
ENDROOT
BRANCH   1   2
ATOM      2  C   UNL     1      64.173  29.767  13.117  1.00  0.00     0.000 C 
BRANCH   2   3
ATOM      3  C   UNL     1      64.439  30.445  11.760  1.00  0.00     0.000 C 
BRANCH   3   4
ATOM      4  C   UNL     1      64.077  29.551  10.562  1.00  0.00     0.006 C 
BRANCH   4   5
ATOM      5  C   UNL     1      63.103  30.242   9.598  1.00  0.00     0.053 C 
BRANCH   5   6
ATOM      6  C   UNL     1      61.789  29.527   9.531  1.00  0.00     0.041 C 
ATOM      7  O   UNL     1      60.712  30.179   9.536  1.00  0.00    -0.550 OA
ATOM      8  O   UNL     1      61.752  28.138   9.500  1.00  0.00    -0.550 OA
ENDBRANCH   5   6
ENDBRANCH   4   5
ENDBRANCH   3   4
ENDBRANCH   2   3
ENDBRANCH   1   2
BRANCH   1   9
ATOM      9  C   UNL     1      61.705  29.911  13.917  1.00  0.00     0.000 C 
BRANCH   9  10
ATOM     10  C   UNL     1      61.021  30.921  12.970  1.00  0.00    -0.000 C 
BRANCH  10  11
ATOM     11  C   UNL     1      60.697  32.252  13.668  1.00  0.00    -0.000 C 
BRANCH  11  12
ATOM     12  C   UNL     1      61.787  33.319  13.461  1.00  0.00    -0.000 C 
BRANCH  12  13
ATOM     13  C   UNL     1      62.895  33.329  14.529  1.00  0.00    -0.003 C 
ATOM     14  C   UNL     1      64.299  33.436  13.935  1.00  0.00     0.004 C 
ENDBRANCH  12  13
ENDBRANCH  11  12
ENDBRANCH  10  11
ENDBRANCH   9  10
ENDBRANCH   1   9
TORSDOF 10
ENDMDL
MODEL 6
REMARK VINA RESULT:    -4.308      1.644      2.690
REMARK INTER + INTRA:          -8.283
REMARK INTER:                  -7.131
REMARK INTRA:                  -1.153
REMARK UNBOUND:                -1.456
REMARK SMILES CCCCCCCCCCCC(=O)[O-]
REMARK SMILES IDX 7 1 8 2 9 3 10 4 11 5 12 6 13 7 14 8 6 9 5 10 4 11 3 12 2 13
REMARK SMILES IDX 1 14
REMARK H PARENT
REMARK Flexibility Score: inf
ROOT
ATOM      1  C   UNL     1      64.224  29.870  13.018  1.00  0.00     0.000 C 
ENDROOT
BRANCH   1   2
ATOM      2  C   UNL     1      64.058  30.567  11.654  1.00  0.00     0.000 C 
BRANCH   2   3
ATOM      3  C   UNL     1      64.362  29.679  10.433  1.00  0.00     0.000 C 
BRANCH   3   4
ATOM      4  C   UNL     1      63.094  29.232   9.686  1.00  0.00     0.006 C 
BRANCH   4   5
ATOM      5  C   UNL     1      61.884  30.115  10.019  1.00  0.00     0.053 C 
BRANCH   5   6
ATOM      6  C   UNL     1      60.640  29.303  10.208  1.00  0.00     0.041 C 
ATOM      7  O   UNL     1      60.088  28.749   9.221  1.00  0.00    -0.550 OA
ATOM      8  O   UNL     1      60.068  29.188  11.469  1.00  0.00    -0.550 OA
ENDBRANCH   5   6
ENDBRANCH   4   5
ENDBRANCH   3   4
ENDBRANCH   2   3
ENDBRANCH   1   2
BRANCH   1   9
ATOM      9  C   UNL     1      63.019  29.019  13.464  1.00  0.00     0.000 C 
BRANCH   9  10
ATOM     10  C   UNL     1      61.967  29.809  14.273  1.00  0.00    -0.000 C 
BRANCH  10  11
ATOM     11  C   UNL     1      62.610  30.765  15.293  1.00  0.00    -0.000 C 
BRANCH  11  12
ATOM     12  C   UNL     1      61.931  32.145  15.330  1.00  0.00    -0.000 C 
BRANCH  12  13
ATOM     13  C   UNL     1      60.920  32.401  14.198  1.00  0.00    -0.003 C 
ATOM     14  C   UNL     1      61.513  33.199  13.037  1.00  0.00     0.004 C 
ENDBRANCH  12  13
ENDBRANCH  11  12
ENDBRANCH  10  11
ENDBRANCH   9  10
ENDBRANCH   1   9
TORSDOF 10
ENDMDL
MODEL 7
REMARK VINA RESULT:    -4.261      1.194      3.272
REMARK INTER + INTRA:          -8.208
REMARK INTER:                  -6.936
REMARK INTRA:                  -1.272
REMARK UNBOUND:                -1.456
REMARK SMILES CCCCCCCCCCCC(=O)[O-]
REMARK SMILES IDX 7 1 8 2 9 3 10 4 11 5 12 6 13 7 14 8 6 9 5 10 4 11 3 12 2 13
REMARK SMILES IDX 1 14
REMARK H PARENT
REMARK Flexibility Score: inf
ROOT
ATOM      1  C   UNL     1      64.190  33.113  13.113  1.00  0.00     0.000 C 
ENDROOT
BRANCH   1   2
ATOM      2  C   UNL     1      64.648  31.704  12.690  1.00  0.00     0.000 C 
BRANCH   2   3
ATOM      3  C   UNL     1      64.192  31.270  11.285  1.00  0.00     0.000 C 
BRANCH   3   4
ATOM      4  C   UNL     1      64.072  29.743  11.139  1.00  0.00     0.006 C 
BRANCH   4   5
ATOM      5  C   UNL     1      63.807  29.319   9.688  1.00  0.00     0.053 C 
BRANCH   5   6
ATOM      6  C   UNL     1      62.341  29.186   9.409  1.00  0.00     0.041 C 
ATOM      7  O   UNL     1      61.803  28.049   9.380  1.00  0.00    -0.550 OA
ATOM      8  O   UNL     1      61.577  30.315   9.144  1.00  0.00    -0.550 OA
ENDBRANCH   5   6
ENDBRANCH   4   5
ENDBRANCH   3   4
ENDBRANCH   2   3
ENDBRANCH   1   2
BRANCH   1   9
ATOM      9  C   UNL     1      63.074  33.142  14.175  1.00  0.00     0.000 C 
BRANCH   9  10
ATOM     10  C   UNL     1      61.682  33.485  13.600  1.00  0.00    -0.000 C 
BRANCH  10  11
ATOM     11  C   UNL     1      60.664  32.352  13.818  1.00  0.00    -0.000 C 
BRANCH  11  12
ATOM     12  C   UNL     1      60.886  31.158  12.874  1.00  0.00    -0.000 C 
BRANCH  12  13
ATOM     13  C   UNL     1      61.351  29.864  13.565  1.00  0.00    -0.003 C 
ATOM     14  C   UNL     1      60.877  28.600  12.850  1.00  0.00     0.004 C 
ENDBRANCH  12  13
ENDBRANCH  11  12
ENDBRANCH  10  11
ENDBRANCH   9  10
ENDBRANCH   1   9
TORSDOF 10
ENDMDL
MODEL 8
REMARK VINA RESULT:    -4.215      1.895      2.565
REMARK INTER + INTRA:          -8.135
REMARK INTER:                  -7.006
REMARK INTRA:                  -1.130
REMARK UNBOUND:                -1.456
REMARK SMILES CCCCCCCCCCCC(=O)[O-]
REMARK SMILES IDX 7 1 8 2 9 3 10 4 11 5 12 6 13 7 14 8 6 9 5 10 4 11 3 12 2 13
REMARK SMILES IDX 1 14
REMARK H PARENT
REMARK Flexibility Score: inf
ROOT
ATOM      1  C   UNL     1      64.299  30.632  11.895  1.00  0.00     0.000 C 
ENDROOT
BRANCH   1   2
ATOM      2  C   UNL     1      64.029  29.667  10.725  1.00  0.00     0.000 C 
BRANCH   2   3
ATOM      3  C   UNL     1      62.637  29.804  10.080  1.00  0.00     0.000 C 
BRANCH   3   4
ATOM      4  C   UNL     1      61.578  30.354  11.052  1.00  0.00     0.006 C 
BRANCH   4   5
ATOM      5  C   UNL     1      60.419  29.371  11.262  1.00  0.00     0.053 C 
BRANCH   5   6
ATOM      6  C   UNL     1      60.373  28.861  12.669  1.00  0.00     0.041 C 
ATOM      7  O   UNL     1      61.383  28.963  13.414  1.00  0.00    -0.550 OA
ATOM      8  O   UNL     1      59.227  28.239  13.148  1.00  0.00    -0.550 OA
ENDBRANCH   5   6
ENDBRANCH   4   5
ENDBRANCH   3   4
ENDBRANCH   2   3
ENDBRANCH   1   2
BRANCH   1   9
ATOM      9  C   UNL     1      64.863  32.006  11.487  1.00  0.00     0.000 C 
BRANCH   9  10
ATOM     10  C   UNL     1      64.860  33.042  12.633  1.00  0.00    -0.000 C 
BRANCH  10  11
ATOM     11  C   UNL     1      64.005  32.590  13.829  1.00  0.00    -0.000 C 
BRANCH  11  12
ATOM     12  C   UNL     1      62.792  33.503  14.077  1.00  0.00    -0.000 C 
BRANCH  12  13
ATOM     13  C   UNL     1      61.517  33.109  13.311  1.00  0.00    -0.003 C 
ATOM     14  C   UNL     1      60.536  32.301  14.160  1.00  0.00     0.004 C 
ENDBRANCH  12  13
ENDBRANCH  11  12
ENDBRANCH  10  11
ENDBRANCH   9  10
ENDBRANCH   1   9
TORSDOF 10
ENDMDL
MODEL 9
REMARK VINA RESULT:    -4.191      1.455      2.067
REMARK INTER + INTRA:          -8.097
REMARK INTER:                  -7.009
REMARK INTRA:                  -1.088
REMARK UNBOUND:                -1.456
REMARK SMILES CCCCCCCCCCCC(=O)[O-]
REMARK SMILES IDX 7 1 8 2 9 3 10 4 11 5 12 6 13 7 14 8 6 9 5 10 4 11 3 12 2 13
REMARK SMILES IDX 1 14
REMARK H PARENT
REMARK Flexibility Score: inf
ROOT
ATOM      1  C   UNL     1      61.821  28.990  13.497  1.00  0.00     0.000 C 
ENDROOT
BRANCH   1   2
ATOM      2  C   UNL     1      60.504  29.085  12.705  1.00  0.00     0.000 C 
BRANCH   2   3
ATOM      3  C   UNL     1      60.626  29.755  11.324  1.00  0.00     0.000 C 
BRANCH   3   4
ATOM      4  C   UNL     1      61.674  29.081  10.421  1.00  0.00     0.006 C 
BRANCH   4   5
ATOM      5  C   UNL     1      62.615  30.100   9.765  1.00  0.00     0.053 C 
BRANCH   5   6
ATOM      6  C   UNL     1      64.053  29.778  10.029  1.00  0.00     0.041 C 
ATOM      7  O   UNL     1      64.664  30.336  10.978  1.00  0.00    -0.550 OA
ATOM      8  O   UNL     1      64.731  28.889   9.204  1.00  0.00    -0.550 OA
ENDBRANCH   5   6
ENDBRANCH   4   5
ENDBRANCH   3   4
ENDBRANCH   2   3
ENDBRANCH   1   2
BRANCH   1   9
ATOM      9  C   UNL     1      62.108  30.183  14.428  1.00  0.00     0.000 C 
BRANCH   9  10
ATOM     10  C   UNL     1      63.082  31.220  13.825  1.00  0.00    -0.000 C 
BRANCH  10  11
ATOM     11  C   UNL     1      62.360  32.487  13.338  1.00  0.00    -0.000 C 
BRANCH  11  12
ATOM     12  C   UNL     1      61.245  32.947  14.294  1.00  0.00    -0.000 C 
BRANCH  12  13
ATOM     13  C   UNL     1      61.601  34.163  15.167  1.00  0.00    -0.003 C 
ATOM     14  C   UNL     1      62.469  33.802  16.371  1.00  0.00     0.004 C 
ENDBRANCH  12  13
ENDBRANCH  11  12
ENDBRANCH  10  11
ENDBRANCH   9  10
ENDBRANCH   1   9
TORSDOF 10
ENDMDL
