MODEL 1
REMARK VINA RESULT:    -6.230      0.000      0.000
REMARK INTER + INTRA:         -12.127
REMARK INTER:                 -10.237
REMARK INTRA:                  -1.890
REMARK UNBOUND:                -1.890
REMARK SMILES C[C@H]1O[C@@H](OC[C@H]2O[C@@H](Oc3c(-c4ccc(O)c(O)c4)oc4cc(O)cc(O)c4c3=O)[C@H](O)[C@H](O)[C@H]2O)[C@H](O)[C@H](O)[C@H]1O
REMARK SMILES IDX 7 1 36 2 34 3 32 4 9 5 8 6 6 7 5 8 4 9 1 10 2 11 42 12 3 13
REMARK SMILES IDX 40 14 38 15 43 16 41 18 39 20 37 22 35 24 10 26 11 27 12 28
REMARK SMILES IDX 30 29 21 30 29 31 31 32 22 33 27 34 23 35 26 36 24 37 13 38
REMARK SMILES IDX 20 39 14 40 18 41 15 42 16 43 19 44 17 46 28 48 25 50 33 52
REMARK H PARENT 43 17 41 19 39 21 37 23 35 25 19 45 17 47 28 49 25 51 33 53
REMARK Flexibility Score: inf
ROOT
ATOM      1  C   UNL     1       8.330 -35.815  15.791  1.00  0.00     0.180 C 
ATOM      2  C   UNL     1       9.561 -35.834  14.852  1.00  0.00     0.177 C 
ATOM      3  C   UNL     1       9.239 -36.536  13.526  1.00  0.00     0.180 C 
ATOM      4  C   UNL     1       8.619 -37.915  13.808  1.00  0.00     0.214 C 
ATOM      5  C   UNL     1       7.410 -37.759  14.737  1.00  0.00     0.339 C 
ATOM      6  O   UNL     1       7.754 -37.107  15.957  1.00  0.00    -0.332 OA
ENDROOT
BRANCH   1   7
ATOM      7  C   UNL     1       7.260 -34.750  15.457  1.00  0.00     0.198 C 
BRANCH   7   8
ATOM      8  O   UNL     1       6.676 -34.245  16.642  1.00  0.00    -0.347 OA
BRANCH   8   9
ATOM      9  C   UNL     1       7.535 -33.298  17.267  1.00  0.00     0.281 C 
ATOM     10  C   UNL     1       6.714 -35.545  19.263  1.00  0.00     0.041 C 
ATOM     11  C   UNL     1       7.506 -34.245  19.472  1.00  0.00     0.150 C 
ATOM     12  C   UNL     1       6.666 -33.072  20.035  1.00  0.00     0.174 C 
ATOM     13  O   UNL     1       8.277 -33.893  18.328  1.00  0.00    -0.344 OA
ATOM     14  C   UNL     1       5.831 -32.414  18.923  1.00  0.00     0.179 C 
ATOM     15  C   UNL     1       6.719 -32.068  17.720  1.00  0.00     0.202 C 
BRANCH  12  16
ATOM     16  O   UNL     1       5.829 -33.529  21.067  1.00  0.00    -0.388 OA
ATOM     17  H   UNL     1       5.547 -32.732  21.586  1.00  0.00     0.211 HD
ENDBRANCH  12  16
BRANCH  14  18
ATOM     18  O   UNL     1       5.146 -31.279  19.394  1.00  0.00    -0.387 OA
ATOM     19  H   UNL     1       4.265 -31.576  19.748  1.00  0.00     0.211 HD
ENDBRANCH  14  18
BRANCH  15  20
ATOM     20  O   UNL     1       7.559 -30.969  17.989  1.00  0.00    -0.385 OA
ATOM     21  H   UNL     1       7.546 -30.364  17.202  1.00  0.00     0.211 HD
ENDBRANCH  15  20
ENDBRANCH   8   9
ENDBRANCH   7   8
ENDBRANCH   1   7
BRANCH   2  22
ATOM     22  O   UNL     1      10.007 -34.526  14.613  1.00  0.00    -0.387 OA
ATOM     23  H   UNL     1      10.160 -34.446  13.636  1.00  0.00     0.211 HD
ENDBRANCH   2  22
BRANCH   3  24
ATOM     24  O   UNL     1      10.410 -36.672  12.765  1.00  0.00    -0.387 OA
ATOM     25  H   UNL     1      10.283 -36.117  11.951  1.00  0.00     0.211 HD
ENDBRANCH   3  24
BRANCH   5  26
ATOM     26  O   UNL     1       6.359 -37.089  14.034  1.00  0.00    -0.454 OA
BRANCH  26  27
ATOM     27  C   UNL     1       5.270 -37.674  13.358  1.00  0.00     0.214 A 
ATOM     28  C   UNL     1       3.976 -37.241  13.696  1.00  0.00     0.180 A 
ATOM     29  C   UNL     1       5.402 -38.669  12.365  1.00  0.00     0.239 A 
ATOM     30  O   UNL     1       2.911 -37.758  13.095  1.00  0.00    -0.452 OA
ATOM     31  C   UNL     1       4.246 -39.227  11.779  1.00  0.00     0.111 A 
ATOM     32  O   UNL     1       6.544 -39.070  12.016  1.00  0.00    -0.285 OA
ATOM     33  C   UNL     1       2.990 -38.717  12.181  1.00  0.00     0.146 A 
ATOM     34  C   UNL     1       4.290 -40.275  10.826  1.00  0.00     0.134 A 
ATOM     35  C   UNL     1       1.812 -39.223  11.625  1.00  0.00     0.094 A 
ATOM     36  C   UNL     1       3.096 -40.775  10.286  1.00  0.00     0.093 A 
ATOM     37  C   UNL     1       1.863 -40.250  10.678  1.00  0.00     0.123 A 
BRANCH  28  38
ATOM     38  C   UNL     1       3.766 -36.175  14.692  1.00  0.00     0.025 A 
ATOM     39  C   UNL     1       3.625 -34.845  14.267  1.00  0.00     0.062 A 
ATOM     40  C   UNL     1       3.696 -36.472  16.062  1.00  0.00     0.016 A 
ATOM     41  C   UNL     1       3.446 -33.815  15.203  1.00  0.00     0.158 A 
ATOM     42  C   UNL     1       3.508 -35.450  16.995  1.00  0.00     0.051 A 
ATOM     43  C   UNL     1       3.390 -34.119  16.571  1.00  0.00     0.157 A 
BRANCH  41  44
ATOM     44  O   UNL     1       3.328 -32.490  14.783  1.00  0.00    -0.504 OA
ATOM     45  H   UNL     1       4.102 -31.840  14.859  1.00  0.00     0.293 HD
ENDBRANCH  41  44
BRANCH  43  46
ATOM     46  O   UNL     1       3.218 -33.094  17.500  1.00  0.00    -0.504 OA
ATOM     47  H   UNL     1       3.498 -33.202  18.468  1.00  0.00     0.293 HD
ENDBRANCH  43  46
ENDBRANCH  28  38
BRANCH  34  48
ATOM     48  O   UNL     1       5.505 -40.828  10.418  1.00  0.00    -0.507 OA
ATOM     49  H   UNL     1       6.356 -40.281  10.393  1.00  0.00     0.293 HD
ENDBRANCH  34  48
BRANCH  37  50
ATOM     50  O   UNL     1       0.691 -40.760  10.122  1.00  0.00    -0.508 OA
ATOM     51  H   UNL     1       0.247 -40.315   9.328  1.00  0.00     0.293 HD
ENDBRANCH  37  50
ENDBRANCH  26  27
ENDBRANCH   5  26
BRANCH   4  52
ATOM     52  O   UNL     1       9.556 -38.775  14.405  1.00  0.00    -0.384 OA
ATOM     53  H   UNL     1       9.918 -39.354  13.685  1.00  0.00     0.211 HD
ENDBRANCH   4  52
TORSDOF 16
ENDMDL
MODEL 2
REMARK VINA RESULT:    -6.133      3.369      6.440
REMARK INTER + INTRA:         -11.967
REMARK INTER:                  -9.223
REMARK INTRA:                  -2.744
REMARK UNBOUND:                -1.890
REMARK SMILES C[C@H]1O[C@@H](OC[C@H]2O[C@@H](Oc3c(-c4ccc(O)c(O)c4)oc4cc(O)cc(O)c4c3=O)[C@H](O)[C@H](O)[C@H]2O)[C@H](O)[C@H](O)[C@H]1O
REMARK SMILES IDX 7 1 36 2 34 3 32 4 9 5 8 6 6 7 5 8 4 9 1 10 2 11 42 12 3 13
REMARK SMILES IDX 40 14 38 15 43 16 41 18 39 20 37 22 35 24 10 26 11 27 12 28
REMARK SMILES IDX 30 29 21 30 29 31 31 32 22 33 27 34 23 35 26 36 24 37 13 38
REMARK SMILES IDX 20 39 14 40 18 41 15 42 16 43 19 44 17 46 28 48 25 50 33 52
REMARK H PARENT 43 17 41 19 39 21 37 23 35 25 19 45 17 47 28 49 25 51 33 53
REMARK Flexibility Score: inf
ROOT
ATOM      1  C   UNL     1       7.100 -31.051  14.438  1.00  0.00     0.180 C 
ATOM      2  C   UNL     1       7.806 -31.163  13.064  1.00  0.00     0.177 C 
ATOM      3  C   UNL     1       8.343 -32.580  12.828  1.00  0.00     0.180 C 
ATOM      4  C   UNL     1       9.198 -33.016  14.031  1.00  0.00     0.214 C 
ATOM      5  C   UNL     1       8.385 -32.868  15.323  1.00  0.00     0.339 C 
ATOM      6  O   UNL     1       7.909 -31.538  15.505  1.00  0.00    -0.332 OA
ENDROOT
BRANCH   1   7
ATOM      7  C   UNL     1       5.668 -31.633  14.495  1.00  0.00     0.198 C 
BRANCH   7   8
ATOM      8  O   UNL     1       4.940 -31.057  15.563  1.00  0.00    -0.347 OA
BRANCH   8   9
ATOM      9  C   UNL     1       4.624 -32.036  16.546  1.00  0.00     0.281 C 
ATOM     10  C   UNL     1       2.064 -30.520  15.621  1.00  0.00     0.041 C 
ATOM     11  C   UNL     1       2.280 -31.558  16.734  1.00  0.00     0.150 C 
ATOM     12  C   UNL     1       2.451 -30.949  18.147  1.00  0.00     0.174 C 
ATOM     13  O   UNL     1       3.288 -32.506  16.398  1.00  0.00    -0.344 OA
ATOM     14  C   UNL     1       3.878 -30.408  18.341  1.00  0.00     0.179 C 
ATOM     15  C   UNL     1       4.912 -31.476  17.956  1.00  0.00     0.202 C 
BRANCH  12  16
ATOM     16  O   UNL     1       1.510 -29.925  18.350  1.00  0.00    -0.388 OA
ATOM     17  H   UNL     1       0.942 -30.200  19.114  1.00  0.00     0.211 HD
ENDBRANCH  12  16
BRANCH  14  18
ATOM     18  O   UNL     1       4.084 -29.951  19.655  1.00  0.00    -0.387 OA
ATOM     19  H   UNL     1       3.737 -30.642  20.281  1.00  0.00     0.211 HD
ENDBRANCH  14  18
BRANCH  15  20
ATOM     20  O   UNL     1       4.979 -32.508  18.912  1.00  0.00    -0.385 OA
ATOM     21  H   UNL     1       5.533 -32.195  19.674  1.00  0.00     0.211 HD
ENDBRANCH  15  20
ENDBRANCH   8   9
ENDBRANCH   7   8
ENDBRANCH   1   7
BRANCH   2  22
ATOM     22  O   UNL     1       6.922 -30.801  12.037  1.00  0.00    -0.387 OA
ATOM     23  H   UNL     1       6.003 -30.945  12.381  1.00  0.00     0.211 HD
ENDBRANCH   2  22
BRANCH   3  24
ATOM     24  O   UNL     1       9.107 -32.607  11.651  1.00  0.00    -0.387 OA
ATOM     25  H   UNL     1      10.021 -32.310  11.901  1.00  0.00     0.211 HD
ENDBRANCH   3  24
BRANCH   5  26
ATOM     26  O   UNL     1       7.330 -33.834  15.329  1.00  0.00    -0.454 OA
BRANCH  26  27
ATOM     27  C   UNL     1       7.297 -35.063  16.018  1.00  0.00     0.214 A 
ATOM     28  C   UNL     1       7.369 -36.245  15.260  1.00  0.00     0.180 A 
ATOM     29  C   UNL     1       7.194 -35.177  17.422  1.00  0.00     0.239 A 
ATOM     30  O   UNL     1       7.339 -37.432  15.853  1.00  0.00    -0.452 OA
ATOM     31  C   UNL     1       7.121 -36.456  18.014  1.00  0.00     0.111 A 
ATOM     32  O   UNL     1       7.151 -34.144  18.141  1.00  0.00    -0.285 OA
ATOM     33  C   UNL     1       7.211 -37.583  17.165  1.00  0.00     0.146 A 
ATOM     34  C   UNL     1       6.951 -36.656  19.407  1.00  0.00     0.134 A 
ATOM     35  C   UNL     1       7.157 -38.874  17.698  1.00  0.00     0.094 A 
ATOM     36  C   UNL     1       6.890 -37.959  19.921  1.00  0.00     0.093 A 
ATOM     37  C   UNL     1       6.998 -39.063  19.074  1.00  0.00     0.123 A 
BRANCH  28  38
ATOM     38  C   UNL     1       7.520 -36.200  13.794  1.00  0.00     0.025 A 
ATOM     39  C   UNL     1       8.782 -36.422  13.220  1.00  0.00     0.062 A 
ATOM     40  C   UNL     1       6.418 -35.948  12.962  1.00  0.00     0.016 A 
ATOM     41  C   UNL     1       8.949 -36.363  11.828  1.00  0.00     0.158 A 
ATOM     42  C   UNL     1       6.580 -35.898  11.576  1.00  0.00     0.051 A 
ATOM     43  C   UNL     1       7.845 -36.098  11.004  1.00  0.00     0.157 A 
BRANCH  41  44
ATOM     44  O   UNL     1      10.207 -36.560  11.258  1.00  0.00    -0.504 OA
ATOM     45  H   UNL     1      10.312 -36.984  10.343  1.00  0.00     0.293 HD
ENDBRANCH  41  44
BRANCH  43  46
ATOM     46  O   UNL     1       8.014 -36.033   9.623  1.00  0.00    -0.504 OA
ATOM     47  H   UNL     1       8.291 -35.173   9.161  1.00  0.00     0.293 HD
ENDBRANCH  43  46
ENDBRANCH  28  38
BRANCH  34  48
ATOM     48  O   UNL     1       6.831 -35.573  20.280  1.00  0.00    -0.507 OA
ATOM     49  H   UNL     1       6.258 -34.770  20.056  1.00  0.00     0.293 HD
ENDBRANCH  34  48
BRANCH  37  50
ATOM     50  O   UNL     1       6.940 -40.348  19.610  1.00  0.00    -0.508 OA
ATOM     51  H   UNL     1       6.245 -40.600  20.303  1.00  0.00     0.293 HD
ENDBRANCH  37  50
ENDBRANCH  26  27
ENDBRANCH   5  26
BRANCH   4  52
ATOM     52  O   UNL     1      10.366 -32.242  14.125  1.00  0.00    -0.384 OA
ATOM     53  H   UNL     1      10.330 -31.573  13.395  1.00  0.00     0.211 HD
ENDBRANCH   4  52
TORSDOF 16
ENDMDL
MODEL 3
REMARK VINA RESULT:    -6.031      3.832      6.044
REMARK INTER + INTRA:         -11.800
REMARK INTER:                  -9.258
REMARK INTRA:                  -2.542
REMARK UNBOUND:                -1.890
REMARK SMILES C[C@H]1O[C@@H](OC[C@H]2O[C@@H](Oc3c(-c4ccc(O)c(O)c4)oc4cc(O)cc(O)c4c3=O)[C@H](O)[C@H](O)[C@H]2O)[C@H](O)[C@H](O)[C@H]1O
REMARK SMILES IDX 7 1 36 2 34 3 32 4 9 5 8 6 6 7 5 8 4 9 1 10 2 11 42 12 3 13
REMARK SMILES IDX 40 14 38 15 43 16 41 18 39 20 37 22 35 24 10 26 11 27 12 28
REMARK SMILES IDX 30 29 21 30 29 31 31 32 22 33 27 34 23 35 26 36 24 37 13 38
REMARK SMILES IDX 20 39 14 40 18 41 15 42 16 43 19 44 17 46 28 48 25 50 33 52
REMARK H PARENT 43 17 41 19 39 21 37 23 35 25 19 45 17 47 28 49 25 51 33 53
REMARK Flexibility Score: inf
ROOT
ATOM      1  C   UNL     1       7.436 -31.314  14.476  1.00  0.00     0.180 C 
ATOM      2  C   UNL     1       8.126 -31.540  13.108  1.00  0.00     0.177 C 
ATOM      3  C   UNL     1       8.569 -32.998  12.942  1.00  0.00     0.180 C 
ATOM      4  C   UNL     1       9.400 -33.429  14.164  1.00  0.00     0.214 C 
ATOM      5  C   UNL     1       8.605 -33.164  15.448  1.00  0.00     0.339 C 
ATOM      6  O   UNL     1       8.217 -31.798  15.564  1.00  0.00    -0.332 OA
ENDROOT
BRANCH   1   7
ATOM      7  C   UNL     1       5.970 -31.798  14.565  1.00  0.00     0.198 C 
BRANCH   7   8
ATOM      8  O   UNL     1       5.089 -30.810  14.065  1.00  0.00    -0.347 OA
BRANCH   8   9
ATOM      9  C   UNL     1       4.146 -31.380  13.165  1.00  0.00     0.281 C 
ATOM     10  C   UNL     1       2.706 -29.875  15.481  1.00  0.00     0.041 C 
ATOM     11  C   UNL     1       2.154 -30.753  14.346  1.00  0.00     0.150 C 
ATOM     12  C   UNL     1       1.861 -32.216  14.759  1.00  0.00     0.174 C 
ATOM     13  O   UNL     1       2.927 -30.643  13.155  1.00  0.00    -0.344 OA
ATOM     14  C   UNL     1       3.156 -33.043  14.802  1.00  0.00     0.179 C 
ATOM     15  C   UNL     1       3.944 -32.875  13.494  1.00  0.00     0.202 C 
BRANCH  12  16
ATOM     16  O   UNL     1       1.221 -32.246  16.010  1.00  0.00    -0.388 OA
ATOM     17  H   UNL     1       0.245 -32.211  15.838  1.00  0.00     0.211 HD
ENDBRANCH  12  16
BRANCH  14  18
ATOM     18  O   UNL     1       2.896 -34.400  15.069  1.00  0.00    -0.387 OA
ATOM     19  H   UNL     1       2.047 -34.455  15.584  1.00  0.00     0.211 HD
ENDBRANCH  14  18
BRANCH  15  20
ATOM     20  O   UNL     1       3.331 -33.556  12.424  1.00  0.00    -0.385 OA
ATOM     21  H   UNL     1       3.997 -34.170  12.021  1.00  0.00     0.211 HD
ENDBRANCH  15  20
ENDBRANCH   8   9
ENDBRANCH   7   8
ENDBRANCH   1   7
BRANCH   2  22
ATOM     22  O   UNL     1       7.262 -31.173  12.065  1.00  0.00    -0.387 OA
ATOM     23  H   UNL     1       7.295 -30.185  11.996  1.00  0.00     0.211 HD
ENDBRANCH   2  22
BRANCH   3  24
ATOM     24  O   UNL     1       9.323 -33.134  11.766  1.00  0.00    -0.387 OA
ATOM     25  H   UNL     1       9.550 -32.213  11.470  1.00  0.00     0.211 HD
ENDBRANCH   3  24
BRANCH   5  26
ATOM     26  O   UNL     1       7.490 -34.058  15.505  1.00  0.00    -0.454 OA
BRANCH  26  27
ATOM     27  C   UNL     1       7.352 -35.208  16.309  1.00  0.00     0.214 A 
ATOM     28  C   UNL     1       6.754 -35.059  17.573  1.00  0.00     0.180 A 
ATOM     29  C   UNL     1       7.780 -36.496  15.921  1.00  0.00     0.239 A 
ATOM     30  O   UNL     1       6.600 -36.105  18.376  1.00  0.00    -0.452 OA
ATOM     31  C   UNL     1       7.639 -37.577  16.819  1.00  0.00     0.111 A 
ATOM     32  O   UNL     1       8.299 -36.678  14.789  1.00  0.00    -0.285 OA
ATOM     33  C   UNL     1       7.017 -37.325  18.063  1.00  0.00     0.146 A 
ATOM     34  C   UNL     1       8.103 -38.885  16.533  1.00  0.00     0.134 A 
ATOM     35  C   UNL     1       6.840 -38.360  18.985  1.00  0.00     0.094 A 
ATOM     36  C   UNL     1       7.924 -39.908  17.476  1.00  0.00     0.093 A 
ATOM     37  C   UNL     1       7.292 -39.651  18.693  1.00  0.00     0.123 A 
BRANCH  28  38
ATOM     38  C   UNL     1       6.246 -33.751  18.025  1.00  0.00     0.025 A 
ATOM     39  C   UNL     1       4.869 -33.482  17.961  1.00  0.00     0.062 A 
ATOM     40  C   UNL     1       7.118 -32.772  18.527  1.00  0.00     0.016 A 
ATOM     41  C   UNL     1       4.370 -32.236  18.367  1.00  0.00     0.158 A 
ATOM     42  C   UNL     1       6.622 -31.534  18.941  1.00  0.00     0.051 A 
ATOM     43  C   UNL     1       5.249 -31.258  18.856  1.00  0.00     0.157 A 
BRANCH  41  44
ATOM     44  O   UNL     1       3.005 -31.958  18.283  1.00  0.00    -0.504 OA
ATOM     45  H   UNL     1       2.522 -31.947  17.392  1.00  0.00     0.293 HD
ENDBRANCH  41  44
BRANCH  43  46
ATOM     46  O   UNL     1       4.752 -30.018  19.253  1.00  0.00    -0.504 OA
ATOM     47  H   UNL     1       3.764 -29.799  19.195  1.00  0.00     0.293 HD
ENDBRANCH  43  46
ENDBRANCH  28  38
BRANCH  34  48
ATOM     48  O   UNL     1       8.746 -39.175  15.329  1.00  0.00    -0.507 OA
ATOM     49  H   UNL     1       9.041 -38.443  14.694  1.00  0.00     0.293 HD
ENDBRANCH  34  48
BRANCH  37  50
ATOM     50  O   UNL     1       7.121 -40.685  19.611  1.00  0.00    -0.508 OA
ATOM     51  H   UNL     1       7.136 -40.513  20.609  1.00  0.00     0.293 HD
ENDBRANCH  37  50
ENDBRANCH  26  27
ENDBRANCH   5  26
BRANCH   4  52
ATOM     52  O   UNL     1      10.616 -32.729  14.217  1.00  0.00    -0.384 OA
ATOM     53  H   UNL     1      10.624 -32.102  13.449  1.00  0.00     0.211 HD
ENDBRANCH   4  52
TORSDOF 16
ENDMDL
MODEL 4
REMARK VINA RESULT:    -6.009      2.256      5.441
REMARK INTER + INTRA:         -11.763
REMARK INTER:                  -8.894
REMARK INTRA:                  -2.869
REMARK UNBOUND:                -1.890
REMARK SMILES C[C@H]1O[C@@H](OC[C@H]2O[C@@H](Oc3c(-c4ccc(O)c(O)c4)oc4cc(O)cc(O)c4c3=O)[C@H](O)[C@H](O)[C@H]2O)[C@H](O)[C@H](O)[C@H]1O
REMARK SMILES IDX 7 1 36 2 34 3 32 4 9 5 8 6 6 7 5 8 4 9 1 10 2 11 42 12 3 13
REMARK SMILES IDX 40 14 38 15 43 16 41 18 39 20 37 22 35 24 10 26 11 27 12 28
REMARK SMILES IDX 30 29 21 30 29 31 31 32 22 33 27 34 23 35 26 36 24 37 13 38
REMARK SMILES IDX 20 39 14 40 18 41 15 42 16 43 19 44 17 46 28 48 25 50 33 52
REMARK H PARENT 43 17 41 19 39 21 37 23 35 25 19 45 17 47 28 49 25 51 33 53
REMARK Flexibility Score: inf
ROOT
ATOM      1  C   UNL     1       5.502 -30.754  17.754  1.00  0.00     0.180 C 
ATOM      2  C   UNL     1       4.152 -30.157  18.224  1.00  0.00     0.177 C 
ATOM      3  C   UNL     1       2.968 -30.961  17.674  1.00  0.00     0.180 C 
ATOM      4  C   UNL     1       3.110 -31.116  16.150  1.00  0.00     0.214 C 
ATOM      5  C   UNL     1       4.479 -31.722  15.818  1.00  0.00     0.339 C 
ATOM      6  O   UNL     1       5.550 -30.944  16.343  1.00  0.00    -0.332 OA
ENDROOT
BRANCH   1   7
ATOM      7  C   UNL     1       5.969 -32.015  18.517  1.00  0.00     0.198 C 
BRANCH   7   8
ATOM      8  O   UNL     1       7.367 -32.187  18.384  1.00  0.00    -0.347 OA
BRANCH   8   9
ATOM      9  C   UNL     1       7.829 -33.241  19.221  1.00  0.00     0.281 C 
ATOM     10  C   UNL     1       9.239 -33.324  16.444  1.00  0.00     0.041 C 
ATOM     11  C   UNL     1       9.287 -34.296  17.634  1.00  0.00     0.150 C 
ATOM     12  C   UNL     1       8.351 -35.522  17.492  1.00  0.00     0.174 C 
ATOM     13  O   UNL     1       9.158 -33.626  18.883  1.00  0.00    -0.344 OA
ATOM     14  C   UNL     1       6.898 -35.143  17.828  1.00  0.00     0.179 C 
ATOM     15  C   UNL     1       6.832 -34.419  19.180  1.00  0.00     0.202 C 
BRANCH  12  16
ATOM     16  O   UNL     1       8.430 -36.042  16.188  1.00  0.00    -0.388 OA
ATOM     17  H   UNL     1       9.345 -35.854  15.856  1.00  0.00     0.211 HD
ENDBRANCH  12  16
BRANCH  14  18
ATOM     18  O   UNL     1       6.053 -36.267  17.810  1.00  0.00    -0.387 OA
ATOM     19  H   UNL     1       5.195 -36.015  18.245  1.00  0.00     0.211 HD
ENDBRANCH  14  18
BRANCH  15  20
ATOM     20  O   UNL     1       7.042 -35.303  20.257  1.00  0.00    -0.385 OA
ATOM     21  H   UNL     1       6.371 -36.033  20.199  1.00  0.00     0.211 HD
ENDBRANCH  15  20
ENDBRANCH   8   9
ENDBRANCH   7   8
ENDBRANCH   1   7
BRANCH   2  22
ATOM     22  O   UNL     1       4.103 -30.117  19.625  1.00  0.00    -0.387 OA
ATOM     23  H   UNL     1       3.691 -29.252  19.876  1.00  0.00     0.211 HD
ENDBRANCH   2  22
BRANCH   3  24
ATOM     24  O   UNL     1       1.765 -30.308  17.989  1.00  0.00    -0.387 OA
ATOM     25  H   UNL     1       1.225 -30.952  18.518  1.00  0.00     0.211 HD
ENDBRANCH   3  24
BRANCH   5  26
ATOM     26  O   UNL     1       4.514 -33.080  16.269  1.00  0.00    -0.454 OA
BRANCH  26  27
ATOM     27  C   UNL     1       4.492 -34.247  15.479  1.00  0.00     0.214 A 
ATOM     28  C   UNL     1       3.326 -35.032  15.498  1.00  0.00     0.180 A 
ATOM     29  C   UNL     1       5.571 -34.674  14.675  1.00  0.00     0.239 A 
ATOM     30  O   UNL     1       3.248 -36.144  14.776  1.00  0.00    -0.452 OA
ATOM     31  C   UNL     1       5.468 -35.884  13.955  1.00  0.00     0.111 A 
ATOM     32  O   UNL     1       6.626 -33.988  14.611  1.00  0.00    -0.285 OA
ATOM     33  C   UNL     1       4.249 -36.597  14.034  1.00  0.00     0.146 A 
ATOM     34  C   UNL     1       6.527 -36.415  13.179  1.00  0.00     0.134 A 
ATOM     35  C   UNL     1       4.086 -37.794  13.332  1.00  0.00     0.094 A 
ATOM     36  C   UNL     1       6.348 -37.624  12.490  1.00  0.00     0.093 A 
ATOM     37  C   UNL     1       5.133 -38.308  12.560  1.00  0.00     0.123 A 
BRANCH  28  38
ATOM     38  C   UNL     1       2.146 -34.624  16.282  1.00  0.00     0.025 A 
ATOM     39  C   UNL     1       1.059 -34.015  15.634  1.00  0.00     0.062 A 
ATOM     40  C   UNL     1       2.089 -34.843  17.667  1.00  0.00     0.016 A 
ATOM     41  C   UNL     1      -0.063 -33.601  16.367  1.00  0.00     0.158 A 
ATOM     42  C   UNL     1       0.969 -34.441  18.397  1.00  0.00     0.051 A 
ATOM     43  C   UNL     1      -0.107 -33.813  17.753  1.00  0.00     0.157 A 
BRANCH  41  44
ATOM     44  O   UNL     1      -1.133 -32.975  15.729  1.00  0.00    -0.504 OA
ATOM     45  H   UNL     1      -2.089 -33.274  15.881  1.00  0.00     0.293 HD
ENDBRANCH  41  44
BRANCH  43  46
ATOM     46  O   UNL     1      -1.220 -33.395  18.481  1.00  0.00    -0.504 OA
ATOM     47  H   UNL     1      -1.450 -33.803  19.380  1.00  0.00     0.293 HD
ENDBRANCH  43  46
ENDBRANCH  28  38
BRANCH  34  48
ATOM     48  O   UNL     1       7.757 -35.760  13.094  1.00  0.00    -0.507 OA
ATOM     49  H   UNL     1       7.868 -34.797  13.385  1.00  0.00     0.293 HD
ENDBRANCH  34  48
BRANCH  37  50
ATOM     50  O   UNL     1       4.977 -39.504  11.862  1.00  0.00    -0.508 OA
ATOM     51  H   UNL     1       5.767 -40.109  11.668  1.00  0.00     0.293 HD
ENDBRANCH  37  50
ENDBRANCH  26  27
ENDBRANCH   5  26
BRANCH   4  52
ATOM     52  O   UNL     1       2.982 -29.875  15.504  1.00  0.00    -0.384 OA
ATOM     53  H   UNL     1       3.460 -29.208  16.060  1.00  0.00     0.211 HD
ENDBRANCH   4  52
TORSDOF 16
ENDMDL
MODEL 5
REMARK VINA RESULT:    -5.950     11.357     17.019
REMARK INTER + INTRA:         -11.666
REMARK INTER:                  -9.025
REMARK INTRA:                  -2.641
REMARK UNBOUND:                -1.890
REMARK SMILES C[C@H]1O[C@@H](OC[C@H]2O[C@@H](Oc3c(-c4ccc(O)c(O)c4)oc4cc(O)cc(O)c4c3=O)[C@H](O)[C@H](O)[C@H]2O)[C@H](O)[C@H](O)[C@H]1O
REMARK SMILES IDX 7 1 36 2 34 3 32 4 9 5 8 6 6 7 5 8 4 9 1 10 2 11 42 12 3 13
REMARK SMILES IDX 40 14 38 15 43 16 41 18 39 20 37 22 35 24 10 26 11 27 12 28
REMARK SMILES IDX 30 29 21 30 29 31 31 32 22 33 27 34 23 35 26 36 24 37 13 38
REMARK SMILES IDX 20 39 14 40 18 41 15 42 16 43 19 44 17 46 28 48 25 50 33 52
REMARK H PARENT 43 17 41 19 39 21 37 23 35 25 19 45 17 47 28 49 25 51 33 53
REMARK Flexibility Score: inf
ROOT
ATOM      1  C   UNL     1      -1.465 -45.727   3.859  1.00  0.00     0.180 C 
ATOM      2  C   UNL     1      -0.866 -47.050   3.319  1.00  0.00     0.177 C 
ATOM      3  C   UNL     1       0.315 -47.516   4.179  1.00  0.00     0.180 C 
ATOM      4  C   UNL     1       1.325 -46.367   4.338  1.00  0.00     0.214 C 
ATOM      5  C   UNL     1       0.613 -45.125   4.885  1.00  0.00     0.339 C 
ATOM      6  O   UNL     1      -0.474 -44.723   4.057  1.00  0.00    -0.332 OA
ENDROOT
BRANCH   1   7
ATOM      7  C   UNL     1      -2.385 -45.873   5.093  1.00  0.00     0.198 C 
BRANCH   7   8
ATOM      8  O   UNL     1      -3.722 -45.554   4.756  1.00  0.00    -0.347 OA
BRANCH   8   9
ATOM      9  C   UNL     1      -4.551 -46.708   4.825  1.00  0.00     0.281 C 
ATOM     10  C   UNL     1      -4.804 -45.319   2.048  1.00  0.00     0.041 C 
ATOM     11  C   UNL     1      -5.570 -46.501   2.663  1.00  0.00     0.150 C 
ATOM     12  C   UNL     1      -6.942 -46.121   3.274  1.00  0.00     0.174 C 
ATOM     13  O   UNL     1      -4.755 -47.277   3.535  1.00  0.00    -0.344 OA
ATOM     14  C   UNL     1      -6.764 -45.483   4.662  1.00  0.00     0.179 C 
ATOM     15  C   UNL     1      -5.871 -46.365   5.547  1.00  0.00     0.202 C 
BRANCH  12  16
ATOM     16  O   UNL     1      -7.626 -45.242   2.417  1.00  0.00    -0.388 OA
ATOM     17  H   UNL     1      -8.564 -45.561   2.363  1.00  0.00     0.211 HD
ENDBRANCH  12  16
BRANCH  14  18
ATOM     18  O   UNL     1      -8.003 -45.232   5.279  1.00  0.00    -0.387 OA
ATOM     19  H   UNL     1      -8.504 -46.090   5.324  1.00  0.00     0.211 HD
ENDBRANCH  14  18
BRANCH  15  20
ATOM     20  O   UNL     1      -6.541 -47.530   5.969  1.00  0.00    -0.385 OA
ATOM     21  H   UNL     1      -6.210 -47.772   6.873  1.00  0.00     0.211 HD
ENDBRANCH  15  20
ENDBRANCH   8   9
ENDBRANCH   7   8
ENDBRANCH   1   7
BRANCH   2  22
ATOM     22  O   UNL     1      -1.855 -48.043   3.272  1.00  0.00    -0.387 OA
ATOM     23  H   UNL     1      -2.090 -48.263   4.210  1.00  0.00     0.211 HD
ENDBRANCH   2  22
BRANCH   3  24
ATOM     24  O   UNL     1       0.929 -48.627   3.577  1.00  0.00    -0.387 OA
ATOM     25  H   UNL     1       0.702 -48.584   2.611  1.00  0.00     0.211 HD
ENDBRANCH   3  24
BRANCH   5  26
ATOM     26  O   UNL     1       0.211 -45.370   6.237  1.00  0.00    -0.454 OA
BRANCH  26  27
ATOM     27  C   UNL     1       1.038 -45.689   7.333  1.00  0.00     0.214 A 
ATOM     28  C   UNL     1       0.544 -46.596   8.287  1.00  0.00     0.180 A 
ATOM     29  C   UNL     1       2.328 -45.151   7.529  1.00  0.00     0.239 A 
ATOM     30  O   UNL     1       1.276 -46.932   9.342  1.00  0.00    -0.452 OA
ATOM     31  C   UNL     1       3.061 -45.498   8.685  1.00  0.00     0.111 A 
ATOM     32  O   UNL     1       2.819 -44.353   6.686  1.00  0.00    -0.285 OA
ATOM     33  C   UNL     1       2.479 -46.425   9.580  1.00  0.00     0.146 A 
ATOM     34  C   UNL     1       4.332 -44.952   8.989  1.00  0.00     0.134 A 
ATOM     35  C   UNL     1       3.164 -46.815  10.735  1.00  0.00     0.094 A 
ATOM     36  C   UNL     1       4.999 -45.349  10.157  1.00  0.00     0.093 A 
ATOM     37  C   UNL     1       4.423 -46.279  11.024  1.00  0.00     0.123 A 
BRANCH  28  38
ATOM     38  C   UNL     1      -0.777 -47.228   8.124  1.00  0.00     0.025 A 
ATOM     39  C   UNL     1      -0.900 -48.385   7.338  1.00  0.00     0.062 A 
ATOM     40  C   UNL     1      -1.914 -46.696   8.751  1.00  0.00     0.016 A 
ATOM     41  C   UNL     1      -2.153 -48.988   7.154  1.00  0.00     0.158 A 
ATOM     42  C   UNL     1      -3.161 -47.300   8.577  1.00  0.00     0.051 A 
ATOM     43  C   UNL     1      -3.287 -48.443   7.774  1.00  0.00     0.157 A 
BRANCH  41  44
ATOM     44  O   UNL     1      -2.281 -50.124   6.354  1.00  0.00    -0.504 OA
ATOM     45  H   UNL     1      -1.473 -50.569   5.934  1.00  0.00     0.293 HD
ENDBRANCH  41  44
BRANCH  43  46
ATOM     46  O   UNL     1      -4.532 -49.040   7.585  1.00  0.00    -0.504 OA
ATOM     47  H   UNL     1      -5.303 -48.537   7.161  1.00  0.00     0.293 HD
ENDBRANCH  43  46
ENDBRANCH  28  38
BRANCH  34  48
ATOM     48  O   UNL     1       4.933 -44.014   8.148  1.00  0.00    -0.507 OA
ATOM     49  H   UNL     1       4.385 -43.396   7.562  1.00  0.00     0.293 HD
ENDBRANCH  34  48
BRANCH  37  50
ATOM     50  O   UNL     1       5.108 -46.662  12.175  1.00  0.00    -0.508 OA
ATOM     51  H   UNL     1       6.111 -46.544  12.256  1.00  0.00     0.293 HD
ENDBRANCH  37  50
ENDBRANCH  26  27
ENDBRANCH   5  26
BRANCH   4  52
ATOM     52  O   UNL     1       1.928 -46.054   3.109  1.00  0.00    -0.384 OA
ATOM     53  H   UNL     1       1.289 -46.314   2.397  1.00  0.00     0.211 HD
ENDBRANCH   4  52
TORSDOF 16
ENDMDL
MODEL 6
REMARK VINA RESULT:    -5.902      2.624      7.037
REMARK INTER + INTRA:         -11.587
REMARK INTER:                  -9.062
REMARK INTRA:                  -2.525
REMARK UNBOUND:                -1.890
REMARK SMILES C[C@H]1O[C@@H](OC[C@H]2O[C@@H](Oc3c(-c4ccc(O)c(O)c4)oc4cc(O)cc(O)c4c3=O)[C@H](O)[C@H](O)[C@H]2O)[C@H](O)[C@H](O)[C@H]1O
REMARK SMILES IDX 7 1 36 2 34 3 32 4 9 5 8 6 6 7 5 8 4 9 1 10 2 11 42 12 3 13
REMARK SMILES IDX 40 14 38 15 43 16 41 18 39 20 37 22 35 24 10 26 11 27 12 28
REMARK SMILES IDX 30 29 21 30 29 31 31 32 22 33 27 34 23 35 26 36 24 37 13 38
REMARK SMILES IDX 20 39 14 40 18 41 15 42 16 43 19 44 17 46 28 48 25 50 33 52
REMARK H PARENT 43 17 41 19 39 21 37 23 35 25 19 45 17 47 28 49 25 51 33 53
REMARK Flexibility Score: inf
ROOT
ATOM      1  C   UNL     1       9.154 -33.474  14.973  1.00  0.00     0.180 C 
ATOM      2  C   UNL     1       9.851 -32.484  15.939  1.00  0.00     0.177 C 
ATOM      3  C   UNL     1       8.827 -31.621  16.686  1.00  0.00     0.180 C 
ATOM      4  C   UNL     1       7.864 -30.971  15.678  1.00  0.00     0.214 C 
ATOM      5  C   UNL     1       7.235 -32.052  14.791  1.00  0.00     0.339 C 
ATOM      6  O   UNL     1       8.220 -32.827  14.114  1.00  0.00    -0.332 OA
ENDROOT
BRANCH   1   7
ATOM      7  C   UNL     1       8.544 -34.728  15.640  1.00  0.00     0.198 C 
BRANCH   7   8
ATOM      8  O   UNL     1       8.031 -35.612  14.661  1.00  0.00    -0.347 OA
BRANCH   8   9
ATOM      9  C   UNL     1       7.992 -36.947  15.153  1.00  0.00     0.281 C 
ATOM     10  C   UNL     1       6.714 -36.768  12.318  1.00  0.00     0.041 C 
ATOM     11  C   UNL     1       6.802 -37.932  13.318  1.00  0.00     0.150 C 
ATOM     12  C   UNL     1       5.525 -38.135  14.171  1.00  0.00     0.174 C 
ATOM     13  O   UNL     1       7.999 -37.892  14.088  1.00  0.00    -0.344 OA
ATOM     14  C   UNL     1       5.469 -37.117  15.322  1.00  0.00     0.179 C 
ATOM     15  C   UNL     1       6.790 -37.120  16.105  1.00  0.00     0.202 C 
BRANCH  12  16
ATOM     16  O   UNL     1       4.381 -38.021  13.363  1.00  0.00    -0.388 OA
ATOM     17  H   UNL     1       3.823 -38.823  13.534  1.00  0.00     0.211 HD
ENDBRANCH  12  16
BRANCH  14  18
ATOM     18  O   UNL     1       4.373 -37.356  16.171  1.00  0.00    -0.387 OA
ATOM     19  H   UNL     1       3.668 -36.687  15.960  1.00  0.00     0.211 HD
ENDBRANCH  14  18
BRANCH  15  20
ATOM     20  O   UNL     1       6.927 -38.279  16.895  1.00  0.00    -0.385 OA
ATOM     21  H   UNL     1       7.606 -38.101  17.597  1.00  0.00     0.211 HD
ENDBRANCH  15  20
ENDBRANCH   8   9
ENDBRANCH   7   8
ENDBRANCH   1   7
BRANCH   2  22
ATOM     22  O   UNL     1      10.654 -33.184  16.851  1.00  0.00    -0.387 OA
ATOM     23  H   UNL     1      10.209 -34.054  17.020  1.00  0.00     0.211 HD
ENDBRANCH   2  22
BRANCH   3  24
ATOM     24  O   UNL     1       9.492 -30.636  17.432  1.00  0.00    -0.387 OA
ATOM     25  H   UNL     1       9.156 -29.760  17.105  1.00  0.00     0.211 HD
ENDBRANCH   3  24
BRANCH   5  26
ATOM     26  O   UNL     1       6.354 -32.856  15.583  1.00  0.00    -0.454 OA
BRANCH  26  27
ATOM     27  C   UNL     1       5.036 -32.550  15.977  1.00  0.00     0.214 A 
ATOM     28  C   UNL     1       4.680 -32.778  17.318  1.00  0.00     0.180 A 
ATOM     29  C   UNL     1       4.054 -32.031  15.105  1.00  0.00     0.239 A 
ATOM     30  O   UNL     1       3.452 -32.511  17.746  1.00  0.00    -0.452 OA
ATOM     31  C   UNL     1       2.747 -31.800  15.586  1.00  0.00     0.111 A 
ATOM     32  O   UNL     1       4.337 -31.789  13.902  1.00  0.00    -0.285 OA
ATOM     33  C   UNL     1       2.492 -32.054  16.953  1.00  0.00     0.146 A 
ATOM     34  C   UNL     1       1.689 -31.344  14.761  1.00  0.00     0.134 A 
ATOM     35  C   UNL     1       1.220 -31.832  17.486  1.00  0.00     0.094 A 
ATOM     36  C   UNL     1       0.416 -31.137  15.313  1.00  0.00     0.093 A 
ATOM     37  C   UNL     1       0.182 -31.373  16.669  1.00  0.00     0.123 A 
BRANCH  28  38
ATOM     38  C   UNL     1       5.667 -33.278  18.292  1.00  0.00     0.025 A 
ATOM     39  C   UNL     1       5.858 -34.661  18.438  1.00  0.00     0.062 A 
ATOM     40  C   UNL     1       6.426 -32.390  19.070  1.00  0.00     0.016 A 
ATOM     41  C   UNL     1       6.777 -35.156  19.375  1.00  0.00     0.158 A 
ATOM     42  C   UNL     1       7.349 -32.880  19.997  1.00  0.00     0.051 A 
ATOM     43  C   UNL     1       7.523 -34.262  20.158  1.00  0.00     0.157 A 
BRANCH  41  44
ATOM     44  O   UNL     1       6.951 -36.530  19.538  1.00  0.00    -0.504 OA
ATOM     45  H   UNL     1       7.069 -36.944  20.456  1.00  0.00     0.293 HD
ENDBRANCH  41  44
BRANCH  43  46
ATOM     46  O   UNL     1       8.431 -34.756  21.093  1.00  0.00    -0.504 OA
ATOM     47  H   UNL     1       8.350 -35.694  21.469  1.00  0.00     0.293 HD
ENDBRANCH  43  46
ENDBRANCH  28  38
BRANCH  34  48
ATOM     48  O   UNL     1       1.887 -31.106  13.400  1.00  0.00    -0.507 OA
ATOM     49  H   UNL     1       1.798 -31.844  12.713  1.00  0.00     0.293 HD
ENDBRANCH  34  48
BRANCH  37  50
ATOM     50  O   UNL     1      -1.090 -31.153  17.195  1.00  0.00    -0.508 OA
ATOM     51  H   UNL     1      -1.549 -31.848  17.772  1.00  0.00     0.293 HD
ENDBRANCH  37  50
ENDBRANCH  26  27
ENDBRANCH   5  26
BRANCH   4  52
ATOM     52  O   UNL     1       8.537 -30.040  14.869  1.00  0.00    -0.384 OA
ATOM     53  H   UNL     1       8.278 -30.230  13.931  1.00  0.00     0.211 HD
ENDBRANCH   4  52
TORSDOF 16
ENDMDL
MODEL 7
REMARK VINA RESULT:    -5.857     13.470     17.013
REMARK INTER + INTRA:         -11.512
REMARK INTER:                  -9.119
REMARK INTRA:                  -2.394
REMARK UNBOUND:                -1.890
REMARK SMILES C[C@H]1O[C@@H](OC[C@H]2O[C@@H](Oc3c(-c4ccc(O)c(O)c4)oc4cc(O)cc(O)c4c3=O)[C@H](O)[C@H](O)[C@H]2O)[C@H](O)[C@H](O)[C@H]1O
REMARK SMILES IDX 7 1 36 2 34 3 32 4 9 5 8 6 6 7 5 8 4 9 1 10 2 11 42 12 3 13
REMARK SMILES IDX 40 14 38 15 43 16 41 18 39 20 37 22 35 24 10 26 11 27 12 28
REMARK SMILES IDX 30 29 21 30 29 31 31 32 22 33 27 34 23 35 26 36 24 37 13 38
REMARK SMILES IDX 20 39 14 40 18 41 15 42 16 43 19 44 17 46 28 48 25 50 33 52
REMARK H PARENT 43 17 41 19 39 21 37 23 35 25 19 45 17 47 28 49 25 51 33 53
REMARK Flexibility Score: inf
ROOT
ATOM      1  C   UNL     1      -5.061 -49.504   8.573  1.00  0.00     0.180 C 
ATOM      2  C   UNL     1      -6.409 -48.883   8.132  1.00  0.00     0.177 C 
ATOM      3  C   UNL     1      -6.982 -47.968   9.222  1.00  0.00     0.180 C 
ATOM      4  C   UNL     1      -7.025 -48.723  10.561  1.00  0.00     0.214 C 
ATOM      5  C   UNL     1      -5.634 -49.279  10.887  1.00  0.00     0.339 C 
ATOM      6  O   UNL     1      -5.141 -50.125   9.852  1.00  0.00    -0.332 OA
ENDROOT
BRANCH   1   7
ATOM      7  C   UNL     1      -3.835 -48.567   8.467  1.00  0.00     0.198 C 
BRANCH   7   8
ATOM      8  O   UNL     1      -2.679 -49.202   8.978  1.00  0.00    -0.347 OA
BRANCH   8   9
ATOM      9  C   UNL     1      -1.697 -49.362   7.960  1.00  0.00     0.281 C 
ATOM     10  C   UNL     1      -0.385 -49.386  10.786  1.00  0.00     0.041 C 
ATOM     11  C   UNL     1       0.236 -49.393   9.380  1.00  0.00     0.150 C 
ATOM     12  C   UNL     1       0.703 -48.002   8.884  1.00  0.00     0.174 C 
ATOM     13  O   UNL     1      -0.570 -50.091   8.438  1.00  0.00    -0.344 OA
ATOM     14  C   UNL     1      -0.490 -47.173   8.379  1.00  0.00     0.179 C 
ATOM     15  C   UNL     1      -1.320 -47.985   7.374  1.00  0.00     0.202 C 
BRANCH  12  16
ATOM     16  O   UNL     1       1.369 -47.319   9.916  1.00  0.00    -0.388 OA
ATOM     17  H   UNL     1       2.235 -47.009   9.547  1.00  0.00     0.211 HD
ENDBRANCH  12  16
BRANCH  14  18
ATOM     18  O   UNL     1      -0.073 -45.950   7.824  1.00  0.00    -0.387 OA
ATOM     19  H   UNL     1       0.910 -45.998   7.677  1.00  0.00     0.211 HD
ENDBRANCH  14  18
BRANCH  15  20
ATOM     20  O   UNL     1      -0.658 -48.120   6.138  1.00  0.00    -0.385 OA
ATOM     21  H   UNL     1      -1.087 -47.509   5.484  1.00  0.00     0.211 HD
ENDBRANCH  15  20
ENDBRANCH   8   9
ENDBRANCH   7   8
ENDBRANCH   1   7
BRANCH   2  22
ATOM     22  O   UNL     1      -6.244 -48.169   6.936  1.00  0.00    -0.387 OA
ATOM     23  H   UNL     1      -5.817 -48.785   6.288  1.00  0.00     0.211 HD
ENDBRANCH   2  22
BRANCH   3  24
ATOM     24  O   UNL     1      -8.270 -47.546   8.857  1.00  0.00    -0.387 OA
ATOM     25  H   UNL     1      -8.348 -46.598   9.144  1.00  0.00     0.211 HD
ENDBRANCH   3  24
BRANCH   5  26
ATOM     26  O   UNL     1      -4.748 -48.192  11.175  1.00  0.00    -0.454 OA
BRANCH  26  27
ATOM     27  C   UNL     1      -4.244 -47.807  12.433  1.00  0.00     0.214 A 
ATOM     28  C   UNL     1      -4.608 -46.543  12.929  1.00  0.00     0.180 A 
ATOM     29  C   UNL     1      -3.395 -48.614  13.222  1.00  0.00     0.239 A 
ATOM     30  O   UNL     1      -4.162 -46.124  14.108  1.00  0.00    -0.452 OA
ATOM     31  C   UNL     1      -2.906 -48.118  14.450  1.00  0.00     0.111 A 
ATOM     32  O   UNL     1      -3.063 -49.763  12.827  1.00  0.00    -0.285 OA
ATOM     33  C   UNL     1      -3.338 -46.837  14.864  1.00  0.00     0.146 A 
ATOM     34  C   UNL     1      -1.999 -48.837  15.268  1.00  0.00     0.134 A 
ATOM     35  C   UNL     1      -2.895 -46.302  16.077  1.00  0.00     0.094 A 
ATOM     36  C   UNL     1      -1.558 -48.278  16.477  1.00  0.00     0.093 A 
ATOM     37  C   UNL     1      -2.007 -47.020  16.884  1.00  0.00     0.123 A 
BRANCH  28  38
ATOM     38  C   UNL     1      -5.525 -45.666  12.178  1.00  0.00     0.025 A 
ATOM     39  C   UNL     1      -6.881 -45.611  12.536  1.00  0.00     0.062 A 
ATOM     40  C   UNL     1      -5.059 -44.877  11.115  1.00  0.00     0.016 A 
ATOM     41  C   UNL     1      -7.772 -44.799  11.819  1.00  0.00     0.158 A 
ATOM     42  C   UNL     1      -5.942 -44.060  10.406  1.00  0.00     0.051 A 
ATOM     43  C   UNL     1      -7.301 -44.022  10.750  1.00  0.00     0.157 A 
BRANCH  41  44
ATOM     44  O   UNL     1      -9.125 -44.761  12.159  1.00  0.00    -0.504 OA
ATOM     45  H   UNL     1      -9.850 -44.841  11.455  1.00  0.00     0.293 HD
ENDBRANCH  41  44
BRANCH  43  46
ATOM     46  O   UNL     1      -8.189 -43.220  10.035  1.00  0.00    -0.504 OA
ATOM     47  H   UNL     1      -8.193 -42.211  10.137  1.00  0.00     0.293 HD
ENDBRANCH  43  46
ENDBRANCH  28  38
BRANCH  34  48
ATOM     48  O   UNL     1      -1.524 -50.093  14.887  1.00  0.00    -0.507 OA
ATOM     49  H   UNL     1      -1.869 -50.943  15.314  1.00  0.00     0.293 HD
ENDBRANCH  34  48
BRANCH  37  50
ATOM     50  O   UNL     1      -1.560 -46.489  18.092  1.00  0.00    -0.508 OA
ATOM     51  H   UNL     1      -0.682 -46.783  18.504  1.00  0.00     0.293 HD
ENDBRANCH  37  50
ENDBRANCH  26  27
ENDBRANCH   5  26
BRANCH   4  52
ATOM     52  O   UNL     1      -7.949 -49.780  10.514  1.00  0.00    -0.384 OA
ATOM     53  H   UNL     1      -8.224 -49.967  11.448  1.00  0.00     0.211 HD
ENDBRANCH   4  52
TORSDOF 16
ENDMDL
MODEL 8
REMARK VINA RESULT:    -5.840      3.512      6.796
REMARK INTER + INTRA:         -11.485
REMARK INTER:                  -8.810
REMARK INTRA:                  -2.675
REMARK UNBOUND:                -1.890
REMARK SMILES C[C@H]1O[C@@H](OC[C@H]2O[C@@H](Oc3c(-c4ccc(O)c(O)c4)oc4cc(O)cc(O)c4c3=O)[C@H](O)[C@H](O)[C@H]2O)[C@H](O)[C@H](O)[C@H]1O
REMARK SMILES IDX 7 1 36 2 34 3 32 4 9 5 8 6 6 7 5 8 4 9 1 10 2 11 42 12 3 13
REMARK SMILES IDX 40 14 38 15 43 16 41 18 39 20 37 22 35 24 10 26 11 27 12 28
REMARK SMILES IDX 30 29 21 30 29 31 31 32 22 33 27 34 23 35 26 36 24 37 13 38
REMARK SMILES IDX 20 39 14 40 18 41 15 42 16 43 19 44 17 46 28 48 25 50 33 52
REMARK H PARENT 43 17 41 19 39 21 37 23 35 25 19 45 17 47 28 49 25 51 33 53
REMARK Flexibility Score: inf
ROOT
ATOM      1  C   UNL     1       7.976 -32.231  18.447  1.00  0.00     0.180 C 
ATOM      2  C   UNL     1       8.309 -33.494  19.279  1.00  0.00     0.177 C 
ATOM      3  C   UNL     1       7.116 -34.456  19.331  1.00  0.00     0.180 C 
ATOM      4  C   UNL     1       5.858 -33.696  19.785  1.00  0.00     0.214 C 
ATOM      5  C   UNL     1       5.634 -32.479  18.880  1.00  0.00     0.339 C 
ATOM      6  O   UNL     1       6.763 -31.611  18.864  1.00  0.00    -0.332 OA
ENDROOT
BRANCH   1   7
ATOM      7  C   UNL     1       8.025 -32.417  16.913  1.00  0.00     0.198 C 
BRANCH   7   8
ATOM      8  O   UNL     1       7.488 -31.285  16.257  1.00  0.00    -0.347 OA
BRANCH   8   9
ATOM      9  C   UNL     1       8.284 -30.923  15.135  1.00  0.00     0.281 C 
ATOM     10  C   UNL     1       5.272 -30.337  14.597  1.00  0.00     0.041 C 
ATOM     11  C   UNL     1       6.501 -30.250  13.678  1.00  0.00     0.150 C 
ATOM     12  C   UNL     1       6.698 -31.483  12.761  1.00  0.00     0.174 C 
ATOM     13  O   UNL     1       7.678 -29.875  14.385  1.00  0.00    -0.344 OA
ATOM     14  C   UNL     1       7.332 -32.648  13.540  1.00  0.00     0.179 C 
ATOM     15  C   UNL     1       8.589 -32.174  14.283  1.00  0.00     0.202 C 
BRANCH  12  16
ATOM     16  O   UNL     1       5.466 -31.878  12.211  1.00  0.00    -0.388 OA
ATOM     17  H   UNL     1       5.526 -32.852  12.036  1.00  0.00     0.211 HD
ENDBRANCH  12  16
BRANCH  14  18
ATOM     18  O   UNL     1       7.618 -33.738  12.698  1.00  0.00    -0.387 OA
ATOM     19  H   UNL     1       7.909 -34.500  13.268  1.00  0.00     0.211 HD
ENDBRANCH  14  18
BRANCH  15  20
ATOM     20  O   UNL     1       9.662 -31.942  13.400  1.00  0.00    -0.385 OA
ATOM     21  H   UNL     1       9.380 -31.262  12.735  1.00  0.00     0.211 HD
ENDBRANCH  15  20
ENDBRANCH   8   9
ENDBRANCH   7   8
ENDBRANCH   1   7
BRANCH   2  22
ATOM     22  O   UNL     1       9.432 -34.142  18.745  1.00  0.00    -0.387 OA
ATOM     23  H   UNL     1      10.127 -33.448  18.604  1.00  0.00     0.211 HD
ENDBRANCH   2  22
BRANCH   3  24
ATOM     24  O   UNL     1       7.395 -35.511  20.214  1.00  0.00    -0.387 OA
ATOM     25  H   UNL     1       7.813 -36.230  19.670  1.00  0.00     0.211 HD
ENDBRANCH   3  24
BRANCH   5  26
ATOM     26  O   UNL     1       5.267 -32.926  17.572  1.00  0.00    -0.454 OA
BRANCH  26  27
ATOM     27  C   UNL     1       3.972 -33.218  17.097  1.00  0.00     0.214 A 
ATOM     28  C   UNL     1       3.761 -34.466  16.486  1.00  0.00     0.180 A 
ATOM     29  C   UNL     1       2.878 -32.330  17.197  1.00  0.00     0.239 A 
ATOM     30  O   UNL     1       2.563 -34.795  16.016  1.00  0.00    -0.452 OA
ATOM     31  C   UNL     1       1.630 -32.697  16.648  1.00  0.00     0.111 A 
ATOM     32  O   UNL     1       3.018 -31.211  17.757  1.00  0.00    -0.285 OA
ATOM     33  C   UNL     1       1.519 -33.979  16.061  1.00  0.00     0.146 A 
ATOM     34  C   UNL     1       0.503 -31.839  16.647  1.00  0.00     0.134 A 
ATOM     35  C   UNL     1       0.304 -34.400  15.514  1.00  0.00     0.094 A 
ATOM     36  C   UNL     1      -0.705 -32.277  16.084  1.00  0.00     0.093 A 
ATOM     37  C   UNL     1      -0.808 -33.551  15.525  1.00  0.00     0.123 A 
BRANCH  28  38
ATOM     38  C   UNL     1       4.847 -35.458  16.386  1.00  0.00     0.025 A 
ATOM     39  C   UNL     1       5.737 -35.405  15.301  1.00  0.00     0.062 A 
ATOM     40  C   UNL     1       5.010 -36.450  17.365  1.00  0.00     0.016 A 
ATOM     41  C   UNL     1       6.763 -36.353  15.178  1.00  0.00     0.158 A 
ATOM     42  C   UNL     1       6.038 -37.389  17.250  1.00  0.00     0.051 A 
ATOM     43  C   UNL     1       6.913 -37.349  16.155  1.00  0.00     0.157 A 
BRANCH  41  44
ATOM     44  O   UNL     1       7.634 -36.316  14.089  1.00  0.00    -0.504 OA
ATOM     45  H   UNL     1       7.433 -36.820  13.233  1.00  0.00     0.293 HD
ENDBRANCH  41  44
BRANCH  43  46
ATOM     46  O   UNL     1       7.929 -38.294  16.028  1.00  0.00    -0.504 OA
ATOM     47  H   UNL     1       7.873 -39.198  16.483  1.00  0.00     0.293 HD
ENDBRANCH  43  46
ENDBRANCH  28  38
BRANCH  34  48
ATOM     48  O   UNL     1       0.574 -30.556  17.191  1.00  0.00    -0.507 OA
ATOM     49  H   UNL     1       1.214 -29.860  16.830  1.00  0.00     0.293 HD
ENDBRANCH  34  48
BRANCH  37  50
ATOM     50  O   UNL     1      -2.020 -33.966  14.977  1.00  0.00    -0.508 OA
ATOM     51  H   UNL     1      -2.064 -34.725  14.307  1.00  0.00     0.293 HD
ENDBRANCH  37  50
ENDBRANCH  26  27
ENDBRANCH   5  26
BRANCH   4  52
ATOM     52  O   UNL     1       5.982 -33.269  21.117  1.00  0.00    -0.384 OA
ATOM     53  H   UNL     1       6.728 -32.618  21.145  1.00  0.00     0.211 HD
ENDBRANCH   4  52
TORSDOF 16
ENDMDL
MODEL 9
REMARK VINA RESULT:    -5.805     14.331     18.117
REMARK INTER + INTRA:         -11.428
REMARK INTER:                  -8.372
REMARK INTRA:                  -3.056
REMARK UNBOUND:                -1.890
REMARK SMILES C[C@H]1O[C@@H](OC[C@H]2O[C@@H](Oc3c(-c4ccc(O)c(O)c4)oc4cc(O)cc(O)c4c3=O)[C@H](O)[C@H](O)[C@H]2O)[C@H](O)[C@H](O)[C@H]1O
REMARK SMILES IDX 7 1 36 2 34 3 32 4 9 5 8 6 6 7 5 8 4 9 1 10 2 11 42 12 3 13
REMARK SMILES IDX 40 14 38 15 43 16 41 18 39 20 37 22 35 24 10 26 11 27 12 28
REMARK SMILES IDX 30 29 21 30 29 31 31 32 22 33 27 34 23 35 26 36 24 37 13 38
REMARK SMILES IDX 20 39 14 40 18 41 15 42 16 43 19 44 17 46 28 48 25 50 33 52
REMARK H PARENT 43 17 41 19 39 21 37 23 35 25 19 45 17 47 28 49 25 51 33 53
REMARK Flexibility Score: inf
ROOT
ATOM      1  C   UNL     1      -7.607 -45.215   9.416  1.00  0.00     0.180 C 
ATOM      2  C   UNL     1      -7.700 -43.726   9.832  1.00  0.00     0.177 C 
ATOM      3  C   UNL     1      -6.847 -43.442  11.074  1.00  0.00     0.180 C 
ATOM      4  C   UNL     1      -7.200 -44.446  12.185  1.00  0.00     0.214 C 
ATOM      5  C   UNL     1      -7.062 -45.877  11.651  1.00  0.00     0.339 C 
ATOM      6  O   UNL     1      -7.872 -46.099  10.501  1.00  0.00    -0.332 OA
ENDROOT
BRANCH   1   7
ATOM      7  C   UNL     1      -6.320 -45.611   8.656  1.00  0.00     0.198 C 
BRANCH   7   8
ATOM      8  O   UNL     1      -6.413 -45.240   7.294  1.00  0.00    -0.347 OA
BRANCH   8   9
ATOM      9  C   UNL     1      -5.490 -45.980   6.503  1.00  0.00     0.281 C 
ATOM     10  C   UNL     1      -5.823 -43.082   5.408  1.00  0.00     0.041 C 
ATOM     11  C   UNL     1      -5.059 -44.294   4.851  1.00  0.00     0.150 C 
ATOM     12  C   UNL     1      -5.823 -45.080   3.757  1.00  0.00     0.174 C 
ATOM     13  O   UNL     1      -4.535 -45.123   5.884  1.00  0.00    -0.344 OA
ATOM     14  C   UNL     1      -6.880 -46.004   4.384  1.00  0.00     0.179 C 
ATOM     15  C   UNL     1      -6.253 -46.862   5.492  1.00  0.00     0.202 C 
BRANCH  12  16
ATOM     16  O   UNL     1      -6.428 -44.188   2.855  1.00  0.00    -0.388 OA
ATOM     17  H   UNL     1      -5.780 -43.455   2.693  1.00  0.00     0.211 HD
ENDBRANCH  12  16
BRANCH  14  18
ATOM     18  O   UNL     1      -7.509 -46.805   3.414  1.00  0.00    -0.387 OA
ATOM     19  H   UNL     1      -8.211 -47.344   3.867  1.00  0.00     0.211 HD
ENDBRANCH  14  18
BRANCH  15  20
ATOM     20  O   UNL     1      -5.422 -47.870   4.965  1.00  0.00    -0.385 OA
ATOM     21  H   UNL     1      -5.837 -48.214   4.131  1.00  0.00     0.211 HD
ENDBRANCH  15  20
ENDBRANCH   8   9
ENDBRANCH   7   8
ENDBRANCH   1   7
BRANCH   2  22
ATOM     22  O   UNL     1      -7.299 -42.902   8.770  1.00  0.00    -0.387 OA
ATOM     23  H   UNL     1      -7.438 -41.965   9.062  1.00  0.00     0.211 HD
ENDBRANCH   2  22
BRANCH   3  24
ATOM     24  O   UNL     1      -7.073 -42.128  11.514  1.00  0.00    -0.387 OA
ATOM     25  H   UNL     1      -7.126 -42.168  12.505  1.00  0.00     0.211 HD
ENDBRANCH   3  24
BRANCH   5  26
ATOM     26  O   UNL     1      -5.680 -46.159  11.412  1.00  0.00    -0.454 OA
BRANCH  26  27
ATOM     27  C   UNL     1      -4.814 -46.942  12.201  1.00  0.00     0.214 A 
ATOM     28  C   UNL     1      -4.501 -48.236  11.750  1.00  0.00     0.180 A 
ATOM     29  C   UNL     1      -4.246 -46.505  13.418  1.00  0.00     0.239 A 
ATOM     30  O   UNL     1      -3.694 -49.021  12.453  1.00  0.00    -0.452 OA
ATOM     31  C   UNL     1      -3.427 -47.383  14.160  1.00  0.00     0.111 A 
ATOM     32  O   UNL     1      -4.481 -45.344  13.847  1.00  0.00    -0.285 OA
ATOM     33  C   UNL     1      -3.166 -48.661  13.615  1.00  0.00     0.146 A 
ATOM     34  C   UNL     1      -2.873 -47.045  15.420  1.00  0.00     0.134 A 
ATOM     35  C   UNL     1      -2.352 -49.567  14.301  1.00  0.00     0.094 A 
ATOM     36  C   UNL     1      -2.067 -47.972  16.097  1.00  0.00     0.093 A 
ATOM     37  C   UNL     1      -1.801 -49.224  15.540  1.00  0.00     0.123 A 
BRANCH  28  38
ATOM     38  C   UNL     1      -5.025 -48.742  10.468  1.00  0.00     0.025 A 
ATOM     39  C   UNL     1      -4.207 -48.719   9.327  1.00  0.00     0.062 A 
ATOM     40  C   UNL     1      -6.328 -49.255  10.373  1.00  0.00     0.016 A 
ATOM     41  C   UNL     1      -4.696 -49.177   8.094  1.00  0.00     0.158 A 
ATOM     42  C   UNL     1      -6.813 -49.720   9.149  1.00  0.00     0.051 A 
ATOM     43  C   UNL     1      -6.003 -49.677   8.005  1.00  0.00     0.157 A 
BRANCH  41  44
ATOM     44  O   UNL     1      -3.892 -49.134   6.955  1.00  0.00    -0.504 OA
ATOM     45  H   UNL     1      -3.861 -48.313   6.360  1.00  0.00     0.293 HD
ENDBRANCH  41  44
BRANCH  43  46
ATOM     46  O   UNL     1      -6.489 -50.125   6.778  1.00  0.00    -0.504 OA
ATOM     47  H   UNL     1      -7.059 -49.533   6.184  1.00  0.00     0.293 HD
ENDBRANCH  43  46
ENDBRANCH  28  38
BRANCH  34  48
ATOM     48  O   UNL     1      -3.125 -45.805  16.009  1.00  0.00    -0.507 OA
ATOM     49  H   UNL     1      -2.490 -45.025  15.898  1.00  0.00     0.293 HD
ENDBRANCH  34  48
BRANCH  37  50
ATOM     50  O   UNL     1      -0.991 -50.125  16.229  1.00  0.00    -0.508 OA
ATOM     51  H   UNL     1       0.011 -50.154  16.079  1.00  0.00     0.293 HD
ENDBRANCH  37  50
ENDBRANCH  26  27
ENDBRANCH   5  26
BRANCH   4  52
ATOM     52  O   UNL     1      -8.512 -44.247  12.645  1.00  0.00    -0.384 OA
ATOM     53  H   UNL     1      -8.940 -45.140  12.698  1.00  0.00     0.211 HD
ENDBRANCH   4  52
TORSDOF 16
ENDMDL
