MODEL 1
REMARK VINA RESULT:    -5.273      0.000      0.000
REMARK INTER + INTRA:          -6.598
REMARK INTER:                  -6.352
REMARK INTRA:                  -0.247
REMARK UNBOUND:                -0.247
REMARK SMILES O=c1c(O)c(-c2ccc(O)c(O)c2)oc2cc(O)cc(O)c12
REMARK SMILES IDX 5 1 3 2 2 3 1 4 22 5 20 6 19 7 17 8 16 9 15 10 14 11 6 12
REMARK SMILES IDX 7 13 8 14 9 15 13 16 11 17 10 18 12 20 4 22 21 24 18 26
REMARK H PARENT 10 19 12 21 4 23 21 25 18 27
REMARK Flexibility Score: inf
ROOT
ATOM      1  C   UNL     1     -14.306 -23.159 175.177  1.00  0.00     0.180 A 
ATOM      2  C   UNL     1     -14.981 -24.383 175.030  1.00  0.00     0.208 A 
ATOM      3  C   UNL     1     -15.083 -25.242 176.136  1.00  0.00     0.238 A 
ATOM      4  O   UNL     1     -15.735 -26.311 176.013  1.00  0.00    -0.285 OA
ATOM      5  C   UNL     1     -14.494 -24.873 177.370  1.00  0.00     0.111 A 
ATOM      6  C   UNL     1     -14.502 -25.684 178.545  1.00  0.00     0.134 A 
ATOM      7  C   UNL     1     -14.002 -25.164 179.745  1.00  0.00     0.093 A 
ATOM      8  C   UNL     1     -13.438 -23.887 179.798  1.00  0.00     0.123 A 
ATOM      9  C   UNL     1     -13.373 -23.111 178.643  1.00  0.00     0.094 A 
ATOM     10  C   UNL     1     -13.895 -23.589 177.438  1.00  0.00     0.146 A 
ATOM     11  O   UNL     1     -13.822 -22.813 176.363  1.00  0.00    -0.452 OA
ENDROOT
BRANCH   1  12
ATOM     12  C   UNL     1     -14.137 -22.212 174.050  1.00  0.00     0.025 A 
ATOM     13  C   UNL     1     -13.279 -22.500 172.974  1.00  0.00     0.016 A 
ATOM     14  C   UNL     1     -13.116 -21.582 171.935  1.00  0.00     0.051 A 
ATOM     15  C   UNL     1     -13.796 -20.358 171.959  1.00  0.00     0.157 A 
ATOM     16  C   UNL     1     -14.800 -20.975 174.081  1.00  0.00     0.062 A 
ATOM     17  C   UNL     1     -14.640 -20.052 173.041  1.00  0.00     0.158 A 
BRANCH  15  18
ATOM     18  O   UNL     1     -13.633 -19.443 170.919  1.00  0.00    -0.504 OA
ATOM     19  H   UNL     1     -14.233 -19.455 170.104  1.00  0.00     0.293 HD
ENDBRANCH  15  18
BRANCH  17  20
ATOM     20  O   UNL     1     -15.326 -18.839 173.100  1.00  0.00    -0.504 OA
ATOM     21  H   UNL     1     -16.123 -18.701 173.709  1.00  0.00     0.293 HD
ENDBRANCH  17  20
ENDBRANCH   1  12
BRANCH   2  22
ATOM     22  O   UNL     1     -15.574 -24.716 173.809  1.00  0.00    -0.502 OA
ATOM     23  H   UNL     1     -15.709 -25.675 173.513  1.00  0.00     0.293 HD
ENDBRANCH   2  22
BRANCH   6  24
ATOM     24  O   UNL     1     -14.957 -27.005 178.578  1.00  0.00    -0.507 OA
ATOM     25  H   UNL     1     -15.155 -27.566 177.763  1.00  0.00     0.293 HD
ENDBRANCH   6  24
BRANCH   8  26
ATOM     26  O   UNL     1     -12.930 -23.384 180.993  1.00  0.00    -0.508 OA
ATOM     27  H   UNL     1     -13.531 -22.952 181.685  1.00  0.00     0.293 HD
ENDBRANCH   8  26
TORSDOF 6
ENDMDL
MODEL 2
REMARK VINA RESULT:    -5.157      2.112      6.395
REMARK INTER + INTRA:          -6.459
REMARK INTER:                  -6.142
REMARK INTRA:                  -0.317
REMARK UNBOUND:                -0.247
REMARK SMILES O=c1c(O)c(-c2ccc(O)c(O)c2)oc2cc(O)cc(O)c12
REMARK SMILES IDX 5 1 3 2 2 3 1 4 22 5 20 6 19 7 17 8 16 9 15 10 14 11 6 12
REMARK SMILES IDX 7 13 8 14 9 15 13 16 11 17 10 18 12 20 4 22 21 24 18 26
REMARK H PARENT 10 19 12 21 4 23 21 25 18 27
REMARK Flexibility Score: inf
ROOT
ATOM      1  C   UNL     1     -14.234 -23.631 176.123  1.00  0.00     0.180 A 
ATOM      2  C   UNL     1     -14.952 -23.377 174.941  1.00  0.00     0.208 A 
ATOM      3  C   UNL     1     -14.853 -22.111 174.342  1.00  0.00     0.238 A 
ATOM      4  O   UNL     1     -15.455 -21.908 173.256  1.00  0.00    -0.285 OA
ATOM      5  C   UNL     1     -14.052 -21.110 174.942  1.00  0.00     0.111 A 
ATOM      6  C   UNL     1     -13.912 -19.779 174.444  1.00  0.00     0.134 A 
ATOM      7  C   UNL     1     -12.991 -18.911 175.045  1.00  0.00     0.093 A 
ATOM      8  C   UNL     1     -12.254 -19.305 176.164  1.00  0.00     0.123 A 
ATOM      9  C   UNL     1     -12.428 -20.582 176.693  1.00  0.00     0.094 A 
ATOM     10  C   UNL     1     -13.312 -21.482 176.094  1.00  0.00     0.146 A 
ATOM     11  O   UNL     1     -13.441 -22.693 176.624  1.00  0.00    -0.452 OA
ENDROOT
BRANCH   1  12
ATOM     12  C   UNL     1     -14.307 -24.933 176.825  1.00  0.00     0.025 A 
ATOM     13  C   UNL     1     -13.480 -26.009 176.461  1.00  0.00     0.016 A 
ATOM     14  C   UNL     1     -13.583 -27.235 177.120  1.00  0.00     0.051 A 
ATOM     15  C   UNL     1     -14.522 -27.410 178.145  1.00  0.00     0.157 A 
ATOM     16  C   UNL     1     -15.262 -25.120 177.838  1.00  0.00     0.062 A 
ATOM     17  C   UNL     1     -15.368 -26.347 178.503  1.00  0.00     0.158 A 
BRANCH  15  18
ATOM     18  O   UNL     1     -14.623 -28.636 178.804  1.00  0.00    -0.504 OA
ATOM     19  H   UNL     1     -13.802 -29.183 179.031  1.00  0.00     0.293 HD
ENDBRANCH  15  18
BRANCH  17  20
ATOM     20  O   UNL     1     -16.319 -26.490 179.513  1.00  0.00    -0.504 OA
ATOM     21  H   UNL     1     -16.673 -25.697 180.034  1.00  0.00     0.293 HD
ENDBRANCH  17  20
ENDBRANCH   1  12
BRANCH   2  22
ATOM     22  O   UNL     1     -15.719 -24.388 174.354  1.00  0.00    -0.502 OA
ATOM     23  H   UNL     1     -16.034 -24.343 173.392  1.00  0.00     0.293 HD
ENDBRANCH   2  22
BRANCH   6  24
ATOM     24  O   UNL     1     -14.667 -19.256 173.390  1.00  0.00    -0.507 OA
ATOM     25  H   UNL     1     -14.285 -18.759 172.601  1.00  0.00     0.293 HD
ENDBRANCH   6  24
BRANCH   8  26
ATOM     26  O   UNL     1     -11.352 -18.429 176.764  1.00  0.00    -0.508 OA
ATOM     27  H   UNL     1     -10.371 -18.424 176.512  1.00  0.00     0.293 HD
ENDBRANCH   8  26
TORSDOF 6
ENDMDL
MODEL 3
REMARK VINA RESULT:    -5.143      2.336      7.059
REMARK INTER + INTRA:          -6.442
REMARK INTER:                  -6.127
REMARK INTRA:                  -0.315
REMARK UNBOUND:                -0.247
REMARK SMILES O=c1c(O)c(-c2ccc(O)c(O)c2)oc2cc(O)cc(O)c12
REMARK SMILES IDX 5 1 3 2 2 3 1 4 22 5 20 6 19 7 17 8 16 9 15 10 14 11 6 12
REMARK SMILES IDX 7 13 8 14 9 15 13 16 11 17 10 18 12 20 4 22 21 24 18 26
REMARK H PARENT 10 19 12 21 4 23 21 25 18 27
REMARK Flexibility Score: inf
ROOT
ATOM      1  C   UNL     1     -13.221 -23.192 177.622  1.00  0.00     0.180 A 
ATOM      2  C   UNL     1     -12.241 -22.523 178.375  1.00  0.00     0.208 A 
ATOM      3  C   UNL     1     -11.888 -21.211 178.023  1.00  0.00     0.238 A 
ATOM      4  O   UNL     1     -11.050 -20.599 178.734  1.00  0.00    -0.285 OA
ATOM      5  C   UNL     1     -12.506 -20.591 176.910  1.00  0.00     0.111 A 
ATOM      6  C   UNL     1     -12.196 -19.279 176.439  1.00  0.00     0.134 A 
ATOM      7  C   UNL     1     -12.962 -18.717 175.410  1.00  0.00     0.093 A 
ATOM      8  C   UNL     1     -13.985 -19.442 174.794  1.00  0.00     0.123 A 
ATOM      9  C   UNL     1     -14.255 -20.744 175.207  1.00  0.00     0.094 A 
ATOM     10  C   UNL     1     -13.532 -21.320 176.255  1.00  0.00     0.146 A 
ATOM     11  O   UNL     1     -13.829 -22.559 176.626  1.00  0.00    -0.452 OA
ENDROOT
BRANCH   1  12
ATOM     12  C   UNL     1     -13.629 -24.585 177.918  1.00  0.00     0.025 A 
ATOM     13  C   UNL     1     -12.865 -25.680 177.478  1.00  0.00     0.016 A 
ATOM     14  C   UNL     1     -13.282 -26.985 177.748  1.00  0.00     0.051 A 
ATOM     15  C   UNL     1     -14.472 -27.218 178.448  1.00  0.00     0.157 A 
ATOM     16  C   UNL     1     -14.832 -24.823 178.601  1.00  0.00     0.062 A 
ATOM     17  C   UNL     1     -15.253 -26.129 178.875  1.00  0.00     0.158 A 
BRANCH  15  18
ATOM     18  O   UNL     1     -14.885 -28.522 178.718  1.00  0.00    -0.504 OA
ATOM     19  H   UNL     1     -15.862 -28.751 178.858  1.00  0.00     0.293 HD
ENDBRANCH  15  18
BRANCH  17  20
ATOM     20  O   UNL     1     -16.447 -26.326 179.568  1.00  0.00    -0.504 OA
ATOM     21  H   UNL     1     -16.675 -27.210 180.005  1.00  0.00     0.293 HD
ENDBRANCH  17  20
ENDBRANCH   1  12
BRANCH   2  22
ATOM     22  O   UNL     1     -11.660 -23.147 179.483  1.00  0.00    -0.502 OA
ATOM     23  H   UNL     1     -11.573 -22.689 180.382  1.00  0.00     0.293 HD
ENDBRANCH   2  22
BRANCH   6  24
ATOM     24  O   UNL     1     -11.137 -18.506 176.922  1.00  0.00    -0.507 OA
ATOM     25  H   UNL     1     -10.640 -18.684 177.782  1.00  0.00     0.293 HD
ENDBRANCH   6  24
BRANCH   8  26
ATOM     26  O   UNL     1     -14.732 -18.880 173.761  1.00  0.00    -0.508 OA
ATOM     27  H   UNL     1     -14.290 -18.385 172.996  1.00  0.00     0.293 HD
ENDBRANCH   8  26
TORSDOF 6
ENDMDL
MODEL 4
REMARK VINA RESULT:    -5.137      1.245      2.965
REMARK INTER + INTRA:          -6.434
REMARK INTER:                  -6.143
REMARK INTRA:                  -0.292
REMARK UNBOUND:                -0.247
REMARK SMILES O=c1c(O)c(-c2ccc(O)c(O)c2)oc2cc(O)cc(O)c12
REMARK SMILES IDX 5 1 3 2 2 3 1 4 22 5 20 6 19 7 17 8 16 9 15 10 14 11 6 12
REMARK SMILES IDX 7 13 8 14 9 15 13 16 11 17 10 18 12 20 4 22 21 24 18 26
REMARK H PARENT 10 19 12 21 4 23 21 25 18 27
REMARK Flexibility Score: inf
ROOT
ATOM      1  C   UNL     1     -13.544 -22.305 176.023  1.00  0.00     0.180 A 
ATOM      2  C   UNL     1     -12.758 -21.745 177.045  1.00  0.00     0.208 A 
ATOM      3  C   UNL     1     -12.748 -22.356 178.309  1.00  0.00     0.238 A 
ATOM      4  O   UNL     1     -12.001 -21.881 179.204  1.00  0.00    -0.285 OA
ATOM      5  C   UNL     1     -13.537 -23.509 178.539  1.00  0.00     0.111 A 
ATOM      6  C   UNL     1     -13.634 -24.186 179.793  1.00  0.00     0.134 A 
ATOM      7  C   UNL     1     -14.342 -25.391 179.872  1.00  0.00     0.093 A 
ATOM      8  C   UNL     1     -15.009 -25.910 178.760  1.00  0.00     0.123 A 
ATOM      9  C   UNL     1     -14.969 -25.226 177.547  1.00  0.00     0.094 A 
ATOM     10  C   UNL     1     -14.241 -24.039 177.428  1.00  0.00     0.146 A 
ATOM     11  O   UNL     1     -14.220 -23.424 176.252  1.00  0.00    -0.452 OA
ENDROOT
BRANCH   1  12
ATOM     12  C   UNL     1     -13.624 -21.703 174.671  1.00  0.00     0.025 A 
ATOM     13  C   UNL     1     -12.855 -22.196 173.603  1.00  0.00     0.016 A 
ATOM     14  C   UNL     1     -12.929 -21.597 172.344  1.00  0.00     0.051 A 
ATOM     15  C   UNL     1     -13.761 -20.491 172.134  1.00  0.00     0.157 A 
ATOM     16  C   UNL     1     -14.442 -20.581 174.462  1.00  0.00     0.062 A 
ATOM     17  C   UNL     1     -14.520 -19.978 173.201  1.00  0.00     0.158 A 
BRANCH  15  18
ATOM     18  O   UNL     1     -13.835 -19.896 170.875  1.00  0.00    -0.504 OA
ATOM     19  H   UNL     1     -14.348 -19.036 170.725  1.00  0.00     0.293 HD
ENDBRANCH  15  18
BRANCH  17  20
ATOM     20  O   UNL     1     -15.353 -18.873 173.028  1.00  0.00    -0.504 OA
ATOM     21  H   UNL     1     -15.909 -18.745 172.192  1.00  0.00     0.293 HD
ENDBRANCH  17  20
ENDBRANCH   1  12
BRANCH   2  22
ATOM     22  O   UNL     1     -11.970 -20.619 176.789  1.00  0.00    -0.502 OA
ATOM     23  H   UNL     1     -12.214 -19.695 177.124  1.00  0.00     0.293 HD
ENDBRANCH   2  22
BRANCH   6  24
ATOM     24  O   UNL     1     -13.084 -23.705 180.984  1.00  0.00    -0.507 OA
ATOM     25  H   UNL     1     -13.272 -22.796 181.379  1.00  0.00     0.293 HD
ENDBRANCH   6  24
BRANCH   8  26
ATOM     26  O   UNL     1     -15.723 -27.103 178.852  1.00  0.00    -0.508 OA
ATOM     27  H   UNL     1     -16.078 -27.441 179.738  1.00  0.00     0.293 HD
ENDBRANCH   8  26
TORSDOF 6
ENDMDL
MODEL 5
REMARK VINA RESULT:    -5.090      3.159      7.142
REMARK INTER + INTRA:          -6.378
REMARK INTER:                  -6.122
REMARK INTRA:                  -0.256
REMARK UNBOUND:                -0.247
REMARK SMILES O=c1c(O)c(-c2ccc(O)c(O)c2)oc2cc(O)cc(O)c12
REMARK SMILES IDX 5 1 3 2 2 3 1 4 22 5 20 6 19 7 17 8 16 9 15 10 14 11 6 12
REMARK SMILES IDX 7 13 8 14 9 15 13 16 11 17 10 18 12 20 4 22 21 24 18 26
REMARK H PARENT 10 19 12 21 4 23 21 25 18 27
REMARK Flexibility Score: inf
ROOT
ATOM      1  C   UNL     1     -13.010 -22.071 177.833  1.00  0.00     0.180 A 
ATOM      2  C   UNL     1     -11.610 -22.007 177.935  1.00  0.00     0.208 A 
ATOM      3  C   UNL     1     -10.950 -20.836 177.528  1.00  0.00     0.238 A 
ATOM      4  O   UNL     1      -9.702 -20.765 177.673  1.00  0.00    -0.285 OA
ATOM      5  C   UNL     1     -11.697 -19.751 177.010  1.00  0.00     0.111 A 
ATOM      6  C   UNL     1     -11.128 -18.532 176.531  1.00  0.00     0.134 A 
ATOM      7  C   UNL     1     -11.971 -17.476 176.161  1.00  0.00     0.093 A 
ATOM      8  C   UNL     1     -13.360 -17.618 176.192  1.00  0.00     0.123 A 
ATOM      9  C   UNL     1     -13.924 -18.824 176.602  1.00  0.00     0.094 A 
ATOM     10  C   UNL     1     -13.109 -19.883 177.011  1.00  0.00     0.146 A 
ATOM     11  O   UNL     1     -13.687 -21.012 177.405  1.00  0.00    -0.452 OA
ENDROOT
BRANCH   1  12
ATOM     12  C   UNL     1     -13.774 -23.280 178.219  1.00  0.00     0.025 A 
ATOM     13  C   UNL     1     -13.971 -23.622 179.568  1.00  0.00     0.016 A 
ATOM     14  C   UNL     1     -14.674 -24.780 179.907  1.00  0.00     0.051 A 
ATOM     15  C   UNL     1     -15.179 -25.620 178.907  1.00  0.00     0.157 A 
ATOM     16  C   UNL     1     -14.264 -24.136 177.219  1.00  0.00     0.062 A 
ATOM     17  C   UNL     1     -14.969 -25.297 177.555  1.00  0.00     0.158 A 
BRANCH  15  18
ATOM     18  O   UNL     1     -15.881 -26.775 179.249  1.00  0.00    -0.504 OA
ATOM     19  H   UNL     1     -15.903 -27.120 180.200  1.00  0.00     0.293 HD
ENDBRANCH  15  18
BRANCH  17  20
ATOM     20  O   UNL     1     -15.452 -26.116 176.535  1.00  0.00    -0.504 OA
ATOM     21  H   UNL     1     -15.104 -26.054 175.586  1.00  0.00     0.293 HD
ENDBRANCH  17  20
ENDBRANCH   1  12
BRANCH   2  22
ATOM     22  O   UNL     1     -10.894 -23.081 178.471  1.00  0.00    -0.502 OA
ATOM     23  H   UNL     1     -11.080 -23.452 179.395  1.00  0.00     0.293 HD
ENDBRANCH   2  22
BRANCH   6  24
ATOM     24  O   UNL     1      -9.756 -18.320 176.372  1.00  0.00    -0.507 OA
ATOM     25  H   UNL     1      -9.173 -18.803 175.706  1.00  0.00     0.293 HD
ENDBRANCH   6  24
BRANCH   8  26
ATOM     26  O   UNL     1     -14.191 -16.567 175.808  1.00  0.00    -0.508 OA
ATOM     27  H   UNL     1     -14.683 -16.005 176.491  1.00  0.00     0.293 HD
ENDBRANCH   8  26
TORSDOF 6
ENDMDL
MODEL 6
REMARK VINA RESULT:    -5.060      2.345      4.090
REMARK INTER + INTRA:          -6.342
REMARK INTER:                  -6.035
REMARK INTRA:                  -0.307
REMARK UNBOUND:                -0.247
REMARK SMILES O=c1c(O)c(-c2ccc(O)c(O)c2)oc2cc(O)cc(O)c12
REMARK SMILES IDX 5 1 3 2 2 3 1 4 22 5 20 6 19 7 17 8 16 9 15 10 14 11 6 12
REMARK SMILES IDX 7 13 8 14 9 15 13 16 11 17 10 18 12 20 4 22 21 24 18 26
REMARK H PARENT 10 19 12 21 4 23 21 25 18 27
REMARK Flexibility Score: inf
ROOT
ATOM      1  C   UNL     1     -13.111 -21.944 177.843  1.00  0.00     0.180 A 
ATOM      2  C   UNL     1     -12.080 -21.964 178.798  1.00  0.00     0.208 A 
ATOM      3  C   UNL     1     -12.001 -23.043 179.693  1.00  0.00     0.238 A 
ATOM      4  O   UNL     1     -11.045 -23.082 180.510  1.00  0.00    -0.285 OA
ATOM      5  C   UNL     1     -12.964 -24.079 179.633  1.00  0.00     0.111 A 
ATOM      6  C   UNL     1     -13.005 -25.200 180.516  1.00  0.00     0.134 A 
ATOM      7  C   UNL     1     -13.923 -26.230 180.282  1.00  0.00     0.093 A 
ATOM      8  C   UNL     1     -14.844 -26.150 179.235  1.00  0.00     0.123 A 
ATOM      9  C   UNL     1     -14.852 -25.033 178.404  1.00  0.00     0.094 A 
ATOM     10  C   UNL     1     -13.924 -24.005 178.590  1.00  0.00     0.146 A 
ATOM     11  O   UNL     1     -13.958 -22.963 177.769  1.00  0.00    -0.452 OA
ENDROOT
BRANCH   1  12
ATOM     12  C   UNL     1     -13.273 -20.828 176.882  1.00  0.00     0.025 A 
ATOM     13  C   UNL     1     -13.869 -19.614 177.264  1.00  0.00     0.016 A 
ATOM     14  C   UNL     1     -14.033 -18.585 176.334  1.00  0.00     0.051 A 
ATOM     15  C   UNL     1     -13.618 -18.757 175.008  1.00  0.00     0.157 A 
ATOM     16  C   UNL     1     -12.877 -21.004 175.546  1.00  0.00     0.062 A 
ATOM     17  C   UNL     1     -13.039 -19.974 174.611  1.00  0.00     0.158 A 
BRANCH  15  18
ATOM     18  O   UNL     1     -13.782 -17.727 174.082  1.00  0.00    -0.504 OA
ATOM     19  H   UNL     1     -13.874 -16.761 174.373  1.00  0.00     0.293 HD
ENDBRANCH  15  18
BRANCH  17  20
ATOM     20  O   UNL     1     -12.622 -20.181 173.297  1.00  0.00    -0.504 OA
ATOM     21  H   UNL     1     -12.271 -19.426 172.720  1.00  0.00     0.293 HD
ENDBRANCH  17  20
ENDBRANCH   1  12
BRANCH   2  22
ATOM     22  O   UNL     1     -11.127 -20.942 178.826  1.00  0.00    -0.502 OA
ATOM     23  H   UNL     1     -11.128 -20.214 179.530  1.00  0.00     0.293 HD
ENDBRANCH   2  22
BRANCH   6  24
ATOM     24  O   UNL     1     -12.191 -25.333 181.645  1.00  0.00    -0.507 OA
ATOM     25  H   UNL     1     -12.245 -24.747 182.465  1.00  0.00     0.293 HD
ENDBRANCH   6  24
BRANCH   8  26
ATOM     26  O   UNL     1     -15.765 -27.174 179.019  1.00  0.00    -0.508 OA
ATOM     27  H   UNL     1     -15.485 -28.147 179.018  1.00  0.00     0.293 HD
ENDBRANCH   8  26
TORSDOF 6
ENDMDL
MODEL 7
REMARK VINA RESULT:    -5.000      2.264      6.845
REMARK INTER + INTRA:          -6.269
REMARK INTER:                  -5.950
REMARK INTRA:                  -0.319
REMARK UNBOUND:                -0.247
REMARK SMILES O=c1c(O)c(-c2ccc(O)c(O)c2)oc2cc(O)cc(O)c12
REMARK SMILES IDX 5 1 3 2 2 3 1 4 22 5 20 6 19 7 17 8 16 9 15 10 14 11 6 12
REMARK SMILES IDX 7 13 8 14 9 15 13 16 11 17 10 18 12 20 4 22 21 24 18 26
REMARK H PARENT 10 19 12 21 4 23 21 25 18 27
REMARK Flexibility Score: inf
ROOT
ATOM      1  C   UNL     1     -13.427 -23.294 177.274  1.00  0.00     0.180 A 
ATOM      2  C   UNL     1     -12.927 -23.678 176.017  1.00  0.00     0.208 A 
ATOM      3  C   UNL     1     -12.733 -22.697 175.032  1.00  0.00     0.238 A 
ATOM      4  O   UNL     1     -12.234 -23.039 173.929  1.00  0.00    -0.285 OA
ATOM      5  C   UNL     1     -13.056 -21.347 175.310  1.00  0.00     0.111 A 
ATOM      6  C   UNL     1     -12.937 -20.276 174.372  1.00  0.00     0.134 A 
ATOM      7  C   UNL     1     -13.162 -18.961 174.796  1.00  0.00     0.093 A 
ATOM      8  C   UNL     1     -13.563 -18.684 176.105  1.00  0.00     0.123 A 
ATOM      9  C   UNL     1     -13.740 -19.727 177.010  1.00  0.00     0.094 A 
ATOM     10  C   UNL     1     -13.488 -21.047 176.627  1.00  0.00     0.146 A 
ATOM     11  O   UNL     1     -13.658 -22.011 177.524  1.00  0.00    -0.452 OA
ENDROOT
BRANCH   1  12
ATOM     12  C   UNL     1     -13.682 -24.274 178.354  1.00  0.00     0.025 A 
ATOM     13  C   UNL     1     -12.663 -24.671 179.238  1.00  0.00     0.016 A 
ATOM     14  C   UNL     1     -12.920 -25.615 180.234  1.00  0.00     0.051 A 
ATOM     15  C   UNL     1     -14.193 -26.187 180.355  1.00  0.00     0.157 A 
ATOM     16  C   UNL     1     -14.950 -24.866 178.466  1.00  0.00     0.062 A 
ATOM     17  C   UNL     1     -15.212 -25.813 179.463  1.00  0.00     0.158 A 
BRANCH  15  18
ATOM     18  O   UNL     1     -14.447 -27.129 181.352  1.00  0.00    -0.504 OA
ATOM     19  H   UNL     1     -14.211 -26.953 182.320  1.00  0.00     0.293 HD
ENDBRANCH  15  18
BRANCH  17  20
ATOM     20  O   UNL     1     -16.488 -26.368 179.552  1.00  0.00    -0.504 OA
ATOM     21  H   UNL     1     -16.647 -27.291 179.939  1.00  0.00     0.293 HD
ENDBRANCH  17  20
ENDBRANCH   1  12
BRANCH   2  22
ATOM     22  O   UNL     1     -12.593 -25.013 175.772  1.00  0.00    -0.502 OA
ATOM     23  H   UNL     1     -12.175 -25.319 174.902  1.00  0.00     0.293 HD
ENDBRANCH   2  22
BRANCH   6  24
ATOM     24  O   UNL     1     -12.632 -20.454 173.020  1.00  0.00    -0.507 OA
ATOM     25  H   UNL     1     -12.588 -19.711 172.338  1.00  0.00     0.293 HD
ENDBRANCH   6  24
BRANCH   8  26
ATOM     26  O   UNL     1     -13.799 -17.372 176.513  1.00  0.00    -0.508 OA
ATOM     27  H   UNL     1     -14.720 -16.955 176.450  1.00  0.00     0.293 HD
ENDBRANCH   8  26
TORSDOF 6
ENDMDL
MODEL 8
REMARK VINA RESULT:    -4.977      2.660      4.297
REMARK INTER + INTRA:          -6.242
REMARK INTER:                  -6.030
REMARK INTRA:                  -0.212
REMARK UNBOUND:                -0.247
REMARK SMILES O=c1c(O)c(-c2ccc(O)c(O)c2)oc2cc(O)cc(O)c12
REMARK SMILES IDX 5 1 3 2 2 3 1 4 22 5 20 6 19 7 17 8 16 9 15 10 14 11 6 12
REMARK SMILES IDX 7 13 8 14 9 15 13 16 11 17 10 18 12 20 4 22 21 24 18 26
REMARK H PARENT 10 19 12 21 4 23 21 25 18 27
REMARK Flexibility Score: inf
ROOT
ATOM      1  C   UNL     1     -13.500 -21.802 176.798  1.00  0.00     0.180 A 
ATOM      2  C   UNL     1     -13.445 -22.418 178.060  1.00  0.00     0.208 A 
ATOM      3  C   UNL     1     -13.908 -23.737 178.195  1.00  0.00     0.238 A 
ATOM      4  O   UNL     1     -13.806 -24.302 179.315  1.00  0.00    -0.285 OA
ATOM      5  C   UNL     1     -14.435 -24.416 177.070  1.00  0.00     0.111 A 
ATOM      6  C   UNL     1     -14.968 -25.740 177.100  1.00  0.00     0.134 A 
ATOM      7  C   UNL     1     -15.342 -26.361 175.902  1.00  0.00     0.093 A 
ATOM      8  C   UNL     1     -15.262 -25.682 174.683  1.00  0.00     0.123 A 
ATOM      9  C   UNL     1     -14.798 -24.369 174.651  1.00  0.00     0.094 A 
ATOM     10  C   UNL     1     -14.383 -23.736 175.826  1.00  0.00     0.146 A 
ATOM     11  O   UNL     1     -13.938 -22.488 175.750  1.00  0.00    -0.452 OA
ENDROOT
BRANCH   1  12
ATOM     12  C   UNL     1     -13.053 -20.405 176.583  1.00  0.00     0.025 A 
ATOM     13  C   UNL     1     -11.695 -20.052 176.656  1.00  0.00     0.016 A 
ATOM     14  C   UNL     1     -11.300 -18.725 176.474  1.00  0.00     0.051 A 
ATOM     15  C   UNL     1     -12.255 -17.730 176.230  1.00  0.00     0.157 A 
ATOM     16  C   UNL     1     -14.009 -19.401 176.359  1.00  0.00     0.062 A 
ATOM     17  C   UNL     1     -13.617 -18.070 176.175  1.00  0.00     0.158 A 
BRANCH  15  18
ATOM     18  O   UNL     1     -11.857 -16.405 176.047  1.00  0.00    -0.504 OA
ATOM     19  H   UNL     1     -11.546 -15.833 176.822  1.00  0.00     0.293 HD
ENDBRANCH  15  18
BRANCH  17  20
ATOM     20  O   UNL     1     -14.593 -17.102 175.941  1.00  0.00    -0.504 OA
ATOM     21  H   UNL     1     -15.155 -16.714 176.689  1.00  0.00     0.293 HD
ENDBRANCH  17  20
ENDBRANCH   1  12
BRANCH   2  22
ATOM     22  O   UNL     1     -12.901 -21.737 179.153  1.00  0.00    -0.502 OA
ATOM     23  H   UNL     1     -12.290 -20.936 179.045  1.00  0.00     0.293 HD
ENDBRANCH   2  22
BRANCH   6  24
ATOM     24  O   UNL     1     -15.177 -26.471 178.273  1.00  0.00    -0.507 OA
ATOM     25  H   UNL     1     -14.499 -26.579 179.012  1.00  0.00     0.293 HD
ENDBRANCH   6  24
BRANCH   8  26
ATOM     26  O   UNL     1     -15.650 -26.303 173.498  1.00  0.00    -0.508 OA
ATOM     27  H   UNL     1     -15.126 -26.182 172.640  1.00  0.00     0.293 HD
ENDBRANCH   8  26
TORSDOF 6
ENDMDL
MODEL 9
REMARK VINA RESULT:    -4.951      2.159      7.306
REMARK INTER + INTRA:          -6.211
REMARK INTER:                  -5.924
REMARK INTRA:                  -0.287
REMARK UNBOUND:                -0.247
REMARK SMILES O=c1c(O)c(-c2ccc(O)c(O)c2)oc2cc(O)cc(O)c12
REMARK SMILES IDX 5 1 3 2 2 3 1 4 22 5 20 6 19 7 17 8 16 9 15 10 14 11 6 12
REMARK SMILES IDX 7 13 8 14 9 15 13 16 11 17 10 18 12 20 4 22 21 24 18 26
REMARK H PARENT 10 19 12 21 4 23 21 25 18 27
REMARK Flexibility Score: inf
ROOT
ATOM      1  C   UNL     1     -13.409 -23.265 177.469  1.00  0.00     0.180 A 
ATOM      2  C   UNL     1     -13.225 -21.910 177.796  1.00  0.00     0.208 A 
ATOM      3  C   UNL     1     -12.946 -20.993 176.770  1.00  0.00     0.238 A 
ATOM      4  O   UNL     1     -12.835 -19.775 177.063  1.00  0.00    -0.285 OA
ATOM      5  C   UNL     1     -12.838 -21.445 175.433  1.00  0.00     0.111 A 
ATOM      6  C   UNL     1     -12.519 -20.610 174.319  1.00  0.00     0.134 A 
ATOM      7  C   UNL     1     -12.567 -21.140 173.024  1.00  0.00     0.093 A 
ATOM      8  C   UNL     1     -12.860 -22.488 172.807  1.00  0.00     0.123 A 
ATOM      9  C   UNL     1     -13.114 -23.325 173.892  1.00  0.00     0.094 A 
ATOM     10  C   UNL     1     -13.109 -22.817 175.194  1.00  0.00     0.146 A 
ATOM     11  O   UNL     1     -13.367 -23.646 176.198  1.00  0.00    -0.452 OA
ENDROOT
BRANCH   1  12
ATOM     12  C   UNL     1     -13.682 -24.294 178.499  1.00  0.00     0.025 A 
ATOM     13  C   UNL     1     -12.663 -24.784 179.333  1.00  0.00     0.016 A 
ATOM     14  C   UNL     1     -12.938 -25.772 180.280  1.00  0.00     0.051 A 
ATOM     15  C   UNL     1     -14.232 -26.296 180.401  1.00  0.00     0.157 A 
ATOM     16  C   UNL     1     -14.973 -24.837 178.608  1.00  0.00     0.062 A 
ATOM     17  C   UNL     1     -15.254 -25.827 179.557  1.00  0.00     0.158 A 
BRANCH  15  18
ATOM     18  O   UNL     1     -14.505 -27.281 181.349  1.00  0.00    -0.504 OA
ATOM     19  H   UNL     1     -15.017 -27.073 182.197  1.00  0.00     0.293 HD
ENDBRANCH  15  18
BRANCH  17  20
ATOM     20  O   UNL     1     -16.551 -26.332 179.646  1.00  0.00    -0.504 OA
ATOM     21  H   UNL     1     -16.738 -27.326 179.704  1.00  0.00     0.293 HD
ENDBRANCH  17  20
ENDBRANCH   1  12
BRANCH   2  22
ATOM     22  O   UNL     1     -13.358 -21.483 179.120  1.00  0.00    -0.502 OA
ATOM     23  H   UNL     1     -12.575 -21.444 179.762  1.00  0.00     0.293 HD
ENDBRANCH   2  22
BRANCH   6  24
ATOM     24  O   UNL     1     -12.123 -19.275 174.434  1.00  0.00    -0.507 OA
ATOM     25  H   UNL     1     -12.738 -18.482 174.330  1.00  0.00     0.293 HD
ENDBRANCH   6  24
BRANCH   8  26
ATOM     26  O   UNL     1     -12.891 -23.010 171.516  1.00  0.00    -0.508 OA
ATOM     27  H   UNL     1     -13.422 -23.843 171.293  1.00  0.00     0.293 HD
ENDBRANCH   8  26
TORSDOF 6
ENDMDL
