MODEL 1
REMARK VINA RESULT:    -5.095      0.000      0.000
REMARK INTER + INTRA:         -14.063
REMARK INTER:                 -11.647
REMARK INTRA:                  -2.416
REMARK UNBOUND:                -2.416
REMARK SMILES CCCCCCCCCCCCCCCCCCCCCCCC(=O)[O-]
REMARK SMILES IDX 13 1 14 2 15 3 16 4 17 5 18 6 19 7 20 8 21 9 22 10 23 11
REMARK SMILES IDX 24 12 25 13 26 14 12 15 11 16 10 17 9 18 8 19 7 20 6 21 5 22
REMARK SMILES IDX 4 23 3 24 2 25 1 26
REMARK H PARENT
REMARK Flexibility Score: inf
ROOT
ATOM      1  C   UNL     1      12.539 -23.427  21.033  1.00  0.00     0.000 C 
ENDROOT
BRANCH   1   2
ATOM      2  C   UNL     1      12.024 -24.853  20.749  1.00  0.00     0.000 C 
BRANCH   2   3
ATOM      3  C   UNL     1      10.713 -25.227  21.464  1.00  0.00     0.000 C 
BRANCH   3   4
ATOM      4  C   UNL     1      10.373 -24.280  22.624  1.00  0.00     0.000 C 
BRANCH   4   5
ATOM      5  C   UNL     1       9.227 -24.841  23.476  1.00  0.00     0.000 C 
BRANCH   5   6
ATOM      6  C   UNL     1       9.374 -24.497  24.969  1.00  0.00     0.000 C 
BRANCH   6   7
ATOM      7  C   UNL     1       9.783 -23.039  25.259  1.00  0.00     0.000 C 
BRANCH   7   8
ATOM      8  C   UNL     1      10.546 -22.823  26.583  1.00  0.00     0.000 C 
BRANCH   8   9
ATOM      9  C   UNL     1      11.914 -23.524  26.664  1.00  0.00     0.000 C 
BRANCH   9  10
ATOM     10  C   UNL     1      12.596 -23.659  25.291  1.00  0.00     0.006 C 
BRANCH  10  11
ATOM     11  C   UNL     1      13.797 -22.715  25.145  1.00  0.00     0.053 C 
BRANCH  11  12
ATOM     12  C   UNL     1      13.533 -21.625  24.148  1.00  0.00     0.041 C 
ATOM     13  O   UNL     1      14.464 -20.856  23.791  1.00  0.00    -0.550 OA
ATOM     14  O   UNL     1      12.258 -21.452  23.627  1.00  0.00    -0.550 OA
ENDBRANCH  11  12
ENDBRANCH  10  11
ENDBRANCH   9  10
ENDBRANCH   8   9
ENDBRANCH   7   8
ENDBRANCH   6   7
ENDBRANCH   5   6
ENDBRANCH   4   5
ENDBRANCH   3   4
ENDBRANCH   2   3
ENDBRANCH   1   2
BRANCH   1  15
ATOM     15  C   UNL     1      13.691 -22.951  20.126  1.00  0.00     0.000 C 
BRANCH  15  16
ATOM     16  C   UNL     1      15.037 -23.662  20.357  1.00  0.00     0.000 C 
BRANCH  16  17
ATOM     17  C   UNL     1      15.429 -23.722  21.843  1.00  0.00     0.000 C 
BRANCH  17  18
ATOM     18  C   UNL     1      15.918 -25.114  22.272  1.00  0.00    -0.000 C 
BRANCH  18  19
ATOM     19  C   UNL     1      15.443 -26.229  21.323  1.00  0.00    -0.000 C 
BRANCH  19  20
ATOM     20  C   UNL     1      15.523 -27.623  21.966  1.00  0.00    -0.000 C 
BRANCH  20  21
ATOM     21  C   UNL     1      16.565 -27.696  23.096  1.00  0.00    -0.000 C 
BRANCH  21  22
ATOM     22  C   UNL     1      15.994 -28.281  24.400  1.00  0.00    -0.000 C 
BRANCH  22  23
ATOM     23  C   UNL     1      15.524 -29.744  24.308  1.00  0.00    -0.000 C 
BRANCH  23  24
ATOM     24  C   UNL     1      16.569 -30.670  23.661  1.00  0.00    -0.000 C 
BRANCH  24  25
ATOM     25  C   UNL     1      15.978 -31.529  22.533  1.00  0.00    -0.003 C 
ATOM     26  C   UNL     1      17.047 -32.226  21.694  1.00  0.00     0.004 C 
ENDBRANCH  24  25
ENDBRANCH  23  24
ENDBRANCH  22  23
ENDBRANCH  21  22
ENDBRANCH  20  21
ENDBRANCH  19  20
ENDBRANCH  18  19
ENDBRANCH  17  18
ENDBRANCH  16  17
ENDBRANCH  15  16
ENDBRANCH   1  15
TORSDOF 22
ENDMDL
MODEL 2
REMARK VINA RESULT:    -5.018      4.285      7.295
REMARK INTER + INTRA:         -13.888
REMARK INTER:                 -11.253
REMARK INTRA:                  -2.635
REMARK UNBOUND:                -2.416
REMARK SMILES CCCCCCCCCCCCCCCCCCCCCCCC(=O)[O-]
REMARK SMILES IDX 13 1 14 2 15 3 16 4 17 5 18 6 19 7 20 8 21 9 22 10 23 11
REMARK SMILES IDX 24 12 25 13 26 14 12 15 11 16 10 17 9 18 8 19 7 20 6 21 5 22
REMARK SMILES IDX 4 23 3 24 2 25 1 26
REMARK H PARENT
REMARK Flexibility Score: inf
ROOT
ATOM      1  C   UNL     1      11.191 -24.378  26.278  1.00  0.00     0.000 C 
ENDROOT
BRANCH   1   2
ATOM      2  C   UNL     1      11.310 -22.996  26.952  1.00  0.00     0.000 C 
BRANCH   2   3
ATOM      3  C   UNL     1      10.110 -22.057  26.731  1.00  0.00     0.000 C 
BRANCH   3   4
ATOM      4  C   UNL     1      10.512 -20.577  26.663  1.00  0.00     0.000 C 
BRANCH   4   5
ATOM      5  C   UNL     1       9.855 -19.774  27.793  1.00  0.00     0.000 C 
BRANCH   5   6
ATOM      6  C   UNL     1      10.878 -19.217  28.799  1.00  0.00     0.000 C 
BRANCH   6   7
ATOM      7  C   UNL     1      10.263 -18.491  30.012  1.00  0.00     0.000 C 
BRANCH   7   8
ATOM      8  C   UNL     1      10.822 -17.080  30.284  1.00  0.00     0.000 C 
BRANCH   8   9
ATOM      9  C   UNL     1      11.922 -16.619  29.311  1.00  0.00     0.000 C 
BRANCH   9  10
ATOM     10  C   UNL     1      11.362 -15.867  28.092  1.00  0.00     0.006 C 
BRANCH  10  11
ATOM     11  C   UNL     1      10.119 -15.038  28.443  1.00  0.00     0.053 C 
BRANCH  11  12
ATOM     12  C   UNL     1       8.990 -15.291  27.489  1.00  0.00     0.041 C 
ATOM     13  O   UNL     1       8.756 -16.460  27.082  1.00  0.00    -0.550 OA
ATOM     14  O   UNL     1       8.206 -14.236  27.040  1.00  0.00    -0.550 OA
ENDBRANCH  11  12
ENDBRANCH  10  11
ENDBRANCH   9  10
ENDBRANCH   8   9
ENDBRANCH   7   8
ENDBRANCH   6   7
ENDBRANCH   5   6
ENDBRANCH   4   5
ENDBRANCH   3   4
ENDBRANCH   2   3
ENDBRANCH   1   2
BRANCH   1  15
ATOM     15  C   UNL     1       9.749 -24.863  26.024  1.00  0.00     0.000 C 
BRANCH  15  16
ATOM     16  C   UNL     1       9.398 -25.113  24.545  1.00  0.00     0.000 C 
BRANCH  16  17
ATOM     17  C   UNL     1       9.579 -23.859  23.672  1.00  0.00     0.000 C 
BRANCH  17  18
ATOM     18  C   UNL     1      10.859 -23.906  22.823  1.00  0.00    -0.000 C 
BRANCH  18  19
ATOM     19  C   UNL     1      10.749 -24.881  21.636  1.00  0.00    -0.000 C 
BRANCH  19  20
ATOM     20  C   UNL     1      11.982 -24.833  20.720  1.00  0.00    -0.000 C 
BRANCH  20  21
ATOM     21  C   UNL     1      12.405 -23.396  20.367  1.00  0.00    -0.000 C 
BRANCH  21  22
ATOM     22  C   UNL     1      13.921 -23.169  20.497  1.00  0.00    -0.000 C 
BRANCH  22  23
ATOM     23  C   UNL     1      14.364 -22.448  21.784  1.00  0.00    -0.000 C 
BRANCH  23  24
ATOM     24  C   UNL     1      14.572 -23.409  22.968  1.00  0.00    -0.000 C 
BRANCH  24  25
ATOM     25  C   UNL     1      14.061 -22.828  24.295  1.00  0.00    -0.003 C 
ATOM     26  C   UNL     1      13.281 -21.526  24.112  1.00  0.00     0.004 C 
ENDBRANCH  24  25
ENDBRANCH  23  24
ENDBRANCH  22  23
ENDBRANCH  21  22
ENDBRANCH  20  21
ENDBRANCH  19  20
ENDBRANCH  18  19
ENDBRANCH  17  18
ENDBRANCH  16  17
ENDBRANCH  15  16
ENDBRANCH   1  15
TORSDOF 22
ENDMDL
MODEL 3
REMARK VINA RESULT:    -5.004      3.032      7.201
REMARK INTER + INTRA:         -13.856
REMARK INTER:                 -10.626
REMARK INTRA:                  -3.230
REMARK UNBOUND:                -2.416
REMARK SMILES CCCCCCCCCCCCCCCCCCCCCCCC(=O)[O-]
REMARK SMILES IDX 13 1 14 2 15 3 16 4 17 5 18 6 19 7 20 8 21 9 22 10 23 11
REMARK SMILES IDX 24 12 25 13 26 14 12 15 11 16 10 17 9 18 8 19 7 20 6 21 5 22
REMARK SMILES IDX 4 23 3 24 2 25 1 26
REMARK H PARENT
REMARK Flexibility Score: inf
ROOT
ATOM      1  C   UNL     1      10.530 -25.477  21.856  1.00  0.00     0.000 C 
ENDROOT
BRANCH   1   2
ATOM      2  C   UNL     1      11.524 -24.836  20.866  1.00  0.00     0.000 C 
BRANCH   2   3
ATOM      3  C   UNL     1      11.952 -23.398  21.212  1.00  0.00     0.000 C 
BRANCH   3   4
ATOM      4  C   UNL     1      12.879 -22.780  20.156  1.00  0.00     0.000 C 
BRANCH   4   5
ATOM      5  C   UNL     1      14.354 -22.978  20.532  1.00  0.00     0.000 C 
BRANCH   5   6
ATOM      6  C   UNL     1      15.077 -23.965  19.598  1.00  0.00     0.000 C 
BRANCH   6   7
ATOM      7  C   UNL     1      15.005 -25.441  20.037  1.00  0.00     0.000 C 
BRANCH   7   8
ATOM      8  C   UNL     1      15.052 -25.674  21.561  1.00  0.00     0.000 C 
BRANCH   8   9
ATOM      9  C   UNL     1      16.279 -26.458  22.060  1.00  0.00     0.000 C 
BRANCH   9  10
ATOM     10  C   UNL     1      15.917 -27.859  22.585  1.00  0.00     0.006 C 
BRANCH  10  11
ATOM     11  C   UNL     1      16.711 -28.229  23.845  1.00  0.00     0.053 C 
BRANCH  11  12
ATOM     12  C   UNL     1      17.047 -29.690  23.885  1.00  0.00     0.041 C 
ATOM     13  O   UNL     1      18.050 -30.091  24.532  1.00  0.00    -0.550 OA
ATOM     14  O   UNL     1      16.260 -30.605  23.197  1.00  0.00    -0.550 OA
ENDBRANCH  11  12
ENDBRANCH  10  11
ENDBRANCH   9  10
ENDBRANCH   8   9
ENDBRANCH   7   8
ENDBRANCH   6   7
ENDBRANCH   5   6
ENDBRANCH   4   5
ENDBRANCH   3   4
ENDBRANCH   2   3
ENDBRANCH   1   2
BRANCH   1  15
ATOM     15  C   UNL     1       9.130 -24.832  21.893  1.00  0.00     0.000 C 
BRANCH  15  16
ATOM     16  C   UNL     1       8.759 -24.157  23.226  1.00  0.00     0.000 C 
BRANCH  16  17
ATOM     17  C   UNL     1       9.145 -25.006  24.449  1.00  0.00     0.000 C 
BRANCH  17  18
ATOM     18  C   UNL     1       9.618 -24.155  25.638  1.00  0.00    -0.000 C 
BRANCH  18  19
ATOM     19  C   UNL     1       9.750 -22.663  25.284  1.00  0.00    -0.000 C 
BRANCH  19  20
ATOM     20  C   UNL     1      11.205 -22.250  25.010  1.00  0.00    -0.000 C 
BRANCH  20  21
ATOM     21  C   UNL     1      12.184 -23.435  25.092  1.00  0.00    -0.000 C 
BRANCH  21  22
ATOM     22  C   UNL     1      13.576 -23.102  24.527  1.00  0.00    -0.000 C 
BRANCH  22  23
ATOM     23  C   UNL     1      13.711 -21.698  23.910  1.00  0.00    -0.000 C 
BRANCH  23  24
ATOM     24  C   UNL     1      15.170 -21.216  23.829  1.00  0.00    -0.000 C 
BRANCH  24  25
ATOM     25  C   UNL     1      16.162 -22.248  24.386  1.00  0.00    -0.003 C 
ATOM     26  C   UNL     1      16.932 -22.984  23.291  1.00  0.00     0.004 C 
ENDBRANCH  24  25
ENDBRANCH  23  24
ENDBRANCH  22  23
ENDBRANCH  21  22
ENDBRANCH  20  21
ENDBRANCH  19  20
ENDBRANCH  18  19
ENDBRANCH  17  18
ENDBRANCH  16  17
ENDBRANCH  15  16
ENDBRANCH   1  15
TORSDOF 22
ENDMDL
MODEL 4
REMARK VINA RESULT:    -4.955      4.119      6.767
REMARK INTER + INTRA:         -13.743
REMARK INTER:                 -11.505
REMARK INTRA:                  -2.239
REMARK UNBOUND:                -2.416
REMARK SMILES CCCCCCCCCCCCCCCCCCCCCCCC(=O)[O-]
REMARK SMILES IDX 13 1 14 2 15 3 16 4 17 5 18 6 19 7 20 8 21 9 22 10 23 11
REMARK SMILES IDX 24 12 25 13 26 14 12 15 11 16 10 17 9 18 8 19 7 20 6 21 5 22
REMARK SMILES IDX 4 23 3 24 2 25 1 26
REMARK H PARENT
REMARK Flexibility Score: inf
ROOT
ATOM      1  C   UNL     1      12.070 -22.665  24.168  1.00  0.00     0.000 C 
ENDROOT
BRANCH   1   2
ATOM      2  C   UNL     1      12.184 -23.556  25.422  1.00  0.00     0.000 C 
BRANCH   2   3
ATOM      3  C   UNL     1      11.076 -23.348  26.471  1.00  0.00     0.000 C 
BRANCH   3   4
ATOM      4  C   UNL     1      10.271 -22.061  26.244  1.00  0.00     0.000 C 
BRANCH   4   5
ATOM      5  C   UNL     1      10.593 -21.012  27.317  1.00  0.00     0.000 C 
BRANCH   5   6
ATOM      6  C   UNL     1       9.592 -19.843  27.325  1.00  0.00     0.000 C 
BRANCH   6   7
ATOM      7  C   UNL     1       9.647 -18.954  28.584  1.00  0.00     0.000 C 
BRANCH   7   8
ATOM      8  C   UNL     1      11.057 -18.730  29.167  1.00  0.00     0.000 C 
BRANCH   8   9
ATOM      9  C   UNL     1      11.279 -17.353  29.818  1.00  0.00     0.000 C 
BRANCH   9  10
ATOM     10  C   UNL     1      11.454 -16.227  28.784  1.00  0.00     0.006 C 
BRANCH  10  11
ATOM     11  C   UNL     1      10.470 -15.072  29.014  1.00  0.00     0.053 C 
BRANCH  11  12
ATOM     12  C   UNL     1       9.526 -14.904  27.860  1.00  0.00     0.041 C 
ATOM     13  O   UNL     1       8.905 -13.820  27.703  1.00  0.00    -0.550 OA
ATOM     14  O   UNL     1       9.324 -15.949  26.967  1.00  0.00    -0.550 OA
ENDBRANCH  11  12
ENDBRANCH  10  11
ENDBRANCH   9  10
ENDBRANCH   8   9
ENDBRANCH   7   8
ENDBRANCH   6   7
ENDBRANCH   5   6
ENDBRANCH   4   5
ENDBRANCH   3   4
ENDBRANCH   2   3
ENDBRANCH   1   2
BRANCH   1  15
ATOM     15  C   UNL     1      13.208 -21.641  23.984  1.00  0.00     0.000 C 
BRANCH  15  16
ATOM     16  C   UNL     1      14.630 -22.229  24.050  1.00  0.00     0.000 C 
BRANCH  16  17
ATOM     17  C   UNL     1      14.898 -23.259  22.939  1.00  0.00     0.000 C 
BRANCH  17  18
ATOM     18  C   UNL     1      14.973 -22.619  21.543  1.00  0.00    -0.000 C 
BRANCH  18  19
ATOM     19  C   UNL     1      14.060 -23.318  20.520  1.00  0.00    -0.000 C 
BRANCH  19  20
ATOM     20  C   UNL     1      13.801 -24.792  20.873  1.00  0.00    -0.000 C 
BRANCH  20  21
ATOM     21  C   UNL     1      12.421 -25.282  20.399  1.00  0.00    -0.000 C 
BRANCH  21  22
ATOM     22  C   UNL     1      11.257 -24.518  21.054  1.00  0.00    -0.000 C 
BRANCH  22  23
ATOM     23  C   UNL     1      10.324 -25.375  21.929  1.00  0.00    -0.000 C 
BRANCH  23  24
ATOM     24  C   UNL     1       9.316 -24.535  22.732  1.00  0.00    -0.000 C 
BRANCH  24  25
ATOM     25  C   UNL     1       7.883 -24.662  22.193  1.00  0.00    -0.003 C 
ATOM     26  C   UNL     1       6.976 -23.517  22.641  1.00  0.00     0.004 C 
ENDBRANCH  24  25
ENDBRANCH  23  24
ENDBRANCH  22  23
ENDBRANCH  21  22
ENDBRANCH  20  21
ENDBRANCH  19  20
ENDBRANCH  18  19
ENDBRANCH  17  18
ENDBRANCH  16  17
ENDBRANCH  15  16
ENDBRANCH   1  15
TORSDOF 22
ENDMDL
MODEL 5
REMARK VINA RESULT:    -4.948      3.688      7.829
REMARK INTER + INTRA:         -13.728
REMARK INTER:                 -11.273
REMARK INTRA:                  -2.454
REMARK UNBOUND:                -2.416
REMARK SMILES CCCCCCCCCCCCCCCCCCCCCCCC(=O)[O-]
REMARK SMILES IDX 13 1 14 2 15 3 16 4 17 5 18 6 19 7 20 8 21 9 22 10 23 11
REMARK SMILES IDX 24 12 25 13 26 14 12 15 11 16 10 17 9 18 8 19 7 20 6 21 5 22
REMARK SMILES IDX 4 23 3 24 2 25 1 26
REMARK H PARENT
REMARK Flexibility Score: inf
ROOT
ATOM      1  C   UNL     1      14.359 -23.322  20.508  1.00  0.00     0.000 C 
ENDROOT
BRANCH   1   2
ATOM      2  C   UNL     1      14.765 -24.532  19.642  1.00  0.00     0.000 C 
BRANCH   2   3
ATOM      3  C   UNL     1      14.925 -25.857  20.409  1.00  0.00     0.000 C 
BRANCH   3   4
ATOM      4  C   UNL     1      15.765 -25.713  21.686  1.00  0.00     0.000 C 
BRANCH   4   5
ATOM      5  C   UNL     1      16.146 -27.087  22.253  1.00  0.00     0.000 C 
BRANCH   5   6
ATOM      6  C   UNL     1      17.276 -27.006  23.296  1.00  0.00     0.000 C 
BRANCH   6   7
ATOM      7  C   UNL     1      17.557 -28.323  24.047  1.00  0.00     0.000 C 
BRANCH   7   8
ATOM      8  C   UNL     1      19.021 -28.526  24.488  1.00  0.00     0.000 C 
BRANCH   8   9
ATOM      9  C   UNL     1      19.313 -28.163  25.955  1.00  0.00     0.000 C 
BRANCH   9  10
ATOM     10  C   UNL     1      19.537 -26.655  26.162  1.00  0.00     0.006 C 
BRANCH  10  11
ATOM     11  C   UNL     1      20.587 -26.368  27.244  1.00  0.00     0.053 C 
BRANCH  11  12
ATOM     12  C   UNL     1      21.984 -26.551  26.731  1.00  0.00     0.041 C 
ATOM     13  O   UNL     1      22.389 -25.880  25.745  1.00  0.00    -0.550 OA
ATOM     14  O   UNL     1      22.832 -27.472  27.332  1.00  0.00    -0.550 OA
ENDBRANCH  11  12
ENDBRANCH  10  11
ENDBRANCH   9  10
ENDBRANCH   8   9
ENDBRANCH   7   8
ENDBRANCH   6   7
ENDBRANCH   5   6
ENDBRANCH   4   5
ENDBRANCH   3   4
ENDBRANCH   2   3
ENDBRANCH   1   2
BRANCH   1  15
ATOM     15  C   UNL     1      12.853 -22.992  20.511  1.00  0.00     0.000 C 
BRANCH  15  16
ATOM     16  C   UNL     1      12.035 -23.690  21.613  1.00  0.00     0.000 C 
BRANCH  16  17
ATOM     17  C   UNL     1      11.343 -24.971  21.116  1.00  0.00     0.000 C 
BRANCH  17  18
ATOM     18  C   UNL     1      10.077 -25.312  21.919  1.00  0.00    -0.000 C 
BRANCH  18  19
ATOM     19  C   UNL     1       9.694 -24.207  22.919  1.00  0.00    -0.000 C 
BRANCH  19  20
ATOM     20  C   UNL     1       9.526 -24.743  24.351  1.00  0.00    -0.000 C 
BRANCH  20  21
ATOM     21  C   UNL     1      10.049 -23.763  25.416  1.00  0.00    -0.000 C 
BRANCH  21  22
ATOM     22  C   UNL     1      10.363 -22.369  24.845  1.00  0.00    -0.000 C 
BRANCH  22  23
ATOM     23  C   UNL     1      11.807 -21.883  25.067  1.00  0.00    -0.000 C 
BRANCH  23  24
ATOM     24  C   UNL     1      12.820 -23.037  25.159  1.00  0.00    -0.000 C 
BRANCH  24  25
ATOM     25  C   UNL     1      14.137 -22.724  24.432  1.00  0.00    -0.003 C 
ATOM     26  C   UNL     1      14.143 -21.343  23.781  1.00  0.00     0.004 C 
ENDBRANCH  24  25
ENDBRANCH  23  24
ENDBRANCH  22  23
ENDBRANCH  21  22
ENDBRANCH  20  21
ENDBRANCH  19  20
ENDBRANCH  18  19
ENDBRANCH  17  18
ENDBRANCH  16  17
ENDBRANCH  15  16
ENDBRANCH   1  15
TORSDOF 22
ENDMDL
MODEL 6
REMARK VINA RESULT:    -4.902      4.581      7.005
REMARK INTER + INTRA:         -13.623
REMARK INTER:                 -11.318
REMARK INTRA:                  -2.305
REMARK UNBOUND:                -2.416
REMARK SMILES CCCCCCCCCCCCCCCCCCCCCCCC(=O)[O-]
REMARK SMILES IDX 13 1 14 2 15 3 16 4 17 5 18 6 19 7 20 8 21 9 22 10 23 11
REMARK SMILES IDX 24 12 25 13 26 14 12 15 11 16 10 17 9 18 8 19 7 20 6 21 5 22
REMARK SMILES IDX 4 23 3 24 2 25 1 26
REMARK H PARENT
REMARK Flexibility Score: inf
ROOT
ATOM      1  C   UNL     1       9.780 -24.710  25.496  1.00  0.00     0.000 C 
ENDROOT
BRANCH   1   2
ATOM      2  C   UNL     1       9.763 -23.793  26.736  1.00  0.00     0.000 C 
BRANCH   2   3
ATOM      3  C   UNL     1      10.780 -22.638  26.708  1.00  0.00     0.000 C 
BRANCH   3   4
ATOM      4  C   UNL     1      10.116 -21.258  26.609  1.00  0.00     0.000 C 
BRANCH   4   5
ATOM      5  C   UNL     1      10.694 -20.292  27.652  1.00  0.00     0.000 C 
BRANCH   5   6
ATOM      6  C   UNL     1       9.667 -19.249  28.128  1.00  0.00     0.000 C 
BRANCH   6   7
ATOM      7  C   UNL     1      10.186 -18.277  29.207  1.00  0.00     0.000 C 
BRANCH   7   8
ATOM      8  C   UNL     1      11.496 -17.543  28.852  1.00  0.00     0.000 C 
BRANCH   8   9
ATOM      9  C   UNL     1      11.315 -16.096  28.358  1.00  0.00     0.000 C 
BRANCH   9  10
ATOM     10  C   UNL     1       9.877 -15.580  28.542  1.00  0.00     0.006 C 
BRANCH  10  11
ATOM     11  C   UNL     1       9.180 -15.314  27.201  1.00  0.00     0.053 C 
BRANCH  11  12
ATOM     12  C   UNL     1       8.184 -14.197  27.301  1.00  0.00     0.041 C 
ATOM     13  O   UNL     1       8.373 -13.123  26.671  1.00  0.00    -0.550 OA
ATOM     14  O   UNL     1       7.056 -14.338  28.099  1.00  0.00    -0.550 OA
ENDBRANCH  11  12
ENDBRANCH  10  11
ENDBRANCH   9  10
ENDBRANCH   8   9
ENDBRANCH   7   8
ENDBRANCH   6   7
ENDBRANCH   5   6
ENDBRANCH   4   5
ENDBRANCH   3   4
ENDBRANCH   2   3
ENDBRANCH   1   2
BRANCH   1  15
ATOM     15  C   UNL     1       9.105 -24.127  24.239  1.00  0.00     0.000 C 
BRANCH  15  16
ATOM     16  C   UNL     1       9.992 -24.091  22.981  1.00  0.00     0.000 C 
BRANCH  16  17
ATOM     17  C   UNL     1      11.472 -23.828  23.306  1.00  0.00     0.000 C 
BRANCH  17  18
ATOM     18  C   UNL     1      11.912 -22.397  22.956  1.00  0.00    -0.000 C 
BRANCH  18  19
ATOM     19  C   UNL     1      12.809 -21.770  24.039  1.00  0.00    -0.000 C 
BRANCH  19  20
ATOM     20  C   UNL     1      14.268 -21.619  23.579  1.00  0.00    -0.000 C 
BRANCH  20  21
ATOM     21  C   UNL     1      15.041 -22.950  23.612  1.00  0.00    -0.000 C 
BRANCH  21  22
ATOM     22  C   UNL     1      15.570 -23.370  22.229  1.00  0.00    -0.000 C 
BRANCH  22  23
ATOM     23  C   UNL     1      14.827 -22.749  21.031  1.00  0.00    -0.000 C 
BRANCH  23  24
ATOM     24  C   UNL     1      14.684 -23.721  19.847  1.00  0.00    -0.000 C 
BRANCH  24  25
ATOM     25  C   UNL     1      14.560 -25.185  20.297  1.00  0.00    -0.003 C 
ATOM     26  C   UNL     1      13.110 -25.649  20.415  1.00  0.00     0.004 C 
ENDBRANCH  24  25
ENDBRANCH  23  24
ENDBRANCH  22  23
ENDBRANCH  21  22
ENDBRANCH  20  21
ENDBRANCH  19  20
ENDBRANCH  18  19
ENDBRANCH  17  18
ENDBRANCH  16  17
ENDBRANCH  15  16
ENDBRANCH   1  15
TORSDOF 22
ENDMDL
MODEL 7
REMARK VINA RESULT:    -4.867      4.036      7.924
REMARK INTER + INTRA:         -13.543
REMARK INTER:                 -11.532
REMARK INTRA:                  -2.012
REMARK UNBOUND:                -2.416
REMARK SMILES CCCCCCCCCCCCCCCCCCCCCCCC(=O)[O-]
REMARK SMILES IDX 13 1 14 2 15 3 16 4 17 5 18 6 19 7 20 8 21 9 22 10 23 11
REMARK SMILES IDX 24 12 25 13 26 14 12 15 11 16 10 17 9 18 8 19 7 20 6 21 5 22
REMARK SMILES IDX 4 23 3 24 2 25 1 26
REMARK H PARENT
REMARK Flexibility Score: inf
ROOT
ATOM      1  C   UNL     1      14.974 -24.359  19.693  1.00  0.00     0.000 C 
ENDROOT
BRANCH   1   2
ATOM      2  C   UNL     1      14.378 -25.621  20.349  1.00  0.00     0.000 C 
BRANCH   2   3
ATOM      3  C   UNL     1      15.398 -26.535  21.052  1.00  0.00     0.000 C 
BRANCH   3   4
ATOM      4  C   UNL     1      16.125 -25.839  22.212  1.00  0.00     0.000 C 
BRANCH   4   5
ATOM      5  C   UNL     1      17.175 -26.765  22.840  1.00  0.00     0.000 C 
BRANCH   5   6
ATOM      6  C   UNL     1      18.527 -26.065  23.063  1.00  0.00     0.000 C 
BRANCH   6   7
ATOM      7  C   UNL     1      19.487 -26.803  24.017  1.00  0.00     0.000 C 
BRANCH   7   8
ATOM      8  C   UNL     1      18.812 -27.789  24.993  1.00  0.00     0.000 C 
BRANCH   8   9
ATOM      9  C   UNL     1      19.389 -27.787  26.420  1.00  0.00     0.000 C 
BRANCH   9  10
ATOM     10  C   UNL     1      19.938 -26.411  26.837  1.00  0.00     0.006 C 
BRANCH  10  11
ATOM     11  C   UNL     1      21.461 -26.430  27.031  1.00  0.00     0.053 C 
BRANCH  11  12
ATOM     12  C   UNL     1      21.839 -26.672  28.462  1.00  0.00     0.041 C 
ATOM     13  O   UNL     1      21.266 -26.035  29.385  1.00  0.00    -0.550 OA
ATOM     14  O   UNL     1      22.832 -27.591  28.774  1.00  0.00    -0.550 OA
ENDBRANCH  11  12
ENDBRANCH  10  11
ENDBRANCH   9  10
ENDBRANCH   8   9
ENDBRANCH   7   8
ENDBRANCH   6   7
ENDBRANCH   5   6
ENDBRANCH   4   5
ENDBRANCH   3   4
ENDBRANCH   2   3
ENDBRANCH   1   2
BRANCH   1  15
ATOM     15  C   UNL     1      14.643 -23.031  20.402  1.00  0.00     0.000 C 
BRANCH  15  16
ATOM     16  C   UNL     1      13.150 -22.653  20.410  1.00  0.00     0.000 C 
BRANCH  16  17
ATOM     17  C   UNL     1      12.523 -22.742  21.812  1.00  0.00     0.000 C 
BRANCH  17  18
ATOM     18  C   UNL     1      13.565 -22.993  22.913  1.00  0.00    -0.000 C 
BRANCH  18  19
ATOM     19  C   UNL     1      13.173 -22.354  24.258  1.00  0.00    -0.000 C 
BRANCH  19  20
ATOM     20  C   UNL     1      11.696 -21.930  24.299  1.00  0.00    -0.000 C 
BRANCH  20  21
ATOM     21  C   UNL     1      11.032 -22.223  25.656  1.00  0.00    -0.000 C 
BRANCH  21  22
ATOM     22  C   UNL     1       9.741 -23.052  25.524  1.00  0.00    -0.000 C 
BRANCH  22  23
ATOM     23  C   UNL     1       9.825 -24.237  24.545  1.00  0.00    -0.000 C 
BRANCH  23  24
ATOM     24  C   UNL     1       8.853 -24.105  23.360  1.00  0.00    -0.000 C 
BRANCH  24  25
ATOM     25  C   UNL     1       8.988 -25.259  22.354  1.00  0.00    -0.003 C 
ATOM     26  C   UNL     1      10.361 -25.307  21.687  1.00  0.00     0.004 C 
ENDBRANCH  24  25
ENDBRANCH  23  24
ENDBRANCH  22  23
ENDBRANCH  21  22
ENDBRANCH  20  21
ENDBRANCH  19  20
ENDBRANCH  18  19
ENDBRANCH  17  18
ENDBRANCH  16  17
ENDBRANCH  15  16
ENDBRANCH   1  15
TORSDOF 22
ENDMDL
MODEL 8
REMARK VINA RESULT:    -4.829      4.635      8.427
REMARK INTER + INTRA:         -13.457
REMARK INTER:                 -11.560
REMARK INTRA:                  -1.897
REMARK UNBOUND:                -2.416
REMARK SMILES CCCCCCCCCCCCCCCCCCCCCCCC(=O)[O-]
REMARK SMILES IDX 13 1 14 2 15 3 16 4 17 5 18 6 19 7 20 8 21 9 22 10 23 11
REMARK SMILES IDX 24 12 25 13 26 14 12 15 11 16 10 17 9 18 8 19 7 20 6 21 5 22
REMARK SMILES IDX 4 23 3 24 2 25 1 26
REMARK H PARENT
REMARK Flexibility Score: inf
ROOT
ATOM      1  C   UNL     1      14.856 -25.971  20.820  1.00  0.00     0.000 C 
ENDROOT
BRANCH   1   2
ATOM      2  C   UNL     1      16.100 -26.132  21.716  1.00  0.00     0.000 C 
BRANCH   2   3
ATOM      3  C   UNL     1      16.092 -27.375  22.625  1.00  0.00     0.000 C 
BRANCH   3   4
ATOM      4  C   UNL     1      17.407 -27.561  23.396  1.00  0.00     0.000 C 
BRANCH   4   5
ATOM      5  C   UNL     1      18.294 -26.314  23.284  1.00  0.00     0.000 C 
BRANCH   5   6
ATOM      6  C   UNL     1      19.618 -26.456  24.055  1.00  0.00     0.000 C 
BRANCH   6   7
ATOM      7  C   UNL     1      19.499 -27.162  25.420  1.00  0.00     0.000 C 
BRANCH   7   8
ATOM      8  C   UNL     1      19.712 -26.253  26.648  1.00  0.00     0.000 C 
BRANCH   8   9
ATOM      9  C   UNL     1      20.695 -26.801  27.698  1.00  0.00     0.000 C 
BRANCH   9  10
ATOM     10  C   UNL     1      22.041 -27.230  27.087  1.00  0.00     0.006 C 
BRANCH  10  11
ATOM     11  C   UNL     1      22.785 -26.053  26.443  1.00  0.00     0.053 C 
BRANCH  11  12
ATOM     12  C   UNL     1      24.050 -25.721  27.178  1.00  0.00     0.041 C 
ATOM     13  O   UNL     1      25.123 -26.316  26.891  1.00  0.00    -0.550 OA
ATOM     14  O   UNL     1      24.040 -24.767  28.186  1.00  0.00    -0.550 OA
ENDBRANCH  11  12
ENDBRANCH  10  11
ENDBRANCH   9  10
ENDBRANCH   8   9
ENDBRANCH   7   8
ENDBRANCH   6   7
ENDBRANCH   5   6
ENDBRANCH   4   5
ENDBRANCH   3   4
ENDBRANCH   2   3
ENDBRANCH   1   2
BRANCH   1  15
ATOM     15  C   UNL     1      15.025 -25.011  19.625  1.00  0.00     0.000 C 
BRANCH  15  16
ATOM     16  C   UNL     1      14.940 -23.514  19.977  1.00  0.00     0.000 C 
BRANCH  16  17
ATOM     17  C   UNL     1      13.490 -23.023  20.131  1.00  0.00     0.000 C 
BRANCH  17  18
ATOM     18  C   UNL     1      13.125 -22.697  21.589  1.00  0.00    -0.000 C 
BRANCH  18  19
ATOM     19  C   UNL     1      14.358 -22.366  22.449  1.00  0.00    -0.000 C 
BRANCH  19  20
ATOM     20  C   UNL     1      14.005 -22.176  23.934  1.00  0.00    -0.000 C 
BRANCH  20  21
ATOM     21  C   UNL     1      13.226 -23.368  24.516  1.00  0.00    -0.000 C 
BRANCH  21  22
ATOM     22  C   UNL     1      12.218 -22.952  25.602  1.00  0.00    -0.000 C 
BRANCH  22  23
ATOM     23  C   UNL     1      11.081 -22.033  25.119  1.00  0.00    -0.000 C 
BRANCH  23  24
ATOM     24  C   UNL     1       9.694 -22.690  25.222  1.00  0.00    -0.000 C 
BRANCH  24  25
ATOM     25  C   UNL     1       9.686 -24.134  24.699  1.00  0.00    -0.003 C 
ATOM     26  C   UNL     1       9.640 -24.214  23.174  1.00  0.00     0.004 C 
ENDBRANCH  24  25
ENDBRANCH  23  24
ENDBRANCH  22  23
ENDBRANCH  21  22
ENDBRANCH  20  21
ENDBRANCH  19  20
ENDBRANCH  18  19
ENDBRANCH  17  18
ENDBRANCH  16  17
ENDBRANCH  15  16
ENDBRANCH   1  15
TORSDOF 22
ENDMDL
MODEL 9
REMARK VINA RESULT:    -4.818      2.809      7.220
REMARK INTER + INTRA:         -13.431
REMARK INTER:                 -10.957
REMARK INTRA:                  -2.474
REMARK UNBOUND:                -2.416
REMARK SMILES CCCCCCCCCCCCCCCCCCCCCCCC(=O)[O-]
REMARK SMILES IDX 13 1 14 2 15 3 16 4 17 5 18 6 19 7 20 8 21 9 22 10 23 11
REMARK SMILES IDX 24 12 25 13 26 14 12 15 11 16 10 17 9 18 8 19 7 20 6 21 5 22
REMARK SMILES IDX 4 23 3 24 2 25 1 26
REMARK H PARENT
REMARK Flexibility Score: inf
ROOT
ATOM      1  C   UNL     1      15.026 -23.409  20.257  1.00  0.00     0.000 C 
ENDROOT
BRANCH   1   2
ATOM      2  C   UNL     1      14.984 -24.772  19.537  1.00  0.00     0.000 C 
BRANCH   2   3
ATOM      3  C   UNL     1      15.039 -26.000  20.463  1.00  0.00     0.000 C 
BRANCH   3   4
ATOM      4  C   UNL     1      15.588 -25.673  21.859  1.00  0.00     0.000 C 
BRANCH   4   5
ATOM      5  C   UNL     1      16.457 -26.819  22.393  1.00  0.00     0.000 C 
BRANCH   5   6
ATOM      6  C   UNL     1      15.670 -28.131  22.565  1.00  0.00     0.000 C 
BRANCH   6   7
ATOM      7  C   UNL     1      16.259 -29.106  23.603  1.00  0.00     0.000 C 
BRANCH   7   8
ATOM      8  C   UNL     1      16.991 -28.440  24.787  1.00  0.00     0.000 C 
BRANCH   8   9
ATOM      9  C   UNL     1      18.487 -28.782  24.901  1.00  0.00     0.000 C 
BRANCH   9  10
ATOM     10  C   UNL     1      19.125 -28.240  26.192  1.00  0.00     0.006 C 
BRANCH  10  11
ATOM     11  C   UNL     1      19.492 -26.754  26.077  1.00  0.00     0.053 C 
BRANCH  11  12
ATOM     12  C   UNL     1      20.135 -26.437  24.759  1.00  0.00     0.041 C 
ATOM     13  O   UNL     1      21.317 -26.804  24.527  1.00  0.00    -0.550 OA
ATOM     14  O   UNL     1      19.433 -25.724  23.796  1.00  0.00    -0.550 OA
ENDBRANCH  11  12
ENDBRANCH  10  11
ENDBRANCH   9  10
ENDBRANCH   8   9
ENDBRANCH   7   8
ENDBRANCH   6   7
ENDBRANCH   5   6
ENDBRANCH   4   5
ENDBRANCH   3   4
ENDBRANCH   2   3
ENDBRANCH   1   2
BRANCH   1  15
ATOM     15  C   UNL     1      13.676 -22.670  20.347  1.00  0.00     0.000 C 
BRANCH  15  16
ATOM     16  C   UNL     1      12.586 -23.402  21.151  1.00  0.00     0.000 C 
BRANCH  16  17
ATOM     17  C   UNL     1      12.051 -22.563  22.325  1.00  0.00     0.000 C 
BRANCH  17  18
ATOM     18  C   UNL     1      13.126 -22.270  23.384  1.00  0.00    -0.000 C 
BRANCH  18  19
ATOM     19  C   UNL     1      13.293 -23.419  24.394  1.00  0.00    -0.000 C 
BRANCH  19  20
ATOM     20  C   UNL     1      12.786 -23.047  25.797  1.00  0.00    -0.000 C 
BRANCH  20  21
ATOM     21  C   UNL     1      11.597 -22.071  25.759  1.00  0.00    -0.000 C 
BRANCH  21  22
ATOM     22  C   UNL     1      10.256 -22.748  26.096  1.00  0.00    -0.000 C 
BRANCH  22  23
ATOM     23  C   UNL     1       9.328 -22.991  24.891  1.00  0.00    -0.000 C 
BRANCH  23  24
ATOM     24  C   UNL     1       9.513 -24.384  24.265  1.00  0.00    -0.000 C 
BRANCH  24  25
ATOM     25  C   UNL     1       8.878 -24.491  22.869  1.00  0.00    -0.003 C 
ATOM     26  C   UNL     1       9.599 -25.486  21.963  1.00  0.00     0.004 C 
ENDBRANCH  24  25
ENDBRANCH  23  24
ENDBRANCH  22  23
ENDBRANCH  21  22
ENDBRANCH  20  21
ENDBRANCH  19  20
ENDBRANCH  18  19
ENDBRANCH  17  18
ENDBRANCH  16  17
ENDBRANCH  15  16
ENDBRANCH   1  15
TORSDOF 22
ENDMDL
