MODEL 1
REMARK VINA RESULT:    69.963      0.000      0.000
REMARK INTER + INTRA:          99.362
REMARK INTER:                 100.638
REMARK INTRA:                  -1.276
REMARK UNBOUND:                -1.276
REMARK SMILES O=c1c(O[C@@H]2O[C@@H](CO)[C@@H](O)[C@@H](O)[C@H]2O)c(-c2ccc(O)cc2)oc2cc(O)cc(O)c12
REMARK SMILES IDX 4 1 3 2 16 3 24 4 2 5 25 6 1 7 32 8 26 9 30 10 27 11 29 12
REMARK SMILES IDX 17 13 18 14 19 15 20 16 23 17 22 18 21 19 31 21 28 23 5 25
REMARK SMILES IDX 14 26 6 27 12 28 7 29 10 30 15 31 13 33 8 35 9 36 11 38
REMARK H PARENT 21 20 31 22 28 24 15 32 13 34 9 37 11 39
REMARK Flexibility Score: inf
ROOT
ATOM      1  O   UNL     1     -38.796  30.618 -23.814  1.00  0.00    -0.454 OA
ENDROOT
BRANCH   1   2
ATOM      2  C   UNL     1     -39.879  30.494 -22.936  1.00  0.00     0.214 A 
ATOM      3  C   UNL     1     -39.891  29.535 -21.904  1.00  0.00     0.180 A 
ATOM      4  O   UNL     1     -40.964  29.416 -21.132  1.00  0.00    -0.452 OA
ATOM      5  C   UNL     1     -40.978  31.348 -23.082  1.00  0.00     0.239 A 
ATOM      6  C   UNL     1     -42.046  30.175 -21.260  1.00  0.00     0.146 A 
ATOM      7  O   UNL     1     -40.910  32.266 -23.939  1.00  0.00    -0.285 OA
ATOM      8  C   UNL     1     -42.121  31.175 -22.264  1.00  0.00     0.111 A 
ATOM      9  C   UNL     1     -43.106  29.980 -20.371  1.00  0.00     0.094 A 
ATOM     10  C   UNL     1     -43.319  31.945 -22.370  1.00  0.00     0.134 A 
ATOM     11  C   UNL     1     -44.249  30.773 -20.449  1.00  0.00     0.123 A 
ATOM     12  C   UNL     1     -44.347  31.752 -21.440  1.00  0.00     0.093 A 
BRANCH   3  13
ATOM     13  C   UNL     1     -38.733  28.656 -21.625  1.00  0.00     0.021 A 
ATOM     14  C   UNL     1     -38.678  27.377 -22.205  1.00  0.00     0.016 A 
ATOM     15  C   UNL     1     -37.596  26.530 -21.948  1.00  0.00     0.047 A 
ATOM     16  C   UNL     1     -36.562  26.946 -21.100  1.00  0.00     0.115 A 
ATOM     17  C   UNL     1     -37.703  29.057 -20.755  1.00  0.00     0.016 A 
ATOM     18  C   UNL     1     -36.621  28.209 -20.503  1.00  0.00     0.047 A 
BRANCH  16  19
ATOM     19  O   UNL     1     -35.477  26.111 -20.839  1.00  0.00    -0.508 OA
ATOM     20  H   UNL     1     -34.530  26.467 -20.815  1.00  0.00     0.293 HD
ENDBRANCH  16  19
ENDBRANCH   3  13
BRANCH  10  21
ATOM     21  O   UNL     1     -43.558  32.886 -23.376  1.00  0.00    -0.507 OA
ATOM     22  H   UNL     1     -43.690  33.875 -23.223  1.00  0.00     0.293 HD
ENDBRANCH  10  21
BRANCH  11  23
ATOM     23  O   UNL     1     -45.285  30.575 -19.539  1.00  0.00    -0.508 OA
ATOM     24  H   UNL     1     -46.222  30.340 -19.847  1.00  0.00     0.293 HD
ENDBRANCH  11  23
ENDBRANCH   1   2
BRANCH   1  25
ATOM     25  C   UNL     1     -37.653  31.433 -23.528  1.00  0.00     0.339 C 
ATOM     26  C   UNL     1     -36.362  30.802 -24.105  1.00  0.00     0.214 C 
ATOM     27  O   UNL     1     -37.850  32.754 -24.011  1.00  0.00    -0.332 OA
ATOM     28  C   UNL     1     -36.334  30.904 -25.642  1.00  0.00     0.180 C 
ATOM     29  C   UNL     1     -38.006  32.776 -25.421  1.00  0.00     0.179 C 
ATOM     30  C   UNL     1     -36.706  32.319 -26.125  1.00  0.00     0.177 C 
BRANCH  26  31
ATOM     31  O   UNL     1     -35.208  31.374 -23.532  1.00  0.00    -0.384 OA
ATOM     32  H   UNL     1     -34.827  30.729 -22.882  1.00  0.00     0.211 HD
ENDBRANCH  26  31
BRANCH  28  33
ATOM     33  O   UNL     1     -35.067  30.534 -26.122  1.00  0.00    -0.387 OA
ATOM     34  H   UNL     1     -35.106  30.596 -27.112  1.00  0.00     0.211 HD
ENDBRANCH  28  33
BRANCH  29  35
ATOM     35  C   UNL     1     -38.418  34.195 -25.841  1.00  0.00     0.191 C 
BRANCH  35  36
ATOM     36  O   UNL     1     -39.791  34.403 -25.641  1.00  0.00    -0.394 OA
ATOM     37  H   UNL     1     -39.877  34.971 -24.832  1.00  0.00     0.210 HD
ENDBRANCH  35  36
ENDBRANCH  29  35
BRANCH  30  38
ATOM     38  O   UNL     1     -35.651  33.209 -25.853  1.00  0.00    -0.387 OA
ATOM     39  H   UNL     1     -36.056  34.048 -25.508  1.00  0.00     0.211 HD
ENDBRANCH  30  38
ENDBRANCH   1  25
TORSDOF 11
ENDMDL
