MODEL 1
REMARK VINA RESULT:    -1.538      0.000      0.000
REMARK INTER + INTRA:          -2.097
REMARK INTER:                  -1.808
REMARK INTRA:                  -0.289
REMARK UNBOUND:                -0.289
REMARK SMILES O=c1cc(-c2ccc(O)c(O)c2)oc2cc(O)cc(O)c12
REMARK SMILES IDX 4 1 3 2 2 3 1 4 21 5 19 6 18 7 16 8 15 9 14 10 13 11 5 12
REMARK SMILES IDX 6 13 7 14 8 15 12 16 10 17 9 18 11 20 20 22 17 24
REMARK H PARENT 9 19 11 21 20 23 17 25
REMARK Flexibility Score: inf
ROOT
ATOM      1  C   UNL     1      21.768  17.557  11.586  1.00  0.00     0.138 A 
ATOM      2  C   UNL     1      22.315  16.642  10.677  1.00  0.00     0.100 A 
ATOM      3  C   UNL     1      23.545  16.916  10.077  1.00  0.00     0.197 A 
ATOM      4  O   UNL     1      24.040  16.049   9.314  1.00  0.00    -0.289 OA
ATOM      5  C   UNL     1      24.213  18.130  10.367  1.00  0.00     0.107 A 
ATOM      6  C   UNL     1      25.452  18.534   9.785  1.00  0.00     0.134 A 
ATOM      7  C   UNL     1      26.077  19.703  10.235  1.00  0.00     0.093 A 
ATOM      8  C   UNL     1      25.481  20.513  11.202  1.00  0.00     0.123 A 
ATOM      9  C   UNL     1      24.244  20.154  11.740  1.00  0.00     0.094 A 
ATOM     10  C   UNL     1      23.611  18.976  11.336  1.00  0.00     0.146 A 
ATOM     11  O   UNL     1      22.442  18.663  11.883  1.00  0.00    -0.456 OA
ENDROOT
BRANCH   1  12
ATOM     12  C   UNL     1      20.462  17.315  12.254  1.00  0.00     0.021 A 
ATOM     13  C   UNL     1      20.159  16.079  12.857  1.00  0.00     0.016 A 
ATOM     14  C   UNL     1      18.919  15.875  13.468  1.00  0.00     0.051 A 
ATOM     15  C   UNL     1      17.961  16.892  13.483  1.00  0.00     0.157 A 
ATOM     16  C   UNL     1      19.489  18.329  12.259  1.00  0.00     0.062 A 
ATOM     17  C   UNL     1      18.245  18.126  12.874  1.00  0.00     0.158 A 
BRANCH  15  18
ATOM     18  O   UNL     1      16.733  16.659  14.101  1.00  0.00    -0.504 OA
ATOM     19  H   UNL     1      16.638  16.030  14.890  1.00  0.00     0.293 HD
ENDBRANCH  15  18
BRANCH  17  20
ATOM     20  O   UNL     1      17.292  19.143  12.881  1.00  0.00    -0.504 OA
ATOM     21  H   UNL     1      17.215  19.804  12.116  1.00  0.00     0.293 HD
ENDBRANCH  17  20
ENDBRANCH   1  12
BRANCH   6  22
ATOM     22  O   UNL     1      26.091  17.844   8.751  1.00  0.00    -0.507 OA
ATOM     23  H   UNL     1      26.876  18.192   8.224  1.00  0.00     0.293 HD
ENDBRANCH   6  22
BRANCH   8  24
ATOM     24  O   UNL     1      26.125  21.677  11.616  1.00  0.00    -0.508 OA
ATOM     25  H   UNL     1      27.104  21.841  11.414  1.00  0.00     0.293 HD
ENDBRANCH   8  24
TORSDOF 5
ENDMDL
MODEL 2
REMARK VINA RESULT:    -1.106      1.180      2.713
REMARK INTER + INTRA:          -1.589
REMARK INTER:                  -1.327
REMARK INTRA:                  -0.263
REMARK UNBOUND:                -0.289
REMARK SMILES O=c1cc(-c2ccc(O)c(O)c2)oc2cc(O)cc(O)c12
REMARK SMILES IDX 4 1 3 2 2 3 1 4 21 5 19 6 18 7 16 8 15 9 14 10 13 11 5 12
REMARK SMILES IDX 6 13 7 14 8 15 12 16 10 17 9 18 11 20 20 22 17 24
REMARK H PARENT 9 19 11 21 20 23 17 25
REMARK Flexibility Score: inf
ROOT
ATOM      1  C   UNL     1      21.663  18.261  12.657  1.00  0.00     0.138 A 
ATOM      2  C   UNL     1      22.120  19.442  13.256  1.00  0.00     0.100 A 
ATOM      3  C   UNL     1      23.343  19.987  12.863  1.00  0.00     0.197 A 
ATOM      4  O   UNL     1      23.698  21.081  13.373  1.00  0.00    -0.289 OA
ATOM      5  C   UNL     1      24.126  19.326  11.887  1.00  0.00     0.107 A 
ATOM      6  C   UNL     1      25.407  19.767  11.438  1.00  0.00     0.134 A 
ATOM      7  C   UNL     1      26.037  19.095  10.383  1.00  0.00     0.093 A 
ATOM      8  C   UNL     1      25.462  17.965   9.802  1.00  0.00     0.123 A 
ATOM      9  C   UNL     1      24.235  17.494  10.269  1.00  0.00     0.094 A 
ATOM     10  C   UNL     1      23.565  18.162  11.297  1.00  0.00     0.146 A 
ATOM     11  O   UNL     1      22.391  17.690  11.703  1.00  0.00    -0.456 OA
ENDROOT
BRANCH   1  12
ATOM     12  C   UNL     1      20.369  17.637  13.037  1.00  0.00     0.021 A 
ATOM     13  C   UNL     1      20.315  16.446  13.786  1.00  0.00     0.016 A 
ATOM     14  C   UNL     1      19.085  15.875  14.121  1.00  0.00     0.051 A 
ATOM     15  C   UNL     1      17.891  16.475  13.711  1.00  0.00     0.157 A 
ATOM     16  C   UNL     1      19.165  18.228  12.616  1.00  0.00     0.062 A 
ATOM     17  C   UNL     1      17.930  17.657  12.953  1.00  0.00     0.158 A 
BRANCH  15  18
ATOM     18  O   UNL     1      16.678  15.882  14.062  1.00  0.00    -0.504 OA
ATOM     19  H   UNL     1      16.080  15.433  13.379  1.00  0.00     0.293 HD
ENDBRANCH  15  18
BRANCH  17  20
ATOM     20  O   UNL     1      16.742  18.258  12.538  1.00  0.00    -0.504 OA
ATOM     21  H   UNL     1      16.733  18.980  11.826  1.00  0.00     0.293 HD
ENDBRANCH  17  20
ENDBRANCH   1  12
BRANCH   6  22
ATOM     22  O   UNL     1      26.109  20.833  12.007  1.00  0.00    -0.507 OA
ATOM     23  H   UNL     1      25.912  21.237  12.909  1.00  0.00     0.293 HD
ENDBRANCH   6  22
BRANCH   8  24
ATOM     24  O   UNL     1      26.125  17.313   8.764  1.00  0.00    -0.508 OA
ATOM     25  H   UNL     1      27.001  16.828   8.917  1.00  0.00     0.293 HD
ENDBRANCH   8  24
TORSDOF 5
ENDMDL
MODEL 3
REMARK VINA RESULT:     0.808      1.969      2.619
REMARK INTER + INTRA:           0.661
REMARK INTER:                   0.946
REMARK INTRA:                  -0.284
REMARK UNBOUND:                -0.289
REMARK SMILES O=c1cc(-c2ccc(O)c(O)c2)oc2cc(O)cc(O)c12
REMARK SMILES IDX 4 1 3 2 2 3 1 4 21 5 19 6 18 7 16 8 15 9 14 10 13 11 5 12
REMARK SMILES IDX 6 13 7 14 8 15 12 16 10 17 9 18 11 20 20 22 17 24
REMARK H PARENT 9 19 11 21 20 23 17 25
REMARK Flexibility Score: inf
ROOT
ATOM      1  C   UNL     1      21.390  18.543  13.094  1.00  0.00     0.138 A 
ATOM      2  C   UNL     1      22.520  17.890  12.584  1.00  0.00     0.100 A 
ATOM      3  C   UNL     1      23.717  18.592  12.439  1.00  0.00     0.197 A 
ATOM      4  O   UNL     1      24.730  17.963  12.038  1.00  0.00    -0.289 OA
ATOM      5  C   UNL     1      23.773  19.964  12.779  1.00  0.00     0.107 A 
ATOM      6  C   UNL     1      24.927  20.791  12.635  1.00  0.00     0.134 A 
ATOM      7  C   UNL     1      24.898  22.107  13.113  1.00  0.00     0.093 A 
ATOM      8  C   UNL     1      23.739  22.645  13.673  1.00  0.00     0.123 A 
ATOM      9  C   UNL     1      22.588  21.862  13.770  1.00  0.00     0.094 A 
ATOM     10  C   UNL     1      22.596  20.535  13.333  1.00  0.00     0.146 A 
ATOM     11  O   UNL     1      21.484  19.818  13.457  1.00  0.00    -0.456 OA
ENDROOT
BRANCH   1  12
ATOM     12  C   UNL     1      20.091  17.844  13.268  1.00  0.00     0.021 A 
ATOM     13  C   UNL     1      19.996  16.628  13.972  1.00  0.00     0.016 A 
ATOM     14  C   UNL     1      18.762  15.986  14.112  1.00  0.00     0.051 A 
ATOM     15  C   UNL     1      17.608  16.538  13.549  1.00  0.00     0.157 A 
ATOM     16  C   UNL     1      18.930  18.387  12.693  1.00  0.00     0.062 A 
ATOM     17  C   UNL     1      17.691  17.745  12.834  1.00  0.00     0.158 A 
BRANCH  15  18
ATOM     18  O   UNL     1      16.392  15.875  13.706  1.00  0.00    -0.504 OA
ATOM     19  H   UNL     1      16.077  15.533  14.606  1.00  0.00     0.293 HD
ENDBRANCH  15  18
BRANCH  17  20
ATOM     20  O   UNL     1      16.545  18.299  12.266  1.00  0.00    -0.504 OA
ATOM     21  H   UNL     1      15.618  17.969  12.514  1.00  0.00     0.293 HD
ENDBRANCH  17  20
ENDBRANCH   1  12
BRANCH   6  22
ATOM     22  O   UNL     1      26.109  20.380  12.012  1.00  0.00    -0.507 OA
ATOM     23  H   UNL     1      26.451  19.432  11.993  1.00  0.00     0.293 HD
ENDBRANCH   6  22
BRANCH   8  24
ATOM     24  O   UNL     1      23.742  23.963  14.125  1.00  0.00    -0.508 OA
ATOM     25  H   UNL     1      23.741  24.183  15.114  1.00  0.00     0.293 HD
ENDBRANCH   8  24
TORSDOF 5
ENDMDL
