MODEL 1
REMARK VINA RESULT:    -3.763      0.000      0.000
REMARK INTER + INTRA:          -8.466
REMARK INTER:                  -6.843
REMARK INTRA:                  -1.623
REMARK UNBOUND:                -1.623
REMARK SMILES CCCCCCCCCCCCCCCC(=O)[O-]
REMARK SMILES IDX 9 1 10 2 11 3 12 4 13 5 14 6 15 7 16 8 17 9 18 10 8 11 7 12
REMARK SMILES IDX 6 13 5 14 4 15 3 16 2 17 1 18
REMARK H PARENT
REMARK Flexibility Score: inf
ROOT
ATOM      1  C   UNL     1    -101.332  31.714 -34.369  1.00  0.00     0.000 C 
ENDROOT
BRANCH   1   2
ATOM      2  C   UNL     1    -101.946  31.647 -32.961  1.00  0.00     0.000 C 
BRANCH   2   3
ATOM      3  C   UNL     1    -103.452  31.327 -32.991  1.00  0.00     0.000 C 
BRANCH   3   4
ATOM      4  C   UNL     1    -103.825  30.364 -34.129  1.00  0.00     0.000 C 
BRANCH   4   5
ATOM      5  C   UNL     1    -105.038  30.846 -34.942  1.00  0.00     0.000 C 
BRANCH   5   6
ATOM      6  C   UNL     1    -105.102  32.379 -35.078  1.00  0.00     0.006 C 
BRANCH   6   7
ATOM      7  C   UNL     1    -104.230  32.941 -36.214  1.00  0.00     0.053 C 
BRANCH   7   8
ATOM      8  C   UNL     1    -104.865  32.785 -37.563  1.00  0.00     0.041 C 
ATOM      9  O   UNL     1    -104.714  31.719 -38.217  1.00  0.00    -0.550 OA
ATOM     10  O   UNL     1    -105.597  33.829 -38.112  1.00  0.00    -0.550 OA
ENDBRANCH   7   8
ENDBRANCH   6   7
ENDBRANCH   5   6
ENDBRANCH   4   5
ENDBRANCH   3   4
ENDBRANCH   2   3
ENDBRANCH   1   2
BRANCH   1  11
ATOM     11  C   UNL     1    -100.133  30.762 -34.534  1.00  0.00     0.000 C 
BRANCH  11  12
ATOM     12  C   UNL     1    -100.178  29.962 -35.848  1.00  0.00    -0.000 C 
BRANCH  12  13
ATOM     13  C   UNL     1    -101.389  30.252 -36.755  1.00  0.00    -0.000 C 
BRANCH  13  14
ATOM     14  C   UNL     1    -101.011  31.020 -38.033  1.00  0.00    -0.000 C 
BRANCH  14  15
ATOM     15  C   UNL     1     -99.515  31.378 -38.096  1.00  0.00    -0.000 C 
BRANCH  15  16
ATOM     16  C   UNL     1     -99.135  32.742 -37.483  1.00  0.00    -0.000 C 
BRANCH  16  17
ATOM     17  C   UNL     1     -98.160  33.585 -38.324  1.00  0.00    -0.003 C 
ATOM     18  C   UNL     1     -97.358  32.748 -39.320  1.00  0.00     0.004 C 
ENDBRANCH  16  17
ENDBRANCH  15  16
ENDBRANCH  14  15
ENDBRANCH  13  14
ENDBRANCH  12  13
ENDBRANCH  11  12
ENDBRANCH   1  11
TORSDOF 14
ENDMDL
MODEL 2
REMARK VINA RESULT:    -3.727      2.761      5.444
REMARK INTER + INTRA:          -8.400
REMARK INTER:                  -6.522
REMARK INTRA:                  -1.878
REMARK UNBOUND:                -1.623
REMARK SMILES CCCCCCCCCCCCCCCC(=O)[O-]
REMARK SMILES IDX 9 1 10 2 11 3 12 4 13 5 14 6 15 7 16 8 17 9 18 10 8 11 7 12
REMARK SMILES IDX 6 13 5 14 4 15 3 16 2 17 1 18
REMARK H PARENT
REMARK Flexibility Score: inf
ROOT
ATOM      1  C   UNL     1    -102.477  30.429 -33.439  1.00  0.00     0.000 C 
ENDROOT
BRANCH   1   2
ATOM      2  C   UNL     1    -101.003  30.859 -33.351  1.00  0.00     0.000 C 
BRANCH   2   3
ATOM      3  C   UNL     1    -100.106  30.086 -34.335  1.00  0.00     0.000 C 
BRANCH   3   4
ATOM      4  C   UNL     1     -99.347  31.018 -35.294  1.00  0.00     0.000 C 
BRANCH   4   5
ATOM      5  C   UNL     1    -100.276  31.996 -36.031  1.00  0.00     0.000 C 
BRANCH   5   6
ATOM      6  C   UNL     1    -100.216  31.845 -37.564  1.00  0.00     0.006 C 
BRANCH   6   7
ATOM      7  C   UNL     1     -98.802  31.586 -38.109  1.00  0.00     0.053 C 
BRANCH   7   8
ATOM      8  C   UNL     1     -98.138  32.832 -38.614  1.00  0.00     0.041 C 
ATOM      9  O   UNL     1     -98.499  33.961 -38.190  1.00  0.00    -0.550 OA
ATOM     10  O   UNL     1     -97.142  32.747 -39.579  1.00  0.00    -0.550 OA
ENDBRANCH   7   8
ENDBRANCH   6   7
ENDBRANCH   5   6
ENDBRANCH   4   5
ENDBRANCH   3   4
ENDBRANCH   2   3
ENDBRANCH   1   2
BRANCH   1  11
ATOM     11  C   UNL     1    -103.405  31.588 -33.845  1.00  0.00     0.000 C 
BRANCH  11  12
ATOM     12  C   UNL     1    -103.998  31.417 -35.256  1.00  0.00    -0.000 C 
BRANCH  12  13
ATOM     13  C   UNL     1    -103.892  29.998 -35.846  1.00  0.00    -0.000 C 
BRANCH  13  14
ATOM     14  C   UNL     1    -103.415  29.991 -37.308  1.00  0.00    -0.000 C 
BRANCH  14  15
ATOM     15  C   UNL     1    -103.599  31.351 -38.005  1.00  0.00    -0.000 C 
BRANCH  15  16
ATOM     16  C   UNL     1    -104.757  31.423 -39.022  1.00  0.00    -0.000 C 
BRANCH  16  17
ATOM     17  C   UNL     1    -106.071  32.005 -38.473  1.00  0.00    -0.003 C 
ATOM     18  C   UNL     1    -105.905  33.414 -37.905  1.00  0.00     0.004 C 
ENDBRANCH  16  17
ENDBRANCH  15  16
ENDBRANCH  14  15
ENDBRANCH  13  14
ENDBRANCH  12  13
ENDBRANCH  11  12
ENDBRANCH   1  11
TORSDOF 14
ENDMDL
MODEL 3
REMARK VINA RESULT:    -3.723      1.415      2.212
REMARK INTER + INTRA:          -8.393
REMARK INTER:                  -6.676
REMARK INTRA:                  -1.717
REMARK UNBOUND:                -1.623
REMARK SMILES CCCCCCCCCCCCCCCC(=O)[O-]
REMARK SMILES IDX 9 1 10 2 11 3 12 4 13 5 14 6 15 7 16 8 17 9 18 10 8 11 7 12
REMARK SMILES IDX 6 13 5 14 4 15 3 16 2 17 1 18
REMARK H PARENT
REMARK Flexibility Score: inf
ROOT
ATOM      1  C   UNL     1    -103.167  31.451 -33.467  1.00  0.00     0.000 C 
ENDROOT
BRANCH   1   2
ATOM      2  C   UNL     1    -103.383  30.181 -34.307  1.00  0.00     0.000 C 
BRANCH   2   3
ATOM      3  C   UNL     1    -104.411  30.390 -35.434  1.00  0.00     0.000 C 
BRANCH   3   4
ATOM      4  C   UNL     1    -103.788  30.238 -36.832  1.00  0.00     0.000 C 
BRANCH   4   5
ATOM      5  C   UNL     1    -103.732  31.567 -37.604  1.00  0.00     0.000 C 
BRANCH   5   6
ATOM      6  C   UNL     1    -104.491  32.707 -36.899  1.00  0.00     0.006 C 
BRANCH   6   7
ATOM      7  C   UNL     1    -105.625  33.316 -37.742  1.00  0.00     0.053 C 
BRANCH   7   8
ATOM      8  C   UNL     1    -106.864  32.474 -37.739  1.00  0.00     0.041 C 
ATOM      9  O   UNL     1    -106.957  31.476 -38.501  1.00  0.00    -0.550 OA
ATOM     10  O   UNL     1    -107.932  32.810 -36.916  1.00  0.00    -0.550 OA
ENDBRANCH   7   8
ENDBRANCH   6   7
ENDBRANCH   5   6
ENDBRANCH   4   5
ENDBRANCH   3   4
ENDBRANCH   2   3
ENDBRANCH   1   2
BRANCH   1  11
ATOM     11  C   UNL     1    -101.676  31.761 -33.240  1.00  0.00     0.000 C 
BRANCH  11  12
ATOM     12  C   UNL     1    -100.744  30.667 -33.795  1.00  0.00    -0.000 C 
BRANCH  12  13
ATOM     13  C   UNL     1     -99.666  31.157 -34.779  1.00  0.00    -0.000 C 
BRANCH  13  14
ATOM     14  C   UNL     1    -100.257  31.778 -36.056  1.00  0.00    -0.000 C 
BRANCH  14  15
ATOM     15  C   UNL     1    -100.087  30.879 -37.294  1.00  0.00    -0.000 C 
BRANCH  15  16
ATOM     16  C   UNL     1     -99.257  31.485 -38.443  1.00  0.00    -0.000 C 
BRANCH  16  17
ATOM     17  C   UNL     1     -98.486  32.768 -38.084  1.00  0.00    -0.003 C 
ATOM     18  C   UNL     1     -97.763  33.383 -39.282  1.00  0.00     0.004 C 
ENDBRANCH  16  17
ENDBRANCH  15  16
ENDBRANCH  14  15
ENDBRANCH  13  14
ENDBRANCH  12  13
ENDBRANCH  11  12
ENDBRANCH   1  11
TORSDOF 14
ENDMDL
MODEL 4
REMARK VINA RESULT:    -3.628      1.630      2.323
REMARK INTER + INTRA:          -8.222
REMARK INTER:                  -6.516
REMARK INTRA:                  -1.706
REMARK UNBOUND:                -1.623
REMARK SMILES CCCCCCCCCCCCCCCC(=O)[O-]
REMARK SMILES IDX 9 1 10 2 11 3 12 4 13 5 14 6 15 7 16 8 17 9 18 10 8 11 7 12
REMARK SMILES IDX 6 13 5 14 4 15 3 16 2 17 1 18
REMARK H PARENT
REMARK Flexibility Score: inf
ROOT
ATOM      1  C   UNL     1    -102.462  32.349 -35.535  1.00  0.00     0.000 C 
ENDROOT
BRANCH   1   2
ATOM      2  C   UNL     1    -101.544  31.897 -34.387  1.00  0.00     0.000 C 
BRANCH   2   3
ATOM      3  C   UNL     1    -102.299  31.096 -33.311  1.00  0.00     0.000 C 
BRANCH   3   4
ATOM      4  C   UNL     1    -103.307  31.960 -32.535  1.00  0.00     0.000 C 
BRANCH   4   5
ATOM      5  C   UNL     1    -104.553  31.171 -32.099  1.00  0.00     0.000 C 
BRANCH   5   6
ATOM      6  C   UNL     1    -105.662  31.158 -33.168  1.00  0.00     0.006 C 
BRANCH   6   7
ATOM      7  C   UNL     1    -105.784  32.473 -33.956  1.00  0.00     0.053 C 
BRANCH   7   8
ATOM      8  C   UNL     1    -106.590  32.323 -35.211  1.00  0.00     0.041 C 
ATOM      9  O   UNL     1    -107.645  31.636 -35.211  1.00  0.00    -0.550 OA
ATOM     10  O   UNL     1    -106.158  32.918 -36.390  1.00  0.00    -0.550 OA
ENDBRANCH   7   8
ENDBRANCH   6   7
ENDBRANCH   5   6
ENDBRANCH   4   5
ENDBRANCH   3   4
ENDBRANCH   2   3
ENDBRANCH   1   2
BRANCH   1  11
ATOM     11  C   UNL     1    -103.070  31.162 -36.304  1.00  0.00     0.000 C 
BRANCH  11  12
ATOM     12  C   UNL     1    -103.157  31.411 -37.821  1.00  0.00    -0.000 C 
BRANCH  12  13
ATOM     13  C   UNL     1    -102.195  30.570 -38.682  1.00  0.00    -0.000 C 
BRANCH  13  14
ATOM     14  C   UNL     1    -100.900  30.194 -37.943  1.00  0.00    -0.000 C 
BRANCH  14  15
ATOM     15  C   UNL     1     -99.698  31.059 -38.363  1.00  0.00    -0.000 C 
BRANCH  15  16
ATOM     16  C   UNL     1     -99.303  32.171 -37.369  1.00  0.00    -0.000 C 
BRANCH  16  17
ATOM     17  C   UNL     1     -98.499  33.333 -37.977  1.00  0.00    -0.003 C 
ATOM     18  C   UNL     1     -97.498  32.872 -39.037  1.00  0.00     0.004 C 
ENDBRANCH  16  17
ENDBRANCH  15  16
ENDBRANCH  14  15
ENDBRANCH  13  14
ENDBRANCH  12  13
ENDBRANCH  11  12
ENDBRANCH   1  11
TORSDOF 14
ENDMDL
MODEL 5
REMARK VINA RESULT:    -3.513      2.349      5.567
REMARK INTER + INTRA:          -8.011
REMARK INTER:                  -6.132
REMARK INTRA:                  -1.879
REMARK UNBOUND:                -1.623
REMARK SMILES CCCCCCCCCCCCCCCC(=O)[O-]
REMARK SMILES IDX 9 1 10 2 11 3 12 4 13 5 14 6 15 7 16 8 17 9 18 10 8 11 7 12
REMARK SMILES IDX 6 13 5 14 4 15 3 16 2 17 1 18
REMARK H PARENT
REMARK Flexibility Score: inf
ROOT
ATOM      1  C   UNL     1     -99.946  30.444 -38.357  1.00  0.00     0.000 C 
ENDROOT
BRANCH   1   2
ATOM      2  C   UNL     1     -99.718  31.845 -37.765  1.00  0.00     0.000 C 
BRANCH   2   3
ATOM      3  C   UNL     1     -99.709  31.838 -36.226  1.00  0.00     0.000 C 
BRANCH   3   4
ATOM      4  C   UNL     1     -99.821  30.419 -35.644  1.00  0.00     0.000 C 
BRANCH   4   5
ATOM      5  C   UNL     1    -101.064  30.237 -34.757  1.00  0.00     0.000 C 
BRANCH   5   6
ATOM      6  C   UNL     1    -101.027  31.103 -33.483  1.00  0.00     0.006 C 
BRANCH   6   7
ATOM      7  C   UNL     1    -102.372  31.769 -33.144  1.00  0.00     0.053 C 
BRANCH   7   8
ATOM      8  C   UNL     1    -103.470  30.775 -32.917  1.00  0.00     0.041 C 
ATOM      9  O   UNL     1    -104.481  30.762 -33.667  1.00  0.00    -0.550 OA
ATOM     10  O   UNL     1    -103.392  29.882 -31.856  1.00  0.00    -0.550 OA
ENDBRANCH   7   8
ENDBRANCH   6   7
ENDBRANCH   5   6
ENDBRANCH   4   5
ENDBRANCH   3   4
ENDBRANCH   2   3
ENDBRANCH   1   2
BRANCH   1  11
ATOM     11  C   UNL     1    -101.184  30.384 -39.270  1.00  0.00     0.000 C 
BRANCH  11  12
ATOM     12  C   UNL     1    -102.490  30.135 -38.495  1.00  0.00    -0.000 C 
BRANCH  12  13
ATOM     13  C   UNL     1    -103.392  31.369 -38.310  1.00  0.00    -0.000 C 
BRANCH  13  14
ATOM     14  C   UNL     1    -103.473  31.840 -36.848  1.00  0.00    -0.000 C 
BRANCH  14  15
ATOM     15  C   UNL     1    -104.615  32.844 -36.605  1.00  0.00    -0.000 C 
BRANCH  15  16
ATOM     16  C   UNL     1    -105.400  33.271 -37.862  1.00  0.00    -0.000 C 
BRANCH  16  17
ATOM     17  C   UNL     1    -106.920  33.048 -37.787  1.00  0.00    -0.003 C 
ATOM     18  C   UNL     1    -107.352  32.318 -36.516  1.00  0.00     0.004 C 
ENDBRANCH  16  17
ENDBRANCH  15  16
ENDBRANCH  14  15
ENDBRANCH  13  14
ENDBRANCH  12  13
ENDBRANCH  11  12
ENDBRANCH   1  11
TORSDOF 14
ENDMDL
MODEL 6
REMARK VINA RESULT:    -3.473      1.156      2.102
REMARK INTER + INTRA:          -7.939
REMARK INTER:                  -6.764
REMARK INTRA:                  -1.175
REMARK UNBOUND:                -1.623
REMARK SMILES CCCCCCCCCCCCCCCC(=O)[O-]
REMARK SMILES IDX 9 1 10 2 11 3 12 4 13 5 14 6 15 7 16 8 17 9 18 10 8 11 7 12
REMARK SMILES IDX 6 13 5 14 4 15 3 16 2 17 1 18
REMARK H PARENT
REMARK Flexibility Score: inf
ROOT
ATOM      1  C   UNL     1    -102.910  31.697 -33.954  1.00  0.00     0.000 C 
ENDROOT
BRANCH   1   2
ATOM      2  C   UNL     1    -103.845  31.229 -32.826  1.00  0.00     0.000 C 
BRANCH   2   3
ATOM      3  C   UNL     1    -105.299  31.688 -33.040  1.00  0.00     0.000 C 
BRANCH   3   4
ATOM      4  C   UNL     1    -105.407  32.850 -34.041  1.00  0.00     0.000 C 
BRANCH   4   5
ATOM      5  C   UNL     1    -106.689  32.786 -34.889  1.00  0.00     0.000 C 
BRANCH   5   6
ATOM      6  C   UNL     1    -106.635  31.701 -35.981  1.00  0.00     0.006 C 
BRANCH   6   7
ATOM      7  C   UNL     1    -105.333  31.704 -36.799  1.00  0.00     0.053 C 
BRANCH   7   8
ATOM      8  C   UNL     1    -105.467  32.439 -38.099  1.00  0.00     0.041 C 
ATOM      9  O   UNL     1    -105.805  33.652 -38.112  1.00  0.00    -0.550 OA
ATOM     10  O   UNL     1    -105.249  31.774 -39.299  1.00  0.00    -0.550 OA
ENDBRANCH   7   8
ENDBRANCH   6   7
ENDBRANCH   5   6
ENDBRANCH   4   5
ENDBRANCH   3   4
ENDBRANCH   2   3
ENDBRANCH   1   2
BRANCH   1  11
ATOM     11  C   UNL     1    -101.437  31.759 -33.509  1.00  0.00     0.000 C 
BRANCH  11  12
ATOM     12  C   UNL     1    -100.745  30.385 -33.531  1.00  0.00    -0.000 C 
BRANCH  12  13
ATOM     13  C   UNL     1     -99.359  30.355 -34.202  1.00  0.00    -0.000 C 
BRANCH  13  14
ATOM     14  C   UNL     1     -99.248  31.324 -35.391  1.00  0.00    -0.000 C 
BRANCH  14  15
ATOM     15  C   UNL     1     -99.832  30.745 -36.693  1.00  0.00    -0.000 C 
BRANCH  15  16
ATOM     16  C   UNL     1     -99.668  31.631 -37.944  1.00  0.00    -0.000 C 
BRANCH  16  17
ATOM     17  C   UNL     1     -98.719  32.831 -37.772  1.00  0.00    -0.003 C 
ATOM     18  C   UNL     1     -97.698  32.948 -38.903  1.00  0.00     0.004 C 
ENDBRANCH  16  17
ENDBRANCH  15  16
ENDBRANCH  14  15
ENDBRANCH  13  14
ENDBRANCH  12  13
ENDBRANCH  11  12
ENDBRANCH   1  11
TORSDOF 14
ENDMDL
MODEL 7
REMARK VINA RESULT:    -3.455      1.915      4.792
REMARK INTER + INTRA:          -7.905
REMARK INTER:                  -6.014
REMARK INTRA:                  -1.891
REMARK UNBOUND:                -1.623
REMARK SMILES CCCCCCCCCCCCCCCC(=O)[O-]
REMARK SMILES IDX 9 1 10 2 11 3 12 4 13 5 14 6 15 7 16 8 17 9 18 10 8 11 7 12
REMARK SMILES IDX 6 13 5 14 4 15 3 16 2 17 1 18
REMARK H PARENT
REMARK Flexibility Score: inf
ROOT
ATOM      1  C   UNL     1     -99.530  31.768 -37.769  1.00  0.00     0.000 C 
ENDROOT
BRANCH   1   2
ATOM      2  C   UNL     1     -99.990  32.138 -36.349  1.00  0.00     0.000 C 
BRANCH   2   3
ATOM      3  C   UNL     1     -99.307  31.281 -35.268  1.00  0.00     0.000 C 
BRANCH   3   4
ATOM      4  C   UNL     1    -100.308  30.719 -34.245  1.00  0.00     0.000 C 
BRANCH   4   5
ATOM      5  C   UNL     1    -101.711  30.511 -34.840  1.00  0.00     0.000 C 
BRANCH   5   6
ATOM      6  C   UNL     1    -102.841  30.931 -33.881  1.00  0.00     0.006 C 
BRANCH   6   7
ATOM      7  C   UNL     1    -104.164  31.271 -34.587  1.00  0.00     0.053 C 
BRANCH   7   8
ATOM      8  C   UNL     1    -104.432  32.745 -34.637  1.00  0.00     0.041 C 
ATOM      9  O   UNL     1    -103.780  33.484 -35.421  1.00  0.00    -0.550 OA
ATOM     10  O   UNL     1    -105.381  33.309 -33.793  1.00  0.00    -0.550 OA
ENDBRANCH   7   8
ENDBRANCH   6   7
ENDBRANCH   5   6
ENDBRANCH   4   5
ENDBRANCH   3   4
ENDBRANCH   2   3
ENDBRANCH   1   2
BRANCH   1  11
ATOM     11  C   UNL     1     -99.891  30.320 -38.146  1.00  0.00     0.000 C 
BRANCH  11  12
ATOM     12  C   UNL     1    -101.051  30.234 -39.155  1.00  0.00    -0.000 C 
BRANCH  12  13
ATOM     13  C   UNL     1    -102.449  30.044 -38.537  1.00  0.00    -0.000 C 
BRANCH  13  14
ATOM     14  C   UNL     1    -103.129  31.374 -38.173  1.00  0.00    -0.000 C 
BRANCH  14  15
ATOM     15  C   UNL     1    -104.469  31.581 -38.903  1.00  0.00    -0.000 C 
BRANCH  15  16
ATOM     16  C   UNL     1    -105.721  31.579 -38.002  1.00  0.00    -0.000 C 
BRANCH  16  17
ATOM     17  C   UNL     1    -106.467  32.922 -37.921  1.00  0.00    -0.003 C 
ATOM     18  C   UNL     1    -107.509  32.957 -36.803  1.00  0.00     0.004 C 
ENDBRANCH  16  17
ENDBRANCH  15  16
ENDBRANCH  14  15
ENDBRANCH  13  14
ENDBRANCH  12  13
ENDBRANCH  11  12
ENDBRANCH   1  11
TORSDOF 14
ENDMDL
MODEL 8
REMARK VINA RESULT:    -3.449      2.309      3.858
REMARK INTER + INTRA:          -7.895
REMARK INTER:                  -6.091
REMARK INTRA:                  -1.804
REMARK UNBOUND:                -1.623
REMARK SMILES CCCCCCCCCCCCCCCC(=O)[O-]
REMARK SMILES IDX 9 1 10 2 11 3 12 4 13 5 14 6 15 7 16 8 17 9 18 10 8 11 7 12
REMARK SMILES IDX 6 13 5 14 4 15 3 16 2 17 1 18
REMARK H PARENT
REMARK Flexibility Score: inf
ROOT
ATOM      1  C   UNL     1    -105.219  32.918 -38.098  1.00  0.00     0.000 C 
ENDROOT
BRANCH   1   2
ATOM      2  C   UNL     1    -106.544  32.155 -37.926  1.00  0.00     0.000 C 
BRANCH   2   3
ATOM      3  C   UNL     1    -107.220  32.449 -36.574  1.00  0.00     0.000 C 
BRANCH   3   4
ATOM      4  C   UNL     1    -107.211  31.230 -35.636  1.00  0.00     0.000 C 
BRANCH   4   5
ATOM      5  C   UNL     1    -106.243  31.397 -34.454  1.00  0.00     0.000 C 
BRANCH   5   6
ATOM      6  C   UNL     1    -105.576  32.786 -34.413  1.00  0.00     0.006 C 
BRANCH   6   7
ATOM      7  C   UNL     1    -104.049  32.749 -34.600  1.00  0.00     0.053 C 
BRANCH   7   8
ATOM      8  C   UNL     1    -103.352  31.971 -33.526  1.00  0.00     0.041 C 
ATOM      9  O   UNL     1    -102.603  31.004 -33.826  1.00  0.00    -0.550 OA
ATOM     10  O   UNL     1    -103.555  32.293 -32.190  1.00  0.00    -0.550 OA
ENDBRANCH   7   8
ENDBRANCH   6   7
ENDBRANCH   5   6
ENDBRANCH   4   5
ENDBRANCH   3   4
ENDBRANCH   2   3
ENDBRANCH   1   2
BRANCH   1  11
ATOM     11  C   UNL     1    -104.032  31.979 -38.376  1.00  0.00     0.000 C 
BRANCH  11  12
ATOM     12  C   UNL     1    -104.022  30.736 -37.467  1.00  0.00    -0.000 C 
BRANCH  12  13
ATOM     13  C   UNL     1    -102.633  30.134 -37.188  1.00  0.00    -0.000 C 
BRANCH  13  14
ATOM     14  C   UNL     1    -101.486  30.975 -37.773  1.00  0.00    -0.000 C 
BRANCH  14  15
ATOM     15  C   UNL     1    -100.635  31.663 -36.690  1.00  0.00    -0.000 C 
BRANCH  15  16
ATOM     16  C   UNL     1     -99.482  32.543 -37.214  1.00  0.00    -0.000 C 
BRANCH  16  17
ATOM     17  C   UNL     1     -98.876  32.091 -38.554  1.00  0.00    -0.003 C 
ATOM     18  C   UNL     1     -97.635  32.893 -38.945  1.00  0.00     0.004 C 
ENDBRANCH  16  17
ENDBRANCH  15  16
ENDBRANCH  14  15
ENDBRANCH  13  14
ENDBRANCH  12  13
ENDBRANCH  11  12
ENDBRANCH   1  11
TORSDOF 14
ENDMDL
MODEL 9
REMARK VINA RESULT:    -3.352      1.934      4.516
REMARK INTER + INTRA:          -7.719
REMARK INTER:                  -5.982
REMARK INTRA:                  -1.737
REMARK UNBOUND:                -1.623
REMARK SMILES CCCCCCCCCCCCCCCC(=O)[O-]
REMARK SMILES IDX 9 1 10 2 11 3 12 4 13 5 14 6 15 7 16 8 17 9 18 10 8 11 7 12
REMARK SMILES IDX 6 13 5 14 4 15 3 16 2 17 1 18
REMARK H PARENT
REMARK Flexibility Score: inf
ROOT
ATOM      1  C   UNL     1    -101.300  30.242 -39.268  1.00  0.00     0.000 C 
ENDROOT
BRANCH   1   2
ATOM      2  C   UNL     1    -102.621  30.064 -38.501  1.00  0.00     0.000 C 
BRANCH   2   3
ATOM      3  C   UNL     1    -103.245  31.408 -38.085  1.00  0.00     0.000 C 
BRANCH   3   4
ATOM      4  C   UNL     1    -104.575  31.686 -38.806  1.00  0.00     0.000 C 
BRANCH   4   5
ATOM      5  C   UNL     1    -105.376  32.826 -38.156  1.00  0.00     0.000 C 
BRANCH   5   6
ATOM      6  C   UNL     1    -106.734  32.364 -37.595  1.00  0.00     0.006 C 
BRANCH   6   7
ATOM      7  C   UNL     1    -107.001  32.824 -36.151  1.00  0.00     0.053 C 
BRANCH   7   8
ATOM      8  C   UNL     1    -106.353  31.937 -35.131  1.00  0.00     0.041 C 
ATOM      9  O   UNL     1    -106.083  32.380 -33.984  1.00  0.00    -0.550 OA
ATOM     10  O   UNL     1    -106.019  30.629 -35.459  1.00  0.00    -0.550 OA
ENDBRANCH   7   8
ENDBRANCH   6   7
ENDBRANCH   5   6
ENDBRANCH   4   5
ENDBRANCH   3   4
ENDBRANCH   2   3
ENDBRANCH   1   2
BRANCH   1  11
ATOM     11  C   UNL     1    -100.072  30.213 -38.341  1.00  0.00     0.000 C 
BRANCH  11  12
ATOM     12  C   UNL     1     -99.518  31.617 -38.035  1.00  0.00    -0.000 C 
BRANCH  12  13
ATOM     13  C   UNL     1     -99.870  32.174 -36.642  1.00  0.00    -0.000 C 
BRANCH  13  14
ATOM     14  C   UNL     1     -99.186  31.407 -35.499  1.00  0.00    -0.000 C 
BRANCH  14  15
ATOM     15  C   UNL     1    -100.170  30.965 -34.400  1.00  0.00    -0.000 C 
BRANCH  15  16
ATOM     16  C   UNL     1    -101.556  30.506 -34.899  1.00  0.00    -0.000 C 
BRANCH  16  17
ATOM     17  C   UNL     1    -102.740  31.356 -34.406  1.00  0.00    -0.003 C 
ATOM     18  C   UNL     1    -102.542  31.885 -32.986  1.00  0.00     0.004 C 
ENDBRANCH  16  17
ENDBRANCH  15  16
ENDBRANCH  14  15
ENDBRANCH  13  14
ENDBRANCH  12  13
ENDBRANCH  11  12
ENDBRANCH   1  11
TORSDOF 14
ENDMDL
