MODEL 1
REMARK VINA RESULT:     2.735      0.000      0.000
REMARK INTER + INTRA:           5.662
REMARK INTER:                   6.891
REMARK INTRA:                  -1.229
REMARK UNBOUND:                -1.229
REMARK SMILES CCCCCCCCCCCCCCCCCCCCCCCCCCCC(=O)[O-]
REMARK SMILES IDX 15 1 16 2 17 3 18 4 19 5 20 6 21 7 22 8 23 9 24 10 25 11
REMARK SMILES IDX 26 12 27 13 28 14 29 15 30 16 14 17 13 18 12 19 11 20 10 21
REMARK SMILES IDX 9 22 8 23 7 24 6 25 5 26 4 27 3 28 2 29 1 30
REMARK H PARENT
REMARK Flexibility Score: inf
ROOT
ATOM      1  C   UNL     1      23.107  12.431  16.877  1.00  0.00     0.000 C 
ENDROOT
BRANCH   1   2
ATOM      2  C   UNL     1      21.749  12.948  17.378  1.00  0.00     0.000 C 
BRANCH   2   3
ATOM      3  C   UNL     1      21.441  14.372  16.877  1.00  0.00     0.000 C 
BRANCH   3   4
ATOM      4  C   UNL     1      20.153  14.963  17.488  1.00  0.00     0.000 C 
BRANCH   4   5
ATOM      5  C   UNL     1      19.998  16.485  17.297  1.00  0.00     0.000 C 
BRANCH   5   6
ATOM      6  C   UNL     1      18.551  17.007  17.200  1.00  0.00     0.000 C 
BRANCH   6   7
ATOM      7  C   UNL     1      18.403  18.540  17.218  1.00  0.00     0.000 C 
BRANCH   7   8
ATOM      8  C   UNL     1      17.117  19.011  17.917  1.00  0.00     0.000 C 
BRANCH   8   9
ATOM      9  C   UNL     1      17.396  19.955  19.098  1.00  0.00     0.000 C 
BRANCH   9  10
ATOM     10  C   UNL     1      18.577  20.902  18.828  1.00  0.00     0.000 C 
BRANCH  10  11
ATOM     11  C   UNL     1      19.627  20.814  19.947  1.00  0.00     0.000 C 
BRANCH  11  12
ATOM     12  C   UNL     1      20.920  20.116  19.494  1.00  0.00     0.006 C 
BRANCH  12  13
ATOM     13  C   UNL     1      22.182  20.744  20.105  1.00  0.00     0.053 C 
BRANCH  13  14
ATOM     14  C   UNL     1      23.413  20.059  19.596  1.00  0.00     0.041 C 
ATOM     15  O   UNL     1      23.464  19.643  18.409  1.00  0.00    -0.550 OA
ATOM     16  O   UNL     1      24.502  19.867  20.440  1.00  0.00    -0.550 OA
ENDBRANCH  13  14
ENDBRANCH  12  13
ENDBRANCH  11  12
ENDBRANCH  10  11
ENDBRANCH   9  10
ENDBRANCH   8   9
ENDBRANCH   7   8
ENDBRANCH   6   7
ENDBRANCH   5   6
ENDBRANCH   4   5
ENDBRANCH   3   4
ENDBRANCH   2   3
ENDBRANCH   1   2
BRANCH   1  17
ATOM     17  C   UNL     1      23.241  10.904  16.997  1.00  0.00     0.000 C 
BRANCH  17  18
ATOM     18  C   UNL     1      24.195  10.479  18.124  1.00  0.00     0.000 C 
BRANCH  18  19
ATOM     19  C   UNL     1      25.663  10.417  17.667  1.00  0.00     0.000 C 
BRANCH  19  20
ATOM     20  C   UNL     1      25.976   9.136  16.877  1.00  0.00     0.000 C 
BRANCH  20  21
ATOM     21  C   UNL     1      26.081   7.900  17.789  1.00  0.00     0.000 C 
BRANCH  21  22
ATOM     22  C   UNL     1      25.668   6.601  17.077  1.00  0.00    -0.000 C 
BRANCH  22  23
ATOM     23  C   UNL     1      24.581   5.825  17.835  1.00  0.00    -0.000 C 
BRANCH  23  24
ATOM     24  C   UNL     1      23.457   5.383  16.886  1.00  0.00    -0.000 C 
BRANCH  24  25
ATOM     25  C   UNL     1      22.169   5.000  17.631  1.00  0.00    -0.000 C 
BRANCH  25  26
ATOM     26  C   UNL     1      22.173   3.538  18.112  1.00  0.00    -0.000 C 
BRANCH  26  27
ATOM     27  C   UNL     1      23.204   3.286  19.224  1.00  0.00    -0.000 C 
BRANCH  27  28
ATOM     28  C   UNL     1      22.881   4.057  20.516  1.00  0.00    -0.000 C 
BRANCH  28  29
ATOM     29  C   UNL     1      24.074   4.884  21.020  1.00  0.00    -0.003 C 
ATOM     30  C   UNL     1      24.993   4.087  21.946  1.00  0.00     0.004 C 
ENDBRANCH  28  29
ENDBRANCH  27  28
ENDBRANCH  26  27
ENDBRANCH  25  26
ENDBRANCH  24  25
ENDBRANCH  23  24
ENDBRANCH  22  23
ENDBRANCH  21  22
ENDBRANCH  20  21
ENDBRANCH  19  20
ENDBRANCH  18  19
ENDBRANCH  17  18
ENDBRANCH   1  17
TORSDOF 26
ENDMDL
MODEL 2
REMARK VINA RESULT:     3.267      1.796      4.909
REMARK INTER + INTRA:           7.004
REMARK INTER:                   7.784
REMARK INTRA:                  -0.780
REMARK UNBOUND:                -1.229
REMARK SMILES CCCCCCCCCCCCCCCCCCCCCCCCCCCC(=O)[O-]
REMARK SMILES IDX 15 1 16 2 17 3 18 4 19 5 20 6 21 7 22 8 23 9 24 10 25 11
REMARK SMILES IDX 26 12 27 13 28 14 29 15 30 16 14 17 13 18 12 19 11 20 10 21
REMARK SMILES IDX 9 22 8 23 7 24 6 25 5 26 4 27 3 28 2 29 1 30
REMARK H PARENT
REMARK Flexibility Score: inf
ROOT
ATOM      1  C   UNL     1      18.190  17.083  17.625  1.00  0.00     0.000 C 
ENDROOT
BRANCH   1   2
ATOM      2  C   UNL     1      18.492  17.442  19.088  1.00  0.00     0.000 C 
BRANCH   2   3
ATOM      3  C   UNL     1      19.269  18.766  19.221  1.00  0.00     0.000 C 
BRANCH   3   4
ATOM      4  C   UNL     1      18.357  19.976  19.515  1.00  0.00     0.000 C 
BRANCH   4   5
ATOM      5  C   UNL     1      18.878  21.316  18.958  1.00  0.00     0.000 C 
BRANCH   5   6
ATOM      6  C   UNL     1      19.296  21.311  17.475  1.00  0.00     0.000 C 
BRANCH   6   7
ATOM      7  C   UNL     1      20.671  21.938  17.178  1.00  0.00     0.000 C 
BRANCH   7   8
ATOM      8  C   UNL     1      21.839  20.968  17.424  1.00  0.00     0.000 C 
BRANCH   8   9
ATOM      9  C   UNL     1      23.209  21.605  17.140  1.00  0.00     0.000 C 
BRANCH   9  10
ATOM     10  C   UNL     1      24.313  21.063  18.063  1.00  0.00     0.000 C 
BRANCH  10  11
ATOM     11  C   UNL     1      24.686  22.087  19.146  1.00  0.00     0.000 C 
BRANCH  11  12
ATOM     12  C   UNL     1      24.963  21.435  20.510  1.00  0.00     0.006 C 
BRANCH  12  13
ATOM     13  C   UNL     1      26.019  20.321  20.434  1.00  0.00     0.053 C 
BRANCH  13  14
ATOM     14  C   UNL     1      25.367  18.975  20.378  1.00  0.00     0.041 C 
ATOM     15  O   UNL     1      24.268  18.826  19.781  1.00  0.00    -0.550 OA
ATOM     16  O   UNL     1      25.966  17.884  20.999  1.00  0.00    -0.550 OA
ENDBRANCH  13  14
ENDBRANCH  12  13
ENDBRANCH  11  12
ENDBRANCH  10  11
ENDBRANCH   9  10
ENDBRANCH   8   9
ENDBRANCH   7   8
ENDBRANCH   6   7
ENDBRANCH   5   6
ENDBRANCH   4   5
ENDBRANCH   3   4
ENDBRANCH   2   3
ENDBRANCH   1   2
BRANCH   1  17
ATOM     17  C   UNL     1      18.740  15.704  17.227  1.00  0.00     0.000 C 
BRANCH  17  18
ATOM     18  C   UNL     1      20.268  15.696  17.072  1.00  0.00     0.000 C 
BRANCH  18  19
ATOM     19  C   UNL     1      20.939  14.559  17.862  1.00  0.00     0.000 C 
BRANCH  19  20
ATOM     20  C   UNL     1      21.484  13.452  16.944  1.00  0.00     0.000 C 
BRANCH  20  21
ATOM     21  C   UNL     1      22.000  12.238  17.738  1.00  0.00     0.000 C 
BRANCH  21  22
ATOM     22  C   UNL     1      22.836  11.277  16.876  1.00  0.00    -0.000 C 
BRANCH  22  23
ATOM     23  C   UNL     1      22.719   9.814  17.329  1.00  0.00    -0.000 C 
BRANCH  23  24
ATOM     24  C   UNL     1      23.939   8.999  16.875  1.00  0.00    -0.000 C 
BRANCH  24  25
ATOM     25  C   UNL     1      23.705   7.483  16.966  1.00  0.00    -0.000 C 
BRANCH  25  26
ATOM     26  C   UNL     1      22.234   7.123  17.235  1.00  0.00    -0.000 C 
BRANCH  26  27
ATOM     27  C   UNL     1      22.012   5.608  17.367  1.00  0.00    -0.000 C 
BRANCH  27  28
ATOM     28  C   UNL     1      22.283   5.092  18.792  1.00  0.00    -0.000 C 
BRANCH  28  29
ATOM     29  C   UNL     1      22.441   3.564  18.842  1.00  0.00    -0.003 C 
ATOM     30  C   UNL     1      21.838   2.870  17.621  1.00  0.00     0.004 C 
ENDBRANCH  28  29
ENDBRANCH  27  28
ENDBRANCH  26  27
ENDBRANCH  25  26
ENDBRANCH  24  25
ENDBRANCH  23  24
ENDBRANCH  22  23
ENDBRANCH  21  22
ENDBRANCH  20  21
ENDBRANCH  19  20
ENDBRANCH  18  19
ENDBRANCH  17  18
ENDBRANCH   1  17
TORSDOF 26
ENDMDL
MODEL 3
REMARK VINA RESULT:     4.041      1.403      2.472
REMARK INTER + INTRA:           8.954
REMARK INTER:                  10.582
REMARK INTRA:                  -1.628
REMARK UNBOUND:                -1.229
REMARK SMILES CCCCCCCCCCCCCCCCCCCCCCCCCCCC(=O)[O-]
REMARK SMILES IDX 15 1 16 2 17 3 18 4 19 5 20 6 21 7 22 8 23 9 24 10 25 11
REMARK SMILES IDX 26 12 27 13 28 14 29 15 30 16 14 17 13 18 12 19 11 20 10 21
REMARK SMILES IDX 9 22 8 23 7 24 6 25 5 26 4 27 3 28 2 29 1 30
REMARK H PARENT
REMARK Flexibility Score: inf
ROOT
ATOM      1  C   UNL     1      22.731  10.875  18.220  1.00  0.00     0.000 C 
ENDROOT
BRANCH   1   2
ATOM      2  C   UNL     1      22.071  11.401  16.936  1.00  0.00     0.000 C 
BRANCH   2   3
ATOM      3  C   UNL     1      22.044  12.941  16.877  1.00  0.00     0.000 C 
BRANCH   3   4
ATOM      4  C   UNL     1      20.878  13.557  17.678  1.00  0.00     0.000 C 
BRANCH   4   5
ATOM      5  C   UNL     1      20.002  14.539  16.875  1.00  0.00     0.000 C 
BRANCH   5   6
ATOM      6  C   UNL     1      19.313  15.648  17.693  1.00  0.00     0.000 C 
BRANCH   6   7
ATOM      7  C   UNL     1      19.715  17.087  17.318  1.00  0.00     0.000 C 
BRANCH   7   8
ATOM      8  C   UNL     1      18.504  18.012  17.100  1.00  0.00     0.000 C 
BRANCH   8   9
ATOM      9  C   UNL     1      18.906  19.487  16.941  1.00  0.00     0.000 C 
BRANCH   9  10
ATOM     10  C   UNL     1      20.004  19.909  17.933  1.00  0.00     0.000 C 
BRANCH  10  11
ATOM     11  C   UNL     1      19.518  21.041  18.851  1.00  0.00     0.000 C 
BRANCH  11  12
ATOM     12  C   UNL     1      20.676  21.847  19.461  1.00  0.00     0.006 C 
BRANCH  12  13
ATOM     13  C   UNL     1      21.673  20.969  20.232  1.00  0.00     0.053 C 
BRANCH  13  14
ATOM     14  C   UNL     1      23.075  21.235  19.779  1.00  0.00     0.041 C 
ATOM     15  O   UNL     1      24.024  21.223  20.606  1.00  0.00    -0.550 OA
ATOM     16  O   UNL     1      23.333  21.514  18.441  1.00  0.00    -0.550 OA
ENDBRANCH  13  14
ENDBRANCH  12  13
ENDBRANCH  11  12
ENDBRANCH  10  11
ENDBRANCH   9  10
ENDBRANCH   8   9
ENDBRANCH   7   8
ENDBRANCH   6   7
ENDBRANCH   5   6
ENDBRANCH   4   5
ENDBRANCH   3   4
ENDBRANCH   2   3
ENDBRANCH   1   2
BRANCH   1  17
ATOM     17  C   UNL     1      24.261  10.774  18.103  1.00  0.00     0.000 C 
BRANCH  17  18
ATOM     18  C   UNL     1      24.709   9.889  16.931  1.00  0.00     0.000 C 
BRANCH  18  19
ATOM     19  C   UNL     1      24.111   8.472  16.995  1.00  0.00     0.000 C 
BRANCH  19  20
ATOM     20  C   UNL     1      25.185   7.378  16.875  1.00  0.00     0.000 C 
BRANCH  20  21
ATOM     21  C   UNL     1      24.626   5.976  17.182  1.00  0.00     0.000 C 
BRANCH  21  22
ATOM     22  C   UNL     1      23.374   6.019  18.072  1.00  0.00    -0.000 C 
BRANCH  22  23
ATOM     23  C   UNL     1      23.577   5.314  19.422  1.00  0.00    -0.000 C 
BRANCH  23  24
ATOM     24  C   UNL     1      24.805   4.393  19.382  1.00  0.00    -0.000 C 
BRANCH  24  25
ATOM     25  C   UNL     1      24.523   3.004  19.975  1.00  0.00    -0.000 C 
BRANCH  25  26
ATOM     26  C   UNL     1      23.203   2.397  19.467  1.00  0.00    -0.000 C 
BRANCH  26  27
ATOM     27  C   UNL     1      22.139   2.291  20.572  1.00  0.00    -0.000 C 
BRANCH  27  28
ATOM     28  C   UNL     1      20.704   2.374  20.021  1.00  0.00    -0.000 C 
BRANCH  28  29
ATOM     29  C   UNL     1      20.647   3.021  18.628  1.00  0.00    -0.003 C 
ATOM     30  C   UNL     1      20.358   4.521  18.687  1.00  0.00     0.004 C 
ENDBRANCH  28  29
ENDBRANCH  27  28
ENDBRANCH  26  27
ENDBRANCH  25  26
ENDBRANCH  24  25
ENDBRANCH  23  24
ENDBRANCH  22  23
ENDBRANCH  21  22
ENDBRANCH  20  21
ENDBRANCH  19  20
ENDBRANCH  18  19
ENDBRANCH  17  18
ENDBRANCH   1  17
TORSDOF 26
ENDMDL
MODEL 4
REMARK VINA RESULT:     4.828      1.591      2.881
REMARK INTER + INTRA:          10.937
REMARK INTER:                  12.575
REMARK INTRA:                  -1.637
REMARK UNBOUND:                -1.229
REMARK SMILES CCCCCCCCCCCCCCCCCCCCCCCCCCCC(=O)[O-]
REMARK SMILES IDX 15 1 16 2 17 3 18 4 19 5 20 6 21 7 22 8 23 9 24 10 25 11
REMARK SMILES IDX 26 12 27 13 28 14 29 15 30 16 14 17 13 18 12 19 11 20 10 21
REMARK SMILES IDX 9 22 8 23 7 24 6 25 5 26 4 27 3 28 2 29 1 30
REMARK H PARENT
REMARK Flexibility Score: inf
ROOT
ATOM      1  C   UNL     1      21.997  10.437  17.806  1.00  0.00     0.000 C 
ENDROOT
BRANCH   1   2
ATOM      2  C   UNL     1      23.037  11.442  17.288  1.00  0.00     0.000 C 
BRANCH   2   3
ATOM      3  C   UNL     1      22.403  12.786  16.880  1.00  0.00     0.000 C 
BRANCH   3   4
ATOM      4  C   UNL     1      21.574  13.433  18.009  1.00  0.00     0.000 C 
BRANCH   4   5
ATOM      5  C   UNL     1      20.393  14.294  17.519  1.00  0.00     0.000 C 
BRANCH   5   6
ATOM      6  C   UNL     1      20.704  15.782  17.268  1.00  0.00     0.000 C 
BRANCH   6   7
ATOM      7  C   UNL     1      19.493  16.650  16.878  1.00  0.00     0.000 C 
BRANCH   7   8
ATOM      8  C   UNL     1      18.860  17.372  18.080  1.00  0.00     0.000 C 
BRANCH   8   9
ATOM      9  C   UNL     1      17.462  17.931  17.766  1.00  0.00     0.000 C 
BRANCH   9  10
ATOM     10  C   UNL     1      17.458  19.463  17.630  1.00  0.00     0.000 C 
BRANCH  10  11
ATOM     11  C   UNL     1      18.452  20.111  18.605  1.00  0.00     0.000 C 
BRANCH  11  12
ATOM     12  C   UNL     1      19.211  21.294  17.981  1.00  0.00     0.006 C 
BRANCH  12  13
ATOM     13  C   UNL     1      20.422  21.734  18.818  1.00  0.00     0.053 C 
BRANCH  13  14
ATOM     14  C   UNL     1      21.319  20.570  19.105  1.00  0.00     0.041 C 
ATOM     15  O   UNL     1      22.023  20.069  18.190  1.00  0.00    -0.550 OA
ATOM     16  O   UNL     1      21.367  20.027  20.385  1.00  0.00    -0.550 OA
ENDBRANCH  13  14
ENDBRANCH  12  13
ENDBRANCH  11  12
ENDBRANCH  10  11
ENDBRANCH   9  10
ENDBRANCH   8   9
ENDBRANCH   7   8
ENDBRANCH   6   7
ENDBRANCH   5   6
ENDBRANCH   4   5
ENDBRANCH   3   4
ENDBRANCH   2   3
ENDBRANCH   1   2
BRANCH   1  17
ATOM     17  C   UNL     1      22.478   8.980  17.705  1.00  0.00     0.000 C 
BRANCH  17  18
ATOM     18  C   UNL     1      21.434   7.974  18.212  1.00  0.00     0.000 C 
BRANCH  18  19
ATOM     19  C   UNL     1      21.682   6.548  17.689  1.00  0.00     0.000 C 
BRANCH  19  20
ATOM     20  C   UNL     1      22.982   6.440  16.876  1.00  0.00     0.000 C 
BRANCH  20  21
ATOM     21  C   UNL     1      24.194   6.091  17.759  1.00  0.00     0.000 C 
BRANCH  21  22
ATOM     22  C   UNL     1      25.369   5.515  16.952  1.00  0.00    -0.000 C 
BRANCH  22  23
ATOM     23  C   UNL     1      26.069   4.349  17.666  1.00  0.00    -0.000 C 
BRANCH  23  24
ATOM     24  C   UNL     1      26.004   4.519  19.191  1.00  0.00    -0.000 C 
BRANCH  24  25
ATOM     25  C   UNL     1      25.832   3.182  19.928  1.00  0.00    -0.000 C 
BRANCH  25  26
ATOM     26  C   UNL     1      24.400   2.969  20.450  1.00  0.00    -0.000 C 
BRANCH  26  27
ATOM     27  C   UNL     1      23.780   4.259  21.012  1.00  0.00    -0.000 C 
BRANCH  27  28
ATOM     28  C   UNL     1      22.557   4.729  20.203  1.00  0.00    -0.000 C 
BRANCH  28  29
ATOM     29  C   UNL     1      21.753   3.556  19.621  1.00  0.00    -0.003 C 
ATOM     30  C   UNL     1      20.243   3.787  19.688  1.00  0.00     0.004 C 
ENDBRANCH  28  29
ENDBRANCH  27  28
ENDBRANCH  26  27
ENDBRANCH  25  26
ENDBRANCH  24  25
ENDBRANCH  23  24
ENDBRANCH  22  23
ENDBRANCH  21  22
ENDBRANCH  20  21
ENDBRANCH  19  20
ENDBRANCH  18  19
ENDBRANCH  17  18
ENDBRANCH   1  17
TORSDOF 26
ENDMDL
MODEL 5
REMARK VINA RESULT:     4.829      1.584      3.463
REMARK INTER + INTRA:          10.940
REMARK INTER:                  11.344
REMARK INTRA:                  -0.404
REMARK UNBOUND:                -1.229
REMARK SMILES CCCCCCCCCCCCCCCCCCCCCCCCCCCC(=O)[O-]
REMARK SMILES IDX 15 1 16 2 17 3 18 4 19 5 20 6 21 7 22 8 23 9 24 10 25 11
REMARK SMILES IDX 26 12 27 13 28 14 29 15 30 16 14 17 13 18 12 19 11 20 10 21
REMARK SMILES IDX 9 22 8 23 7 24 6 25 5 26 4 27 3 28 2 29 1 30
REMARK H PARENT
REMARK Flexibility Score: inf
ROOT
ATOM      1  C   UNL     1      23.605   9.089  17.781  1.00  0.00     0.000 C 
ENDROOT
BRANCH   1   2
ATOM      2  C   UNL     1      22.816  10.049  16.877  1.00  0.00     0.000 C 
BRANCH   2   3
ATOM      3  C   UNL     1      22.859  11.503  17.383  1.00  0.00     0.000 C 
BRANCH   3   4
ATOM      4  C   UNL     1      21.462  12.150  17.489  1.00  0.00     0.000 C 
BRANCH   4   5
ATOM      5  C   UNL     1      21.390  13.598  16.964  1.00  0.00     0.000 C 
BRANCH   5   6
ATOM      6  C   UNL     1      20.335  14.502  17.631  1.00  0.00     0.000 C 
BRANCH   6   7
ATOM      7  C   UNL     1      20.017  15.807  16.876  1.00  0.00     0.000 C 
BRANCH   7   8
ATOM      8  C   UNL     1      20.011  17.044  17.791  1.00  0.00     0.000 C 
BRANCH   8   9
ATOM      9  C   UNL     1      18.591  17.489  18.177  1.00  0.00     0.000 C 
BRANCH   9  10
ATOM     10  C   UNL     1      18.035  18.568  17.233  1.00  0.00     0.000 C 
BRANCH  10  11
ATOM     11  C   UNL     1      18.501  19.970  17.655  1.00  0.00     0.000 C 
BRANCH  11  12
ATOM     12  C   UNL     1      19.928  19.974  18.226  1.00  0.00     0.006 C 
BRANCH  12  13
ATOM     13  C   UNL     1      20.550  21.379  18.267  1.00  0.00     0.053 C 
BRANCH  13  14
ATOM     14  C   UNL     1      22.039  21.295  18.404  1.00  0.00     0.041 C 
ATOM     15  O   UNL     1      22.554  20.634  19.343  1.00  0.00    -0.550 OA
ATOM     16  O   UNL     1      22.860  21.962  17.501  1.00  0.00    -0.550 OA
ENDBRANCH  13  14
ENDBRANCH  12  13
ENDBRANCH  11  12
ENDBRANCH  10  11
ENDBRANCH   9  10
ENDBRANCH   8   9
ENDBRANCH   7   8
ENDBRANCH   6   7
ENDBRANCH   5   6
ENDBRANCH   4   5
ENDBRANCH   3   4
ENDBRANCH   2   3
ENDBRANCH   1   2
BRANCH   1  17
ATOM     17  C   UNL     1      23.978   7.778  17.071  1.00  0.00     0.000 C 
BRANCH  17  18
ATOM     18  C   UNL     1      25.487   7.494  17.103  1.00  0.00     0.000 C 
BRANCH  18  19
ATOM     19  C   UNL     1      25.853   6.328  18.039  1.00  0.00     0.000 C 
BRANCH  19  20
ATOM     20  C   UNL     1      25.999   4.997  17.285  1.00  0.00     0.000 C 
BRANCH  20  21
ATOM     21  C   UNL     1      24.636   4.370  16.939  1.00  0.00     0.000 C 
BRANCH  21  22
ATOM     22  C   UNL     1      24.350   3.092  17.745  1.00  0.00    -0.000 C 
BRANCH  22  23
ATOM     23  C   UNL     1      23.785   3.383  19.143  1.00  0.00    -0.000 C 
BRANCH  23  24
ATOM     24  C   UNL     1      23.818   2.124  20.023  1.00  0.00    -0.000 C 
BRANCH  24  25
ATOM     25  C   UNL     1      22.500   1.894  20.777  1.00  0.00    -0.000 C 
BRANCH  25  26
ATOM     26  C   UNL     1      21.263   2.278  19.946  1.00  0.00    -0.000 C 
BRANCH  26  27
ATOM     27  C   UNL     1      21.045   3.798  19.882  1.00  0.00    -0.000 C 
BRANCH  27  28
ATOM     28  C   UNL     1      20.515   4.263  18.514  1.00  0.00    -0.000 C 
BRANCH  28  29
ATOM     29  C   UNL     1      21.357   5.399  17.913  1.00  0.00    -0.003 C 
ATOM     30  C   UNL     1      20.507   6.585  17.458  1.00  0.00     0.004 C 
ENDBRANCH  28  29
ENDBRANCH  27  28
ENDBRANCH  26  27
ENDBRANCH  25  26
ENDBRANCH  24  25
ENDBRANCH  23  24
ENDBRANCH  22  23
ENDBRANCH  21  22
ENDBRANCH  20  21
ENDBRANCH  19  20
ENDBRANCH  18  19
ENDBRANCH  17  18
ENDBRANCH   1  17
TORSDOF 26
ENDMDL
