MODEL 1
REMARK VINA RESULT:     0.672      0.000      0.000
REMARK INTER + INTRA:           1.275
REMARK INTER:                   0.731
REMARK INTRA:                   0.544
REMARK UNBOUND:                 0.544
REMARK SMILES C[C@@H]1[C@@H](C)CC[C@]2(C(=O)[O-])CC[C@]3(C)C(=CC[C@@H]4[C@@]5(C)CC[C@@H](O)C(C)(C)[C@H]5CC[C@@]43C)[C@@H]12
REMARK SMILES IDX 7 1 6 2 11 3 33 4 5 5 12 6 15 7 2 8 3 9 13 10 16 11 1 12
REMARK SMILES IDX 4 13 14 14 31 15 17 16 18 17 30 18 32 19 19 20 29 21 28 22
REMARK SMILES IDX 21 23 20 24 25 25 22 26 23 27 26 28 27 29 8 30 9 31 10 32
REMARK SMILES IDX 24 33
REMARK H PARENT 24 34
REMARK Flexibility Score: inf
ROOT
ATOM      1  C   UNL     1     -10.725  22.679  -8.975  1.00  0.00     0.017 C 
ATOM      2  C   UNL     1     -12.242  22.781  -9.248  1.00  0.00     0.014 C 
ATOM      3  C   UNL     1     -10.092  24.055  -9.299  1.00  0.00     0.014 C 
ATOM      4  C   UNL     1     -10.059  21.647  -9.937  1.00  0.00     0.030 C 
ATOM      5  C   UNL     1     -12.925  21.421  -9.142  1.00  0.00     0.004 C 
ATOM      6  C   UNL     1      -8.578  24.089  -9.044  1.00  0.00     0.013 C 
ATOM      7  C   UNL     1      -8.541  21.596  -9.624  1.00  0.00    -0.063 C 
ATOM      8  C   UNL     1     -10.827  20.275 -10.060  1.00  0.00    -0.003 C 
ATOM      9  C   UNL     1     -12.370  20.465 -10.203  1.00  0.00    -0.011 C 
ATOM     10  C   UNL     1      -7.737  22.910  -9.679  1.00  0.00    -0.006 C 
ATOM     11  C   UNL     1      -7.915  20.429  -9.382  1.00  0.00    -0.027 C 
ATOM     12  C   UNL     1     -10.313  19.475 -11.287  1.00  0.00     0.008 C 
ATOM     13  C   UNL     1     -13.125  19.126 -10.119  1.00  0.00     0.008 C 
ATOM     14  C   UNL     1      -7.551  23.235 -11.192  1.00  0.00     0.017 C 
ATOM     15  C   UNL     1      -6.310  22.770  -8.917  1.00  0.00    -0.020 C 
ATOM     16  C   UNL     1      -6.433  20.239  -9.320  1.00  0.00     0.032 C 
ATOM     17  C   UNL     1      -5.531  21.509  -9.438  1.00  0.00     0.006 C 
ATOM     18  C   UNL     1      -6.495  22.617  -7.372  1.00  0.00     0.008 C 
ATOM     19  C   UNL     1      -5.512  24.083  -9.161  1.00  0.00     0.012 C 
ATOM     20  C   UNL     1      -4.092  21.241  -8.782  1.00  0.00    -0.025 C 
ATOM     21  C   UNL     1      -5.548  21.677  -6.583  1.00  0.00     0.005 C 
ATOM     22  C   UNL     1      -4.191  21.155  -7.199  1.00  0.00     0.003 C 
ATOM     23  C   UNL     1      -3.007  22.280  -9.303  1.00  0.00     0.010 C 
ATOM     24  C   UNL     1      -3.603  19.847  -9.333  1.00  0.00     0.012 C 
ATOM     25  C   UNL     1      -2.884  21.601  -6.422  1.00  0.00    -0.006 C 
ATOM     26  C   UNL     1      -2.250  23.216  -8.312  1.00  0.00     0.033 C 
ATOM     27  C   UNL     1      -2.522  23.049  -6.804  1.00  0.00     0.120 C 
ATOM     28  C   UNL     1      -1.682  20.664  -6.750  1.00  0.00     0.014 C 
ATOM     29  C   UNL     1      -3.058  21.499  -4.875  1.00  0.00     0.014 C 
ENDROOT
BRANCH   1  30
ATOM     30  C   UNL     1     -10.517  22.340  -7.500  1.00  0.00     0.048 C 
ATOM     31  O   UNL     1     -10.003  23.190  -6.724  1.00  0.00    -0.550 OA
ATOM     32  O   UNL     1     -10.938  21.125  -6.973  1.00  0.00    -0.550 OA
ENDBRANCH   1  30
BRANCH  27  33
ATOM     33  O   UNL     1      -3.542  23.935  -6.407  1.00  0.00    -0.393 OA
ATOM     34  H   UNL     1      -4.360  23.714  -6.924  1.00  0.00     0.210 HD
ENDBRANCH  27  33
TORSDOF 2
ENDMDL
MODEL 2
REMARK VINA RESULT:     2.112      2.102      7.624
REMARK INTER + INTRA:           2.841
REMARK INTER:                   1.198
REMARK INTRA:                   1.643
REMARK UNBOUND:                 0.544
REMARK SMILES C[C@@H]1[C@@H](C)CC[C@]2(C(=O)[O-])CC[C@]3(C)C(=CC[C@@H]4[C@@]5(C)CC[C@@H](O)C(C)(C)[C@H]5CC[C@@]43C)[C@@H]12
REMARK SMILES IDX 7 1 6 2 11 3 33 4 5 5 12 6 15 7 2 8 3 9 13 10 16 11 1 12
REMARK SMILES IDX 4 13 14 14 31 15 17 16 18 17 30 18 32 19 19 20 29 21 28 22
REMARK SMILES IDX 21 23 20 24 25 25 22 26 23 27 26 28 27 29 8 30 9 31 10 32
REMARK SMILES IDX 24 33
REMARK H PARENT 24 34
REMARK Flexibility Score: inf
ROOT
ATOM      1  C   UNL     1      -4.535  22.292  -9.088  1.00  0.00     0.017 C 
ATOM      2  C   UNL     1      -3.117  22.781  -8.715  1.00  0.00     0.014 C 
ATOM      3  C   UNL     1      -4.949  22.999 -10.403  1.00  0.00     0.014 C 
ATOM      4  C   UNL     1      -5.571  22.726  -8.006  1.00  0.00     0.030 C 
ATOM      5  C   UNL     1      -2.698  22.288  -7.334  1.00  0.00     0.004 C 
ATOM      6  C   UNL     1      -6.341  22.577 -10.893  1.00  0.00     0.013 C 
ATOM      7  C   UNL     1      -6.972  22.219  -8.439  1.00  0.00    -0.063 C 
ATOM      8  C   UNL     1      -5.121  22.452  -6.519  1.00  0.00    -0.003 C 
ATOM      9  C   UNL     1      -3.634  22.855  -6.262  1.00  0.00    -0.011 C 
ATOM     10  C   UNL     1      -7.504  22.633  -9.824  1.00  0.00    -0.006 C 
ATOM     11  C   UNL     1      -7.743  21.497  -7.604  1.00  0.00    -0.027 C 
ATOM     12  C   UNL     1      -6.023  23.235  -5.527  1.00  0.00     0.008 C 
ATOM     13  C   UNL     1      -3.147  22.399  -4.875  1.00  0.00     0.008 C 
ATOM     14  C   UNL     1      -7.939  24.124  -9.688  1.00  0.00     0.017 C 
ATOM     15  C   UNL     1      -8.740  21.690 -10.295  1.00  0.00    -0.020 C 
ATOM     16  C   UNL     1      -9.188  21.176  -7.821  1.00  0.00     0.032 C 
ATOM     17  C   UNL     1      -9.836  21.620  -9.171  1.00  0.00     0.006 C 
ATOM     18  C   UNL     1      -8.268  20.231 -10.598  1.00  0.00     0.008 C 
ATOM     19  C   UNL     1      -9.308  22.279 -11.618  1.00  0.00     0.012 C 
ATOM     20  C   UNL     1     -11.130  20.728  -9.494  1.00  0.00    -0.025 C 
ATOM     21  C   UNL     1      -9.190  19.041 -10.226  1.00  0.00     0.005 C 
ATOM     22  C   UNL     1     -10.719  19.247  -9.892  1.00  0.00     0.003 C 
ATOM     23  C   UNL     1     -12.082  21.439 -10.551  1.00  0.00     0.010 C 
ATOM     24  C   UNL     1     -11.979  20.677  -8.167  1.00  0.00     0.012 C 
ATOM     25  C   UNL     1     -11.726  18.515 -10.873  1.00  0.00    -0.006 C 
ATOM     26  C   UNL     1     -12.423  20.756 -11.910  1.00  0.00     0.033 C 
ATOM     27  C   UNL     1     -11.878  19.337 -12.168  1.00  0.00     0.120 C 
ATOM     28  C   UNL     1     -13.125  18.326 -10.213  1.00  0.00     0.014 C 
ATOM     29  C   UNL     1     -11.254  17.071 -11.227  1.00  0.00     0.014 C 
ENDROOT
BRANCH   1  30
ATOM     30  C   UNL     1      -4.490  20.780  -9.298  1.00  0.00     0.048 C 
ATOM     31  O   UNL     1      -3.383  20.178  -9.319  1.00  0.00    -0.550 OA
ATOM     32  O   UNL     1      -5.657  20.033  -9.410  1.00  0.00    -0.550 OA
ENDBRANCH   1  30
BRANCH  27  33
ATOM     33  O   UNL     1     -10.649  19.420 -12.849  1.00  0.00    -0.393 OA
ATOM     34  H   UNL     1     -10.228  18.521 -12.834  1.00  0.00     0.210 HD
ENDBRANCH  27  33
TORSDOF 2
ENDMDL
