MODEL 1
REMARK VINA RESULT:    -7.716      0.000      0.000
REMARK INTER + INTRA:          -9.619
REMARK INTER:                  -9.295
REMARK INTRA:                  -0.324
REMARK UNBOUND:                -0.324
REMARK SMILES O=c1c(O)c(-c2ccc(O)c(O)c2)oc2cc(O)cc(O)c12
REMARK SMILES IDX 5 1 3 2 2 3 1 4 22 5 20 6 19 7 17 8 16 9 15 10 14 11 6 12
REMARK SMILES IDX 7 13 8 14 9 15 13 16 11 17 10 18 12 20 4 22 21 24 18 26
REMARK H PARENT 10 19 12 21 4 23 21 25 18 27
REMARK Flexibility Score: inf
ROOT
ATOM      1  C   UNL     1     -19.552   6.005 -15.310  1.00  0.00     0.180 A 
ATOM      2  C   UNL     1     -19.950   6.190 -16.648  1.00  0.00     0.208 A 
ATOM      3  C   UNL     1     -19.303   5.458 -17.655  1.00  0.00     0.238 A 
ATOM      4  O   UNL     1     -19.659   5.607 -18.856  1.00  0.00    -0.285 OA
ATOM      5  C   UNL     1     -18.260   4.573 -17.314  1.00  0.00     0.111 A 
ATOM      6  C   UNL     1     -17.555   3.802 -18.269  1.00  0.00     0.134 A 
ATOM      7  C   UNL     1     -16.523   2.949 -17.850  1.00  0.00     0.093 A 
ATOM      8  C   UNL     1     -16.182   2.853 -16.499  1.00  0.00     0.123 A 
ATOM      9  C   UNL     1     -16.875   3.613 -15.551  1.00  0.00     0.094 A 
ATOM     10  C   UNL     1     -17.909   4.467 -15.948  1.00  0.00     0.146 A 
ATOM     11  O   UNL     1     -18.554   5.172 -15.026  1.00  0.00    -0.452 OA
ENDROOT
BRANCH   1  12
ATOM     12  C   UNL     1     -20.198   6.725 -14.189  1.00  0.00     0.025 A 
ATOM     13  C   UNL     1     -21.350   6.186 -13.594  1.00  0.00     0.016 A 
ATOM     14  C   UNL     1     -21.988   6.859 -12.549  1.00  0.00     0.051 A 
ATOM     15  C   UNL     1     -21.493   8.088 -12.094  1.00  0.00     0.157 A 
ATOM     16  C   UNL     1     -19.716   7.969 -13.743  1.00  0.00     0.062 A 
ATOM     17  C   UNL     1     -20.357   8.645 -12.695  1.00  0.00     0.158 A 
BRANCH  15  18
ATOM     18  O   UNL     1     -22.125   8.761 -11.050  1.00  0.00    -0.504 OA
ATOM     19  H   UNL     1     -22.790   8.295 -10.445  1.00  0.00     0.293 HD
ENDBRANCH  15  18
BRANCH  17  20
ATOM     20  O   UNL     1     -19.875   9.875 -12.250  1.00  0.00    -0.504 OA
ATOM     21  H   UNL     1     -19.189  10.400 -12.781  1.00  0.00     0.293 HD
ENDBRANCH  17  20
ENDBRANCH   1  12
BRANCH   2  22
ATOM     22  O   UNL     1     -20.952   7.111 -16.965  1.00  0.00    -0.502 OA
ATOM     23  H   UNL     1     -20.767   7.952 -17.498  1.00  0.00     0.293 HD
ENDBRANCH   2  22
BRANCH   6  24
ATOM     24  O   UNL     1     -17.871   3.875 -19.627  1.00  0.00    -0.507 OA
ATOM     25  H   UNL     1     -18.143   4.747 -20.064  1.00  0.00     0.293 HD
ENDBRANCH   6  24
BRANCH   8  26
ATOM     26  O   UNL     1     -15.152   2.000 -16.110  1.00  0.00    -0.508 OA
ATOM     27  H   UNL     1     -15.150   1.554 -15.200  1.00  0.00     0.293 HD
ENDBRANCH   8  26
TORSDOF 6
ENDMDL
MODEL 2
REMARK VINA RESULT:    -6.635      2.514      2.694
REMARK INTER + INTRA:          -8.317
REMARK INTER:                  -8.591
REMARK INTRA:                   0.274
REMARK UNBOUND:                -0.324
REMARK SMILES O=c1c(O)c(-c2ccc(O)c(O)c2)oc2cc(O)cc(O)c12
REMARK SMILES IDX 5 1 3 2 2 3 1 4 22 5 20 6 19 7 17 8 16 9 15 10 14 11 6 12
REMARK SMILES IDX 7 13 8 14 9 15 13 16 11 17 10 18 12 20 4 22 21 24 18 26
REMARK H PARENT 10 19 12 21 4 23 21 25 18 27
REMARK Flexibility Score: inf
ROOT
ATOM      1  C   UNL     1     -20.434   6.535 -14.607  1.00  0.00     0.180 A 
ATOM      2  C   UNL     1     -19.875   7.256 -15.680  1.00  0.00     0.208 A 
ATOM      3  C   UNL     1     -19.752   6.628 -16.929  1.00  0.00     0.238 A 
ATOM      4  O   UNL     1     -19.264   7.267 -17.900  1.00  0.00    -0.285 OA
ATOM      5  C   UNL     1     -20.168   5.288 -17.079  1.00  0.00     0.111 A 
ATOM      6  C   UNL     1     -20.074   4.581 -18.302  1.00  0.00     0.134 A 
ATOM      7  C   UNL     1     -20.501   3.247 -18.368  1.00  0.00     0.093 A 
ATOM      8  C   UNL     1     -21.018   2.607 -17.240  1.00  0.00     0.123 A 
ATOM      9  C   UNL     1     -21.113   3.300 -16.029  1.00  0.00     0.094 A 
ATOM     10  C   UNL     1     -20.695   4.632 -15.942  1.00  0.00     0.146 A 
ATOM     11  O   UNL     1     -20.802   5.268 -14.782  1.00  0.00    -0.452 OA
ENDROOT
BRANCH   1  12
ATOM     12  C   UNL     1     -20.615   7.134 -13.266  1.00  0.00     0.025 A 
ATOM     13  C   UNL     1     -21.704   6.738 -12.473  1.00  0.00     0.016 A 
ATOM     14  C   UNL     1     -21.906   7.305 -11.213  1.00  0.00     0.051 A 
ATOM     15  C   UNL     1     -21.031   8.288 -10.732  1.00  0.00     0.157 A 
ATOM     16  C   UNL     1     -19.751   8.136 -12.788  1.00  0.00     0.062 A 
ATOM     17  C   UNL     1     -19.954   8.706 -11.523  1.00  0.00     0.158 A 
BRANCH  15  18
ATOM     18  O   UNL     1     -21.227   8.855  -9.474  1.00  0.00    -0.504 OA
ATOM     19  H   UNL     1     -21.532   8.298  -8.684  1.00  0.00     0.293 HD
ENDBRANCH  15  18
BRANCH  17  20
ATOM     20  O   UNL     1     -19.093   9.695 -11.049  1.00  0.00    -0.504 OA
ATOM     21  H   UNL     1     -18.111   9.709 -11.300  1.00  0.00     0.293 HD
ENDBRANCH  17  20
ENDBRANCH   1  12
BRANCH   2  22
ATOM     22  O   UNL     1     -19.425   8.565 -15.492  1.00  0.00    -0.502 OA
ATOM     23  H   UNL     1     -18.629   8.943 -15.993  1.00  0.00     0.293 HD
ENDBRANCH   2  22
BRANCH   6  24
ATOM     24  O   UNL     1     -19.562   5.191 -19.448  1.00  0.00    -0.507 OA
ATOM     25  H   UNL     1     -19.374   4.666 -20.293  1.00  0.00     0.293 HD
ENDBRANCH   6  24
BRANCH   8  26
ATOM     26  O   UNL     1     -21.434   1.281 -17.333  1.00  0.00    -0.508 OA
ATOM     27  H   UNL     1     -22.300   1.029 -17.797  1.00  0.00     0.293 HD
ENDBRANCH   8  26
TORSDOF 6
ENDMDL
MODEL 3
REMARK VINA RESULT:    -6.574      1.832      7.023
REMARK INTER + INTRA:          -8.243
REMARK INTER:                  -7.919
REMARK INTRA:                  -0.324
REMARK UNBOUND:                -0.324
REMARK SMILES O=c1c(O)c(-c2ccc(O)c(O)c2)oc2cc(O)cc(O)c12
REMARK SMILES IDX 5 1 3 2 2 3 1 4 22 5 20 6 19 7 17 8 16 9 15 10 14 11 6 12
REMARK SMILES IDX 7 13 8 14 9 15 13 16 11 17 10 18 12 20 4 22 21 24 18 26
REMARK H PARENT 10 19 12 21 4 23 21 25 18 27
REMARK Flexibility Score: inf
ROOT
ATOM      1  C   UNL     1     -18.118   4.252 -16.270  1.00  0.00     0.180 A 
ATOM      2  C   UNL     1     -19.497   4.156 -16.541  1.00  0.00     0.208 A 
ATOM      3  C   UNL     1     -20.394   4.909 -15.768  1.00  0.00     0.238 A 
ATOM      4  O   UNL     1     -21.630   4.841 -16.009  1.00  0.00    -0.285 OA
ATOM      5  C   UNL     1     -19.903   5.725 -14.727  1.00  0.00     0.111 A 
ATOM      6  C   UNL     1     -20.740   6.511 -13.900  1.00  0.00     0.134 A 
ATOM      7  C   UNL     1     -20.175   7.291 -12.879  1.00  0.00     0.093 A 
ATOM      8  C   UNL     1     -18.795   7.299 -12.670  1.00  0.00     0.123 A 
ATOM      9  C   UNL     1     -17.963   6.524 -13.484  1.00  0.00     0.094 A 
ATOM     10  C   UNL     1     -18.506   5.742 -14.508  1.00  0.00     0.146 A 
ATOM     11  O   UNL     1     -17.693   5.020 -15.271  1.00  0.00    -0.452 OA
ENDROOT
BRANCH   1  12
ATOM     12  C   UNL     1     -17.108   3.505 -17.053  1.00  0.00     0.025 A 
ATOM     13  C   UNL     1     -16.600   4.063 -18.237  1.00  0.00     0.016 A 
ATOM     14  C   UNL     1     -15.662   3.367 -19.003  1.00  0.00     0.051 A 
ATOM     15  C   UNL     1     -15.229   2.095 -18.604  1.00  0.00     0.157 A 
ATOM     16  C   UNL     1     -16.686   2.219 -16.667  1.00  0.00     0.062 A 
ATOM     17  C   UNL     1     -15.746   1.520 -17.436  1.00  0.00     0.158 A 
BRANCH  15  18
ATOM     18  O   UNL     1     -14.292   1.398 -19.363  1.00  0.00    -0.504 OA
ATOM     19  H   UNL     1     -13.316   1.673 -19.385  1.00  0.00     0.293 HD
ENDBRANCH  15  18
BRANCH  17  20
ATOM     20  O   UNL     1     -15.324   0.248 -17.050  1.00  0.00    -0.504 OA
ATOM     21  H   UNL     1     -14.490  -0.176 -17.440  1.00  0.00     0.293 HD
ENDBRANCH  17  20
ENDBRANCH   1  12
BRANCH   2  22
ATOM     22  O   UNL     1     -19.961   3.302 -17.545  1.00  0.00    -0.502 OA
ATOM     23  H   UNL     1     -19.337   2.843 -18.198  1.00  0.00     0.293 HD
ENDBRANCH   2  22
BRANCH   6  24
ATOM     24  O   UNL     1     -22.124   6.525 -14.082  1.00  0.00    -0.507 OA
ATOM     25  H   UNL     1     -22.637   5.687 -14.329  1.00  0.00     0.293 HD
ENDBRANCH   6  24
BRANCH   8  26
ATOM     26  O   UNL     1     -18.260   8.081 -11.649  1.00  0.00    -0.508 OA
ATOM     27  H   UNL     1     -18.845   8.471 -10.919  1.00  0.00     0.293 HD
ENDBRANCH   8  26
TORSDOF 6
ENDMDL
MODEL 4
REMARK VINA RESULT:    -6.344      3.125      8.580
REMARK INTER + INTRA:          -7.966
REMARK INTER:                  -8.350
REMARK INTRA:                   0.385
REMARK UNBOUND:                -0.324
REMARK SMILES O=c1c(O)c(-c2ccc(O)c(O)c2)oc2cc(O)cc(O)c12
REMARK SMILES IDX 5 1 3 2 2 3 1 4 22 5 20 6 19 7 17 8 16 9 15 10 14 11 6 12
REMARK SMILES IDX 7 13 8 14 9 15 13 16 11 17 10 18 12 20 4 22 21 24 18 26
REMARK H PARENT 10 19 12 21 4 23 21 25 18 27
REMARK Flexibility Score: inf
ROOT
ATOM      1  C   UNL     1     -15.765   2.316 -17.525  1.00  0.00     0.180 A 
ATOM      2  C   UNL     1     -15.653   2.757 -16.192  1.00  0.00     0.208 A 
ATOM      3  C   UNL     1     -16.635   3.617 -15.677  1.00  0.00     0.238 A 
ATOM      4  O   UNL     1     -16.552   4.009 -14.481  1.00  0.00    -0.285 OA
ATOM      5  C   UNL     1     -17.696   4.038 -16.505  1.00  0.00     0.111 A 
ATOM      6  C   UNL     1     -18.724   4.906 -16.064  1.00  0.00     0.134 A 
ATOM      7  C   UNL     1     -19.742   5.286 -16.952  1.00  0.00     0.093 A 
ATOM      8  C   UNL     1     -19.752   4.817 -18.267  1.00  0.00     0.123 A 
ATOM      9  C   UNL     1     -18.739   3.959 -18.708  1.00  0.00     0.094 A 
ATOM     10  C   UNL     1     -17.717   3.566 -17.838  1.00  0.00     0.146 A 
ATOM     11  O   UNL     1     -16.772   2.746 -18.280  1.00  0.00    -0.452 OA
ENDROOT
BRANCH   1  12
ATOM     12  C   UNL     1     -14.780   1.394 -18.134  1.00  0.00     0.025 A 
ATOM     13  C   UNL     1     -14.755   1.233 -19.528  1.00  0.00     0.016 A 
ATOM     14  C   UNL     1     -13.848   0.353 -20.124  1.00  0.00     0.051 A 
ATOM     15  C   UNL     1     -12.964  -0.392 -19.332  1.00  0.00     0.157 A 
ATOM     16  C   UNL     1     -13.904   0.630 -17.342  1.00  0.00     0.062 A 
ATOM     17  C   UNL     1     -12.995  -0.255 -17.939  1.00  0.00     0.158 A 
BRANCH  15  18
ATOM     18  O   UNL     1     -12.056  -1.269 -19.921  1.00  0.00    -0.504 OA
ATOM     19  H   UNL     1     -11.898  -2.199 -19.549  1.00  0.00     0.293 HD
ENDBRANCH  15  18
BRANCH  17  20
ATOM     20  O   UNL     1     -12.124  -1.008 -17.153  1.00  0.00    -0.504 OA
ATOM     21  H   UNL     1     -12.058  -2.015 -17.248  1.00  0.00     0.293 HD
ENDBRANCH  17  20
ENDBRANCH   1  12
BRANCH   2  22
ATOM     22  O   UNL     1     -14.564   2.365 -15.408  1.00  0.00    -0.502 OA
ATOM     23  H   UNL     1     -13.895   1.670 -15.718  1.00  0.00     0.293 HD
ENDBRANCH   2  22
BRANCH   6  24
ATOM     24  O   UNL     1     -18.742   5.394 -14.757  1.00  0.00    -0.507 OA
ATOM     25  H   UNL     1     -19.218   6.255 -14.515  1.00  0.00     0.293 HD
ENDBRANCH   6  24
BRANCH   8  26
ATOM     26  O   UNL     1     -20.774   5.211 -19.128  1.00  0.00    -0.508 OA
ATOM     27  H   UNL     1     -20.575   5.576 -20.053  1.00  0.00     0.293 HD
ENDBRANCH   8  26
TORSDOF 6
ENDMDL
MODEL 5
REMARK VINA RESULT:    -6.160      2.843      6.839
REMARK INTER + INTRA:          -7.744
REMARK INTER:                  -8.096
REMARK INTRA:                   0.352
REMARK UNBOUND:                -0.324
REMARK SMILES O=c1c(O)c(-c2ccc(O)c(O)c2)oc2cc(O)cc(O)c12
REMARK SMILES IDX 5 1 3 2 2 3 1 4 22 5 20 6 19 7 17 8 16 9 15 10 14 11 6 12
REMARK SMILES IDX 7 13 8 14 9 15 13 16 11 17 10 18 12 20 4 22 21 24 18 26
REMARK H PARENT 10 19 12 21 4 23 21 25 18 27
REMARK Flexibility Score: inf
ROOT
ATOM      1  C   UNL     1     -20.588   5.883 -15.717  1.00  0.00     0.180 A 
ATOM      2  C   UNL     1     -19.872   7.072 -15.956  1.00  0.00     0.208 A 
ATOM      3  C   UNL     1     -19.720   7.994 -14.909  1.00  0.00     0.238 A 
ATOM      4  O   UNL     1     -19.071   9.057 -15.107  1.00  0.00    -0.285 OA
ATOM      5  C   UNL     1     -20.301   7.724 -13.652  1.00  0.00     0.111 A 
ATOM      6  C   UNL     1     -20.197   8.602 -12.547  1.00  0.00     0.134 A 
ATOM      7  C   UNL     1     -20.811   8.266 -11.331  1.00  0.00     0.093 A 
ATOM      8  C   UNL     1     -21.524   7.073 -11.199  1.00  0.00     0.123 A 
ATOM      9  C   UNL     1     -21.630   6.202 -12.288  1.00  0.00     0.094 A 
ATOM     10  C   UNL     1     -21.024   6.517 -13.508  1.00  0.00     0.146 A 
ATOM     11  O   UNL     1     -21.135   5.669 -14.523  1.00  0.00    -0.452 OA
ENDROOT
BRANCH   1  12
ATOM     12  C   UNL     1     -20.775   4.854 -16.764  1.00  0.00     0.025 A 
ATOM     13  C   UNL     1     -20.795   5.237 -18.115  1.00  0.00     0.016 A 
ATOM     14  C   UNL     1     -20.992   4.286 -19.118  1.00  0.00     0.051 A 
ATOM     15  C   UNL     1     -21.186   2.938 -18.785  1.00  0.00     0.157 A 
ATOM     16  C   UNL     1     -20.991   3.503 -16.434  1.00  0.00     0.062 A 
ATOM     17  C   UNL     1     -21.189   2.548 -17.441  1.00  0.00     0.158 A 
BRANCH  15  18
ATOM     18  O   UNL     1     -21.379   1.985 -19.784  1.00  0.00    -0.504 OA
ATOM     19  H   UNL     1     -21.569   1.015 -19.561  1.00  0.00     0.293 HD
ENDBRANCH  15  18
BRANCH  17  20
ATOM     20  O   UNL     1     -21.397   1.209 -17.112  1.00  0.00    -0.504 OA
ATOM     21  H   UNL     1     -20.622   0.576 -16.949  1.00  0.00     0.293 HD
ENDBRANCH  17  20
ENDBRANCH   1  12
BRANCH   2  22
ATOM     22  O   UNL     1     -19.349   7.339 -17.224  1.00  0.00    -0.502 OA
ATOM     23  H   UNL     1     -18.881   6.630 -17.777  1.00  0.00     0.293 HD
ENDBRANCH   2  22
BRANCH   6  24
ATOM     24  O   UNL     1     -19.492   9.803 -12.646  1.00  0.00    -0.507 OA
ATOM     25  H   UNL     1     -18.494   9.850 -12.480  1.00  0.00     0.293 HD
ENDBRANCH   6  24
BRANCH   8  26
ATOM     26  O   UNL     1     -22.125   6.764  -9.982  1.00  0.00    -0.508 OA
ATOM     27  H   UNL     1     -22.979   7.220  -9.681  1.00  0.00     0.293 HD
ENDBRANCH   8  26
TORSDOF 6
ENDMDL
MODEL 6
REMARK VINA RESULT:    -6.143      1.751      6.998
REMARK INTER + INTRA:          -7.724
REMARK INTER:                  -7.450
REMARK INTRA:                  -0.273
REMARK UNBOUND:                -0.324
REMARK SMILES O=c1c(O)c(-c2ccc(O)c(O)c2)oc2cc(O)cc(O)c12
REMARK SMILES IDX 5 1 3 2 2 3 1 4 22 5 20 6 19 7 17 8 16 9 15 10 14 11 6 12
REMARK SMILES IDX 7 13 8 14 9 15 13 16 11 17 10 18 12 20 4 22 21 24 18 26
REMARK H PARENT 10 19 12 21 4 23 21 25 18 27
REMARK Flexibility Score: inf
ROOT
ATOM      1  C   UNL     1     -17.453   3.969 -17.059  1.00  0.00     0.180 A 
ATOM      2  C   UNL     1     -18.209   4.488 -18.127  1.00  0.00     0.208 A 
ATOM      3  C   UNL     1     -19.100   5.543 -17.879  1.00  0.00     0.238 A 
ATOM      4  O   UNL     1     -19.775   6.024 -18.830  1.00  0.00    -0.285 OA
ATOM      5  C   UNL     1     -19.237   6.046 -16.568  1.00  0.00     0.111 A 
ATOM      6  C   UNL     1     -20.115   7.105 -16.232  1.00  0.00     0.134 A 
ATOM      7  C   UNL     1     -20.200   7.543 -14.902  1.00  0.00     0.093 A 
ATOM      8  C   UNL     1     -19.427   6.946 -13.904  1.00  0.00     0.123 A 
ATOM      9  C   UNL     1     -18.558   5.899 -14.230  1.00  0.00     0.094 A 
ATOM     10  C   UNL     1     -18.457   5.449 -15.550  1.00  0.00     0.146 A 
ATOM     11  O   UNL     1     -17.619   4.459 -15.833  1.00  0.00    -0.452 OA
ENDROOT
BRANCH   1  12
ATOM     12  C   UNL     1     -16.479   2.870 -17.244  1.00  0.00     0.025 A 
ATOM     13  C   UNL     1     -16.773   1.593 -16.740  1.00  0.00     0.016 A 
ATOM     14  C   UNL     1     -15.860   0.547 -16.885  1.00  0.00     0.051 A 
ATOM     15  C   UNL     1     -14.632   0.765 -17.524  1.00  0.00     0.157 A 
ATOM     16  C   UNL     1     -15.237   3.089 -17.867  1.00  0.00     0.062 A 
ATOM     17  C   UNL     1     -14.320   2.039 -18.012  1.00  0.00     0.158 A 
BRANCH  15  18
ATOM     18  O   UNL     1     -13.719  -0.278 -17.674  1.00  0.00    -0.504 OA
ATOM     19  H   UNL     1     -12.880  -0.171 -18.232  1.00  0.00     0.293 HD
ENDBRANCH  15  18
BRANCH  17  20
ATOM     20  O   UNL     1     -13.091   2.257 -18.635  1.00  0.00    -0.504 OA
ATOM     21  H   UNL     1     -13.031   2.645 -19.570  1.00  0.00     0.293 HD
ENDBRANCH  17  20
ENDBRANCH   1  12
BRANCH   2  22
ATOM     22  O   UNL     1     -18.092   3.939 -19.407  1.00  0.00    -0.502 OA
ATOM     23  H   UNL     1     -17.460   3.174 -19.613  1.00  0.00     0.293 HD
ENDBRANCH   2  22
BRANCH   6  24
ATOM     24  O   UNL     1     -20.901   7.723 -17.206  1.00  0.00    -0.507 OA
ATOM     25  H   UNL     1     -20.836   7.469 -18.184  1.00  0.00     0.293 HD
ENDBRANCH   6  24
BRANCH   8  26
ATOM     26  O   UNL     1     -19.531   7.399 -12.592  1.00  0.00    -0.508 OA
ATOM     27  H   UNL     1     -18.729   7.768 -12.093  1.00  0.00     0.293 HD
ENDBRANCH   8  26
TORSDOF 6
ENDMDL
MODEL 7
REMARK VINA RESULT:    -6.070      2.056      7.124
REMARK INTER + INTRA:          -7.635
REMARK INTER:                  -7.332
REMARK INTRA:                  -0.303
REMARK UNBOUND:                -0.324
REMARK SMILES O=c1c(O)c(-c2ccc(O)c(O)c2)oc2cc(O)cc(O)c12
REMARK SMILES IDX 5 1 3 2 2 3 1 4 22 5 20 6 19 7 17 8 16 9 15 10 14 11 6 12
REMARK SMILES IDX 7 13 8 14 9 15 13 16 11 17 10 18 12 20 4 22 21 24 18 26
REMARK H PARENT 10 19 12 21 4 23 21 25 18 27
REMARK Flexibility Score: inf
ROOT
ATOM      1  C   UNL     1     -20.509   6.535 -14.675  1.00  0.00     0.180 A 
ATOM      2  C   UNL     1     -21.216   5.644 -13.844  1.00  0.00     0.208 A 
ATOM      3  C   UNL     1     -21.481   6.019 -12.518  1.00  0.00     0.238 A 
ATOM      4  O   UNL     1     -22.122   5.235 -11.768  1.00  0.00    -0.285 OA
ATOM      5  C   UNL     1     -21.018   7.263 -12.040  1.00  0.00     0.111 A 
ATOM      6  C   UNL     1     -21.240   7.714 -10.716  1.00  0.00     0.134 A 
ATOM      7  C   UNL     1     -20.740   8.961 -10.314  1.00  0.00     0.093 A 
ATOM      8  C   UNL     1     -20.026   9.764 -11.205  1.00  0.00     0.123 A 
ATOM      9  C   UNL     1     -19.804   9.323 -12.514  1.00  0.00     0.094 A 
ATOM     10  C   UNL     1     -20.295   8.084 -12.936  1.00  0.00     0.146 A 
ATOM     11  O   UNL     1     -20.075   7.693 -14.185  1.00  0.00    -0.452 OA
ENDROOT
BRANCH   1  12
ATOM     12  C   UNL     1     -20.207   6.220 -16.090  1.00  0.00     0.025 A 
ATOM     13  C   UNL     1     -21.057   6.698 -17.100  1.00  0.00     0.016 A 
ATOM     14  C   UNL     1     -20.803   6.396 -18.440  1.00  0.00     0.051 A 
ATOM     15  C   UNL     1     -19.705   5.599 -18.789  1.00  0.00     0.157 A 
ATOM     16  C   UNL     1     -19.118   5.403 -16.443  1.00  0.00     0.062 A 
ATOM     17  C   UNL     1     -18.864   5.099 -17.788  1.00  0.00     0.158 A 
BRANCH  15  18
ATOM     18  O   UNL     1     -19.447   5.297 -20.125  1.00  0.00    -0.504 OA
ATOM     19  H   UNL     1     -18.508   5.100 -20.452  1.00  0.00     0.293 HD
ENDBRANCH  15  18
BRANCH  17  20
ATOM     20  O   UNL     1     -17.780   4.294 -18.136  1.00  0.00    -0.504 OA
ATOM     21  H   UNL     1     -17.019   4.646 -18.706  1.00  0.00     0.293 HD
ENDBRANCH  17  20
ENDBRANCH   1  12
BRANCH   2  22
ATOM     22  O   UNL     1     -21.618   4.397 -14.328  1.00  0.00    -0.502 OA
ATOM     23  H   UNL     1     -21.363   3.529 -13.870  1.00  0.00     0.293 HD
ENDBRANCH   2  22
BRANCH   6  24
ATOM     24  O   UNL     1     -21.950   6.936  -9.801  1.00  0.00    -0.507 OA
ATOM     25  H   UNL     1     -22.962   6.923  -9.784  1.00  0.00     0.293 HD
ENDBRANCH   6  24
BRANCH   8  26
ATOM     26  O   UNL     1     -19.539  10.998 -10.780  1.00  0.00    -0.508 OA
ATOM     27  H   UNL     1     -18.679  11.384 -11.150  1.00  0.00     0.293 HD
ENDBRANCH   8  26
TORSDOF 6
ENDMDL
MODEL 8
REMARK VINA RESULT:    -5.916      1.614      3.181
REMARK INTER + INTRA:          -7.450
REMARK INTER:                  -7.288
REMARK INTRA:                  -0.162
REMARK UNBOUND:                -0.324
REMARK SMILES O=c1c(O)c(-c2ccc(O)c(O)c2)oc2cc(O)cc(O)c12
REMARK SMILES IDX 5 1 3 2 2 3 1 4 22 5 20 6 19 7 17 8 16 9 15 10 14 11 6 12
REMARK SMILES IDX 7 13 8 14 9 15 13 16 11 17 10 18 12 20 4 22 21 24 18 26
REMARK H PARENT 10 19 12 21 4 23 21 25 18 27
REMARK Flexibility Score: inf
ROOT
ATOM      1  C   UNL     1     -20.026   6.286 -14.830  1.00  0.00     0.180 A 
ATOM      2  C   UNL     1     -18.779   5.631 -14.818  1.00  0.00     0.208 A 
ATOM      3  C   UNL     1     -18.418   4.839 -15.919  1.00  0.00     0.238 A 
ATOM      4  O   UNL     1     -17.299   4.257 -15.925  1.00  0.00    -0.285 OA
ATOM      5  C   UNL     1     -19.314   4.696 -16.998  1.00  0.00     0.111 A 
ATOM      6  C   UNL     1     -19.029   3.912 -18.143  1.00  0.00     0.134 A 
ATOM      7  C   UNL     1     -19.977   3.814 -19.172  1.00  0.00     0.093 A 
ATOM      8  C   UNL     1     -21.201   4.479 -19.080  1.00  0.00     0.123 A 
ATOM      9  C   UNL     1     -21.488   5.255 -17.952  1.00  0.00     0.094 A 
ATOM     10  C   UNL     1     -20.556   5.368 -16.916  1.00  0.00     0.146 A 
ATOM     11  O   UNL     1     -20.852   6.116 -15.859  1.00  0.00    -0.452 OA
ENDROOT
BRANCH   1  12
ATOM     12  C   UNL     1     -20.470   7.154 -13.717  1.00  0.00     0.025 A 
ATOM     13  C   UNL     1     -21.652   6.842 -13.026  1.00  0.00     0.016 A 
ATOM     14  C   UNL     1     -22.101   7.659 -11.986  1.00  0.00     0.051 A 
ATOM     15  C   UNL     1     -21.382   8.808 -11.630  1.00  0.00     0.157 A 
ATOM     16  C   UNL     1     -19.763   8.319 -13.369  1.00  0.00     0.062 A 
ATOM     17  C   UNL     1     -20.214   9.140 -12.326  1.00  0.00     0.158 A 
BRANCH  15  18
ATOM     18  O   UNL     1     -21.825   9.624 -10.591  1.00  0.00    -0.504 OA
ATOM     19  H   UNL     1     -21.687   9.368  -9.620  1.00  0.00     0.293 HD
ENDBRANCH  15  18
BRANCH  17  20
ATOM     20  O   UNL     1     -19.509  10.292 -11.979  1.00  0.00    -0.504 OA
ATOM     21  H   UNL     1     -18.575  10.245 -11.588  1.00  0.00     0.293 HD
ENDBRANCH  17  20
ENDBRANCH   1  12
BRANCH   2  22
ATOM     22  O   UNL     1     -17.931   5.749 -13.714  1.00  0.00    -0.502 OA
ATOM     23  H   UNL     1     -18.253   6.093 -12.817  1.00  0.00     0.293 HD
ENDBRANCH   2  22
BRANCH   6  24
ATOM     24  O   UNL     1     -17.816   3.234 -18.265  1.00  0.00    -0.507 OA
ATOM     25  H   UNL     1     -17.150   3.459 -18.995  1.00  0.00     0.293 HD
ENDBRANCH   6  24
BRANCH   8  26
ATOM     26  O   UNL     1     -22.125   4.363 -20.116  1.00  0.00    -0.508 OA
ATOM     27  H   UNL     1     -21.990   3.705 -20.875  1.00  0.00     0.293 HD
ENDBRANCH   8  26
TORSDOF 6
ENDMDL
MODEL 9
REMARK VINA RESULT:    -5.844      2.818      7.509
REMARK INTER + INTRA:          -7.364
REMARK INTER:                  -7.062
REMARK INTRA:                  -0.302
REMARK UNBOUND:                -0.324
REMARK SMILES O=c1c(O)c(-c2ccc(O)c(O)c2)oc2cc(O)cc(O)c12
REMARK SMILES IDX 5 1 3 2 2 3 1 4 22 5 20 6 19 7 17 8 16 9 15 10 14 11 6 12
REMARK SMILES IDX 7 13 8 14 9 15 13 16 11 17 10 18 12 20 4 22 21 24 18 26
REMARK H PARENT 10 19 12 21 4 23 21 25 18 27
REMARK Flexibility Score: inf
ROOT
ATOM      1  C   UNL     1     -17.182   3.558 -17.002  1.00  0.00     0.180 A 
ATOM      2  C   UNL     1     -17.395   4.226 -15.781  1.00  0.00     0.208 A 
ATOM      3  C   UNL     1     -18.515   5.062 -15.651  1.00  0.00     0.238 A 
ATOM      4  O   UNL     1     -18.723   5.657 -14.559  1.00  0.00    -0.285 OA
ATOM      5  C   UNL     1     -19.388   5.233 -16.746  1.00  0.00     0.111 A 
ATOM      6  C   UNL     1     -20.536   6.060 -16.699  1.00  0.00     0.134 A 
ATOM      7  C   UNL     1     -21.351   6.184 -17.834  1.00  0.00     0.093 A 
ATOM      8  C   UNL     1     -21.041   5.501 -19.012  1.00  0.00     0.123 A 
ATOM      9  C   UNL     1     -19.908   4.682 -19.064  1.00  0.00     0.094 A 
ATOM     10  C   UNL     1     -19.084   4.543 -17.943  1.00  0.00     0.146 A 
ATOM     11  O   UNL     1     -18.019   3.755 -18.018  1.00  0.00    -0.452 OA
ENDROOT
BRANCH   1  12
ATOM     12  C   UNL     1     -16.036   2.645 -17.211  1.00  0.00     0.025 A 
ATOM     13  C   UNL     1     -14.936   3.079 -17.968  1.00  0.00     0.016 A 
ATOM     14  C   UNL     1     -13.852   2.228 -18.195  1.00  0.00     0.051 A 
ATOM     15  C   UNL     1     -13.858   0.924 -17.680  1.00  0.00     0.157 A 
ATOM     16  C   UNL     1     -16.046   1.329 -16.713  1.00  0.00     0.062 A 
ATOM     17  C   UNL     1     -14.960   0.474 -16.942  1.00  0.00     0.158 A 
BRANCH  15  18
ATOM     18  O   UNL     1     -12.778   0.072 -17.902  1.00  0.00    -0.504 OA
ATOM     19  H   UNL     1     -12.581  -0.706 -17.283  1.00  0.00     0.293 HD
ENDBRANCH  15  18
BRANCH  17  20
ATOM     20  O   UNL     1     -14.969  -0.828 -16.444  1.00  0.00    -0.504 OA
ATOM     21  H   UNL     1     -14.197  -1.194 -15.899  1.00  0.00     0.293 HD
ENDBRANCH  17  20
ENDBRANCH   1  12
BRANCH   2  22
ATOM     22  O   UNL     1     -16.488   4.079 -14.729  1.00  0.00    -0.502 OA
ATOM     23  H   UNL     1     -15.840   4.812 -14.465  1.00  0.00     0.293 HD
ENDBRANCH   2  22
BRANCH   6  24
ATOM     24  O   UNL     1     -20.873   6.757 -15.538  1.00  0.00    -0.507 OA
ATOM     25  H   UNL     1     -20.178   7.003 -14.843  1.00  0.00     0.293 HD
ENDBRANCH   6  24
BRANCH   8  26
ATOM     26  O   UNL     1     -21.866   5.643 -20.125  1.00  0.00    -0.508 OA
ATOM     27  H   UNL     1     -22.198   4.838 -20.644  1.00  0.00     0.293 HD
ENDBRANCH   8  26
TORSDOF 6
ENDMDL
