MODEL 1
REMARK VINA RESULT:    -3.894      0.000      0.000
REMARK INTER + INTRA:          -6.822
REMARK INTER:                  -6.170
REMARK INTRA:                  -0.652
REMARK UNBOUND:                -0.652
REMARK SMILES CCCCCCCCCCCC(=O)[O-]
REMARK SMILES IDX 7 1 8 2 9 3 10 4 11 5 12 6 13 7 14 8 6 9 5 10 4 11 3 12 2 13
REMARK SMILES IDX 1 14
REMARK H PARENT
REMARK Flexibility Score: inf
ROOT
ATOM      1  C   UNL     1      -7.402  21.405 -12.849  1.00  0.00     0.000 C 
ENDROOT
BRANCH   1   2
ATOM      2  C   UNL     1      -7.261  22.928 -13.004  1.00  0.00     0.000 C 
BRANCH   2   3
ATOM      3  C   UNL     1      -6.352  23.554 -11.932  1.00  0.00     0.000 C 
BRANCH   3   4
ATOM      4  C   UNL     1      -4.859  23.400 -12.262  1.00  0.00     0.006 C 
BRANCH   4   5
ATOM      5  C   UNL     1      -4.070  24.698 -12.046  1.00  0.00     0.053 C 
BRANCH   5   6
ATOM      6  C   UNL     1      -4.417  25.701 -13.101  1.00  0.00     0.041 C 
ATOM      7  O   UNL     1      -4.104  25.491 -14.302  1.00  0.00    -0.550 OA
ATOM      8  O   UNL     1      -5.129  26.845 -12.765  1.00  0.00    -0.550 OA
ENDBRANCH   5   6
ENDBRANCH   4   5
ENDBRANCH   3   4
ENDBRANCH   2   3
ENDBRANCH   1   2
BRANCH   1   9
ATOM      9  C   UNL     1      -7.629  20.980 -11.387  1.00  0.00     0.000 C 
BRANCH   9  10
ATOM     10  C   UNL     1      -6.466  20.143 -10.829  1.00  0.00    -0.000 C 
BRANCH  10  11
ATOM     11  C   UNL     1      -6.410  20.153  -9.293  1.00  0.00    -0.000 C 
BRANCH  11  12
ATOM     12  C   UNL     1      -6.023  18.770  -8.750  1.00  0.00    -0.000 C 
BRANCH  12  13
ATOM     13  C   UNL     1      -6.916  18.321  -7.583  1.00  0.00    -0.003 C 
ATOM     14  C   UNL     1      -7.868  19.419  -7.110  1.00  0.00     0.004 C 
ENDBRANCH  12  13
ENDBRANCH  11  12
ENDBRANCH  10  11
ENDBRANCH   9  10
ENDBRANCH   1   9
TORSDOF 10
ENDMDL
MODEL 2
REMARK VINA RESULT:    -3.853      1.449      1.892
REMARK INTER + INTRA:          -6.758
REMARK INTER:                  -5.769
REMARK INTRA:                  -0.989
REMARK UNBOUND:                -0.652
REMARK SMILES CCCCCCCCCCCC(=O)[O-]
REMARK SMILES IDX 7 1 8 2 9 3 10 4 11 5 12 6 13 7 14 8 6 9 5 10 4 11 3 12 2 13
REMARK SMILES IDX 1 14
REMARK H PARENT
REMARK Flexibility Score: inf
ROOT
ATOM      1  C   UNL     1      -8.404  21.240 -12.180  1.00  0.00     0.000 C 
ENDROOT
BRANCH   1   2
ATOM      2  C   UNL     1      -8.802  22.718 -12.037  1.00  0.00     0.000 C 
BRANCH   2   3
ATOM      3  C   UNL     1      -7.609  23.675 -12.211  1.00  0.00     0.000 C 
BRANCH   3   4
ATOM      4  C   UNL     1      -7.253  24.416 -10.913  1.00  0.00     0.006 C 
BRANCH   4   5
ATOM      5  C   UNL     1      -5.855  24.056 -10.393  1.00  0.00     0.053 C 
BRANCH   5   6
ATOM      6  C   UNL     1      -4.857  24.094 -11.507  1.00  0.00     0.041 C 
ATOM      7  O   UNL     1      -4.528  25.194 -12.024  1.00  0.00    -0.550 OA
ATOM      8  O   UNL     1      -4.255  22.921 -11.942  1.00  0.00    -0.550 OA
ENDBRANCH   5   6
ENDBRANCH   4   5
ENDBRANCH   3   4
ENDBRANCH   2   3
ENDBRANCH   1   2
BRANCH   1   9
ATOM      9  C   UNL     1      -8.030  20.596 -10.834  1.00  0.00     0.000 C 
BRANCH   9  10
ATOM     10  C   UNL     1      -6.511  20.449 -10.651  1.00  0.00    -0.000 C 
BRANCH  10  11
ATOM     11  C   UNL     1      -6.105  20.250  -9.182  1.00  0.00    -0.000 C 
BRANCH  11  12
ATOM     12  C   UNL     1      -6.027  18.757  -8.834  1.00  0.00    -0.000 C 
BRANCH  12  13
ATOM     13  C   UNL     1      -7.189  18.297  -7.939  1.00  0.00    -0.003 C 
ATOM     14  C   UNL     1      -7.787  19.437  -7.114  1.00  0.00     0.004 C 
ENDBRANCH  12  13
ENDBRANCH  11  12
ENDBRANCH  10  11
ENDBRANCH   9  10
ENDBRANCH   1   9
TORSDOF 10
ENDMDL
MODEL 3
REMARK VINA RESULT:    -3.802      1.388      1.940
REMARK INTER + INTRA:          -6.677
REMARK INTER:                  -6.183
REMARK INTRA:                  -0.494
REMARK UNBOUND:                -0.652
REMARK SMILES CCCCCCCCCCCC(=O)[O-]
REMARK SMILES IDX 7 1 8 2 9 3 10 4 11 5 12 6 13 7 14 8 6 9 5 10 4 11 3 12 2 13
REMARK SMILES IDX 1 14
REMARK H PARENT
REMARK Flexibility Score: inf
ROOT
ATOM      1  C   UNL     1      -5.479  22.211 -11.341  1.00  0.00     0.000 C 
ENDROOT
BRANCH   1   2
ATOM      2  C   UNL     1      -5.037  23.089 -12.523  1.00  0.00     0.000 C 
BRANCH   2   3
ATOM      3  C   UNL     1      -4.225  24.319 -12.079  1.00  0.00     0.000 C 
BRANCH   3   4
ATOM      4  C   UNL     1      -4.313  25.477 -13.084  1.00  0.00     0.006 C 
BRANCH   4   5
ATOM      5  C   UNL     1      -5.224  26.612 -12.598  1.00  0.00     0.053 C 
BRANCH   5   6
ATOM      6  C   UNL     1      -6.647  26.333 -12.967  1.00  0.00     0.041 C 
ATOM      7  O   UNL     1      -7.023  26.436 -14.165  1.00  0.00    -0.550 OA
ATOM      8  O   UNL     1      -7.547  25.911 -11.997  1.00  0.00    -0.550 OA
ENDBRANCH   5   6
ENDBRANCH   4   5
ENDBRANCH   3   4
ENDBRANCH   2   3
ENDBRANCH   1   2
BRANCH   1   9
ATOM      9  C   UNL     1      -6.994  21.937 -11.343  1.00  0.00     0.000 C 
BRANCH   9  10
ATOM     10  C   UNL     1      -7.368  20.684 -10.536  1.00  0.00    -0.000 C 
BRANCH  10  11
ATOM     11  C   UNL     1      -6.520  20.520  -9.265  1.00  0.00    -0.000 C 
BRANCH  11  12
ATOM     12  C   UNL     1      -6.136  19.049  -9.050  1.00  0.00    -0.000 C 
BRANCH  12  13
ATOM     13  C   UNL     1      -6.987  18.367  -7.967  1.00  0.00    -0.003 C 
ATOM     14  C   UNL     1      -7.806  19.362  -7.145  1.00  0.00     0.004 C 
ENDBRANCH  12  13
ENDBRANCH  11  12
ENDBRANCH  10  11
ENDBRANCH   9  10
ENDBRANCH   1   9
TORSDOF 10
ENDMDL
MODEL 4
REMARK VINA RESULT:    -3.767      3.865      6.616
REMARK INTER + INTRA:          -6.622
REMARK INTER:                  -5.578
REMARK INTRA:                  -1.044
REMARK UNBOUND:                -0.652
REMARK SMILES CCCCCCCCCCCC(=O)[O-]
REMARK SMILES IDX 7 1 8 2 9 3 10 4 11 5 12 6 13 7 14 8 6 9 5 10 4 11 3 12 2 13
REMARK SMILES IDX 1 14
REMARK H PARENT
REMARK Flexibility Score: inf
ROOT
ATOM      1  C   UNL     1      -7.368  21.965 -12.427  1.00  0.00     0.000 C 
ENDROOT
BRANCH   1   2
ATOM      2  C   UNL     1      -5.976  21.313 -12.402  1.00  0.00     0.000 C 
BRANCH   2   3
ATOM      3  C   UNL     1      -5.906  20.097 -11.462  1.00  0.00     0.000 C 
BRANCH   3   4
ATOM      4  C   UNL     1      -7.078  20.050 -10.469  1.00  0.00     0.006 C 
BRANCH   4   5
ATOM      5  C   UNL     1      -6.619  20.165  -9.009  1.00  0.00     0.053 C 
BRANCH   5   6
ATOM      6  C   UNL     1      -7.326  19.156  -8.160  1.00  0.00     0.041 C 
ATOM      7  O   UNL     1      -7.483  17.978  -8.575  1.00  0.00    -0.550 OA
ATOM      8  O   UNL     1      -7.767  19.504  -6.890  1.00  0.00    -0.550 OA
ENDBRANCH   5   6
ENDBRANCH   4   5
ENDBRANCH   3   4
ENDBRANCH   2   3
ENDBRANCH   1   2
BRANCH   1   9
ATOM      9  C   UNL     1      -7.328  23.456 -12.047  1.00  0.00     0.000 C 
BRANCH   9  10
ATOM     10  C   UNL     1      -6.555  23.711 -10.743  1.00  0.00    -0.000 C 
BRANCH  10  11
ATOM     11  C   UNL     1      -5.603  24.914 -10.843  1.00  0.00    -0.000 C 
BRANCH  11  12
ATOM     12  C   UNL     1      -4.346  24.552 -11.646  1.00  0.00    -0.000 C 
BRANCH  12  13
ATOM     13  C   UNL     1      -4.171  25.426 -12.897  1.00  0.00    -0.003 C 
ATOM     14  C   UNL     1      -5.252  26.500 -13.025  1.00  0.00     0.004 C 
ENDBRANCH  12  13
ENDBRANCH  11  12
ENDBRANCH  10  11
ENDBRANCH   9  10
ENDBRANCH   1   9
TORSDOF 10
ENDMDL
MODEL 5
REMARK VINA RESULT:    -3.759      3.952      7.006
REMARK INTER + INTRA:          -6.608
REMARK INTER:                  -5.697
REMARK INTRA:                  -0.911
REMARK UNBOUND:                -0.652
REMARK SMILES CCCCCCCCCCCC(=O)[O-]
REMARK SMILES IDX 7 1 8 2 9 3 10 4 11 5 12 6 13 7 14 8 6 9 5 10 4 11 3 12 2 13
REMARK SMILES IDX 1 14
REMARK H PARENT
REMARK Flexibility Score: inf
ROOT
ATOM      1  C   UNL     1      -6.751  23.308 -11.207  1.00  0.00     0.000 C 
ENDROOT
BRANCH   1   2
ATOM      2  C   UNL     1      -6.140  22.172 -12.044  1.00  0.00     0.000 C 
BRANCH   2   3
ATOM      3  C   UNL     1      -5.801  20.929 -11.203  1.00  0.00     0.000 C 
BRANCH   3   4
ATOM      4  C   UNL     1      -6.965  20.490 -10.303  1.00  0.00     0.006 C 
BRANCH   4   5
ATOM      5  C   UNL     1      -6.538  20.282  -8.844  1.00  0.00     0.053 C 
BRANCH   5   6
ATOM      6  C   UNL     1      -7.330  19.176  -8.220  1.00  0.00     0.041 C 
ATOM      7  O   UNL     1      -7.389  18.048  -8.777  1.00  0.00    -0.550 OA
ATOM      8  O   UNL     1      -7.961  19.376  -7.000  1.00  0.00    -0.550 OA
ENDBRANCH   5   6
ENDBRANCH   4   5
ENDBRANCH   3   4
ENDBRANCH   2   3
ENDBRANCH   1   2
BRANCH   1   9
ATOM      9  C   UNL     1      -5.708  24.360 -10.790  1.00  0.00     0.000 C 
BRANCH   9  10
ATOM     10  C   UNL     1      -4.448  24.322 -11.669  1.00  0.00    -0.000 C 
BRANCH  10  11
ATOM     11  C   UNL     1      -4.436  25.424 -12.740  1.00  0.00    -0.000 C 
BRANCH  11  12
ATOM     12  C   UNL     1      -5.484  26.502 -12.427  1.00  0.00    -0.000 C 
BRANCH  12  13
ATOM     13  C   UNL     1      -6.411  26.789 -13.618  1.00  0.00    -0.003 C 
ATOM     14  C   UNL     1      -7.321  25.609 -13.957  1.00  0.00     0.004 C 
ENDBRANCH  12  13
ENDBRANCH  11  12
ENDBRANCH  10  11
ENDBRANCH   9  10
ENDBRANCH   1   9
TORSDOF 10
ENDMDL
MODEL 6
REMARK VINA RESULT:    -3.698      8.663     10.334
REMARK INTER + INTRA:          -6.511
REMARK INTER:                  -5.375
REMARK INTRA:                  -1.136
REMARK UNBOUND:                -0.652
REMARK SMILES CCCCCCCCCCCC(=O)[O-]
REMARK SMILES IDX 7 1 8 2 9 3 10 4 11 5 12 6 13 7 14 8 6 9 5 10 4 11 3 12 2 13
REMARK SMILES IDX 1 14
REMARK H PARENT
REMARK Flexibility Score: inf
ROOT
ATOM      1  C   UNL     1      -6.829  29.171  -9.012  1.00  0.00     0.000 C 
ENDROOT
BRANCH   1   2
ATOM      2  C   UNL     1      -6.341  30.627  -9.087  1.00  0.00     0.000 C 
BRANCH   2   3
ATOM      3  C   UNL     1      -4.872  30.785  -8.656  1.00  0.00     0.000 C 
BRANCH   3   4
ATOM      4  C   UNL     1      -4.716  30.932  -7.134  1.00  0.00     0.006 C 
BRANCH   4   5
ATOM      5  C   UNL     1      -5.727  31.916  -6.530  1.00  0.00     0.053 C 
BRANCH   5   6
ATOM      6  C   UNL     1      -5.036  32.882  -5.621  1.00  0.00     0.041 C 
ATOM      7  O   UNL     1      -5.137  32.759  -4.372  1.00  0.00    -0.550 OA
ATOM      8  O   UNL     1      -4.240  33.889  -6.152  1.00  0.00    -0.550 OA
ENDBRANCH   5   6
ENDBRANCH   4   5
ENDBRANCH   3   4
ENDBRANCH   2   3
ENDBRANCH   1   2
BRANCH   1   9
ATOM      9  C   UNL     1      -8.093  28.929  -9.857  1.00  0.00     0.000 C 
BRANCH   9  10
ATOM     10  C   UNL     1      -8.958  30.191 -10.000  1.00  0.00    -0.000 C 
BRANCH  10  11
ATOM     11  C   UNL     1     -10.307  30.071  -9.274  1.00  0.00    -0.000 C 
BRANCH  11  12
ATOM     12  C   UNL     1     -10.519  31.253  -8.315  1.00  0.00    -0.000 C 
BRANCH  12  13
ATOM     13  C   UNL     1      -9.453  31.317  -7.210  1.00  0.00    -0.003 C 
ATOM     14  C   UNL     1      -9.485  30.099  -6.286  1.00  0.00     0.004 C 
ENDBRANCH  12  13
ENDBRANCH  11  12
ENDBRANCH  10  11
ENDBRANCH   9  10
ENDBRANCH   1   9
TORSDOF 10
ENDMDL
MODEL 7
REMARK VINA RESULT:    -3.652      3.482      6.412
REMARK INTER + INTRA:          -6.439
REMARK INTER:                  -4.966
REMARK INTRA:                  -1.472
REMARK UNBOUND:                -0.652
REMARK SMILES CCCCCCCCCCCC(=O)[O-]
REMARK SMILES IDX 7 1 8 2 9 3 10 4 11 5 12 6 13 7 14 8 6 9 5 10 4 11 3 12 2 13
REMARK SMILES IDX 1 14
REMARK H PARENT
REMARK Flexibility Score: inf
ROOT
ATOM      1  C   UNL     1      -4.232  25.437 -12.955  1.00  0.00     0.000 C 
ENDROOT
BRANCH   1   2
ATOM      2  C   UNL     1      -4.489  24.264 -11.994  1.00  0.00     0.000 C 
BRANCH   2   3
ATOM      3  C   UNL     1      -4.954  24.727 -10.602  1.00  0.00     0.000 C 
BRANCH   3   4
ATOM      4  C   UNL     1      -6.147  23.914 -10.078  1.00  0.00     0.006 C 
BRANCH   4   5
ATOM      5  C   UNL     1      -6.831  23.093 -11.179  1.00  0.00     0.053 C 
BRANCH   5   6
ATOM      6  C   UNL     1      -6.938  21.657 -10.770  1.00  0.00     0.041 C 
ATOM      7  O   UNL     1      -8.045  21.061 -10.834  1.00  0.00    -0.550 OA
ATOM      8  O   UNL     1      -5.805  20.964 -10.366  1.00  0.00    -0.550 OA
ENDBRANCH   5   6
ENDBRANCH   4   5
ENDBRANCH   3   4
ENDBRANCH   2   3
ENDBRANCH   1   2
BRANCH   1   9
ATOM      9  C   UNL     1      -5.306  26.534 -12.847  1.00  0.00     0.000 C 
BRANCH   9  10
ATOM     10  C   UNL     1      -6.540  26.240 -13.713  1.00  0.00    -0.000 C 
BRANCH  10  11
ATOM     11  C   UNL     1      -7.818  26.900 -13.172  1.00  0.00    -0.000 C 
BRANCH  11  12
ATOM     12  C   UNL     1      -8.027  26.553 -11.691  1.00  0.00    -0.000 C 
BRANCH  12  13
ATOM     13  C   UNL     1      -8.074  27.799 -10.792  1.00  0.00    -0.003 C 
ATOM     14  C   UNL     1      -6.936  27.836  -9.772  1.00  0.00     0.004 C 
ENDBRANCH  12  13
ENDBRANCH  11  12
ENDBRANCH  10  11
ENDBRANCH   9  10
ENDBRANCH   1   9
TORSDOF 10
ENDMDL
MODEL 8
REMARK VINA RESULT:    -3.641      3.539      6.607
REMARK INTER + INTRA:          -6.422
REMARK INTER:                  -5.186
REMARK INTRA:                  -1.236
REMARK UNBOUND:                -0.652
REMARK SMILES CCCCCCCCCCCC(=O)[O-]
REMARK SMILES IDX 7 1 8 2 9 3 10 4 11 5 12 6 13 7 14 8 6 9 5 10 4 11 3 12 2 13
REMARK SMILES IDX 1 14
REMARK H PARENT
REMARK Flexibility Score: inf
ROOT
ATOM      1  C   UNL     1      -6.788  24.106 -10.382  1.00  0.00     0.000 C 
ENDROOT
BRANCH   1   2
ATOM      2  C   UNL     1      -7.614  23.404 -11.473  1.00  0.00     0.000 C 
BRANCH   2   3
ATOM      3  C   UNL     1      -6.769  22.449 -12.335  1.00  0.00     0.000 C 
BRANCH   3   4
ATOM      4  C   UNL     1      -5.626  21.795 -11.545  1.00  0.00     0.006 C 
BRANCH   4   5
ATOM      5  C   UNL     1      -5.809  20.280 -11.386  1.00  0.00     0.053 C 
BRANCH   5   6
ATOM      6  C   UNL     1      -6.114  19.938  -9.962  1.00  0.00     0.041 C 
ATOM      7  O   UNL     1      -6.341  20.852  -9.126  1.00  0.00    -0.550 OA
ATOM      8  O   UNL     1      -6.194  18.609  -9.567  1.00  0.00    -0.550 OA
ENDBRANCH   5   6
ENDBRANCH   4   5
ENDBRANCH   3   4
ENDBRANCH   2   3
ENDBRANCH   1   2
BRANCH   1   9
ATOM      9  C   UNL     1      -7.411  25.442  -9.938  1.00  0.00     0.000 C 
BRANCH   9  10
ATOM     10  C   UNL     1      -6.813  26.647 -10.682  1.00  0.00    -0.000 C 
BRANCH  10  11
ATOM     11  C   UNL     1      -7.539  26.950 -12.002  1.00  0.00    -0.000 C 
BRANCH  11  12
ATOM     12  C   UNL     1      -6.627  26.667 -13.205  1.00  0.00    -0.000 C 
BRANCH  12  13
ATOM     13  C   UNL     1      -5.141  26.598 -12.818  1.00  0.00    -0.003 C 
ATOM     14  C   UNL     1      -4.431  25.381 -13.410  1.00  0.00     0.004 C 
ENDBRANCH  12  13
ENDBRANCH  11  12
ENDBRANCH  10  11
ENDBRANCH   9  10
ENDBRANCH   1   9
TORSDOF 10
ENDMDL
MODEL 9
REMARK VINA RESULT:    -3.613      3.559      6.702
REMARK INTER + INTRA:          -6.378
REMARK INTER:                  -5.232
REMARK INTRA:                  -1.146
REMARK UNBOUND:                -0.652
REMARK SMILES CCCCCCCCCCCC(=O)[O-]
REMARK SMILES IDX 7 1 8 2 9 3 10 4 11 5 12 6 13 7 14 8 6 9 5 10 4 11 3 12 2 13
REMARK SMILES IDX 1 14
REMARK H PARENT
REMARK Flexibility Score: inf
ROOT
ATOM      1  C   UNL     1      -5.319  24.945 -10.769  1.00  0.00     0.000 C 
ENDROOT
BRANCH   1   2
ATOM      2  C   UNL     1      -6.108  23.744 -10.221  1.00  0.00     0.000 C 
BRANCH   2   3
ATOM      3  C   UNL     1      -7.100  23.167 -11.246  1.00  0.00     0.000 C 
BRANCH   3   4
ATOM      4  C   UNL     1      -6.841  21.682 -11.546  1.00  0.00     0.006 C 
BRANCH   4   5
ATOM      5  C   UNL     1      -5.771  21.073 -10.631  1.00  0.00     0.053 C 
BRANCH   5   6
ATOM      6  C   UNL     1      -6.391  20.098  -9.680  1.00  0.00     0.041 C 
ATOM      7  O   UNL     1      -7.632  20.120  -9.471  1.00  0.00    -0.550 OA
ATOM      8  O   UNL     1      -5.605  19.135  -9.061  1.00  0.00    -0.550 OA
ENDBRANCH   5   6
ENDBRANCH   4   5
ENDBRANCH   3   4
ENDBRANCH   2   3
ENDBRANCH   1   2
BRANCH   1   9
ATOM      9  C   UNL     1      -4.354  24.550 -11.901  1.00  0.00     0.000 C 
BRANCH   9  10
ATOM     10  C   UNL     1      -4.254  25.627 -12.993  1.00  0.00    -0.000 C 
BRANCH  10  11
ATOM     11  C   UNL     1      -5.449  26.593 -12.987  1.00  0.00    -0.000 C 
BRANCH  11  12
ATOM     12  C   UNL     1      -6.576  26.074 -13.892  1.00  0.00    -0.000 C 
BRANCH  12  13
ATOM     13  C   UNL     1      -7.917  26.777 -13.628  1.00  0.00    -0.003 C 
ATOM     14  C   UNL     1      -8.399  26.611 -12.187  1.00  0.00     0.004 C 
ENDBRANCH  12  13
ENDBRANCH  11  12
ENDBRANCH  10  11
ENDBRANCH   9  10
ENDBRANCH   1   9
TORSDOF 10
ENDMDL
