MODEL 1
REMARK VINA RESULT:    -2.305      0.000      0.000
REMARK INTER + INTRA:          -6.827
REMARK INTER:                  -4.461
REMARK INTRA:                  -2.366
REMARK UNBOUND:                -2.366
REMARK SMILES CCCCCCCCCCCCCCCCCC(=O)[O-]
REMARK SMILES IDX 10 1 11 2 12 3 13 4 14 5 15 6 16 7 17 8 18 9 19 10 20 11
REMARK SMILES IDX 9 12 8 13 7 14 6 15 5 16 4 17 3 18 2 19 1 20
REMARK H PARENT
REMARK Flexibility Score: inf
ROOT
ATOM      1  C   UNL     1       5.067  -5.482  -5.777  1.00  0.00     0.000 C 
ENDROOT
BRANCH   1   2
ATOM      2  C   UNL     1       5.704  -4.743  -6.973  1.00  0.00     0.000 C 
BRANCH   2   3
ATOM      3  C   UNL     1       7.236  -4.637  -6.885  1.00  0.00     0.000 C 
BRANCH   3   4
ATOM      4  C   UNL     1       7.908  -4.543  -8.265  1.00  0.00     0.000 C 
BRANCH   4   5
ATOM      5  C   UNL     1       8.869  -3.349  -8.375  1.00  0.00     0.000 C 
BRANCH   5   6
ATOM      6  C   UNL     1       8.291  -2.197  -9.211  1.00  0.00     0.000 C 
BRANCH   6   7
ATOM      7  C   UNL     1       7.115  -2.683 -10.072  1.00  0.00     0.006 C 
BRANCH   7   8
ATOM      8  C   UNL     1       5.970  -1.665 -10.120  1.00  0.00     0.053 C 
BRANCH   8   9
ATOM      9  C   UNL     1       4.642  -2.302  -9.839  1.00  0.00     0.041 C 
ATOM     10  O   UNL     1       4.525  -3.555  -9.855  1.00  0.00    -0.550 OA
ATOM     11  O   UNL     1       3.540  -1.510  -9.540  1.00  0.00    -0.550 OA
ENDBRANCH   8   9
ENDBRANCH   7   8
ENDBRANCH   6   7
ENDBRANCH   5   6
ENDBRANCH   4   5
ENDBRANCH   3   4
ENDBRANCH   2   3
ENDBRANCH   1   2
BRANCH   1  12
ATOM     12  C   UNL     1       4.670  -6.926  -6.132  1.00  0.00     0.000 C 
BRANCH  12  13
ATOM     13  C   UNL     1       4.917  -7.267  -7.613  1.00  0.00    -0.000 C 
BRANCH  13  14
ATOM     14  C   UNL     1       5.976  -8.360  -7.861  1.00  0.00    -0.000 C 
BRANCH  14  15
ATOM     15  C   UNL     1       6.986  -8.049  -8.984  1.00  0.00    -0.000 C 
BRANCH  15  16
ATOM     16  C   UNL     1       8.421  -8.539  -8.719  1.00  0.00    -0.000 C 
BRANCH  16  17
ATOM     17  C   UNL     1       8.767  -8.763  -7.234  1.00  0.00    -0.000 C 
BRANCH  17  18
ATOM     18  C   UNL     1       9.125  -7.465  -6.478  1.00  0.00    -0.000 C 
BRANCH  18  19
ATOM     19  C   UNL     1       9.072  -7.638  -4.953  1.00  0.00    -0.003 C 
ATOM     20  C   UNL     1       7.734  -8.222  -4.510  1.00  0.00     0.004 C 
ENDBRANCH  18  19
ENDBRANCH  17  18
ENDBRANCH  16  17
ENDBRANCH  15  16
ENDBRANCH  14  15
ENDBRANCH  13  14
ENDBRANCH  12  13
ENDBRANCH   1  12
TORSDOF 16
ENDMDL
MODEL 2
REMARK VINA RESULT:    -1.577      7.197     10.200
REMARK INTER + INTRA:          -5.419
REMARK INTER:                  -4.717
REMARK INTRA:                  -0.702
REMARK UNBOUND:                -2.366
REMARK SMILES CCCCCCCCCCCCCCCCCC(=O)[O-]
REMARK SMILES IDX 10 1 11 2 12 3 13 4 14 5 15 6 16 7 17 8 18 9 19 10 20 11
REMARK SMILES IDX 9 12 8 13 7 14 6 15 5 16 4 17 3 18 2 19 1 20
REMARK H PARENT
REMARK Flexibility Score: inf
ROOT
ATOM      1  C   UNL     1       7.156  -8.906  -1.262  1.00  0.00     0.000 C 
ENDROOT
BRANCH   1   2
ATOM      2  C   UNL     1       6.874  -9.125   0.239  1.00  0.00     0.000 C 
BRANCH   2   3
ATOM      3  C   UNL     1       5.420  -8.827   0.642  1.00  0.00     0.000 C 
BRANCH   3   4
ATOM      4  C   UNL     1       5.309  -7.733   1.715  1.00  0.00     0.000 C 
BRANCH   4   5
ATOM      5  C   UNL     1       6.038  -8.104   3.017  1.00  0.00     0.000 C 
BRANCH   5   6
ATOM      6  C   UNL     1       5.823  -7.071   4.132  1.00  0.00     0.000 C 
BRANCH   6   7
ATOM      7  C   UNL     1       7.065  -6.970   5.031  1.00  0.00     0.006 C 
BRANCH   7   8
ATOM      8  C   UNL     1       8.305  -6.507   4.258  1.00  0.00     0.053 C 
BRANCH   8   9
ATOM      9  C   UNL     1       8.827  -5.198   4.767  1.00  0.00     0.041 C 
ATOM     10  O   UNL     1       8.980  -4.227   3.980  1.00  0.00    -0.550 OA
ATOM     11  O   UNL     1       9.125  -5.044   6.116  1.00  0.00    -0.550 OA
ENDBRANCH   8   9
ENDBRANCH   7   8
ENDBRANCH   6   7
ENDBRANCH   5   6
ENDBRANCH   4   5
ENDBRANCH   3   4
ENDBRANCH   2   3
ENDBRANCH   1   2
BRANCH   1  12
ATOM     12  C   UNL     1       8.663  -8.863  -1.570  1.00  0.00     0.000 C 
BRANCH  12  13
ATOM     13  C   UNL     1       8.980  -8.181  -2.913  1.00  0.00    -0.000 C 
BRANCH  13  14
ATOM     14  C   UNL     1       8.560  -8.981  -4.163  1.00  0.00    -0.000 C 
BRANCH  14  15
ATOM     15  C   UNL     1       7.444  -8.334  -5.008  1.00  0.00    -0.000 C 
BRANCH  15  16
ATOM     16  C   UNL     1       7.838  -7.020  -5.707  1.00  0.00    -0.000 C 
BRANCH  16  17
ATOM     17  C   UNL     1       7.437  -6.927  -7.192  1.00  0.00    -0.000 C 
BRANCH  17  18
ATOM     18  C   UNL     1       7.864  -5.607  -7.869  1.00  0.00    -0.000 C 
BRANCH  18  19
ATOM     19  C   UNL     1       6.847  -4.477  -7.652  1.00  0.00    -0.003 C 
ATOM     20  C   UNL     1       5.429  -5.027  -7.531  1.00  0.00     0.004 C 
ENDBRANCH  18  19
ENDBRANCH  17  18
ENDBRANCH  16  17
ENDBRANCH  15  16
ENDBRANCH  14  15
ENDBRANCH  13  14
ENDBRANCH  12  13
ENDBRANCH   1  12
TORSDOF 16
ENDMDL
MODEL 3
REMARK VINA RESULT:    -1.412     21.064     22.863
REMARK INTER + INTRA:          -5.099
REMARK INTER:                  -4.308
REMARK INTRA:                  -0.790
REMARK UNBOUND:                -2.366
REMARK SMILES CCCCCCCCCCCCCCCCCC(=O)[O-]
REMARK SMILES IDX 10 1 11 2 12 3 13 4 14 5 15 6 16 7 17 8 18 9 19 10 20 11
REMARK SMILES IDX 9 12 8 13 7 14 6 15 5 16 4 17 3 18 2 19 1 20
REMARK H PARENT
REMARK Flexibility Score: inf
ROOT
ATOM      1  C   UNL     1      -9.327  -1.342   8.747  1.00  0.00     0.000 C 
ENDROOT
BRANCH   1   2
ATOM      2  C   UNL     1     -10.826  -1.587   9.017  1.00  0.00     0.000 C 
BRANCH   2   3
ATOM      3  C   UNL     1     -11.092  -2.702  10.043  1.00  0.00     0.000 C 
BRANCH   3   4
ATOM      4  C   UNL     1      -9.950  -3.727  10.120  1.00  0.00     0.000 C 
BRANCH   4   5
ATOM      5  C   UNL     1     -10.371  -5.121   9.628  1.00  0.00     0.000 C 
BRANCH   5   6
ATOM      6  C   UNL     1      -9.176  -6.067   9.434  1.00  0.00     0.000 C 
BRANCH   6   7
ATOM      7  C   UNL     1      -7.893  -5.453  10.015  1.00  0.00     0.006 C 
BRANCH   7   8
ATOM      8  C   UNL     1      -6.801  -5.276   8.952  1.00  0.00     0.053 C 
BRANCH   8   9
ATOM      9  C   UNL     1      -5.432  -5.226   9.558  1.00  0.00     0.041 C 
ATOM     10  O   UNL     1      -4.828  -6.292   9.850  1.00  0.00    -0.550 OA
ATOM     11  O   UNL     1      -4.814  -4.002   9.783  1.00  0.00    -0.550 OA
ENDBRANCH   8   9
ENDBRANCH   7   8
ENDBRANCH   6   7
ENDBRANCH   5   6
ENDBRANCH   4   5
ENDBRANCH   3   4
ENDBRANCH   2   3
ENDBRANCH   1   2
BRANCH   1  12
ATOM     12  C   UNL     1      -8.620  -2.600   8.211  1.00  0.00     0.000 C 
BRANCH  12  13
ATOM     13  C   UNL     1      -8.152  -2.447   6.753  1.00  0.00    -0.000 C 
BRANCH  13  14
ATOM     14  C   UNL     1      -9.010  -3.193   5.712  1.00  0.00    -0.000 C 
BRANCH  14  15
ATOM     15  C   UNL     1      -9.965  -4.256   6.293  1.00  0.00    -0.000 C 
BRANCH  15  16
ATOM     16  C   UNL     1     -10.896  -4.921   5.263  1.00  0.00    -0.000 C 
BRANCH  16  17
ATOM     17  C   UNL     1     -10.524  -6.370   4.892  1.00  0.00    -0.000 C 
BRANCH  17  18
ATOM     18  C   UNL     1     -10.122  -7.239   6.104  1.00  0.00    -0.000 C 
BRANCH  18  19
ATOM     19  C   UNL     1      -8.600  -7.397   6.235  1.00  0.00    -0.003 C 
ATOM     20  C   UNL     1      -8.245  -8.582   7.130  1.00  0.00     0.004 C 
ENDBRANCH  18  19
ENDBRANCH  17  18
ENDBRANCH  16  17
ENDBRANCH  15  16
ENDBRANCH  14  15
ENDBRANCH  13  14
ENDBRANCH  12  13
ENDBRANCH   1  12
TORSDOF 16
ENDMDL
MODEL 4
REMARK VINA RESULT:    -1.290      3.008      6.237
REMARK INTER + INTRA:          -4.864
REMARK INTER:                  -3.602
REMARK INTRA:                  -1.262
REMARK UNBOUND:                -2.366
REMARK SMILES CCCCCCCCCCCCCCCCCC(=O)[O-]
REMARK SMILES IDX 10 1 11 2 12 3 13 4 14 5 15 6 16 7 17 8 18 9 19 10 20 11
REMARK SMILES IDX 9 12 8 13 7 14 6 15 5 16 4 17 3 18 2 19 1 20
REMARK H PARENT
REMARK Flexibility Score: inf
ROOT
ATOM      1  C   UNL     1       5.375  -5.626  -7.096  1.00  0.00     0.000 C 
ENDROOT
BRANCH   1   2
ATOM      2  C   UNL     1       4.594  -6.824  -6.515  1.00  0.00     0.000 C 
BRANCH   2   3
ATOM      3  C   UNL     1       4.980  -7.164  -5.066  1.00  0.00     0.000 C 
BRANCH   3   4
ATOM      4  C   UNL     1       6.110  -8.203  -4.977  1.00  0.00     0.000 C 
BRANCH   4   5
ATOM      5  C   UNL     1       6.909  -8.321  -6.285  1.00  0.00     0.000 C 
BRANCH   5   6
ATOM      6  C   UNL     1       8.421  -8.450  -6.046  1.00  0.00     0.000 C 
BRANCH   6   7
ATOM      7  C   UNL     1       9.123  -7.097  -6.239  1.00  0.00     0.006 C 
BRANCH   7   8
ATOM      8  C   UNL     1       8.415  -5.963  -5.489  1.00  0.00     0.053 C 
BRANCH   8   9
ATOM      9  C   UNL     1       8.887  -5.847  -4.072  1.00  0.00     0.041 C 
ATOM     10  O   UNL     1       9.096  -6.883  -3.387  1.00  0.00    -0.550 OA
ATOM     11  O   UNL     1       9.115  -4.596  -3.513  1.00  0.00    -0.550 OA
ENDBRANCH   8   9
ENDBRANCH   7   8
ENDBRANCH   6   7
ENDBRANCH   5   6
ENDBRANCH   4   5
ENDBRANCH   3   4
ENDBRANCH   2   3
ENDBRANCH   1   2
BRANCH   1  12
ATOM     12  C   UNL     1       5.548  -5.732  -8.622  1.00  0.00     0.000 C 
BRANCH  12  13
ATOM     13  C   UNL     1       6.347  -4.557  -9.215  1.00  0.00    -0.000 C 
BRANCH  13  14
ATOM     14  C   UNL     1       7.546  -4.964 -10.095  1.00  0.00    -0.000 C 
BRANCH  14  15
ATOM     15  C   UNL     1       8.890  -4.311  -9.712  1.00  0.00    -0.000 C 
BRANCH  15  16
ATOM     16  C   UNL     1       8.854  -3.457  -8.432  1.00  0.00    -0.000 C 
BRANCH  16  17
ATOM     17  C   UNL     1       8.743  -1.938  -8.667  1.00  0.00    -0.000 C 
BRANCH  17  18
ATOM     18  C   UNL     1       8.239  -1.562 -10.078  1.00  0.00    -0.000 C 
BRANCH  18  19
ATOM     19  C   UNL     1       7.143  -0.488 -10.046  1.00  0.00    -0.003 C 
ATOM     20  C   UNL     1       5.754  -1.116 -10.124  1.00  0.00     0.004 C 
ENDBRANCH  18  19
ENDBRANCH  17  18
ENDBRANCH  16  17
ENDBRANCH  15  16
ENDBRANCH  14  15
ENDBRANCH  13  14
ENDBRANCH  12  13
ENDBRANCH   1  12
TORSDOF 16
ENDMDL
MODEL 5
REMARK VINA RESULT:    -1.208     20.373     22.640
REMARK INTER + INTRA:          -4.705
REMARK INTER:                  -3.613
REMARK INTRA:                  -1.091
REMARK UNBOUND:                -2.366
REMARK SMILES CCCCCCCCCCCCCCCCCC(=O)[O-]
REMARK SMILES IDX 10 1 11 2 12 3 13 4 14 5 15 6 16 7 17 8 18 9 19 10 20 11
REMARK SMILES IDX 9 12 8 13 7 14 6 15 5 16 4 17 3 18 2 19 1 20
REMARK H PARENT
REMARK Flexibility Score: inf
ROOT
ATOM      1  C   UNL     1      -8.116  -8.245   8.461  1.00  0.00     0.000 C 
ENDROOT
BRANCH   1   2
ATOM      2  C   UNL     1      -8.176  -8.338   6.922  1.00  0.00     0.000 C 
BRANCH   2   3
ATOM      3  C   UNL     1      -8.189  -6.969   6.223  1.00  0.00     0.000 C 
BRANCH   3   4
ATOM      4  C   UNL     1      -7.008  -6.075   6.638  1.00  0.00     0.000 C 
BRANCH   4   5
ATOM      5  C   UNL     1      -7.461  -4.706   7.171  1.00  0.00     0.000 C 
BRANCH   5   6
ATOM      6  C   UNL     1      -8.005  -4.779   8.605  1.00  0.00     0.000 C 
BRANCH   6   7
ATOM      7  C   UNL     1      -6.918  -4.397   9.622  1.00  0.00     0.006 C 
BRANCH   7   8
ATOM      8  C   UNL     1      -5.955  -5.557   9.906  1.00  0.00     0.053 C 
BRANCH   8   9
ATOM      9  C   UNL     1      -4.522  -5.141   9.769  1.00  0.00     0.041 C 
ATOM     10  O   UNL     1      -4.233  -3.973   9.399  1.00  0.00    -0.550 OA
ATOM     11  O   UNL     1      -3.505  -6.039  10.069  1.00  0.00    -0.550 OA
ENDBRANCH   8   9
ENDBRANCH   7   8
ENDBRANCH   6   7
ENDBRANCH   5   6
ENDBRANCH   4   5
ENDBRANCH   3   4
ENDBRANCH   2   3
ENDBRANCH   1   2
BRANCH   1  12
ATOM     12  C   UNL     1      -9.297  -8.968   9.134  1.00  0.00     0.000 C 
BRANCH  12  13
ATOM     13  C   UNL     1     -10.125  -8.042  10.043  1.00  0.00    -0.000 C 
BRANCH  13  14
ATOM     14  C   UNL     1      -9.877  -6.535   9.835  1.00  0.00    -0.000 C 
BRANCH  14  15
ATOM     15  C   UNL     1     -11.123  -5.714   9.445  1.00  0.00    -0.000 C 
BRANCH  15  16
ATOM     16  C   UNL     1     -10.966  -4.864   8.172  1.00  0.00    -0.000 C 
BRANCH  16  17
ATOM     17  C   UNL     1     -11.074  -5.648   6.849  1.00  0.00    -0.000 C 
BRANCH  17  18
ATOM     18  C   UNL     1     -10.999  -4.756   5.591  1.00  0.00    -0.000 C 
BRANCH  18  19
ATOM     19  C   UNL     1     -11.096  -5.564   4.289  1.00  0.00    -0.003 C 
ATOM     20  C   UNL     1     -11.124  -7.064   4.572  1.00  0.00     0.004 C 
ENDBRANCH  18  19
ENDBRANCH  17  18
ENDBRANCH  16  17
ENDBRANCH  15  16
ENDBRANCH  14  15
ENDBRANCH  13  14
ENDBRANCH  12  13
ENDBRANCH   1  12
TORSDOF 16
ENDMDL
MODEL 6
REMARK VINA RESULT:    -0.471      6.132      9.293
REMARK INTER + INTRA:          -3.278
REMARK INTER:                  -2.485
REMARK INTRA:                  -0.793
REMARK UNBOUND:                -2.366
REMARK SMILES CCCCCCCCCCCCCCCCCC(=O)[O-]
REMARK SMILES IDX 10 1 11 2 12 3 13 4 14 5 15 6 16 7 17 8 18 9 19 10 20 11
REMARK SMILES IDX 9 12 8 13 7 14 6 15 5 16 4 17 3 18 2 19 1 20
REMARK H PARENT
REMARK Flexibility Score: inf
ROOT
ATOM      1  C   UNL     1       7.516  -8.212  -4.169  1.00  0.00     0.000 C 
ENDROOT
BRANCH   1   2
ATOM      2  C   UNL     1       8.462  -8.278  -2.952  1.00  0.00     0.000 C 
BRANCH   2   3
ATOM      3  C   UNL     1       7.912  -9.125  -1.791  1.00  0.00     0.000 C 
BRANCH   3   4
ATOM      4  C   UNL     1       6.610  -8.559  -1.204  1.00  0.00     0.000 C 
BRANCH   4   5
ATOM      5  C   UNL     1       6.350  -9.039   0.233  1.00  0.00     0.000 C 
BRANCH   5   6
ATOM      6  C   UNL     1       4.915  -8.760   0.702  1.00  0.00     0.000 C 
BRANCH   6   7
ATOM      7  C   UNL     1       4.909  -7.805   1.906  1.00  0.00     0.006 C 
BRANCH   7   8
ATOM      8  C   UNL     1       5.199  -8.531   3.225  1.00  0.00     0.053 C 
BRANCH   8   9
ATOM      9  C   UNL     1       6.049  -7.707   4.143  1.00  0.00     0.041 C 
ATOM     10  O   UNL     1       5.685  -7.502   5.331  1.00  0.00    -0.550 OA
ATOM     11  O   UNL     1       7.254  -7.182   3.692  1.00  0.00    -0.550 OA
ENDBRANCH   8   9
ENDBRANCH   7   8
ENDBRANCH   6   7
ENDBRANCH   5   6
ENDBRANCH   4   5
ENDBRANCH   3   4
ENDBRANCH   2   3
ENDBRANCH   1   2
BRANCH   1  12
ATOM     12  C   UNL     1       8.109  -8.915  -5.404  1.00  0.00     0.000 C 
BRANCH  12  13
ATOM     13  C   UNL     1       7.957  -8.086  -6.692  1.00  0.00    -0.000 C 
BRANCH  13  14
ATOM     14  C   UNL     1       6.680  -8.374  -7.505  1.00  0.00    -0.000 C 
BRANCH  14  15
ATOM     15  C   UNL     1       5.559  -7.326  -7.356  1.00  0.00    -0.000 C 
BRANCH  15  16
ATOM     16  C   UNL     1       4.639  -7.181  -8.582  1.00  0.00    -0.000 C 
BRANCH  16  17
ATOM     17  C   UNL     1       5.196  -6.292  -9.711  1.00  0.00    -0.000 C 
BRANCH  17  18
ATOM     18  C   UNL     1       4.460  -4.942  -9.859  1.00  0.00    -0.000 C 
BRANCH  18  19
ATOM     19  C   UNL     1       5.221  -3.781  -9.204  1.00  0.00    -0.003 C 
ATOM     20  C   UNL     1       6.692  -4.133  -8.996  1.00  0.00     0.004 C 
ENDBRANCH  18  19
ENDBRANCH  17  18
ENDBRANCH  16  17
ENDBRANCH  15  16
ENDBRANCH  14  15
ENDBRANCH  13  14
ENDBRANCH  12  13
ENDBRANCH   1  12
TORSDOF 16
ENDMDL
