MODEL 1
REMARK VINA RESULT:    -5.083      0.000      0.000
REMARK INTER + INTRA:         -11.254
REMARK INTER:                  -9.837
REMARK INTRA:                  -1.416
REMARK UNBOUND:                -1.416
REMARK SMILES CCCCCCCCCCCCCCCCCC(=O)[O-]
REMARK SMILES IDX 10 1 11 2 12 3 13 4 14 5 15 6 16 7 17 8 18 9 19 10 20 11
REMARK SMILES IDX 9 12 8 13 7 14 6 15 5 16 4 17 3 18 2 19 1 20
REMARK H PARENT
REMARK Flexibility Score: inf
ROOT
ATOM      1  C   UNL     1      29.363   1.395  31.581  1.00  0.00     0.000 C 
ENDROOT
BRANCH   1   2
ATOM      2  C   UNL     1      28.360   2.530  31.310  1.00  0.00     0.000 C 
BRANCH   2   3
ATOM      3  C   UNL     1      28.756   3.850  31.994  1.00  0.00     0.000 C 
BRANCH   3   4
ATOM      4  C   UNL     1      27.738   4.974  31.741  1.00  0.00     0.000 C 
BRANCH   4   5
ATOM      5  C   UNL     1      28.191   5.937  30.630  1.00  0.00     0.000 C 
BRANCH   5   6
ATOM      6  C   UNL     1      27.012   6.656  29.955  1.00  0.00     0.000 C 
BRANCH   6   7
ATOM      7  C   UNL     1      26.961   8.155  30.288  1.00  0.00     0.006 C 
BRANCH   7   8
ATOM      8  C   UNL     1      28.371   8.751  30.342  1.00  0.00     0.053 C 
BRANCH   8   9
ATOM      9  C   UNL     1      28.372  10.148  29.807  1.00  0.00     0.041 C 
ATOM     10  O   UNL     1      28.541  11.124  30.584  1.00  0.00    -0.550 OA
ATOM     11  O   UNL     1      28.140  10.376  28.456  1.00  0.00    -0.550 OA
ENDBRANCH   8   9
ENDBRANCH   7   8
ENDBRANCH   6   7
ENDBRANCH   5   6
ENDBRANCH   4   5
ENDBRANCH   3   4
ENDBRANCH   2   3
ENDBRANCH   1   2
BRANCH   1  12
ATOM     12  C   UNL     1      30.019   0.791  30.323  1.00  0.00     0.000 C 
BRANCH  12  13
ATOM     13  C   UNL     1      29.185   0.905  29.031  1.00  0.00    -0.000 C 
BRANCH  13  14
ATOM     14  C   UNL     1      28.293  -0.309  28.716  1.00  0.00    -0.000 C 
BRANCH  14  15
ATOM     15  C   UNL     1      26.845  -0.128  29.201  1.00  0.00    -0.000 C 
BRANCH  15  16
ATOM     16  C   UNL     1      26.479  -1.077  30.358  1.00  0.00    -0.000 C 
BRANCH  16  17
ATOM     17  C   UNL     1      27.621  -1.990  30.842  1.00  0.00    -0.000 C 
BRANCH  17  18
ATOM     18  C   UNL     1      27.234  -3.466  31.058  1.00  0.00    -0.000 C 
BRANCH  18  19
ATOM     19  C   UNL     1      28.196  -4.467  30.385  1.00  0.00    -0.003 C 
ATOM     20  C   UNL     1      29.430  -3.788  29.791  1.00  0.00     0.004 C 
ENDBRANCH  18  19
ENDBRANCH  17  18
ENDBRANCH  16  17
ENDBRANCH  15  16
ENDBRANCH  14  15
ENDBRANCH  13  14
ENDBRANCH  12  13
ENDBRANCH   1  12
TORSDOF 16
ENDMDL
MODEL 2
REMARK VINA RESULT:    -5.065      4.796      9.843
REMARK INTER + INTRA:         -11.218
REMARK INTER:                  -9.841
REMARK INTRA:                  -1.378
REMARK UNBOUND:                -1.416
REMARK SMILES CCCCCCCCCCCCCCCCCC(=O)[O-]
REMARK SMILES IDX 10 1 11 2 12 3 13 4 14 5 15 6 16 7 17 8 18 9 19 10 20 11
REMARK SMILES IDX 9 12 8 13 7 14 6 15 5 16 4 17 3 18 2 19 1 20
REMARK H PARENT
REMARK Flexibility Score: inf
ROOT
ATOM      1  C   UNL     1      27.675   2.600  29.293  1.00  0.00     0.000 C 
ENDROOT
BRANCH   1   2
ATOM      2  C   UNL     1      26.905   1.313  28.950  1.00  0.00     0.000 C 
BRANCH   2   3
ATOM      3  C   UNL     1      26.253   0.664  30.184  1.00  0.00     0.000 C 
BRANCH   3   4
ATOM      4  C   UNL     1      27.037   0.938  31.478  1.00  0.00     0.000 C 
BRANCH   4   5
ATOM      5  C   UNL     1      28.035  -0.186  31.809  1.00  0.00     0.000 C 
BRANCH   5   6
ATOM      6  C   UNL     1      29.492   0.217  31.533  1.00  0.00     0.000 C 
BRANCH   6   7
ATOM      7  C   UNL     1      30.105  -0.544  30.347  1.00  0.00     0.006 C 
BRANCH   7   8
ATOM      8  C   UNL     1      29.125  -1.585  29.800  1.00  0.00     0.053 C 
BRANCH   8   9
ATOM      9  C   UNL     1      29.710  -2.958  29.894  1.00  0.00     0.041 C 
ATOM     10  O   UNL     1      28.957  -3.962  29.990  1.00  0.00    -0.550 OA
ATOM     11  O   UNL     1      31.089  -3.127  29.922  1.00  0.00    -0.550 OA
ENDBRANCH   8   9
ENDBRANCH   7   8
ENDBRANCH   6   7
ENDBRANCH   5   6
ENDBRANCH   4   5
ENDBRANCH   3   4
ENDBRANCH   2   3
ENDBRANCH   1   2
BRANCH   1  12
ATOM     12  C   UNL     1      26.975   3.909  28.876  1.00  0.00     0.000 C 
BRANCH  12  13
ATOM     13  C   UNL     1      27.710   5.202  29.283  1.00  0.00    -0.000 C 
BRANCH  13  14
ATOM     14  C   UNL     1      27.602   5.578  30.772  1.00  0.00    -0.000 C 
BRANCH  14  15
ATOM     15  C   UNL     1      27.208   7.049  30.989  1.00  0.00    -0.000 C 
BRANCH  15  16
ATOM     16  C   UNL     1      27.609   7.956  29.810  1.00  0.00    -0.000 C 
BRANCH  16  17
ATOM     17  C   UNL     1      28.353   9.246  30.201  1.00  0.00    -0.000 C 
BRANCH  17  18
ATOM     18  C   UNL     1      27.451  10.464  30.484  1.00  0.00    -0.000 C 
BRANCH  18  19
ATOM     19  C   UNL     1      27.563  11.000  31.926  1.00  0.00    -0.003 C 
ATOM     20  C   UNL     1      26.427  10.512  32.825  1.00  0.00     0.004 C 
ENDBRANCH  18  19
ENDBRANCH  17  18
ENDBRANCH  16  17
ENDBRANCH  15  16
ENDBRANCH  14  15
ENDBRANCH  13  14
ENDBRANCH  12  13
ENDBRANCH   1  12
TORSDOF 16
ENDMDL
MODEL 3
REMARK VINA RESULT:    -4.980      1.772      2.749
REMARK INTER + INTRA:         -11.054
REMARK INTER:                  -9.868
REMARK INTRA:                  -1.186
REMARK UNBOUND:                -1.416
REMARK SMILES CCCCCCCCCCCCCCCCCC(=O)[O-]
REMARK SMILES IDX 10 1 11 2 12 3 13 4 14 5 15 6 16 7 17 8 18 9 19 10 20 11
REMARK SMILES IDX 9 12 8 13 7 14 6 15 5 16 4 17 3 18 2 19 1 20
REMARK H PARENT
REMARK Flexibility Score: inf
ROOT
ATOM      1  C   UNL     1      26.837   1.406  28.767  1.00  0.00     0.000 C 
ENDROOT
BRANCH   1   2
ATOM      2  C   UNL     1      27.509   2.638  29.398  1.00  0.00     0.000 C 
BRANCH   2   3
ATOM      3  C   UNL     1      27.037   3.961  28.767  1.00  0.00     0.000 C 
BRANCH   3   4
ATOM      4  C   UNL     1      27.824   5.175  29.287  1.00  0.00     0.000 C 
BRANCH   4   5
ATOM      5  C   UNL     1      26.913   6.226  29.946  1.00  0.00     0.000 C 
BRANCH   5   6
ATOM      6  C   UNL     1      27.703   7.280  30.737  1.00  0.00     0.000 C 
BRANCH   6   7
ATOM      7  C   UNL     1      28.133   8.474  29.871  1.00  0.00     0.006 C 
BRANCH   7   8
ATOM      8  C   UNL     1      28.118   9.772  30.683  1.00  0.00     0.053 C 
BRANCH   8   9
ATOM      9  C   UNL     1      26.737  10.068  31.176  1.00  0.00     0.041 C 
ATOM     10  O   UNL     1      25.827  10.376  30.363  1.00  0.00    -0.550 OA
ATOM     11  O   UNL     1      26.465  10.048  32.538  1.00  0.00    -0.550 OA
ENDBRANCH   8   9
ENDBRANCH   7   8
ENDBRANCH   6   7
ENDBRANCH   5   6
ENDBRANCH   4   5
ENDBRANCH   3   4
ENDBRANCH   2   3
ENDBRANCH   1   2
BRANCH   1  12
ATOM     12  C   UNL     1      26.485   0.277  29.756  1.00  0.00     0.000 C 
BRANCH  12  13
ATOM     13  C   UNL     1      26.853   0.558  31.227  1.00  0.00    -0.000 C 
BRANCH  13  14
ATOM     14  C   UNL     1      28.046  -0.249  31.771  1.00  0.00    -0.000 C 
BRANCH  14  15
ATOM     15  C   UNL     1      29.398   0.248  31.231  1.00  0.00    -0.000 C 
BRANCH  15  16
ATOM     16  C   UNL     1      30.125  -0.808  30.376  1.00  0.00    -0.000 C 
BRANCH  16  17
ATOM     17  C   UNL     1      29.238  -1.958  29.862  1.00  0.00    -0.000 C 
BRANCH  17  18
ATOM     18  C   UNL     1      29.934  -3.330  29.768  1.00  0.00    -0.000 C 
BRANCH  18  19
ATOM     19  C   UNL     1      28.976  -4.526  29.946  1.00  0.00    -0.003 C 
ATOM     20  C   UNL     1      27.747  -4.177  30.785  1.00  0.00     0.004 C 
ENDBRANCH  18  19
ENDBRANCH  17  18
ENDBRANCH  16  17
ENDBRANCH  15  16
ENDBRANCH  14  15
ENDBRANCH  13  14
ENDBRANCH  12  13
ENDBRANCH   1  12
TORSDOF 16
ENDMDL
MODEL 4
REMARK VINA RESULT:    -4.952      5.272     10.028
REMARK INTER + INTRA:         -11.000
REMARK INTER:                  -9.814
REMARK INTRA:                  -1.185
REMARK UNBOUND:                -1.416
REMARK SMILES CCCCCCCCCCCCCCCCCC(=O)[O-]
REMARK SMILES IDX 10 1 11 2 12 3 13 4 14 5 15 6 16 7 17 8 18 9 19 10 20 11
REMARK SMILES IDX 9 12 8 13 7 14 6 15 5 16 4 17 3 18 2 19 1 20
REMARK H PARENT
REMARK Flexibility Score: inf
ROOT
ATOM      1  C   UNL     1      26.532   0.625  29.844  1.00  0.00     0.000 C 
ENDROOT
BRANCH   1   2
ATOM      2  C   UNL     1      26.958   0.866  31.303  1.00  0.00     0.000 C 
BRANCH   2   3
ATOM      3  C   UNL     1      28.052  -0.109  31.772  1.00  0.00     0.000 C 
BRANCH   3   4
ATOM      4  C   UNL     1      29.469   0.409  31.479  1.00  0.00     0.000 C 
BRANCH   4   5
ATOM      5  C   UNL     1      30.201  -0.445  30.429  1.00  0.00     0.000 C 
BRANCH   5   6
ATOM      6  C   UNL     1      29.368  -1.650  29.962  1.00  0.00     0.000 C 
BRANCH   6   7
ATOM      7  C   UNL     1      30.180  -2.953  29.916  1.00  0.00     0.006 C 
BRANCH   7   8
ATOM      8  C   UNL     1      29.348  -4.096  29.328  1.00  0.00     0.053 C 
BRANCH   8   9
ATOM      9  C   UNL     1      28.823  -4.977  30.416  1.00  0.00     0.041 C 
ATOM     10  O   UNL     1      27.836  -4.611  31.107  1.00  0.00    -0.550 OA
ATOM     11  O   UNL     1      29.451  -6.183  30.700  1.00  0.00    -0.550 OA
ENDBRANCH   8   9
ENDBRANCH   7   8
ENDBRANCH   6   7
ENDBRANCH   5   6
ENDBRANCH   4   5
ENDBRANCH   3   4
ENDBRANCH   2   3
ENDBRANCH   1   2
BRANCH   1  12
ATOM     12  C   UNL     1      26.839   1.785  28.875  1.00  0.00     0.000 C 
BRANCH  12  13
ATOM     13  C   UNL     1      27.863   2.815  29.391  1.00  0.00    -0.000 C 
BRANCH  13  14
ATOM     14  C   UNL     1      27.437   4.288  29.257  1.00  0.00    -0.000 C 
BRANCH  14  15
ATOM     15  C   UNL     1      27.774   5.123  30.503  1.00  0.00    -0.000 C 
BRANCH  15  16
ATOM     16  C   UNL     1      27.181   6.544  30.450  1.00  0.00    -0.000 C 
BRANCH  16  17
ATOM     17  C   UNL     1      28.076   7.602  29.777  1.00  0.00    -0.000 C 
BRANCH  17  18
ATOM     18  C   UNL     1      27.895   9.041  30.298  1.00  0.00    -0.000 C 
BRANCH  18  19
ATOM     19  C   UNL     1      26.433   9.402  30.635  1.00  0.00    -0.003 C 
ATOM     20  C   UNL     1      26.246   9.788  32.102  1.00  0.00     0.004 C 
ENDBRANCH  18  19
ENDBRANCH  17  18
ENDBRANCH  16  17
ENDBRANCH  15  16
ENDBRANCH  14  15
ENDBRANCH  13  14
ENDBRANCH  12  13
ENDBRANCH   1  12
TORSDOF 16
ENDMDL
MODEL 5
REMARK VINA RESULT:    -4.931      1.481      2.488
REMARK INTER + INTRA:         -10.959
REMARK INTER:                  -9.732
REMARK INTRA:                  -1.227
REMARK UNBOUND:                -1.416
REMARK SMILES CCCCCCCCCCCCCCCCCC(=O)[O-]
REMARK SMILES IDX 10 1 11 2 12 3 13 4 14 5 15 6 16 7 17 8 18 9 19 10 20 11
REMARK SMILES IDX 9 12 8 13 7 14 6 15 5 16 4 17 3 18 2 19 1 20
REMARK H PARENT
REMARK Flexibility Score: inf
ROOT
ATOM      1  C   UNL     1      26.827   0.904  28.932  1.00  0.00     0.000 C 
ENDROOT
BRANCH   1   2
ATOM      2  C   UNL     1      26.715   2.393  28.563  1.00  0.00     0.000 C 
BRANCH   2   3
ATOM      3  C   UNL     1      27.838   3.245  29.181  1.00  0.00     0.000 C 
BRANCH   3   4
ATOM      4  C   UNL     1      27.415   4.706  29.403  1.00  0.00     0.000 C 
BRANCH   4   5
ATOM      5  C   UNL     1      27.838   5.237  30.785  1.00  0.00     0.000 C 
BRANCH   5   6
ATOM      6  C   UNL     1      28.363   6.680  30.728  1.00  0.00     0.000 C 
BRANCH   6   7
ATOM      7  C   UNL     1      27.449   7.614  29.919  1.00  0.00     0.006 C 
BRANCH   7   8
ATOM      8  C   UNL     1      27.631   9.070  30.356  1.00  0.00     0.053 C 
BRANCH   8   9
ATOM      9  C   UNL     1      28.571   9.782  29.436  1.00  0.00     0.041 C 
ATOM     10  O   UNL     1      29.013  10.920  29.739  1.00  0.00    -0.550 OA
ATOM     11  O   UNL     1      28.923   9.208  28.220  1.00  0.00    -0.550 OA
ENDBRANCH   8   9
ENDBRANCH   7   8
ENDBRANCH   6   7
ENDBRANCH   5   6
ENDBRANCH   4   5
ENDBRANCH   3   4
ENDBRANCH   2   3
ENDBRANCH   1   2
BRANCH   1  12
ATOM     12  C   UNL     1      26.128   0.503  30.246  1.00  0.00     0.000 C 
BRANCH  12  13
ATOM     13  C   UNL     1      26.943   0.768  31.528  1.00  0.00    -0.000 C 
BRANCH  13  14
ATOM     14  C   UNL     1      27.987  -0.308  31.877  1.00  0.00    -0.000 C 
BRANCH  14  15
ATOM     15  C   UNL     1      29.429   0.145  31.592  1.00  0.00    -0.000 C 
BRANCH  15  16
ATOM     16  C   UNL     1      30.041  -0.548  30.361  1.00  0.00    -0.000 C 
BRANCH  16  17
ATOM     17  C   UNL     1      29.162  -1.637  29.717  1.00  0.00    -0.000 C 
BRANCH  17  18
ATOM     18  C   UNL     1      29.719  -3.071  29.812  1.00  0.00    -0.000 C 
BRANCH  18  19
ATOM     19  C   UNL     1      28.673  -4.118  30.249  1.00  0.00    -0.003 C 
ATOM     20  C   UNL     1      29.257  -5.528  30.347  1.00  0.00     0.004 C 
ENDBRANCH  18  19
ENDBRANCH  17  18
ENDBRANCH  16  17
ENDBRANCH  15  16
ENDBRANCH  14  15
ENDBRANCH  13  14
ENDBRANCH  12  13
ENDBRANCH   1  12
TORSDOF 16
ENDMDL
MODEL 6
REMARK VINA RESULT:    -4.917      2.434      4.774
REMARK INTER + INTRA:         -10.932
REMARK INTER:                  -9.760
REMARK INTRA:                  -1.172
REMARK UNBOUND:                -1.416
REMARK SMILES CCCCCCCCCCCCCCCCCC(=O)[O-]
REMARK SMILES IDX 10 1 11 2 12 3 13 4 14 5 15 6 16 7 17 8 18 9 19 10 20 11
REMARK SMILES IDX 9 12 8 13 7 14 6 15 5 16 4 17 3 18 2 19 1 20
REMARK H PARENT
REMARK Flexibility Score: inf
ROOT
ATOM      1  C   UNL     1      26.187   0.001  29.986  1.00  0.00     0.000 C 
ENDROOT
BRANCH   1   2
ATOM      2  C   UNL     1      26.843   0.227  28.613  1.00  0.00     0.000 C 
BRANCH   2   3
ATOM      3  C   UNL     1      28.366   0.005  28.637  1.00  0.00     0.000 C 
BRANCH   3   4
ATOM      4  C   UNL     1      29.130   1.220  29.188  1.00  0.00     0.000 C 
BRANCH   4   5
ATOM      5  C   UNL     1      29.756   0.944  30.567  1.00  0.00     0.000 C 
BRANCH   5   6
ATOM      6  C   UNL     1      29.167   1.834  31.672  1.00  0.00     0.000 C 
BRANCH   6   7
ATOM      7  C   UNL     1      28.058   2.765  31.158  1.00  0.00     0.006 C 
BRANCH   7   8
ATOM      8  C   UNL     1      28.264   4.195  31.668  1.00  0.00     0.053 C 
BRANCH   8   9
ATOM      9  C   UNL     1      27.791   5.188  30.655  1.00  0.00     0.041 C 
ATOM     10  O   UNL     1      27.521   6.367  31.003  1.00  0.00    -0.550 OA
ATOM     11  O   UNL     1      27.602   4.800  29.334  1.00  0.00    -0.550 OA
ENDBRANCH   8   9
ENDBRANCH   7   8
ENDBRANCH   6   7
ENDBRANCH   5   6
ENDBRANCH   4   5
ENDBRANCH   3   4
ENDBRANCH   2   3
ENDBRANCH   1   2
BRANCH   1  12
ATOM     12  C   UNL     1      26.132  -1.469  30.447  1.00  0.00     0.000 C 
BRANCH  12  13
ATOM     13  C   UNL     1      27.472  -2.050  30.942  1.00  0.00    -0.000 C 
BRANCH  13  14
ATOM     14  C   UNL     1      27.635  -3.570  30.760  1.00  0.00    -0.000 C 
BRANCH  14  15
ATOM     15  C   UNL     1      28.985  -3.953  30.130  1.00  0.00    -0.000 C 
BRANCH  15  16
ATOM     16  C   UNL     1      29.425  -5.386  30.484  1.00  0.00    -0.000 C 
BRANCH  16  17
ATOM     17  C   UNL     1      28.319  -6.454  30.384  1.00  0.00    -0.000 C 
BRANCH  17  18
ATOM     18  C   UNL     1      28.587  -7.751  31.173  1.00  0.00    -0.000 C 
BRANCH  18  19
ATOM     19  C   UNL     1      29.071  -8.924  30.296  1.00  0.00    -0.003 C 
ATOM     20  C   UNL     1      28.964  -8.625  28.801  1.00  0.00     0.004 C 
ENDBRANCH  18  19
ENDBRANCH  17  18
ENDBRANCH  16  17
ENDBRANCH  15  16
ENDBRANCH  14  15
ENDBRANCH  13  14
ENDBRANCH  12  13
ENDBRANCH   1  12
TORSDOF 16
ENDMDL
MODEL 7
REMARK VINA RESULT:    -4.848      6.106     10.566
REMARK INTER + INTRA:         -10.799
REMARK INTER:                  -9.362
REMARK INTRA:                  -1.437
REMARK UNBOUND:                -1.416
REMARK SMILES CCCCCCCCCCCCCCCCCC(=O)[O-]
REMARK SMILES IDX 10 1 11 2 12 3 13 4 14 5 15 6 16 7 17 8 18 9 19 10 20 11
REMARK SMILES IDX 9 12 8 13 7 14 6 15 5 16 4 17 3 18 2 19 1 20
REMARK H PARENT
REMARK Flexibility Score: inf
ROOT
ATOM      1  C   UNL     1      26.722   0.016  29.277  1.00  0.00     0.000 C 
ENDROOT
BRANCH   1   2
ATOM      2  C   UNL     1      26.467  -0.502  30.703  1.00  0.00     0.000 C 
BRANCH   2   3
ATOM      3  C   UNL     1      27.221  -1.810  31.005  1.00  0.00     0.000 C 
BRANCH   3   4
ATOM      4  C   UNL     1      26.411  -3.059  30.623  1.00  0.00     0.000 C 
BRANCH   4   5
ATOM      5  C   UNL     1      27.224  -4.356  30.778  1.00  0.00     0.000 C 
BRANCH   5   6
ATOM      6  C   UNL     1      28.693  -4.186  30.358  1.00  0.00     0.000 C 
BRANCH   6   7
ATOM      7  C   UNL     1      29.472  -5.510  30.368  1.00  0.00     0.006 C 
BRANCH   7   8
ATOM      8  C   UNL     1      28.550  -6.689  30.043  1.00  0.00     0.053 C 
BRANCH   8   9
ATOM      9  C   UNL     1      28.760  -7.805  31.016  1.00  0.00     0.041 C 
ATOM     10  O   UNL     1      28.263  -7.739  32.171  1.00  0.00    -0.550 OA
ATOM     11  O   UNL     1      29.544  -8.897  30.666  1.00  0.00    -0.550 OA
ENDBRANCH   8   9
ENDBRANCH   7   8
ENDBRANCH   6   7
ENDBRANCH   5   6
ENDBRANCH   4   5
ENDBRANCH   3   4
ENDBRANCH   2   3
ENDBRANCH   1   2
BRANCH   1  12
ATOM     12  C   UNL     1      28.175  -0.123  28.783  1.00  0.00     0.000 C 
BRANCH  12  13
ATOM     13  C   UNL     1      29.121   1.021  29.201  1.00  0.00    -0.000 C 
BRANCH  13  14
ATOM     14  C   UNL     1      29.885   0.793  30.517  1.00  0.00    -0.000 C 
BRANCH  14  15
ATOM     15  C   UNL     1      29.334   1.635  31.681  1.00  0.00    -0.000 C 
BRANCH  15  16
ATOM     16  C   UNL     1      28.361   2.734  31.215  1.00  0.00    -0.000 C 
BRANCH  16  17
ATOM     17  C   UNL     1      28.553   4.107  31.886  1.00  0.00    -0.000 C 
BRANCH  17  18
ATOM     18  C   UNL     1      27.532   5.187  31.477  1.00  0.00    -0.000 C 
BRANCH  18  19
ATOM     19  C   UNL     1      27.607   5.582  29.988  1.00  0.00    -0.003 C 
ATOM     20  C   UNL     1      28.039   7.034  29.785  1.00  0.00     0.004 C 
ENDBRANCH  18  19
ENDBRANCH  17  18
ENDBRANCH  16  17
ENDBRANCH  15  16
ENDBRANCH  14  15
ENDBRANCH  13  14
ENDBRANCH  12  13
ENDBRANCH   1  12
TORSDOF 16
ENDMDL
MODEL 8
REMARK VINA RESULT:    -4.830      3.944      9.503
REMARK INTER + INTRA:         -10.765
REMARK INTER:                  -9.473
REMARK INTRA:                  -1.292
REMARK UNBOUND:                -1.416
REMARK SMILES CCCCCCCCCCCCCCCCCC(=O)[O-]
REMARK SMILES IDX 10 1 11 2 12 3 13 4 14 5 15 6 16 7 17 8 18 9 19 10 20 11
REMARK SMILES IDX 9 12 8 13 7 14 6 15 5 16 4 17 3 18 2 19 1 20
REMARK H PARENT
REMARK Flexibility Score: inf
ROOT
ATOM      1  C   UNL     1      28.376   4.740  31.273  1.00  0.00     0.000 C 
ENDROOT
BRANCH   1   2
ATOM      2  C   UNL     1      27.914   3.280  31.125  1.00  0.00     0.000 C 
BRANCH   2   3
ATOM      3  C   UNL     1      28.154   2.720  29.712  1.00  0.00     0.000 C 
BRANCH   3   4
ATOM      4  C   UNL     1      26.876   2.140  29.083  1.00  0.00     0.000 C 
BRANCH   4   5
ATOM      5  C   UNL     1      26.895   0.602  29.027  1.00  0.00     0.000 C 
BRANCH   5   6
ATOM      6  C   UNL     1      26.660  -0.041  30.403  1.00  0.00     0.000 C 
BRANCH   6   7
ATOM      7  C   UNL     1      27.636  -1.191  30.696  1.00  0.00     0.006 C 
BRANCH   7   8
ATOM      8  C   UNL     1      28.976  -0.965  29.989  1.00  0.00     0.053 C 
BRANCH   8   9
ATOM      9  C   UNL     1      29.875  -0.114  30.827  1.00  0.00     0.041 C 
ATOM     10  O   UNL     1      30.984   0.273  30.375  1.00  0.00    -0.550 OA
ATOM     11  O   UNL     1      29.511   0.214  32.127  1.00  0.00    -0.550 OA
ENDBRANCH   8   9
ENDBRANCH   7   8
ENDBRANCH   6   7
ENDBRANCH   5   6
ENDBRANCH   4   5
ENDBRANCH   3   4
ENDBRANCH   2   3
ENDBRANCH   1   2
BRANCH   1  12
ATOM     12  C   UNL     1      27.240   5.780  31.334  1.00  0.00     0.000 C 
BRANCH  12  13
ATOM     13  C   UNL     1      26.970   6.533  30.016  1.00  0.00    -0.000 C 
BRANCH  13  14
ATOM     14  C   UNL     1      28.035   7.573  29.625  1.00  0.00    -0.000 C 
BRANCH  14  15
ATOM     15  C   UNL     1      27.921   8.877  30.433  1.00  0.00    -0.000 C 
BRANCH  15  16
ATOM     16  C   UNL     1      26.760   9.773  29.962  1.00  0.00    -0.000 C 
BRANCH  16  17
ATOM     17  C   UNL     1      25.752  10.169  31.057  1.00  0.00    -0.000 C 
BRANCH  17  18
ATOM     18  C   UNL     1      26.149   9.766  32.491  1.00  0.00    -0.000 C 
BRANCH  18  19
ATOM     19  C   UNL     1      26.735  10.924  33.324  1.00  0.00    -0.003 C 
ATOM     20  C   UNL     1      26.502  10.747  34.824  1.00  0.00     0.004 C 
ENDBRANCH  18  19
ENDBRANCH  17  18
ENDBRANCH  16  17
ENDBRANCH  15  16
ENDBRANCH  14  15
ENDBRANCH  13  14
ENDBRANCH  12  13
ENDBRANCH   1  12
TORSDOF 16
ENDMDL
MODEL 9
REMARK VINA RESULT:    -4.795      1.837      2.479
REMARK INTER + INTRA:         -10.696
REMARK INTER:                  -9.729
REMARK INTRA:                  -0.967
REMARK UNBOUND:                -1.416
REMARK SMILES CCCCCCCCCCCCCCCCCC(=O)[O-]
REMARK SMILES IDX 10 1 11 2 12 3 13 4 14 5 15 6 16 7 17 8 18 9 19 10 20 11
REMARK SMILES IDX 9 12 8 13 7 14 6 15 5 16 4 17 3 18 2 19 1 20
REMARK H PARENT
REMARK Flexibility Score: inf
ROOT
ATOM      1  C   UNL     1      29.039   1.857  31.486  1.00  0.00     0.000 C 
ENDROOT
BRANCH   1   2
ATOM      2  C   UNL     1      27.737   2.413  30.884  1.00  0.00     0.000 C 
BRANCH   2   3
ATOM      3  C   UNL     1      27.822   2.609  29.360  1.00  0.00     0.000 C 
BRANCH   3   4
ATOM      4  C   UNL     1      27.230   3.952  28.904  1.00  0.00     0.000 C 
BRANCH   4   5
ATOM      5  C   UNL     1      27.905   5.154  29.589  1.00  0.00     0.000 C 
BRANCH   5   6
ATOM      6  C   UNL     1      26.889   6.176  30.124  1.00  0.00     0.000 C 
BRANCH   6   7
ATOM      7  C   UNL     1      27.559   7.418  30.731  1.00  0.00     0.006 C 
BRANCH   7   8
ATOM      8  C   UNL     1      27.037   8.698  30.073  1.00  0.00     0.053 C 
BRANCH   8   9
ATOM      9  C   UNL     1      26.255   9.512  31.054  1.00  0.00     0.041 C 
ATOM     10  O   UNL     1      25.791  10.633  30.719  1.00  0.00    -0.550 OA
ATOM     11  O   UNL     1      26.078   9.055  32.354  1.00  0.00    -0.550 OA
ENDBRANCH   8   9
ENDBRANCH   7   8
ENDBRANCH   6   7
ENDBRANCH   5   6
ENDBRANCH   4   5
ENDBRANCH   3   4
ENDBRANCH   2   3
ENDBRANCH   1   2
BRANCH   1  12
ATOM     12  C   UNL     1      29.093   0.322  31.616  1.00  0.00     0.000 C 
BRANCH  12  13
ATOM     13  C   UNL     1      29.650  -0.420  30.385  1.00  0.00    -0.000 C 
BRANCH  13  14
ATOM     14  C   UNL     1      28.715  -1.483  29.781  1.00  0.00    -0.000 C 
BRANCH  14  15
ATOM     15  C   UNL     1      27.626  -1.948  30.763  1.00  0.00    -0.000 C 
BRANCH  15  16
ATOM     16  C   UNL     1      27.502  -3.481  30.836  1.00  0.00    -0.000 C 
BRANCH  16  17
ATOM     17  C   UNL     1      28.774  -4.261  30.451  1.00  0.00    -0.000 C 
BRANCH  17  18
ATOM     18  C   UNL     1      28.531  -5.569  29.674  1.00  0.00    -0.000 C 
BRANCH  18  19
ATOM     19  C   UNL     1      28.352  -6.806  30.578  1.00  0.00    -0.003 C 
ATOM     20  C   UNL     1      28.273  -8.110  29.784  1.00  0.00     0.004 C 
ENDBRANCH  18  19
ENDBRANCH  17  18
ENDBRANCH  16  17
ENDBRANCH  15  16
ENDBRANCH  14  15
ENDBRANCH  13  14
ENDBRANCH  12  13
ENDBRANCH   1  12
TORSDOF 16
ENDMDL
