MODEL 1
REMARK VINA RESULT:    -5.436      0.000      0.000
REMARK INTER + INTRA:         -18.184
REMARK INTER:                 -13.698
REMARK INTRA:                  -4.486
REMARK UNBOUND:                -4.486
REMARK SMILES CCCCCCCCCCCCCCCCCCCCCCCCCCCC(=O)[O-]
REMARK SMILES IDX 15 1 16 2 17 3 18 4 19 5 20 6 21 7 22 8 23 9 24 10 25 11
REMARK SMILES IDX 26 12 27 13 28 14 29 15 30 16 14 17 13 18 12 19 11 20 10 21
REMARK SMILES IDX 9 22 8 23 7 24 6 25 5 26 4 27 3 28 2 29 1 30
REMARK H PARENT
REMARK Flexibility Score: inf
ROOT
ATOM      1  C   UNL     1      12.240  11.674 -19.672  1.00  0.00     0.000 C 
ENDROOT
BRANCH   1   2
ATOM      2  C   UNL     1      10.722  11.865 -19.494  1.00  0.00     0.000 C 
BRANCH   2   3
ATOM      3  C   UNL     1      10.324  13.348 -19.408  1.00  0.00     0.000 C 
BRANCH   3   4
ATOM      4  C   UNL     1      10.427  13.886 -17.971  1.00  0.00     0.000 C 
BRANCH   4   5
ATOM      5  C   UNL     1      10.016  15.363 -17.897  1.00  0.00     0.000 C 
BRANCH   5   6
ATOM      6  C   UNL     1      10.384  16.016 -16.554  1.00  0.00     0.000 C 
BRANCH   6   7
ATOM      7  C   UNL     1      11.501  17.065 -16.689  1.00  0.00     0.000 C 
BRANCH   7   8
ATOM      8  C   UNL     1      12.666  16.803 -15.718  1.00  0.00     0.000 C 
BRANCH   8   9
ATOM      9  C   UNL     1      13.723  17.919 -15.752  1.00  0.00     0.000 C 
BRANCH   9  10
ATOM     10  C   UNL     1      14.783  17.713 -16.852  1.00  0.00     0.000 C 
BRANCH  10  11
ATOM     11  C   UNL     1      16.038  16.938 -16.413  1.00  0.00     0.000 C 
BRANCH  11  12
ATOM     12  C   UNL     1      16.227  15.618 -17.174  1.00  0.00     0.006 C 
BRANCH  12  13
ATOM     13  C   UNL     1      15.574  14.454 -16.418  1.00  0.00     0.053 C 
BRANCH  13  14
ATOM     14  C   UNL     1      16.587  13.414 -16.052  1.00  0.00     0.041 C 
ATOM     15  O   UNL     1      16.315  12.537 -15.189  1.00  0.00    -0.550 OA
ATOM     16  O   UNL     1      17.828  13.400 -16.677  1.00  0.00    -0.550 OA
ENDBRANCH  13  14
ENDBRANCH  12  13
ENDBRANCH  11  12
ENDBRANCH  10  11
ENDBRANCH   9  10
ENDBRANCH   8   9
ENDBRANCH   7   8
ENDBRANCH   6   7
ENDBRANCH   5   6
ENDBRANCH   4   5
ENDBRANCH   3   4
ENDBRANCH   2   3
ENDBRANCH   1   2
BRANCH   1  17
ATOM     17  C   UNL     1      12.633  11.389 -21.132  1.00  0.00     0.000 C 
BRANCH  17  18
ATOM     18  C   UNL     1      13.730  12.314 -21.694  1.00  0.00     0.000 C 
BRANCH  18  19
ATOM     19  C   UNL     1      13.452  13.801 -21.406  1.00  0.00     0.000 C 
BRANCH  19  20
ATOM     20  C   UNL     1      14.089  14.281 -20.085  1.00  0.00     0.000 C 
BRANCH  20  21
ATOM     21  C   UNL     1      13.386  15.503 -19.461  1.00  0.00     0.000 C 
BRANCH  21  22
ATOM     22  C   UNL     1      13.491  16.770 -20.336  1.00  0.00    -0.000 C 
BRANCH  22  23
ATOM     23  C   UNL     1      12.149  17.517 -20.448  1.00  0.00    -0.000 C 
BRANCH  23  24
ATOM     24  C   UNL     1      11.053  16.730 -21.203  1.00  0.00    -0.000 C 
BRANCH  24  25
ATOM     25  C   UNL     1      11.277  16.641 -22.729  1.00  0.00    -0.000 C 
BRANCH  25  26
ATOM     26  C   UNL     1       9.960  16.611 -23.529  1.00  0.00    -0.000 C 
BRANCH  26  27
ATOM     27  C   UNL     1       8.835  17.413 -22.839  1.00  0.00    -0.000 C 
BRANCH  27  28
ATOM     28  C   UNL     1       7.431  16.817 -23.054  1.00  0.00    -0.000 C 
BRANCH  28  29
ATOM     29  C   UNL     1       7.241  15.405 -22.474  1.00  0.00    -0.003 C 
ATOM     30  C   UNL     1       7.505  15.342 -20.971  1.00  0.00     0.004 C 
ENDBRANCH  28  29
ENDBRANCH  27  28
ENDBRANCH  26  27
ENDBRANCH  25  26
ENDBRANCH  24  25
ENDBRANCH  23  24
ENDBRANCH  22  23
ENDBRANCH  21  22
ENDBRANCH  20  21
ENDBRANCH  19  20
ENDBRANCH  18  19
ENDBRANCH  17  18
ENDBRANCH   1  17
TORSDOF 26
ENDMDL
MODEL 2
REMARK VINA RESULT:    -5.362      1.241      3.456
REMARK INTER + INTRA:         -17.997
REMARK INTER:                 -13.122
REMARK INTRA:                  -4.876
REMARK UNBOUND:                -4.486
REMARK SMILES CCCCCCCCCCCCCCCCCCCCCCCCCCCC(=O)[O-]
REMARK SMILES IDX 15 1 16 2 17 3 18 4 19 5 20 6 21 7 22 8 23 9 24 10 25 11
REMARK SMILES IDX 26 12 27 13 28 14 29 15 30 16 14 17 13 18 12 19 11 20 10 21
REMARK SMILES IDX 9 22 8 23 7 24 6 25 5 26 4 27 3 28 2 29 1 30
REMARK H PARENT
REMARK Flexibility Score: inf
ROOT
ATOM      1  C   UNL     1      13.391  11.372 -21.438  1.00  0.00     0.000 C 
ENDROOT
BRANCH   1   2
ATOM      2  C   UNL     1      14.022  12.680 -21.947  1.00  0.00     0.000 C 
BRANCH   2   3
ATOM      3  C   UNL     1      13.740  13.870 -21.013  1.00  0.00     0.000 C 
BRANCH   3   4
ATOM      4  C   UNL     1      12.979  14.995 -21.734  1.00  0.00     0.000 C 
BRANCH   4   5
ATOM      5  C   UNL     1      11.971  15.676 -20.797  1.00  0.00     0.000 C 
BRANCH   5   6
ATOM      6  C   UNL     1      12.196  17.194 -20.685  1.00  0.00     0.000 C 
BRANCH   6   7
ATOM      7  C   UNL     1      13.654  17.601 -20.959  1.00  0.00     0.000 C 
BRANCH   7   8
ATOM      8  C   UNL     1      14.480  17.713 -19.665  1.00  0.00     0.000 C 
BRANCH   8   9
ATOM      9  C   UNL     1      13.622  18.103 -18.451  1.00  0.00     0.000 C 
BRANCH   9  10
ATOM     10  C   UNL     1      14.363  17.936 -17.110  1.00  0.00     0.000 C 
BRANCH  10  11
ATOM     11  C   UNL     1      15.877  17.683 -17.228  1.00  0.00     0.000 C 
BRANCH  11  12
ATOM     12  C   UNL     1      16.361  16.511 -16.363  1.00  0.00     0.006 C 
BRANCH  12  13
ATOM     13  C   UNL     1      15.632  15.216 -16.743  1.00  0.00     0.053 C 
BRANCH  13  14
ATOM     14  C   UNL     1      16.529  14.027 -16.587  1.00  0.00     0.041 C 
ATOM     15  O   UNL     1      17.474  13.833 -17.398  1.00  0.00    -0.550 OA
ATOM     16  O   UNL     1      16.334  13.141 -15.536  1.00  0.00    -0.550 OA
ENDBRANCH  13  14
ENDBRANCH  12  13
ENDBRANCH  11  12
ENDBRANCH  10  11
ENDBRANCH   9  10
ENDBRANCH   8   9
ENDBRANCH   7   8
ENDBRANCH   6   7
ENDBRANCH   5   6
ENDBRANCH   4   5
ENDBRANCH   3   4
ENDBRANCH   2   3
ENDBRANCH   1   2
BRANCH   1  17
ATOM     17  C   UNL     1      12.623  11.559 -20.119  1.00  0.00     0.000 C 
BRANCH  17  18
ATOM     18  C   UNL     1      11.097  11.377 -20.231  1.00  0.00     0.000 C 
BRANCH  18  19
ATOM     19  C   UNL     1      10.316  12.456 -19.457  1.00  0.00     0.000 C 
BRANCH  19  20
ATOM     20  C   UNL     1      11.119  13.043 -18.278  1.00  0.00     0.000 C 
BRANCH  20  21
ATOM     21  C   UNL     1      10.465  14.280 -17.633  1.00  0.00     0.000 C 
BRANCH  21  22
ATOM     22  C   UNL     1      11.494  15.344 -17.192  1.00  0.00    -0.000 C 
BRANCH  22  23
ATOM     23  C   UNL     1      10.833  16.533 -16.468  1.00  0.00    -0.000 C 
BRANCH  23  24
ATOM     24  C   UNL     1      10.136  17.536 -17.415  1.00  0.00    -0.000 C 
BRANCH  24  25
ATOM     25  C   UNL     1       8.604  17.618 -17.234  1.00  0.00    -0.000 C 
BRANCH  25  26
ATOM     26  C   UNL     1       7.829  16.805 -18.289  1.00  0.00    -0.000 C 
BRANCH  26  27
ATOM     27  C   UNL     1       8.540  16.793 -19.659  1.00  0.00    -0.000 C 
BRANCH  27  28
ATOM     28  C   UNL     1       8.315  15.498 -20.461  1.00  0.00    -0.000 C 
BRANCH  28  29
ATOM     29  C   UNL     1       7.629  15.699 -21.822  1.00  0.00    -0.003 C 
ATOM     30  C   UNL     1       7.678  17.149 -22.301  1.00  0.00     0.004 C 
ENDBRANCH  28  29
ENDBRANCH  27  28
ENDBRANCH  26  27
ENDBRANCH  25  26
ENDBRANCH  24  25
ENDBRANCH  23  24
ENDBRANCH  22  23
ENDBRANCH  21  22
ENDBRANCH  20  21
ENDBRANCH  19  20
ENDBRANCH  18  19
ENDBRANCH  17  18
ENDBRANCH   1  17
TORSDOF 26
ENDMDL
MODEL 3
REMARK VINA RESULT:    -5.352      0.999      3.111
REMARK INTER + INTRA:         -17.973
REMARK INTER:                 -13.362
REMARK INTRA:                  -4.612
REMARK UNBOUND:                -4.486
REMARK SMILES CCCCCCCCCCCCCCCCCCCCCCCCCCCC(=O)[O-]
REMARK SMILES IDX 15 1 16 2 17 3 18 4 19 5 20 6 21 7 22 8 23 9 24 10 25 11
REMARK SMILES IDX 26 12 27 13 28 14 29 15 30 16 14 17 13 18 12 19 11 20 10 21
REMARK SMILES IDX 9 22 8 23 7 24 6 25 5 26 4 27 3 28 2 29 1 30
REMARK H PARENT
REMARK Flexibility Score: inf
ROOT
ATOM      1  C   UNL     1      13.047  12.163 -21.126  1.00  0.00     0.000 C 
ENDROOT
BRANCH   1   2
ATOM      2  C   UNL     1      13.872  13.273 -20.450  1.00  0.00     0.000 C 
BRANCH   2   3
ATOM      3  C   UNL     1      13.240  14.664 -20.625  1.00  0.00     0.000 C 
BRANCH   3   4
ATOM      4  C   UNL     1      13.438  15.544 -19.379  1.00  0.00     0.000 C 
BRANCH   4   5
ATOM      5  C   UNL     1      12.776  16.917 -19.555  1.00  0.00     0.000 C 
BRANCH   5   6
ATOM      6  C   UNL     1      12.431  17.587 -18.214  1.00  0.00     0.000 C 
BRANCH   6   7
ATOM      7  C   UNL     1      12.071  16.571 -17.116  1.00  0.00     0.000 C 
BRANCH   7   8
ATOM      8  C   UNL     1      12.615  16.986 -15.738  1.00  0.00     0.000 C 
BRANCH   8   9
ATOM      9  C   UNL     1      14.007  17.633 -15.825  1.00  0.00     0.000 C 
BRANCH   9  10
ATOM     10  C   UNL     1      15.126  16.618 -16.126  1.00  0.00     0.000 C 
BRANCH  10  11
ATOM     11  C   UNL     1      16.052  16.994 -17.297  1.00  0.00     0.000 C 
BRANCH  11  12
ATOM     12  C   UNL     1      17.023  15.869 -17.683  1.00  0.00     0.006 C 
BRANCH  12  13
ATOM     13  C   UNL     1      16.321  14.505 -17.641  1.00  0.00     0.053 C 
BRANCH  13  14
ATOM     14  C   UNL     1      17.023  13.567 -16.709  1.00  0.00     0.041 C 
ATOM     15  O   UNL     1      18.165  13.119 -16.998  1.00  0.00    -0.550 OA
ATOM     16  O   UNL     1      16.424  13.198 -15.511  1.00  0.00    -0.550 OA
ENDBRANCH  13  14
ENDBRANCH  12  13
ENDBRANCH  11  12
ENDBRANCH  10  11
ENDBRANCH   9  10
ENDBRANCH   8   9
ENDBRANCH   7   8
ENDBRANCH   6   7
ENDBRANCH   5   6
ENDBRANCH   4   5
ENDBRANCH   3   4
ENDBRANCH   2   3
ENDBRANCH   1   2
BRANCH   1  17
ATOM     17  C   UNL     1      12.181  11.377 -20.127  1.00  0.00     0.000 C 
BRANCH  17  18
ATOM     18  C   UNL     1      10.825  12.030 -19.798  1.00  0.00     0.000 C 
BRANCH  18  19
ATOM     19  C   UNL     1      10.753  12.541 -18.347  1.00  0.00     0.000 C 
BRANCH  19  20
ATOM     20  C   UNL     1      10.217  13.985 -18.248  1.00  0.00     0.000 C 
BRANCH  20  21
ATOM     21  C   UNL     1       9.643  14.529 -19.571  1.00  0.00     0.000 C 
BRANCH  21  22
ATOM     22  C   UNL     1       9.183  15.999 -19.468  1.00  0.00    -0.000 C 
BRANCH  22  23
ATOM     23  C   UNL     1       7.842  16.244 -20.187  1.00  0.00    -0.000 C 
BRANCH  23  24
ATOM     24  C   UNL     1       7.401  15.083 -21.108  1.00  0.00    -0.000 C 
BRANCH  24  25
ATOM     25  C   UNL     1       7.391  15.438 -22.612  1.00  0.00    -0.000 C 
BRANCH  25  26
ATOM     26  C   UNL     1       8.006  16.818 -22.909  1.00  0.00    -0.000 C 
BRANCH  26  27
ATOM     27  C   UNL     1       9.387  16.711 -23.592  1.00  0.00    -0.000 C 
BRANCH  27  28
ATOM     28  C   UNL     1      10.562  17.101 -22.676  1.00  0.00    -0.000 C 
BRANCH  28  29
ATOM     29  C   UNL     1      11.931  16.569 -23.131  1.00  0.00    -0.003 C 
ATOM     30  C   UNL     1      11.884  15.919 -24.513  1.00  0.00     0.004 C 
ENDBRANCH  28  29
ENDBRANCH  27  28
ENDBRANCH  26  27
ENDBRANCH  25  26
ENDBRANCH  24  25
ENDBRANCH  23  24
ENDBRANCH  22  23
ENDBRANCH  21  22
ENDBRANCH  20  21
ENDBRANCH  19  20
ENDBRANCH  18  19
ENDBRANCH  17  18
ENDBRANCH   1  17
TORSDOF 26
ENDMDL
MODEL 4
REMARK VINA RESULT:    -5.282      3.439      6.298
REMARK INTER + INTRA:         -17.795
REMARK INTER:                 -12.764
REMARK INTRA:                  -5.031
REMARK UNBOUND:                -4.486
REMARK SMILES CCCCCCCCCCCCCCCCCCCCCCCCCCCC(=O)[O-]
REMARK SMILES IDX 15 1 16 2 17 3 18 4 19 5 20 6 21 7 22 8 23 9 24 10 25 11
REMARK SMILES IDX 26 12 27 13 28 14 29 15 30 16 14 17 13 18 12 19 11 20 10 21
REMARK SMILES IDX 9 22 8 23 7 24 6 25 5 26 4 27 3 28 2 29 1 30
REMARK H PARENT
REMARK Flexibility Score: inf
ROOT
ATOM      1  C   UNL     1      14.000  12.230 -21.810  1.00  0.00     0.000 C 
ENDROOT
BRANCH   1   2
ATOM      2  C   UNL     1      13.418  11.045 -21.018  1.00  0.00     0.000 C 
BRANCH   2   3
ATOM      3  C   UNL     1      12.064  11.381 -20.371  1.00  0.00     0.000 C 
BRANCH   3   4
ATOM      4  C   UNL     1      12.069  12.777 -19.724  1.00  0.00     0.000 C 
BRANCH   4   5
ATOM      5  C   UNL     1      11.766  12.696 -18.221  1.00  0.00     0.000 C 
BRANCH   5   6
ATOM      6  C   UNL     1      10.685  13.696 -17.778  1.00  0.00     0.000 C 
BRANCH   6   7
ATOM      7  C   UNL     1      11.237  15.116 -17.569  1.00  0.00     0.000 C 
BRANCH   7   8
ATOM      8  C   UNL     1      10.399  15.925 -16.563  1.00  0.00     0.000 C 
BRANCH   8   9
ATOM      9  C   UNL     1      10.037  17.324 -17.088  1.00  0.00     0.000 C 
BRANCH   9  10
ATOM     10  C   UNL     1      10.555  17.585 -18.516  1.00  0.00     0.000 C 
BRANCH  10  11
ATOM     11  C   UNL     1       9.462  17.807 -19.576  1.00  0.00     0.000 C 
BRANCH  11  12
ATOM     12  C   UNL     1       8.318  16.788 -19.485  1.00  0.00     0.006 C 
BRANCH  12  13
ATOM     13  C   UNL     1       8.574  15.596 -20.416  1.00  0.00     0.053 C 
BRANCH  13  14
ATOM     14  C   UNL     1       7.672  15.641 -21.610  1.00  0.00     0.041 C 
ATOM     15  O   UNL     1       7.662  16.651 -22.363  1.00  0.00    -0.550 OA
ATOM     16  O   UNL     1       6.852  14.558 -21.904  1.00  0.00    -0.550 OA
ENDBRANCH  13  14
ENDBRANCH  12  13
ENDBRANCH  11  12
ENDBRANCH  10  11
ENDBRANCH   9  10
ENDBRANCH   8   9
ENDBRANCH   7   8
ENDBRANCH   6   7
ENDBRANCH   5   6
ENDBRANCH   4   5
ENDBRANCH   3   4
ENDBRANCH   2   3
ENDBRANCH   1   2
BRANCH   1  17
ATOM     17  C   UNL     1      15.473  12.505 -21.466  1.00  0.00     0.000 C 
BRANCH  17  18
ATOM     18  C   UNL     1      15.714  13.020 -20.033  1.00  0.00     0.000 C 
BRANCH  18  19
ATOM     19  C   UNL     1      17.112  13.641 -19.856  1.00  0.00     0.000 C 
BRANCH  19  20
ATOM     20  C   UNL     1      17.229  14.491 -18.574  1.00  0.00     0.000 C 
BRANCH  20  21
ATOM     21  C   UNL     1      17.459  13.663 -17.295  1.00  0.00     0.000 C 
BRANCH  21  22
ATOM     22  C   UNL     1      16.375  13.900 -16.221  1.00  0.00    -0.000 C 
BRANCH  22  23
ATOM     23  C   UNL     1      15.056  14.418 -16.824  1.00  0.00    -0.000 C 
BRANCH  23  24
ATOM     24  C   UNL     1      14.525  15.708 -16.158  1.00  0.00    -0.000 C 
BRANCH  24  25
ATOM     25  C   UNL     1      15.532  16.880 -16.156  1.00  0.00    -0.000 C 
BRANCH  25  26
ATOM     26  C   UNL     1      15.656  17.570 -17.527  1.00  0.00    -0.000 C 
BRANCH  26  27
ATOM     27  C   UNL     1      14.279  17.872 -18.159  1.00  0.00    -0.000 C 
BRANCH  27  28
ATOM     28  C   UNL     1      14.194  17.516 -19.655  1.00  0.00    -0.000 C 
BRANCH  28  29
ATOM     29  C   UNL     1      13.774  16.065 -19.944  1.00  0.00    -0.003 C 
ATOM     30  C   UNL     1      13.143  15.896 -21.324  1.00  0.00     0.004 C 
ENDBRANCH  28  29
ENDBRANCH  27  28
ENDBRANCH  26  27
ENDBRANCH  25  26
ENDBRANCH  24  25
ENDBRANCH  23  24
ENDBRANCH  22  23
ENDBRANCH  21  22
ENDBRANCH  20  21
ENDBRANCH  19  20
ENDBRANCH  18  19
ENDBRANCH  17  18
ENDBRANCH   1  17
TORSDOF 26
ENDMDL
MODEL 5
REMARK VINA RESULT:    -5.281      2.973      7.380
REMARK INTER + INTRA:         -17.794
REMARK INTER:                 -13.283
REMARK INTRA:                  -4.512
REMARK UNBOUND:                -4.486
REMARK SMILES CCCCCCCCCCCCCCCCCCCCCCCCCCCC(=O)[O-]
REMARK SMILES IDX 15 1 16 2 17 3 18 4 19 5 20 6 21 7 22 8 23 9 24 10 25 11
REMARK SMILES IDX 26 12 27 13 28 14 29 15 30 16 14 17 13 18 12 19 11 20 10 21
REMARK SMILES IDX 9 22 8 23 7 24 6 25 5 26 4 27 3 28 2 29 1 30
REMARK H PARENT
REMARK Flexibility Score: inf
ROOT
ATOM      1  C   UNL     1      11.138  12.597 -18.239  1.00  0.00     0.000 C 
ENDROOT
BRANCH   1   2
ATOM      2  C   UNL     1      10.356  12.298 -19.531  1.00  0.00     0.000 C 
BRANCH   2   3
ATOM      3  C   UNL     1      11.105  11.327 -20.460  1.00  0.00     0.000 C 
BRANCH   3   4
ATOM      4  C   UNL     1      12.629  11.428 -20.283  1.00  0.00     0.000 C 
BRANCH   4   5
ATOM      5  C   UNL     1      13.336  11.619 -21.633  1.00  0.00     0.000 C 
BRANCH   5   6
ATOM      6  C   UNL     1      13.742  13.080 -21.891  1.00  0.00     0.000 C 
BRANCH   6   7
ATOM      7  C   UNL     1      13.988  13.867 -20.592  1.00  0.00     0.000 C 
BRANCH   7   8
ATOM      8  C   UNL     1      13.475  15.315 -20.683  1.00  0.00     0.000 C 
BRANCH   8   9
ATOM      9  C   UNL     1      12.134  15.419 -21.426  1.00  0.00     0.000 C 
BRANCH   9  10
ATOM     10  C   UNL     1      12.194  16.353 -22.651  1.00  0.00     0.000 C 
BRANCH  10  11
ATOM     11  C   UNL     1      10.849  16.582 -23.364  1.00  0.00     0.000 C 
BRANCH  11  12
ATOM     12  C   UNL     1       9.749  17.098 -22.425  1.00  0.00     0.006 C 
BRANCH  12  13
ATOM     13  C   UNL     1       8.420  16.385 -22.701  1.00  0.00     0.053 C 
BRANCH  13  14
ATOM     14  C   UNL     1       7.946  15.639 -21.492  1.00  0.00     0.041 C 
ATOM     15  O   UNL     1       6.944  14.880 -21.564  1.00  0.00    -0.550 OA
ATOM     16  O   UNL     1       8.623  15.769 -20.285  1.00  0.00    -0.550 OA
ENDBRANCH  13  14
ENDBRANCH  12  13
ENDBRANCH  11  12
ENDBRANCH  10  11
ENDBRANCH   9  10
ENDBRANCH   8   9
ENDBRANCH   7   8
ENDBRANCH   6   7
ENDBRANCH   5   6
ENDBRANCH   4   5
ENDBRANCH   3   4
ENDBRANCH   2   3
ENDBRANCH   1   2
BRANCH   1  17
ATOM     17  C   UNL     1      10.713  13.921 -17.582  1.00  0.00     0.000 C 
BRANCH  17  18
ATOM     18  C   UNL     1      11.766  15.043 -17.655  1.00  0.00     0.000 C 
BRANCH  18  19
ATOM     19  C   UNL     1      11.138  16.427 -17.903  1.00  0.00     0.000 C 
BRANCH  19  20
ATOM     20  C   UNL     1      11.453  17.436 -16.780  1.00  0.00     0.000 C 
BRANCH  20  21
ATOM     21  C   UNL     1      12.471  16.919 -15.744  1.00  0.00     0.000 C 
BRANCH  21  22
ATOM     22  C   UNL     1      13.756  17.772 -15.685  1.00  0.00    -0.000 C 
BRANCH  22  23
ATOM     23  C   UNL     1      15.018  16.952 -16.014  1.00  0.00    -0.000 C 
BRANCH  23  24
ATOM     24  C   UNL     1      15.175  16.616 -17.515  1.00  0.00    -0.000 C 
BRANCH  24  25
ATOM     25  C   UNL     1      16.641  16.558 -17.999  1.00  0.00    -0.000 C 
BRANCH  25  26
ATOM     26  C   UNL     1      16.979  15.250 -18.739  1.00  0.00    -0.000 C 
BRANCH  26  27
ATOM     27  C   UNL     1      16.437  14.003 -18.006  1.00  0.00    -0.000 C 
BRANCH  27  28
ATOM     28  C   UNL     1      17.272  13.598 -16.777  1.00  0.00    -0.000 C 
BRANCH  28  29
ATOM     29  C   UNL     1      16.446  13.099 -15.580  1.00  0.00    -0.003 C 
ATOM     30  C   UNL     1      14.943  13.280 -15.782  1.00  0.00     0.004 C 
ENDBRANCH  28  29
ENDBRANCH  27  28
ENDBRANCH  26  27
ENDBRANCH  25  26
ENDBRANCH  24  25
ENDBRANCH  23  24
ENDBRANCH  22  23
ENDBRANCH  21  22
ENDBRANCH  20  21
ENDBRANCH  19  20
ENDBRANCH  18  19
ENDBRANCH  17  18
ENDBRANCH   1  17
TORSDOF 26
ENDMDL
MODEL 6
REMARK VINA RESULT:    -5.272      1.671      3.487
REMARK INTER + INTRA:         -17.770
REMARK INTER:                 -13.060
REMARK INTRA:                  -4.709
REMARK UNBOUND:                -4.486
REMARK SMILES CCCCCCCCCCCCCCCCCCCCCCCCCCCC(=O)[O-]
REMARK SMILES IDX 15 1 16 2 17 3 18 4 19 5 20 6 21 7 22 8 23 9 24 10 25 11
REMARK SMILES IDX 26 12 27 13 28 14 29 15 30 16 14 17 13 18 12 19 11 20 10 21
REMARK SMILES IDX 9 22 8 23 7 24 6 25 5 26 4 27 3 28 2 29 1 30
REMARK H PARENT
REMARK Flexibility Score: inf
ROOT
ATOM      1  C   UNL     1      13.740  12.895 -21.780  1.00  0.00     0.000 C 
ENDROOT
BRANCH   1   2
ATOM      2  C   UNL     1      13.515  13.977 -20.708  1.00  0.00     0.000 C 
BRANCH   2   3
ATOM      3  C   UNL     1      13.098  15.327 -21.315  1.00  0.00     0.000 C 
BRANCH   3   4
ATOM      4  C   UNL     1      11.797  15.858 -20.689  1.00  0.00     0.000 C 
BRANCH   4   5
ATOM      5  C   UNL     1      12.040  17.163 -19.917  1.00  0.00     0.000 C 
BRANCH   5   6
ATOM      6  C   UNL     1      13.415  17.784 -20.219  1.00  0.00     0.000 C 
BRANCH   6   7
ATOM      7  C   UNL     1      14.224  18.085 -18.945  1.00  0.00     0.000 C 
BRANCH   7   8
ATOM      8  C   UNL     1      13.438  17.753 -17.665  1.00  0.00     0.000 C 
BRANCH   8   9
ATOM      9  C   UNL     1      14.294  17.012 -16.624  1.00  0.00     0.000 C 
BRANCH   9  10
ATOM     10  C   UNL     1      13.878  15.540 -16.439  1.00  0.00     0.000 C 
BRANCH  10  11
ATOM     11  C   UNL     1      14.848  14.506 -17.038  1.00  0.00     0.000 C 
BRANCH  11  12
ATOM     12  C   UNL     1      16.270  14.613 -16.469  1.00  0.00     0.006 C 
BRANCH  12  13
ATOM     13  C   UNL     1      17.250  13.761 -17.287  1.00  0.00     0.053 C 
BRANCH  13  14
ATOM     14  C   UNL     1      17.205  14.131 -18.737  1.00  0.00     0.041 C 
ATOM     15  O   UNL     1      17.459  15.310 -19.101  1.00  0.00    -0.550 OA
ATOM     16  O   UNL     1      16.899  13.169 -19.691  1.00  0.00    -0.550 OA
ENDBRANCH  13  14
ENDBRANCH  12  13
ENDBRANCH  11  12
ENDBRANCH  10  11
ENDBRANCH   9  10
ENDBRANCH   8   9
ENDBRANCH   7   8
ENDBRANCH   6   7
ENDBRANCH   5   6
ENDBRANCH   4   5
ENDBRANCH   3   4
ENDBRANCH   2   3
ENDBRANCH   1   2
BRANCH   1  17
ATOM     17  C   UNL     1      13.503  11.473 -21.245  1.00  0.00     0.000 C 
BRANCH  17  18
ATOM     18  C   UNL     1      12.580  11.394 -20.013  1.00  0.00     0.000 C 
BRANCH  18  19
ATOM     19  C   UNL     1      11.088  11.450 -20.389  1.00  0.00     0.000 C 
BRANCH  19  20
ATOM     20  C   UNL     1      10.284  12.421 -19.499  1.00  0.00     0.000 C 
BRANCH  20  21
ATOM     21  C   UNL     1      10.783  12.490 -18.042  1.00  0.00     0.000 C 
BRANCH  21  22
ATOM     22  C   UNL     1      11.159  13.922 -17.602  1.00  0.00    -0.000 C 
BRANCH  22  23
ATOM     23  C   UNL     1      10.020  14.929 -17.849  1.00  0.00    -0.000 C 
BRANCH  23  24
ATOM     24  C   UNL     1      10.077  16.177 -16.939  1.00  0.00    -0.000 C 
BRANCH  24  25
ATOM     25  C   UNL     1       9.181  17.344 -17.410  1.00  0.00    -0.000 C 
BRANCH  25  26
ATOM     26  C   UNL     1       8.093  16.903 -18.407  1.00  0.00    -0.000 C 
BRANCH  26  27
ATOM     27  C   UNL     1       8.122  17.729 -19.712  1.00  0.00    -0.000 C 
BRANCH  27  28
ATOM     28  C   UNL     1       7.970  16.877 -20.986  1.00  0.00    -0.000 C 
BRANCH  28  29
ATOM     29  C   UNL     1       7.414  15.463 -20.747  1.00  0.00    -0.003 C 
ATOM     30  C   UNL     1       7.065  14.738 -22.046  1.00  0.00     0.004 C 
ENDBRANCH  28  29
ENDBRANCH  27  28
ENDBRANCH  26  27
ENDBRANCH  25  26
ENDBRANCH  24  25
ENDBRANCH  23  24
ENDBRANCH  22  23
ENDBRANCH  21  22
ENDBRANCH  20  21
ENDBRANCH  19  20
ENDBRANCH  18  19
ENDBRANCH  17  18
ENDBRANCH   1  17
TORSDOF 26
ENDMDL
MODEL 7
REMARK VINA RESULT:    -5.256      3.353      7.169
REMARK INTER + INTRA:         -17.731
REMARK INTER:                 -12.721
REMARK INTRA:                  -5.009
REMARK UNBOUND:                -4.486
REMARK SMILES CCCCCCCCCCCCCCCCCCCCCCCCCCCC(=O)[O-]
REMARK SMILES IDX 15 1 16 2 17 3 18 4 19 5 20 6 21 7 22 8 23 9 24 10 25 11
REMARK SMILES IDX 26 12 27 13 28 14 29 15 30 16 14 17 13 18 12 19 11 20 10 21
REMARK SMILES IDX 9 22 8 23 7 24 6 25 5 26 4 27 3 28 2 29 1 30
REMARK H PARENT
REMARK Flexibility Score: inf
ROOT
ATOM      1  C   UNL     1      14.897  13.614 -16.286  1.00  0.00     0.000 C 
ENDROOT
BRANCH   1   2
ATOM      2  C   UNL     1      16.105  14.561 -16.163  1.00  0.00     0.000 C 
BRANCH   2   3
ATOM      3  C   UNL     1      17.181  14.282 -17.225  1.00  0.00     0.000 C 
BRANCH   3   4
ATOM      4  C   UNL     1      17.066  15.240 -18.423  1.00  0.00     0.000 C 
BRANCH   4   5
ATOM      5  C   UNL     1      16.498  16.601 -17.996  1.00  0.00     0.000 C 
BRANCH   5   6
ATOM      6  C   UNL     1      15.289  17.033 -18.843  1.00  0.00     0.000 C 
BRANCH   6   7
ATOM      7  C   UNL     1      14.817  15.934 -19.810  1.00  0.00     0.000 C 
BRANCH   7   8
ATOM      8  C   UNL     1      13.354  16.129 -20.243  1.00  0.00     0.000 C 
BRANCH   8   9
ATOM      9  C   UNL     1      13.079  15.581 -21.653  1.00  0.00     0.000 C 
BRANCH   9  10
ATOM     10  C   UNL     1      12.174  16.504 -22.493  1.00  0.00     0.000 C 
BRANCH  10  11
ATOM     11  C   UNL     1      10.997  17.137 -21.729  1.00  0.00     0.000 C 
BRANCH  11  12
ATOM     12  C   UNL     1       9.945  17.763 -22.654  1.00  0.00     0.006 C 
BRANCH  12  13
ATOM     13  C   UNL     1       9.127  16.676 -23.363  1.00  0.00     0.053 C 
BRANCH  13  14
ATOM     14  C   UNL     1       7.852  16.396 -22.631  1.00  0.00     0.041 C 
ATOM     15  O   UNL     1       7.115  15.436 -22.981  1.00  0.00    -0.550 OA
ATOM     16  O   UNL     1       7.483  17.185 -21.549  1.00  0.00    -0.550 OA
ENDBRANCH  13  14
ENDBRANCH  12  13
ENDBRANCH  11  12
ENDBRANCH  10  11
ENDBRANCH   9  10
ENDBRANCH   8   9
ENDBRANCH   7   8
ENDBRANCH   6   7
ENDBRANCH   5   6
ENDBRANCH   4   5
ENDBRANCH   3   4
ENDBRANCH   2   3
ENDBRANCH   1   2
BRANCH   1  17
ATOM     17  C   UNL     1      13.602  14.352 -16.665  1.00  0.00     0.000 C 
BRANCH  17  18
ATOM     18  C   UNL     1      13.475  15.771 -16.077  1.00  0.00     0.000 C 
BRANCH  18  19
ATOM     19  C   UNL     1      12.018  16.271 -16.053  1.00  0.00     0.000 C 
BRANCH  19  20
ATOM     20  C   UNL     1      11.757  17.395 -17.076  1.00  0.00     0.000 C 
BRANCH  20  21
ATOM     21  C   UNL     1      10.666  17.056 -18.111  1.00  0.00     0.000 C 
BRANCH  21  22
ATOM     22  C   UNL     1       9.946  15.723 -17.813  1.00  0.00    -0.000 C 
BRANCH  22  23
ATOM     23  C   UNL     1      10.023  14.739 -18.996  1.00  0.00    -0.000 C 
BRANCH  23  24
ATOM     24  C   UNL     1      10.669  13.380 -18.641  1.00  0.00    -0.000 C 
BRANCH  24  25
ATOM     25  C   UNL     1      11.868  12.998 -19.537  1.00  0.00    -0.000 C 
BRANCH  25  26
ATOM     26  C   UNL     1      11.840  11.523 -19.983  1.00  0.00    -0.000 C 
BRANCH  26  27
ATOM     27  C   UNL     1      13.157  11.091 -20.666  1.00  0.00    -0.000 C 
BRANCH  27  28
ATOM     28  C   UNL     1      13.339  11.672 -22.080  1.00  0.00    -0.000 C 
BRANCH  28  29
ATOM     29  C   UNL     1      14.640  12.467 -22.281  1.00  0.00    -0.003 C 
ATOM     30  C   UNL     1      15.526  12.477 -21.037  1.00  0.00     0.004 C 
ENDBRANCH  28  29
ENDBRANCH  27  28
ENDBRANCH  26  27
ENDBRANCH  25  26
ENDBRANCH  24  25
ENDBRANCH  23  24
ENDBRANCH  22  23
ENDBRANCH  21  22
ENDBRANCH  20  21
ENDBRANCH  19  20
ENDBRANCH  18  19
ENDBRANCH  17  18
ENDBRANCH   1  17
TORSDOF 26
ENDMDL
MODEL 8
REMARK VINA RESULT:    -5.194      1.795      3.960
REMARK INTER + INTRA:         -17.574
REMARK INTER:                 -12.794
REMARK INTRA:                  -4.780
REMARK UNBOUND:                -4.486
REMARK SMILES CCCCCCCCCCCCCCCCCCCCCCCCCCCC(=O)[O-]
REMARK SMILES IDX 15 1 16 2 17 3 18 4 19 5 20 6 21 7 22 8 23 9 24 10 25 11
REMARK SMILES IDX 26 12 27 13 28 14 29 15 30 16 14 17 13 18 12 19 11 20 10 21
REMARK SMILES IDX 9 22 8 23 7 24 6 25 5 26 4 27 3 28 2 29 1 30
REMARK H PARENT
REMARK Flexibility Score: inf
ROOT
ATOM      1  C   UNL     1      13.402  11.021 -20.660  1.00  0.00     0.000 C 
ENDROOT
BRANCH   1   2
ATOM      2  C   UNL     1      13.331  11.881 -21.936  1.00  0.00     0.000 C 
BRANCH   2   3
ATOM      3  C   UNL     1      14.135  13.186 -21.808  1.00  0.00     0.000 C 
BRANCH   3   4
ATOM      4  C   UNL     1      13.305  14.310 -21.166  1.00  0.00     0.000 C 
BRANCH   4   5
ATOM      5  C   UNL     1      14.137  15.110 -20.154  1.00  0.00     0.000 C 
BRANCH   5   6
ATOM      6  C   UNL     1      14.868  14.211 -19.142  1.00  0.00     0.000 C 
BRANCH   6   7
ATOM      7  C   UNL     1      16.398  14.270 -19.291  1.00  0.00     0.000 C 
BRANCH   7   8
ATOM      8  C   UNL     1      17.025  15.379 -18.427  1.00  0.00     0.000 C 
BRANCH   8   9
ATOM      9  C   UNL     1      16.452  15.406 -17.000  1.00  0.00     0.000 C 
BRANCH   9  10
ATOM     10  C   UNL     1      16.319  16.833 -16.431  1.00  0.00     0.000 C 
BRANCH  10  11
ATOM     11  C   UNL     1      15.692  17.862 -17.390  1.00  0.00     0.000 C 
BRANCH  11  12
ATOM     12  C   UNL     1      14.160  17.784 -17.439  1.00  0.00     0.006 C 
BRANCH  12  13
ATOM     13  C   UNL     1      13.575  17.658 -16.027  1.00  0.00     0.053 C 
BRANCH  13  14
ATOM     14  C   UNL     1      12.702  16.447 -15.910  1.00  0.00     0.041 C 
ATOM     15  O   UNL     1      13.134  15.316 -16.260  1.00  0.00    -0.550 OA
ATOM     16  O   UNL     1      11.416  16.562 -15.398  1.00  0.00    -0.550 OA
ENDBRANCH  13  14
ENDBRANCH  12  13
ENDBRANCH  11  12
ENDBRANCH  10  11
ENDBRANCH   9  10
ENDBRANCH   8   9
ENDBRANCH   7   8
ENDBRANCH   6   7
ENDBRANCH   5   6
ENDBRANCH   4   5
ENDBRANCH   3   4
ENDBRANCH   2   3
ENDBRANCH   1   2
BRANCH   1  17
ATOM     17  C   UNL     1      12.330  11.406 -19.627  1.00  0.00     0.000 C 
BRANCH  17  18
ATOM     18  C   UNL     1      10.893  11.461 -20.180  1.00  0.00     0.000 C 
BRANCH  18  19
ATOM     19  C   UNL     1      10.052  12.576 -19.531  1.00  0.00     0.000 C 
BRANCH  19  20
ATOM     20  C   UNL     1      10.896  13.524 -18.653  1.00  0.00     0.000 C 
BRANCH  20  21
ATOM     21  C   UNL     1      10.167  14.823 -18.259  1.00  0.00     0.000 C 
BRANCH  21  22
ATOM     22  C   UNL     1      10.795  16.083 -18.894  1.00  0.00    -0.000 C 
BRANCH  22  23
ATOM     23  C   UNL     1       9.775  17.224 -19.063  1.00  0.00    -0.000 C 
BRANCH  23  24
ATOM     24  C   UNL     1       8.309  16.745 -19.172  1.00  0.00    -0.000 C 
BRANCH  24  25
ATOM     25  C   UNL     1       7.679  16.952 -20.568  1.00  0.00    -0.000 C 
BRANCH  25  26
ATOM     26  C   UNL     1       7.873  15.742 -21.501  1.00  0.00    -0.000 C 
BRANCH  26  27
ATOM     27  C   UNL     1       8.203  16.165 -22.950  1.00  0.00    -0.000 C 
BRANCH  27  28
ATOM     28  C   UNL     1       9.375  17.159 -23.052  1.00  0.00    -0.000 C 
BRANCH  28  29
ATOM     29  C   UNL     1      10.732  16.596 -22.598  1.00  0.00    -0.003 C 
ATOM     30  C   UNL     1      11.678  16.321 -23.766  1.00  0.00     0.004 C 
ENDBRANCH  28  29
ENDBRANCH  27  28
ENDBRANCH  26  27
ENDBRANCH  25  26
ENDBRANCH  24  25
ENDBRANCH  23  24
ENDBRANCH  22  23
ENDBRANCH  21  22
ENDBRANCH  20  21
ENDBRANCH  19  20
ENDBRANCH  18  19
ENDBRANCH  17  18
ENDBRANCH   1  17
TORSDOF 26
ENDMDL
MODEL 9
REMARK VINA RESULT:    -5.186      3.400      6.856
REMARK INTER + INTRA:         -17.553
REMARK INTER:                 -12.410
REMARK INTRA:                  -5.144
REMARK UNBOUND:                -4.486
REMARK SMILES CCCCCCCCCCCCCCCCCCCCCCCCCCCC(=O)[O-]
REMARK SMILES IDX 15 1 16 2 17 3 18 4 19 5 20 6 21 7 22 8 23 9 24 10 25 11
REMARK SMILES IDX 26 12 27 13 28 14 29 15 30 16 14 17 13 18 12 19 11 20 10 21
REMARK SMILES IDX 9 22 8 23 7 24 6 25 5 26 4 27 3 28 2 29 1 30
REMARK H PARENT
REMARK Flexibility Score: inf
ROOT
ATOM      1  C   UNL     1      13.035  11.515 -20.289  1.00  0.00     0.000 C 
ENDROOT
BRANCH   1   2
ATOM      2  C   UNL     1      11.595  11.982 -20.007  1.00  0.00     0.000 C 
BRANCH   2   3
ATOM      3  C   UNL     1      11.318  12.154 -18.504  1.00  0.00     0.000 C 
BRANCH   3   4
ATOM      4  C   UNL     1      10.414  13.367 -18.224  1.00  0.00     0.000 C 
BRANCH   4   5
ATOM      5  C   UNL     1      11.232  14.568 -17.729  1.00  0.00     0.000 C 
BRANCH   5   6
ATOM      6  C   UNL     1      10.397  15.550 -16.889  1.00  0.00     0.000 C 
BRANCH   6   7
ATOM      7  C   UNL     1      11.034  16.947 -16.799  1.00  0.00     0.000 C 
BRANCH   7   8
ATOM      8  C   UNL     1      10.143  18.035 -17.425  1.00  0.00     0.000 C 
BRANCH   8   9
ATOM      9  C   UNL     1       8.687  17.574 -17.600  1.00  0.00     0.000 C 
BRANCH   9  10
ATOM     10  C   UNL     1       8.179  17.715 -19.048  1.00  0.00     0.000 C 
BRANCH  10  11
ATOM     11  C   UNL     1       9.249  17.515 -20.137  1.00  0.00     0.000 C 
BRANCH  11  12
ATOM     12  C   UNL     1       9.182  16.133 -20.802  1.00  0.00     0.006 C 
BRANCH  12  13
ATOM     13  C   UNL     1       8.191  16.139 -21.973  1.00  0.00     0.053 C 
BRANCH  13  14
ATOM     14  C   UNL     1       8.734  16.912 -23.134  1.00  0.00     0.041 C 
ATOM     15  O   UNL     1       8.083  17.877 -23.616  1.00  0.00    -0.550 OA
ATOM     16  O   UNL     1       9.969  16.579 -23.676  1.00  0.00    -0.550 OA
ENDBRANCH  13  14
ENDBRANCH  12  13
ENDBRANCH  11  12
ENDBRANCH  10  11
ENDBRANCH   9  10
ENDBRANCH   8   9
ENDBRANCH   7   8
ENDBRANCH   6   7
ENDBRANCH   5   6
ENDBRANCH   4   5
ENDBRANCH   3   4
ENDBRANCH   2   3
ENDBRANCH   1   2
BRANCH   1  17
ATOM     17  C   UNL     1      13.886  12.599 -20.972  1.00  0.00     0.000 C 
BRANCH  17  18
ATOM     18  C   UNL     1      13.168  13.948 -21.174  1.00  0.00     0.000 C 
BRANCH  18  19
ATOM     19  C   UNL     1      13.730  15.057 -20.265  1.00  0.00     0.000 C 
BRANCH  19  20
ATOM     20  C   UNL     1      12.896  16.354 -20.320  1.00  0.00     0.000 C 
BRANCH  20  21
ATOM     21  C   UNL     1      13.479  17.507 -19.481  1.00  0.00     0.000 C 
BRANCH  21  22
ATOM     22  C   UNL     1      14.885  17.198 -18.926  1.00  0.00    -0.000 C 
BRANCH  22  23
ATOM     23  C   UNL     1      15.103  17.788 -17.519  1.00  0.00    -0.000 C 
BRANCH  23  24
ATOM     24  C   UNL     1      15.475  16.737 -16.448  1.00  0.00    -0.000 C 
BRANCH  24  25
ATOM     25  C   UNL     1      14.443  15.598 -16.295  1.00  0.00    -0.000 C 
BRANCH  25  26
ATOM     26  C   UNL     1      14.983  14.231 -16.756  1.00  0.00    -0.000 C 
BRANCH  26  27
ATOM     27  C   UNL     1      16.340  13.885 -16.105  1.00  0.00    -0.000 C 
BRANCH  27  28
ATOM     28  C   UNL     1      17.453  13.577 -17.124  1.00  0.00    -0.000 C 
BRANCH  28  29
ATOM     29  C   UNL     1      17.395  14.420 -18.409  1.00  0.00    -0.003 C 
ATOM     30  C   UNL     1      17.101  13.582 -19.653  1.00  0.00     0.004 C 
ENDBRANCH  28  29
ENDBRANCH  27  28
ENDBRANCH  26  27
ENDBRANCH  25  26
ENDBRANCH  24  25
ENDBRANCH  23  24
ENDBRANCH  22  23
ENDBRANCH  21  22
ENDBRANCH  20  21
ENDBRANCH  19  20
ENDBRANCH  18  19
ENDBRANCH  17  18
ENDBRANCH   1  17
TORSDOF 26
ENDMDL
