MODEL 1
REMARK VINA RESULT:    -4.026      0.000      0.000
REMARK INTER + INTRA:          -5.336
REMARK INTER:                  -4.967
REMARK INTRA:                  -0.368
REMARK UNBOUND:                -0.368
REMARK SMILES Oc1cc(O)c2cc(O)c(-c3cc(O)c(O)c(O)c3)[o+]c2c1.[Cl-]
REMARK SMILES IDX 10 1 20 2 21 3 22 4 2 5 3 6 4 7 6 8 7 9 8 10 11 11 12 12
REMARK SMILES IDX 13 13 19 14 15 15 17 16 14 17 16 19 18 21 9 23 1 25 5 27
REMARK H PARENT 14 18 16 20 18 22 9 24 1 26 5 28
REMARK Flexibility Score: inf
ROOT
ATOM      1  C   UNL     1     -19.155  28.602 -20.808  1.00  0.00     0.402 A 
ATOM      2  O   UNL     1     -20.351  28.487 -21.377  1.00  0.00    -0.202 OA
ATOM      3  C   UNL     1     -21.492  28.556 -20.700  1.00  0.00     0.368 A 
ATOM      4  C   UNL     1     -22.701  28.427 -21.388  1.00  0.00     0.162 A 
ATOM      5  C   UNL     1     -23.915  28.499 -20.700  1.00  0.00     0.128 A 
ATOM      6  C   UNL     1     -23.921  28.704 -19.318  1.00  0.00     0.093 A 
ATOM      7  C   UNL     1     -22.723  28.838 -18.605  1.00  0.00     0.136 A 
ATOM      8  C   UNL     1     -21.487  28.761 -19.299  1.00  0.00     0.125 A 
ATOM      9  C   UNL     1     -20.239  28.871 -18.665  1.00  0.00     0.078 A 
ATOM     10  C   UNL     1     -19.062  28.782 -19.415  1.00  0.00     0.223 A 
ENDROOT
BRANCH   1  11
ATOM     11  C   UNL     1     -17.956  28.516 -21.672  1.00  0.00     0.091 A 
ATOM     12  C   UNL     1     -17.523  27.264 -22.130  1.00  0.00     0.068 A 
ATOM     13  C   UNL     1     -16.406  27.155 -22.962  1.00  0.00     0.162 A 
ATOM     14  C   UNL     1     -17.273  29.669 -22.094  1.00  0.00     0.068 A 
ATOM     15  C   UNL     1     -15.708  28.307 -23.367  1.00  0.00     0.200 A 
ATOM     16  C   UNL     1     -16.155  29.578 -22.930  1.00  0.00     0.162 A 
BRANCH  13  17
ATOM     17  O   UNL     1     -16.004  25.884 -23.378  1.00  0.00    -0.504 OA
ATOM     18  H   UNL     1     -15.859  25.122 -22.726  1.00  0.00     0.293 HD
ENDBRANCH  13  17
BRANCH  15  19
ATOM     19  O   UNL     1     -14.591  28.152 -24.191  1.00  0.00    -0.502 OA
ATOM     20  H   UNL     1     -14.406  28.717 -25.008  1.00  0.00     0.293 HD
ENDBRANCH  15  19
BRANCH  16  21
ATOM     21  O   UNL     1     -15.529  30.768 -23.306  1.00  0.00    -0.504 OA
ATOM     22  H   UNL     1     -15.391  31.555 -22.689  1.00  0.00     0.293 HD
ENDBRANCH  16  21
ENDBRANCH   1  11
BRANCH  10  23
ATOM     23  O   UNL     1     -17.821  28.840 -18.780  1.00  0.00    -0.500 OA
ATOM     24  H   UNL     1     -17.196  28.043 -18.759  1.00  0.00     0.294 HD
ENDBRANCH  10  23
BRANCH   5  25
ATOM     25  O   UNL     1     -25.125  28.370 -21.380  1.00  0.00    -0.507 OA
ATOM     26  H   UNL     1     -25.243  28.720 -22.323  1.00  0.00     0.293 HD
ENDBRANCH   5  25
BRANCH   7  27
ATOM     27  O   UNL     1     -22.814  29.043 -17.226  1.00  0.00    -0.507 OA
ATOM     28  H   UNL     1     -22.284  28.531 -16.537  1.00  0.00     0.293 HD
ENDBRANCH   7  27
TORSDOF 7
ENDMDL
MODEL 2
REMARK VINA RESULT:    -3.945     13.668     14.605
REMARK INTER + INTRA:          -5.236
REMARK INTER:                  -4.859
REMARK INTRA:                  -0.378
REMARK UNBOUND:                -0.368
REMARK SMILES Oc1cc(O)c2cc(O)c(-c3cc(O)c(O)c(O)c3)[o+]c2c1.[Cl-]
REMARK SMILES IDX 10 1 20 2 21 3 22 4 2 5 3 6 4 7 6 8 7 9 8 10 11 11 12 12
REMARK SMILES IDX 13 13 19 14 15 15 17 16 14 17 16 19 18 21 9 23 1 25 5 27
REMARK H PARENT 14 18 16 20 18 22 9 24 1 26 5 28
REMARK Flexibility Score: inf
ROOT
ATOM      1  C   UNL     1     -20.882  14.829 -19.530  1.00  0.00     0.402 A 
ATOM      2  O   UNL     1     -21.512  13.873 -18.853  1.00  0.00    -0.202 OA
ATOM      3  C   UNL     1     -21.863  13.992 -17.577  1.00  0.00     0.368 A 
ATOM      4  C   UNL     1     -22.526  12.934 -16.951  1.00  0.00     0.162 A 
ATOM      5  C   UNL     1     -22.908  13.034 -15.611  1.00  0.00     0.128 A 
ATOM      6  C   UNL     1     -22.630  14.200 -14.894  1.00  0.00     0.093 A 
ATOM      7  C   UNL     1     -21.969  15.276 -15.498  1.00  0.00     0.136 A 
ATOM      8  C   UNL     1     -21.574  15.177 -16.858  1.00  0.00     0.125 A 
ATOM      9  C   UNL     1     -20.896  16.200 -17.541  1.00  0.00     0.078 A 
ATOM     10  C   UNL     1     -20.535  16.028 -18.881  1.00  0.00     0.223 A 
ENDROOT
BRANCH   1  11
ATOM     11  C   UNL     1     -20.553  14.579 -20.952  1.00  0.00     0.091 A 
ATOM     12  C   UNL     1     -21.472  14.939 -21.947  1.00  0.00     0.068 A 
ATOM     13  C   UNL     1     -21.179  14.732 -23.298  1.00  0.00     0.162 A 
ATOM     14  C   UNL     1     -19.313  14.041 -21.332  1.00  0.00     0.068 A 
ATOM     15  C   UNL     1     -19.947  14.172 -23.679  1.00  0.00     0.200 A 
ATOM     16  C   UNL     1     -19.002  13.830 -22.681  1.00  0.00     0.162 A 
BRANCH  13  17
ATOM     17  O   UNL     1     -22.133  15.092 -24.251  1.00  0.00    -0.504 OA
ATOM     18  H   UNL     1     -22.971  15.609 -24.010  1.00  0.00     0.293 HD
ENDBRANCH  13  17
BRANCH  15  19
ATOM     19  O   UNL     1     -19.699  13.974 -25.039  1.00  0.00    -0.502 OA
ATOM     20  H   UNL     1     -20.404  13.707 -25.712  1.00  0.00     0.293 HD
ENDBRANCH  15  19
BRANCH  16  21
ATOM     21  O   UNL     1     -17.749  13.291 -22.980  1.00  0.00    -0.504 OA
ATOM     22  H   UNL     1     -17.454  13.025 -23.908  1.00  0.00     0.293 HD
ENDBRANCH  16  21
ENDBRANCH   1  11
BRANCH  10  23
ATOM     23  O   UNL     1     -19.817  17.022 -19.546  1.00  0.00    -0.500 OA
ATOM     24  H   UNL     1     -20.282  17.754 -20.071  1.00  0.00     0.294 HD
ENDBRANCH  10  23
BRANCH   5  25
ATOM     25  O   UNL     1     -23.569  11.982 -14.981  1.00  0.00    -0.507 OA
ATOM     26  H   UNL     1     -23.227  11.030 -15.040  1.00  0.00     0.293 HD
ENDBRANCH   5  25
BRANCH   7  27
ATOM     27  O   UNL     1     -21.730  16.408 -14.713  1.00  0.00    -0.507 OA
ATOM     28  H   UNL     1     -21.660  17.348 -15.074  1.00  0.00     0.293 HD
ENDBRANCH   7  27
TORSDOF 7
ENDMDL
MODEL 3
REMARK VINA RESULT:    -3.935      1.310      7.038
REMARK INTER + INTRA:          -5.223
REMARK INTER:                  -4.848
REMARK INTRA:                  -0.375
REMARK UNBOUND:                -0.368
REMARK SMILES Oc1cc(O)c2cc(O)c(-c3cc(O)c(O)c(O)c3)[o+]c2c1.[Cl-]
REMARK SMILES IDX 10 1 20 2 21 3 22 4 2 5 3 6 4 7 6 8 7 9 8 10 11 11 12 12
REMARK SMILES IDX 13 13 19 14 15 15 17 16 14 17 16 19 18 21 9 23 1 25 5 27
REMARK H PARENT 14 18 16 20 18 22 9 24 1 26 5 28
REMARK Flexibility Score: inf
ROOT
ATOM      1  C   UNL     1     -19.607  28.045 -20.792  1.00  0.00     0.402 A 
ATOM      2  O   UNL     1     -18.929  28.985 -21.445  1.00  0.00    -0.202 OA
ATOM      3  C   UNL     1     -17.652  28.856 -21.792  1.00  0.00     0.368 A 
ATOM      4  C   UNL     1     -17.026  29.898 -22.479  1.00  0.00     0.162 A 
ATOM      5  C   UNL     1     -15.685  29.788 -22.858  1.00  0.00     0.128 A 
ATOM      6  C   UNL     1     -14.969  28.629 -22.551  1.00  0.00     0.093 A 
ATOM      7  C   UNL     1     -15.574  27.570 -21.863  1.00  0.00     0.136 A 
ATOM      8  C   UNL     1     -16.934  27.679 -21.473  1.00  0.00     0.125 A 
ATOM      9  C   UNL     1     -17.618  26.673 -20.770  1.00  0.00     0.078 A 
ATOM     10  C   UNL     1     -18.958  26.854 -20.415  1.00  0.00     0.223 A 
ENDROOT
BRANCH   1  11
ATOM     11  C   UNL     1     -21.029  28.303 -20.470  1.00  0.00     0.091 A 
ATOM     12  C   UNL     1     -22.022  27.940 -21.390  1.00  0.00     0.068 A 
ATOM     13  C   UNL     1     -23.373  28.155 -21.105  1.00  0.00     0.162 A 
ATOM     14  C   UNL     1     -21.412  28.852 -19.235  1.00  0.00     0.068 A 
ATOM     15  C   UNL     1     -23.756  28.726 -19.878  1.00  0.00     0.200 A 
ATOM     16  C   UNL     1     -22.760  29.071 -18.932  1.00  0.00     0.162 A 
BRANCH  13  17
ATOM     17  O   UNL     1     -24.324  27.792 -22.060  1.00  0.00    -0.504 OA
ATOM     18  H   UNL     1     -25.319  27.825 -21.871  1.00  0.00     0.293 HD
ENDBRANCH  13  17
BRANCH  15  19
ATOM     19  O   UNL     1     -25.117  28.932 -19.637  1.00  0.00    -0.502 OA
ATOM     20  H   UNL     1     -25.542  28.900 -18.721  1.00  0.00     0.293 HD
ENDBRANCH  15  19
BRANCH  16  21
ATOM     21  O   UNL     1     -23.062  29.620 -17.684  1.00  0.00    -0.504 OA
ATOM     22  H   UNL     1     -22.406  30.142 -17.121  1.00  0.00     0.293 HD
ENDBRANCH  16  21
ENDBRANCH   1  11
BRANCH  10  23
ATOM     23  O   UNL     1     -19.624  25.878 -19.673  1.00  0.00    -0.500 OA
ATOM     24  H   UNL     1     -20.531  26.053 -19.257  1.00  0.00     0.294 HD
ENDBRANCH  10  23
BRANCH   5  25
ATOM     25  O   UNL     1     -15.054  30.824 -23.544  1.00  0.00    -0.507 OA
ATOM     26  H   UNL     1     -14.069  31.023 -23.414  1.00  0.00     0.293 HD
ENDBRANCH   5  25
BRANCH   7  27
ATOM     27  O   UNL     1     -14.790  26.444 -21.596  1.00  0.00    -0.507 OA
ATOM     28  H   UNL     1     -15.041  25.500 -21.851  1.00  0.00     0.293 HD
ENDBRANCH   7  27
TORSDOF 7
ENDMDL
MODEL 4
REMARK VINA RESULT:    -3.933     13.661     14.568
REMARK INTER + INTRA:          -5.222
REMARK INTER:                  -4.860
REMARK INTRA:                  -0.361
REMARK UNBOUND:                -0.368
REMARK SMILES Oc1cc(O)c2cc(O)c(-c3cc(O)c(O)c(O)c3)[o+]c2c1.[Cl-]
REMARK SMILES IDX 10 1 20 2 21 3 22 4 2 5 3 6 4 7 6 8 7 9 8 10 11 11 12 12
REMARK SMILES IDX 13 13 19 14 15 15 17 16 14 17 16 19 18 21 9 23 1 25 5 27
REMARK H PARENT 14 18 16 20 18 22 9 24 1 26 5 28
REMARK Flexibility Score: inf
ROOT
ATOM      1  C   UNL     1     -20.739  14.839 -19.527  1.00  0.00     0.402 A 
ATOM      2  O   UNL     1     -21.463  13.913 -18.903  1.00  0.00    -0.202 OA
ATOM      3  C   UNL     1     -21.810  13.998 -17.623  1.00  0.00     0.368 A 
ATOM      4  C   UNL     1     -22.575  12.976 -17.056  1.00  0.00     0.162 A 
ATOM      5  C   UNL     1     -22.956  13.042 -15.714  1.00  0.00     0.128 A 
ATOM      6  C   UNL     1     -22.572  14.136 -14.935  1.00  0.00     0.093 A 
ATOM      7  C   UNL     1     -21.806  15.173 -15.479  1.00  0.00     0.136 A 
ATOM      8  C   UNL     1     -21.413  15.110 -16.841  1.00  0.00     0.125 A 
ATOM      9  C   UNL     1     -20.635  16.097 -17.467  1.00  0.00     0.078 A 
ATOM     10  C   UNL     1     -20.283  15.963 -18.813  1.00  0.00     0.223 A 
ENDROOT
BRANCH   1  11
ATOM     11  C   UNL     1     -20.425  14.634 -20.960  1.00  0.00     0.091 A 
ATOM     12  C   UNL     1     -19.202  14.052 -21.322  1.00  0.00     0.068 A 
ATOM     13  C   UNL     1     -18.887  13.830 -22.665  1.00  0.00     0.162 A 
ATOM     14  C   UNL     1     -21.350  14.958 -21.965  1.00  0.00     0.068 A 
ATOM     15  C   UNL     1     -19.804  14.175 -23.675  1.00  0.00     0.200 A 
ATOM     16  C   UNL     1     -21.052  14.739 -23.315  1.00  0.00     0.162 A 
BRANCH  13  17
ATOM     17  O   UNL     1     -17.651  13.263 -22.976  1.00  0.00    -0.504 OA
ATOM     18  H   UNL     1     -16.957  13.751 -23.531  1.00  0.00     0.293 HD
ENDBRANCH  13  17
BRANCH  15  19
ATOM     19  O   UNL     1     -19.445  13.945 -25.005  1.00  0.00    -0.502 OA
ATOM     20  H   UNL     1     -18.617  14.323 -25.443  1.00  0.00     0.293 HD
ENDBRANCH  15  19
BRANCH  16  21
ATOM     21  O   UNL     1     -22.023  15.087 -24.257  1.00  0.00    -0.504 OA
ATOM     22  H   UNL     1     -22.801  14.496 -24.513  1.00  0.00     0.293 HD
ENDBRANCH  16  21
ENDBRANCH   1  11
BRANCH  10  23
ATOM     23  O   UNL     1     -19.468  16.917 -19.423  1.00  0.00    -0.500 OA
ATOM     24  H   UNL     1     -18.459  16.826 -19.433  1.00  0.00     0.294 HD
ENDBRANCH  10  23
BRANCH   5  25
ATOM     25  O   UNL     1     -23.719  12.025 -15.142  1.00  0.00    -0.507 OA
ATOM     26  H   UNL     1     -23.298  11.161 -14.824  1.00  0.00     0.293 HD
ENDBRANCH   5  25
BRANCH   7  27
ATOM     27  O   UNL     1     -21.465  16.234 -14.634  1.00  0.00    -0.507 OA
ATOM     28  H   UNL     1     -21.902  16.415 -13.742  1.00  0.00     0.293 HD
ENDBRANCH   7  27
TORSDOF 7
ENDMDL
MODEL 5
REMARK VINA RESULT:    -3.907     14.156     15.716
REMARK INTER + INTRA:          -5.189
REMARK INTER:                  -4.822
REMARK INTRA:                  -0.367
REMARK UNBOUND:                -0.368
REMARK SMILES Oc1cc(O)c2cc(O)c(-c3cc(O)c(O)c(O)c3)[o+]c2c1.[Cl-]
REMARK SMILES IDX 10 1 20 2 21 3 22 4 2 5 3 6 4 7 6 8 7 9 8 10 11 11 12 12
REMARK SMILES IDX 13 13 19 14 15 15 17 16 14 17 16 19 18 21 9 23 1 25 5 27
REMARK H PARENT 14 18 16 20 18 22 9 24 1 26 5 28
REMARK Flexibility Score: inf
ROOT
ATOM      1  C   UNL     1     -19.592  14.170 -19.710  1.00  0.00     0.402 A 
ATOM      2  O   UNL     1     -18.687  13.877 -20.640  1.00  0.00    -0.202 OA
ATOM      3  C   UNL     1     -18.914  13.998 -21.943  1.00  0.00     0.368 A 
ATOM      4  C   UNL     1     -17.899  13.669 -22.844  1.00  0.00     0.162 A 
ATOM      5  C   UNL     1     -18.111  13.789 -24.220  1.00  0.00     0.128 A 
ATOM      6  C   UNL     1     -19.342  14.243 -24.698  1.00  0.00     0.093 A 
ATOM      7  C   UNL     1     -20.376  14.581 -23.816  1.00  0.00     0.136 A 
ATOM      8  C   UNL     1     -20.167  14.457 -22.417  1.00  0.00     0.125 A 
ATOM      9  C   UNL     1     -21.150  14.760 -21.461  1.00  0.00     0.078 A 
ATOM     10  C   UNL     1     -20.872  14.608 -20.099  1.00  0.00     0.223 A 
ENDROOT
BRANCH   1  11
ATOM     11  C   UNL     1     -19.215  14.003 -18.288  1.00  0.00     0.091 A 
ATOM     12  C   UNL     1     -19.170  12.717 -17.733  1.00  0.00     0.068 A 
ATOM     13  C   UNL     1     -18.800  12.527 -16.399  1.00  0.00     0.162 A 
ATOM     14  C   UNL     1     -18.845  15.101 -17.495  1.00  0.00     0.068 A 
ATOM     15  C   UNL     1     -18.450  13.629 -15.597  1.00  0.00     0.200 A 
ATOM     16  C   UNL     1     -18.468  14.929 -16.158  1.00  0.00     0.162 A 
BRANCH  13  17
ATOM     17  O   UNL     1     -18.785  11.229 -15.887  1.00  0.00    -0.504 OA
ATOM     18  H   UNL     1     -18.186  10.959 -15.115  1.00  0.00     0.293 HD
ENDBRANCH  13  17
BRANCH  15  19
ATOM     19  O   UNL     1     -18.095  13.396 -14.266  1.00  0.00    -0.502 OA
ATOM     20  H   UNL     1     -17.150  13.442 -13.914  1.00  0.00     0.293 HD
ENDBRANCH  15  19
BRANCH  16  21
ATOM     21  O   UNL     1     -18.113  16.069 -15.433  1.00  0.00    -0.504 OA
ATOM     22  H   UNL     1     -18.479  16.992 -15.615  1.00  0.00     0.293 HD
ENDBRANCH  16  21
ENDBRANCH   1  11
BRANCH  10  23
ATOM     23  O   UNL     1     -21.863  14.860 -19.150  1.00  0.00    -0.500 OA
ATOM     24  H   UNL     1     -22.784  15.189 -19.417  1.00  0.00     0.294 HD
ENDBRANCH  10  23
BRANCH   5  25
ATOM     25  O   UNL     1     -17.102  13.462 -25.125  1.00  0.00    -0.507 OA
ATOM     26  H   UNL     1     -16.487  12.672 -24.970  1.00  0.00     0.293 HD
ENDBRANCH   5  25
BRANCH   7  27
ATOM     27  O   UNL     1     -21.577  15.030 -24.373  1.00  0.00    -0.507 OA
ATOM     28  H   UNL     1     -21.652  15.798 -25.023  1.00  0.00     0.293 HD
ENDBRANCH   7  27
TORSDOF 7
ENDMDL
MODEL 6
REMARK VINA RESULT:    -3.797     13.786     14.766
REMARK INTER + INTRA:          -5.053
REMARK INTER:                  -4.669
REMARK INTRA:                  -0.385
REMARK UNBOUND:                -0.368
REMARK SMILES Oc1cc(O)c2cc(O)c(-c3cc(O)c(O)c(O)c3)[o+]c2c1.[Cl-]
REMARK SMILES IDX 10 1 20 2 21 3 22 4 2 5 3 6 4 7 6 8 7 9 8 10 11 11 12 12
REMARK SMILES IDX 13 13 19 14 15 15 17 16 14 17 16 19 18 21 9 23 1 25 5 27
REMARK H PARENT 14 18 16 20 18 22 9 24 1 26 5 28
REMARK Flexibility Score: inf
ROOT
ATOM      1  C   UNL     1     -21.025  14.646 -20.024  1.00  0.00     0.402 A 
ATOM      2  O   UNL     1     -21.190  13.699 -19.104  1.00  0.00    -0.202 OA
ATOM      3  C   UNL     1     -21.743  13.923 -17.917  1.00  0.00     0.368 A 
ATOM      4  C   UNL     1     -21.877  12.862 -17.018  1.00  0.00     0.162 A 
ATOM      5  C   UNL     1     -22.458  13.069 -15.764  1.00  0.00     0.128 A 
ATOM      6  C   UNL     1     -22.910  14.342 -15.408  1.00  0.00     0.093 A 
ATOM      7  C   UNL     1     -22.789  15.422 -16.292  1.00  0.00     0.136 A 
ATOM      8  C   UNL     1     -22.196  15.217 -17.565  1.00  0.00     0.125 A 
ATOM      9  C   UNL     1     -22.021  16.243 -18.508  1.00  0.00     0.078 A 
ATOM     10  C   UNL     1     -21.424  15.966 -19.742  1.00  0.00     0.223 A 
ENDROOT
BRANCH   1  11
ATOM     11  C   UNL     1     -20.402  14.270 -21.314  1.00  0.00     0.091 A 
ATOM     12  C   UNL     1     -19.006  14.249 -21.426  1.00  0.00     0.068 A 
ATOM     13  C   UNL     1     -18.391  13.879 -22.625  1.00  0.00     0.162 A 
ATOM     14  C   UNL     1     -21.180  13.876 -22.414  1.00  0.00     0.068 A 
ATOM     15  C   UNL     1     -19.170  13.507 -23.735  1.00  0.00     0.200 A 
ATOM     16  C   UNL     1     -20.581  13.500 -23.622  1.00  0.00     0.162 A 
BRANCH  13  17
ATOM     17  O   UNL     1     -16.997  13.890 -22.693  1.00  0.00    -0.504 OA
ATOM     18  H   UNL     1     -16.482  13.287 -23.324  1.00  0.00     0.293 HD
ENDBRANCH  13  17
BRANCH  15  19
ATOM     19  O   UNL     1     -18.515  13.154 -24.918  1.00  0.00    -0.502 OA
ATOM     20  H   UNL     1     -18.705  12.312 -25.442  1.00  0.00     0.293 HD
ENDBRANCH  15  19
BRANCH  16  21
ATOM     21  O   UNL     1     -21.422  13.121 -24.671  1.00  0.00    -0.504 OA
ATOM     22  H   UNL     1     -21.480  12.182 -25.039  1.00  0.00     0.293 HD
ENDBRANCH  16  21
ENDBRANCH   1  11
BRANCH  10  23
ATOM     23  O   UNL     1     -21.204  16.994 -20.660  1.00  0.00    -0.500 OA
ATOM     24  H   UNL     1     -20.676  17.823 -20.414  1.00  0.00     0.294 HD
ENDBRANCH  10  23
BRANCH   5  25
ATOM     25  O   UNL     1     -22.594  12.015 -14.862  1.00  0.00    -0.507 OA
ATOM     26  H   UNL     1     -22.295  11.076 -15.095  1.00  0.00     0.293 HD
ENDBRANCH   5  25
BRANCH   7  27
ATOM     27  O   UNL     1     -23.268  16.662 -15.862  1.00  0.00    -0.507 OA
ATOM     28  H   UNL     1     -24.243  16.922 -15.843  1.00  0.00     0.293 HD
ENDBRANCH   7  27
TORSDOF 7
ENDMDL
MODEL 7
REMARK VINA RESULT:    -3.794      1.536      7.035
REMARK INTER + INTRA:          -5.050
REMARK INTER:                  -4.816
REMARK INTRA:                  -0.234
REMARK UNBOUND:                -0.368
REMARK SMILES Oc1cc(O)c2cc(O)c(-c3cc(O)c(O)c(O)c3)[o+]c2c1.[Cl-]
REMARK SMILES IDX 10 1 20 2 21 3 22 4 2 5 3 6 4 7 6 8 7 9 8 10 11 11 12 12
REMARK SMILES IDX 13 13 19 14 15 15 17 16 14 17 16 19 18 21 9 23 1 25 5 27
REMARK H PARENT 14 18 16 20 18 22 9 24 1 26 5 28
REMARK Flexibility Score: inf
ROOT
ATOM      1  C   UNL     1     -19.487  28.254 -20.482  1.00  0.00     0.402 A 
ATOM      2  O   UNL     1     -18.887  29.041 -21.371  1.00  0.00    -0.202 OA
ATOM      3  C   UNL     1     -17.577  29.027 -21.592  1.00  0.00     0.368 A 
ATOM      4  C   UNL     1     -17.039  29.890 -22.550  1.00  0.00     0.162 A 
ATOM      5  C   UNL     1     -15.666  29.893 -22.805  1.00  0.00     0.128 A 
ATOM      6  C   UNL     1     -14.826  29.028 -22.100  1.00  0.00     0.093 A 
ATOM      7  C   UNL     1     -15.340  28.152 -21.136  1.00  0.00     0.136 A 
ATOM      8  C   UNL     1     -16.734  28.148 -20.871  1.00  0.00     0.125 A 
ATOM      9  C   UNL     1     -17.335  27.314 -19.913  1.00  0.00     0.078 A 
ATOM     10  C   UNL     1     -18.716  27.369 -19.705  1.00  0.00     0.223 A 
ENDROOT
BRANCH   1  11
ATOM     11  C   UNL     1     -20.957  28.357 -20.334  1.00  0.00     0.091 A 
ATOM     12  C   UNL     1     -21.496  28.876 -19.148  1.00  0.00     0.068 A 
ATOM     13  C   UNL     1     -22.878  29.003 -18.988  1.00  0.00     0.162 A 
ATOM     14  C   UNL     1     -21.825  28.000 -21.378  1.00  0.00     0.068 A 
ATOM     15  C   UNL     1     -23.750  28.624 -20.025  1.00  0.00     0.200 A 
ATOM     16  C   UNL     1     -23.212  28.123 -21.235  1.00  0.00     0.162 A 
BRANCH  13  17
ATOM     17  O   UNL     1     -23.368  29.509 -17.783  1.00  0.00    -0.504 OA
ATOM     18  H   UNL     1     -23.035  29.182 -16.884  1.00  0.00     0.293 HD
ENDBRANCH  13  17
BRANCH  15  19
ATOM     19  O   UNL     1     -25.125  28.758 -19.820  1.00  0.00    -0.502 OA
ATOM     20  H   UNL     1     -25.543  29.442 -19.206  1.00  0.00     0.293 HD
ENDBRANCH  15  19
BRANCH  16  21
ATOM     21  O   UNL     1     -24.010  27.747 -22.318  1.00  0.00    -0.504 OA
ATOM     22  H   UNL     1     -23.832  28.020 -23.274  1.00  0.00     0.293 HD
ENDBRANCH  16  21
ENDBRANCH   1  11
BRANCH  10  23
ATOM     23  O   UNL     1     -19.308  26.578 -18.719  1.00  0.00    -0.500 OA
ATOM     24  H   UNL     1     -18.783  25.870 -18.219  1.00  0.00     0.294 HD
ENDBRANCH  10  23
BRANCH   5  25
ATOM     25  O   UNL     1     -15.122  30.752 -23.759  1.00  0.00    -0.507 OA
ATOM     26  H   UNL     1     -15.568  31.631 -23.996  1.00  0.00     0.293 HD
ENDBRANCH   5  25
BRANCH   7  27
ATOM     27  O   UNL     1     -14.434  27.316 -20.477  1.00  0.00    -0.507 OA
ATOM     28  H   UNL     1     -14.025  26.486 -20.881  1.00  0.00     0.293 HD
ENDBRANCH   7  27
TORSDOF 7
ENDMDL
MODEL 8
REMARK VINA RESULT:    -3.695     14.246     15.162
REMARK INTER + INTRA:          -4.928
REMARK INTER:                  -4.797
REMARK INTRA:                  -0.131
REMARK UNBOUND:                -0.368
REMARK SMILES Oc1cc(O)c2cc(O)c(-c3cc(O)c(O)c(O)c3)[o+]c2c1.[Cl-]
REMARK SMILES IDX 10 1 20 2 21 3 22 4 2 5 3 6 4 7 6 8 7 9 8 10 11 11 12 12
REMARK SMILES IDX 13 13 19 14 15 15 17 16 14 17 16 19 18 21 9 23 1 25 5 27
REMARK H PARENT 14 18 16 20 18 22 9 24 1 26 5 28
REMARK Flexibility Score: inf
ROOT
ATOM      1  C   UNL     1     -20.670  13.789 -18.660  1.00  0.00     0.402 A 
ATOM      2  O   UNL     1     -21.764  14.314 -18.115  1.00  0.00    -0.202 OA
ATOM      3  C   UNL     1     -22.271  13.906 -16.956  1.00  0.00     0.368 A 
ATOM      4  C   UNL     1     -23.423  14.523 -16.463  1.00  0.00     0.162 A 
ATOM      5  C   UNL     1     -23.975  14.115 -15.246  1.00  0.00     0.128 A 
ATOM      6  C   UNL     1     -23.371  13.088 -14.517  1.00  0.00     0.093 A 
ATOM      7  C   UNL     1     -22.215  12.455 -14.989  1.00  0.00     0.136 A 
ATOM      8  C   UNL     1     -21.652  12.862 -16.227  1.00  0.00     0.125 A 
ATOM      9  C   UNL     1     -20.504  12.276 -16.783  1.00  0.00     0.078 A 
ATOM     10  C   UNL     1     -20.010  12.728 -18.010  1.00  0.00     0.223 A 
ENDROOT
BRANCH   1  11
ATOM     11  C   UNL     1     -20.198  14.336 -19.952  1.00  0.00     0.091 A 
ATOM     12  C   UNL     1     -18.885  14.815 -20.061  1.00  0.00     0.068 A 
ATOM     13  C   UNL     1     -18.408  15.319 -21.273  1.00  0.00     0.162 A 
ATOM     14  C   UNL     1     -21.020  14.335 -21.091  1.00  0.00     0.068 A 
ATOM     15  C   UNL     1     -19.237  15.340 -22.409  1.00  0.00     0.200 A 
ATOM     16  C   UNL     1     -20.556  14.834 -22.313  1.00  0.00     0.162 A 
BRANCH  13  17
ATOM     17  O   UNL     1     -17.098  15.799 -21.327  1.00  0.00    -0.504 OA
ATOM     18  H   UNL     1     -16.483  15.786 -20.522  1.00  0.00     0.293 HD
ENDBRANCH  13  17
BRANCH  15  19
ATOM     19  O   UNL     1     -18.723  15.862 -23.598  1.00  0.00    -0.502 OA
ATOM     20  H   UNL     1     -18.894  15.467 -24.512  1.00  0.00     0.293 HD
ENDBRANCH  15  19
BRANCH  16  21
ATOM     21  O   UNL     1     -21.432  14.799 -23.401  1.00  0.00    -0.504 OA
ATOM     22  H   UNL     1     -21.300  15.327 -24.252  1.00  0.00     0.293 HD
ENDBRANCH  16  21
ENDBRANCH   1  11
BRANCH  10  23
ATOM     23  O   UNL     1     -18.899  12.113 -18.588  1.00  0.00    -0.500 OA
ATOM     24  H   UNL     1     -18.622  11.171 -18.337  1.00  0.00     0.294 HD
ENDBRANCH  10  23
BRANCH   5  25
ATOM     25  O   UNL     1     -25.125  14.725 -14.748  1.00  0.00    -0.507 OA
ATOM     26  H   UNL     1     -26.020  14.250 -14.746  1.00  0.00     0.293 HD
ENDBRANCH   5  25
BRANCH   7  27
ATOM     27  O   UNL     1     -21.669  11.438 -14.199  1.00  0.00    -0.507 OA
ATOM     28  H   UNL     1     -21.776  10.452 -14.386  1.00  0.00     0.293 HD
ENDBRANCH   7  27
TORSDOF 7
ENDMDL
