MODEL 1
REMARK VINA RESULT:    -5.354      0.000      0.000
REMARK INTER + INTRA:          -6.317
REMARK INTER:                  -6.449
REMARK INTRA:                   0.131
REMARK UNBOUND:                 0.131
REMARK SMILES O=c1c(O)c(-c2ccc(O)c(O)c2)oc2cc(O)cc(O)c12
REMARK SMILES IDX 5 1 3 2 2 3 1 4 22 5 20 6 19 7 17 8 16 9 15 10 14 11 6 12
REMARK SMILES IDX 7 13 8 14 9 15 13 16 11 17 10 18 12 20 4 22 21 24 18 26
REMARK H PARENT 10 19 12 21 4 23 21 25 18 27
REMARK Flexibility Score: inf
ROOT
ATOM      1  C   UNL     1      94.493  99.467  98.900  1.00  0.00     0.180 A 
ATOM      2  C   UNL     1      93.773  98.289  99.167  1.00  0.00     0.208 A 
ATOM      3  C   UNL     1      93.944  97.180  98.322  1.00  0.00     0.238 A 
ATOM      4  O   UNL     1      93.257  96.148  98.534  1.00  0.00    -0.285 OA
ATOM      5  C   UNL     1      94.844  97.258  97.232  1.00  0.00     0.111 A 
ATOM      6  C   UNL     1      95.124  96.183  96.335  1.00  0.00     0.134 A 
ATOM      7  C   UNL     1      95.931  96.412  95.214  1.00  0.00     0.093 A 
ATOM      8  C   UNL     1      96.521  97.655  94.992  1.00  0.00     0.123 A 
ATOM      9  C   UNL     1      96.300  98.697  95.895  1.00  0.00     0.094 A 
ATOM     10  C   UNL     1      95.471  98.510  97.003  1.00  0.00     0.146 A 
ATOM     11  O   UNL     1      95.279  99.529  97.832  1.00  0.00    -0.452 OA
ENDROOT
BRANCH   1  12
ATOM     12  C   UNL     1      94.386 100.667  99.760  1.00  0.00     0.025 A 
ATOM     13  C   UNL     1      94.431 101.942  99.175  1.00  0.00     0.016 A 
ATOM     14  C   UNL     1      94.352 103.089  99.969  1.00  0.00     0.051 A 
ATOM     15  C   UNL     1      94.243 102.981 101.359  1.00  0.00     0.157 A 
ATOM     16  C   UNL     1      94.297 100.560 101.160  1.00  0.00     0.062 A 
ATOM     17  C   UNL     1      94.220 101.710 101.958  1.00  0.00     0.158 A 
BRANCH  15  18
ATOM     18  O   UNL     1      94.163 104.142 102.125  1.00  0.00    -0.504 OA
ATOM     19  H   UNL     1      93.599 104.196 102.965  1.00  0.00     0.293 HD
ENDBRANCH  15  18
BRANCH  17  20
ATOM     20  O   UNL     1      94.126 101.595 103.345  1.00  0.00    -0.504 OA
ATOM     21  H   UNL     1      93.648 100.816 103.782  1.00  0.00     0.293 HD
ENDBRANCH  17  20
ENDBRANCH   1  12
BRANCH   2  22
ATOM     22  O   UNL     1      92.875  98.242 100.236  1.00  0.00    -0.502 OA
ATOM     23  H   UNL     1      91.924  98.582 100.162  1.00  0.00     0.293 HD
ENDBRANCH   2  22
BRANCH   6  24
ATOM     24  O   UNL     1      94.661  94.876  96.514  1.00  0.00    -0.507 OA
ATOM     25  H   UNL     1      94.300  94.507  97.382  1.00  0.00     0.293 HD
ENDBRANCH   6  24
BRANCH   8  26
ATOM     26  O   UNL     1      97.331  97.844  93.875  1.00  0.00    -0.508 OA
ATOM     27  H   UNL     1      97.971  97.127  93.556  1.00  0.00     0.293 HD
ENDBRANCH   8  26
TORSDOF 6
ENDMDL
MODEL 2
REMARK VINA RESULT:    -2.875      0.680      1.398
REMARK INTER + INTRA:          -3.332
REMARK INTER:                  -3.883
REMARK INTRA:                   0.551
REMARK UNBOUND:                 0.131
REMARK SMILES O=c1c(O)c(-c2ccc(O)c(O)c2)oc2cc(O)cc(O)c12
REMARK SMILES IDX 5 1 3 2 2 3 1 4 22 5 20 6 19 7 17 8 16 9 15 10 14 11 6 12
REMARK SMILES IDX 7 13 8 14 9 15 13 16 11 17 10 18 12 20 4 22 21 24 18 26
REMARK H PARENT 10 19 12 21 4 23 21 25 18 27
REMARK Flexibility Score: inf
ROOT
ATOM      1  C   UNL     1      94.401  99.478  98.938  1.00  0.00     0.180 A 
ATOM      2  C   UNL     1      93.749  98.267  99.231  1.00  0.00     0.208 A 
ATOM      3  C   UNL     1      93.963  97.159  98.394  1.00  0.00     0.238 A 
ATOM      4  O   UNL     1      93.335  96.094  98.631  1.00  0.00    -0.285 OA
ATOM      5  C   UNL     1      94.836  97.271  97.286  1.00  0.00     0.111 A 
ATOM      6  C   UNL     1      95.156  96.203  96.395  1.00  0.00     0.134 A 
ATOM      7  C   UNL     1      95.929  96.461  95.256  1.00  0.00     0.093 A 
ATOM      8  C   UNL     1      96.447  97.731  95.010  1.00  0.00     0.123 A 
ATOM      9  C   UNL     1      96.189  98.770  95.906  1.00  0.00     0.094 A 
ATOM     10  C   UNL     1      95.392  98.553  97.032  1.00  0.00     0.146 A 
ATOM     11  O   UNL     1      95.161  99.570  97.854  1.00  0.00    -0.452 OA
ENDROOT
BRANCH   1  12
ATOM     12  C   UNL     1      94.246 100.681  99.787  1.00  0.00     0.025 A 
ATOM     13  C   UNL     1      93.458 100.611 100.946  1.00  0.00     0.016 A 
ATOM     14  C   UNL     1      93.281 101.740 101.751  1.00  0.00     0.051 A 
ATOM     15  C   UNL     1      93.875 102.956 101.403  1.00  0.00     0.157 A 
ATOM     16  C   UNL     1      94.826 101.911  99.427  1.00  0.00     0.062 A 
ATOM     17  C   UNL     1      94.648 103.045 100.233  1.00  0.00     0.158 A 
BRANCH  15  18
ATOM     18  O   UNL     1      93.683 104.064 102.227  1.00  0.00    -0.504 OA
ATOM     19  H   UNL     1      94.245 104.223 103.055  1.00  0.00     0.293 HD
ENDBRANCH  15  18
BRANCH  17  20
ATOM     20  O   UNL     1      95.231 104.259  99.872  1.00  0.00    -0.504 OA
ATOM     21  H   UNL     1      96.196 104.472 100.097  1.00  0.00     0.293 HD
ENDBRANCH  17  20
ENDBRANCH   1  12
BRANCH   2  22
ATOM     22  O   UNL     1      92.875  98.185 100.318  1.00  0.00    -0.502 OA
ATOM     23  H   UNL     1      92.205  98.914 100.532  1.00  0.00     0.293 HD
ENDBRANCH   2  22
BRANCH   6  24
ATOM     24  O   UNL     1      94.767  94.875  96.597  1.00  0.00    -0.507 OA
ATOM     25  H   UNL     1      94.486  94.487  97.485  1.00  0.00     0.293 HD
ENDBRANCH   6  24
BRANCH   8  26
ATOM     26  O   UNL     1      97.225  97.949  93.876  1.00  0.00    -0.508 OA
ATOM     27  H   UNL     1      97.248  97.285  93.111  1.00  0.00     0.293 HD
ENDBRANCH   8  26
TORSDOF 6
ENDMDL
MODEL 3
REMARK VINA RESULT:    -2.851      1.594      6.783
REMARK INTER + INTRA:          -3.303
REMARK INTER:                  -3.077
REMARK INTRA:                  -0.226
REMARK UNBOUND:                 0.131
REMARK SMILES O=c1c(O)c(-c2ccc(O)c(O)c2)oc2cc(O)cc(O)c12
REMARK SMILES IDX 5 1 3 2 2 3 1 4 22 5 20 6 19 7 17 8 16 9 15 10 14 11 6 12
REMARK SMILES IDX 7 13 8 14 9 15 13 16 11 17 10 18 12 20 4 22 21 24 18 26
REMARK H PARENT 10 19 12 21 4 23 21 25 18 27
REMARK Flexibility Score: inf
ROOT
ATOM      1  C   UNL     1      93.961  99.667  98.632  1.00  0.00     0.180 A 
ATOM      2  C   UNL     1      93.405  99.143  99.812  1.00  0.00     0.208 A 
ATOM      3  C   UNL     1      93.325  99.963 100.949  1.00  0.00     0.238 A 
ATOM      4  O   UNL     1      92.876  99.472 102.017  1.00  0.00    -0.285 OA
ATOM      5  C   UNL     1      93.785 101.300 100.888  1.00  0.00     0.111 A 
ATOM      6  C   UNL     1      93.716 102.232 101.967  1.00  0.00     0.134 A 
ATOM      7  C   UNL     1      94.321 103.488 101.835  1.00  0.00     0.093 A 
ATOM      8  C   UNL     1      94.935 103.870 100.643  1.00  0.00     0.123 A 
ATOM      9  C   UNL     1      94.956 102.989  99.562  1.00  0.00     0.094 A 
ATOM     10  C   UNL     1      94.393 101.716  99.674  1.00  0.00     0.146 A 
ATOM     11  O   UNL     1      94.444 100.903  98.625  1.00  0.00    -0.452 OA
ENDROOT
BRANCH   1  12
ATOM     12  C   UNL     1      94.056  98.872  97.387  1.00  0.00     0.025 A 
ATOM     13  C   UNL     1      92.887  98.559  96.675  1.00  0.00     0.016 A 
ATOM     14  C   UNL     1      92.951  97.793  95.509  1.00  0.00     0.051 A 
ATOM     15  C   UNL     1      94.180  97.316  95.043  1.00  0.00     0.157 A 
ATOM     16  C   UNL     1      95.289  98.374  96.928  1.00  0.00     0.062 A 
ATOM     17  C   UNL     1      95.355  97.603  95.758  1.00  0.00     0.158 A 
BRANCH  15  18
ATOM     18  O   UNL     1      94.213  96.556  93.875  1.00  0.00    -0.504 OA
ATOM     19  H   UNL     1      93.822  96.893  93.003  1.00  0.00     0.293 HD
ENDBRANCH  15  18
BRANCH  17  20
ATOM     20  O   UNL     1      96.582  97.118  95.308  1.00  0.00    -0.504 OA
ATOM     21  H   UNL     1      96.666  96.207  94.873  1.00  0.00     0.293 HD
ENDBRANCH  17  20
ENDBRANCH   1  12
BRANCH   2  22
ATOM     22  O   UNL     1      92.976  97.814  99.857  1.00  0.00    -0.502 OA
ATOM     23  H   UNL     1      92.954  97.279 100.717  1.00  0.00     0.293 HD
ENDBRANCH   2  22
BRANCH   6  24
ATOM     24  O   UNL     1      93.046 101.986 103.169  1.00  0.00    -0.507 OA
ATOM     25  H   UNL     1      92.082 102.227 103.350  1.00  0.00     0.293 HD
ENDBRANCH   6  24
BRANCH   8  26
ATOM     26  O   UNL     1      95.514 105.133 100.542  1.00  0.00    -0.508 OA
ATOM     27  H   UNL     1      96.510 105.272 100.658  1.00  0.00     0.293 HD
ENDBRANCH   8  26
TORSDOF 6
ENDMDL
