MODEL 1
REMARK VINA RESULT:    -4.307      0.000      0.000
REMARK INTER + INTRA:         -10.104
REMARK INTER:                  -8.084
REMARK INTRA:                  -2.020
REMARK UNBOUND:                -2.020
REMARK SMILES CCCCCCCCC=CCCCCCCCC(=O)[O-]
REMARK SMILES IDX 10 1 9 2 11 3 12 4 13 5 14 6 15 7 16 8 17 9 18 10 19 11
REMARK SMILES IDX 20 12 8 13 7 14 6 15 5 16 4 17 3 18 2 19 1 20
REMARK H PARENT
REMARK Flexibility Score: inf
ROOT
ATOM      1  C   UNL     1       2.970 125.051 110.615  1.00  0.00    -0.031 C 
ATOM      2  C   UNL     1       4.079 124.675 111.276  1.00  0.00    -0.031 C 
ENDROOT
BRANCH   1   3
ATOM      3  C   UNL     1       2.229 126.338 110.896  1.00  0.00     0.027 C 
BRANCH   3   4
ATOM      4  C   UNL     1       2.668 127.472 109.959  1.00  0.00     0.004 C 
BRANCH   4   5
ATOM      5  C   UNL     1       2.491 128.856 110.606  1.00  0.00     0.000 C 
BRANCH   5   6
ATOM      6  C   UNL     1       2.620 128.804 112.143  1.00  0.00     0.000 C 
BRANCH   6   7
ATOM      7  C   UNL     1       4.050 129.070 112.654  1.00  0.00     0.000 C 
BRANCH   7   8
ATOM      8  C   UNL     1       4.256 128.818 114.157  1.00  0.00     0.006 C 
BRANCH   8   9
ATOM      9  C   UNL     1       5.724 128.942 114.584  1.00  0.00     0.053 C 
BRANCH   9  10
ATOM     10  C   UNL     1       6.256 130.295 114.229  1.00  0.00     0.041 C 
ATOM     11  O   UNL     1       5.787 131.323 114.783  1.00  0.00    -0.550 OA
ATOM     12  O   UNL     1       7.303 130.415 113.324  1.00  0.00    -0.550 OA
ENDBRANCH   9  10
ENDBRANCH   8   9
ENDBRANCH   7   8
ENDBRANCH   6   7
ENDBRANCH   5   6
ENDBRANCH   4   5
ENDBRANCH   3   4
ENDBRANCH   1   3
BRANCH   2  13
ATOM     13  C   UNL     1       4.696 125.453 112.409  1.00  0.00     0.027 C 
BRANCH  13  14
ATOM     14  C   UNL     1       6.106 125.933 112.033  1.00  0.00     0.004 C 
BRANCH  14  15
ATOM     15  C   UNL     1       7.195 124.914 112.401  1.00  0.00     0.000 C 
BRANCH  15  16
ATOM     16  C   UNL     1       8.015 124.458 111.184  1.00  0.00     0.000 C 
BRANCH  16  17
ATOM     17  C   UNL     1       7.507 125.128 109.900  1.00  0.00    -0.000 C 
BRANCH  17  18
ATOM     18  C   UNL     1       8.425 124.804 108.712  1.00  0.00    -0.000 C 
BRANCH  18  19
ATOM     19  C   UNL     1       7.680 124.818 107.369  1.00  0.00    -0.003 C 
ATOM     20  C   UNL     1       6.359 125.586 107.433  1.00  0.00     0.004 C 
ENDBRANCH  18  19
ENDBRANCH  17  18
ENDBRANCH  16  17
ENDBRANCH  15  16
ENDBRANCH  14  15
ENDBRANCH  13  14
ENDBRANCH   2  13
TORSDOF 15
ENDMDL
MODEL 2
REMARK VINA RESULT:    -4.231      3.382      6.234
REMARK INTER + INTRA:          -9.961
REMARK INTER:                  -7.132
REMARK INTRA:                  -2.829
REMARK UNBOUND:                -2.020
REMARK SMILES CCCCCCCCC=CCCCCCCCC(=O)[O-]
REMARK SMILES IDX 10 1 9 2 11 3 12 4 13 5 14 6 15 7 16 8 17 9 18 10 19 11
REMARK SMILES IDX 20 12 8 13 7 14 6 15 5 16 4 17 3 18 2 19 1 20
REMARK H PARENT
REMARK Flexibility Score: inf
ROOT
ATOM      1  C   UNL     1       2.759 125.278 111.624  1.00  0.00    -0.031 C 
ATOM      2  C   UNL     1       2.769 126.141 110.593  1.00  0.00    -0.031 C 
ENDROOT
BRANCH   1   3
ATOM      3  C   UNL     1       1.632 125.189 112.627  1.00  0.00     0.027 C 
BRANCH   3   4
ATOM      4  C   UNL     1       1.499 123.782 113.224  1.00  0.00     0.004 C 
BRANCH   4   5
ATOM      5  C   UNL     1       2.661 123.445 114.173  1.00  0.00     0.000 C 
BRANCH   5   6
ATOM      6  C   UNL     1       3.529 122.283 113.645  1.00  0.00     0.000 C 
BRANCH   6   7
ATOM      7  C   UNL     1       4.837 122.743 112.973  1.00  0.00     0.000 C 
BRANCH   7   8
ATOM      8  C   UNL     1       5.510 123.959 113.631  1.00  0.00     0.006 C 
BRANCH   8   9
ATOM      9  C   UNL     1       6.505 124.664 112.700  1.00  0.00     0.053 C 
BRANCH   9  10
ATOM     10  C   UNL     1       7.474 123.676 112.132  1.00  0.00     0.041 C 
ATOM     11  O   UNL     1       8.305 123.102 112.884  1.00  0.00    -0.550 OA
ATOM     12  O   UNL     1       7.427 123.352 110.781  1.00  0.00    -0.550 OA
ENDBRANCH   9  10
ENDBRANCH   8   9
ENDBRANCH   7   8
ENDBRANCH   6   7
ENDBRANCH   5   6
ENDBRANCH   4   5
ENDBRANCH   3   4
ENDBRANCH   1   3
BRANCH   2  13
ATOM     13  C   UNL     1       1.692 127.164 110.334  1.00  0.00     0.027 C 
BRANCH  13  14
ATOM     14  C   UNL     1       2.305 128.477 109.821  1.00  0.00     0.004 C 
BRANCH  14  15
ATOM     15  C   UNL     1       2.784 129.390 110.960  1.00  0.00     0.000 C 
BRANCH  15  16
ATOM     16  C   UNL     1       1.870 129.327 112.194  1.00  0.00     0.000 C 
BRANCH  16  17
ATOM     17  C   UNL     1       2.690 129.117 113.473  1.00  0.00    -0.000 C 
BRANCH  17  18
ATOM     18  C   UNL     1       4.115 128.648 113.141  1.00  0.00    -0.000 C 
BRANCH  18  19
ATOM     19  C   UNL     1       4.612 127.549 114.094  1.00  0.00    -0.003 C 
ATOM     20  C   UNL     1       3.531 127.077 115.066  1.00  0.00     0.004 C 
ENDBRANCH  18  19
ENDBRANCH  17  18
ENDBRANCH  16  17
ENDBRANCH  15  16
ENDBRANCH  14  15
ENDBRANCH  13  14
ENDBRANCH   2  13
TORSDOF 15
ENDMDL
MODEL 3
REMARK VINA RESULT:    -4.188      3.186      6.050
REMARK INTER + INTRA:          -9.881
REMARK INTER:                  -6.859
REMARK INTRA:                  -3.022
REMARK UNBOUND:                -2.020
REMARK SMILES CCCCCCCCC=CCCCCCCCC(=O)[O-]
REMARK SMILES IDX 10 1 9 2 11 3 12 4 13 5 14 6 15 7 16 8 17 9 18 10 19 11
REMARK SMILES IDX 20 12 8 13 7 14 6 15 5 16 4 17 3 18 2 19 1 20
REMARK H PARENT
REMARK Flexibility Score: inf
ROOT
ATOM      1  C   UNL     1       1.919 126.909 110.899  1.00  0.00    -0.031 C 
ATOM      2  C   UNL     1       1.814 128.153 111.398  1.00  0.00    -0.031 C 
ENDROOT
BRANCH   1   3
ATOM      3  C   UNL     1       3.172 126.377 110.241  1.00  0.00     0.027 C 
BRANCH   3   4
ATOM      4  C   UNL     1       3.445 124.915 110.617  1.00  0.00     0.004 C 
BRANCH   4   5
ATOM      5  C   UNL     1       3.147 124.634 112.100  1.00  0.00     0.000 C 
BRANCH   5   6
ATOM      6  C   UNL     1       3.981 123.460 112.652  1.00  0.00     0.000 C 
BRANCH   6   7
ATOM      7  C   UNL     1       4.605 123.738 114.033  1.00  0.00     0.000 C 
BRANCH   7   8
ATOM      8  C   UNL     1       6.130 123.941 114.024  1.00  0.00     0.006 C 
BRANCH   8   9
ATOM      9  C   UNL     1       6.653 124.446 112.673  1.00  0.00     0.053 C 
BRANCH   9  10
ATOM     10  C   UNL     1       8.050 123.962 112.443  1.00  0.00     0.041 C 
ATOM     11  O   UNL     1       8.512 123.014 113.130  1.00  0.00    -0.550 OA
ATOM     12  O   UNL     1       8.824 124.525 111.436  1.00  0.00    -0.550 OA
ENDBRANCH   9  10
ENDBRANCH   8   9
ENDBRANCH   7   8
ENDBRANCH   6   7
ENDBRANCH   5   6
ENDBRANCH   4   5
ENDBRANCH   3   4
ENDBRANCH   1   3
BRANCH   2  13
ATOM     13  C   UNL     1       2.904 129.192 111.321  1.00  0.00     0.027 C 
BRANCH  13  14
ATOM     14  C   UNL     1       3.589 129.361 112.686  1.00  0.00     0.004 C 
BRANCH  14  15
ATOM     15  C   UNL     1       4.738 128.363 112.897  1.00  0.00     0.000 C 
BRANCH  15  16
ATOM     16  C   UNL     1       4.461 127.376 114.041  1.00  0.00     0.000 C 
BRANCH  16  17
ATOM     17  C   UNL     1       3.225 127.801 114.845  1.00  0.00    -0.000 C 
BRANCH  17  18
ATOM     18  C   UNL     1       2.387 126.579 115.252  1.00  0.00    -0.000 C 
BRANCH  18  19
ATOM     19  C   UNL     1       1.026 126.534 114.543  1.00  0.00    -0.003 C 
ATOM     20  C   UNL     1       0.417 125.132 114.520  1.00  0.00     0.004 C 
ENDBRANCH  18  19
ENDBRANCH  17  18
ENDBRANCH  16  17
ENDBRANCH  15  16
ENDBRANCH  14  15
ENDBRANCH  13  14
ENDBRANCH   2  13
TORSDOF 15
ENDMDL
MODEL 4
REMARK VINA RESULT:    -4.166      2.944      4.344
REMARK INTER + INTRA:          -9.840
REMARK INTER:                  -6.742
REMARK INTRA:                  -3.097
REMARK UNBOUND:                -2.020
REMARK SMILES CCCCCCCCC=CCCCCCCCC(=O)[O-]
REMARK SMILES IDX 10 1 9 2 11 3 12 4 13 5 14 6 15 7 16 8 17 9 18 10 19 11
REMARK SMILES IDX 20 12 8 13 7 14 6 15 5 16 4 17 3 18 2 19 1 20
REMARK H PARENT
REMARK Flexibility Score: inf
ROOT
ATOM      1  C   UNL     1       1.716 125.763 114.045  1.00  0.00    -0.031 C 
ATOM      2  C   UNL     1       1.472 125.279 112.814  1.00  0.00    -0.031 C 
ENDROOT
BRANCH   1   3
ATOM      3  C   UNL     1       3.046 125.619 114.749  1.00  0.00     0.027 C 
BRANCH   3   4
ATOM      4  C   UNL     1       3.739 126.972 114.956  1.00  0.00     0.004 C 
BRANCH   4   5
ATOM      5  C   UNL     1       4.999 127.115 114.086  1.00  0.00     0.000 C 
BRANCH   5   6
ATOM      6  C   UNL     1       4.751 127.984 112.836  1.00  0.00     0.000 C 
BRANCH   6   7
ATOM      7  C   UNL     1       3.589 128.984 112.996  1.00  0.00     0.000 C 
BRANCH   7   8
ATOM      8  C   UNL     1       2.527 128.923 111.886  1.00  0.00     0.006 C 
BRANCH   8   9
ATOM      9  C   UNL     1       1.094 128.964 112.433  1.00  0.00     0.053 C 
BRANCH   9  10
ATOM     10  C   UNL     1       0.107 128.846 111.314  1.00  0.00     0.041 C 
ATOM     11  O   UNL     1       0.208 127.910 110.479  1.00  0.00    -0.550 OA
ATOM     12  O   UNL     1      -0.952 129.742 111.224  1.00  0.00    -0.550 OA
ENDBRANCH   9  10
ENDBRANCH   8   9
ENDBRANCH   7   8
ENDBRANCH   6   7
ENDBRANCH   5   6
ENDBRANCH   4   5
ENDBRANCH   3   4
ENDBRANCH   1   3
BRANCH   2  13
ATOM     13  C   UNL     1       2.465 124.488 112.002  1.00  0.00     0.027 C 
BRANCH  13  14
ATOM     14  C   UNL     1       2.985 125.321 110.821  1.00  0.00     0.004 C 
BRANCH  14  15
ATOM     15  C   UNL     1       4.492 125.139 110.587  1.00  0.00     0.000 C 
BRANCH  15  16
ATOM     16  C   UNL     1       5.093 124.017 111.447  1.00  0.00     0.000 C 
BRANCH  16  17
ATOM     17  C   UNL     1       6.421 124.458 112.074  1.00  0.00    -0.000 C 
BRANCH  17  18
ATOM     18  C   UNL     1       7.086 125.561 111.236  1.00  0.00    -0.000 C 
BRANCH  18  19
ATOM     19  C   UNL     1       8.267 125.039 110.403  1.00  0.00    -0.003 C 
ATOM     20  C   UNL     1       7.877 124.718 108.960  1.00  0.00     0.004 C 
ENDBRANCH  18  19
ENDBRANCH  17  18
ENDBRANCH  16  17
ENDBRANCH  15  16
ENDBRANCH  14  15
ENDBRANCH  13  14
ENDBRANCH   2  13
TORSDOF 15
ENDMDL
MODEL 5
REMARK VINA RESULT:    -4.160      1.203      1.851
REMARK INTER + INTRA:          -9.828
REMARK INTER:                  -7.758
REMARK INTRA:                  -2.070
REMARK UNBOUND:                -2.020
REMARK SMILES CCCCCCCCC=CCCCCCCCC(=O)[O-]
REMARK SMILES IDX 10 1 9 2 11 3 12 4 13 5 14 6 15 7 16 8 17 9 18 10 19 11
REMARK SMILES IDX 20 12 8 13 7 14 6 15 5 16 4 17 3 18 2 19 1 20
REMARK H PARENT
REMARK Flexibility Score: inf
ROOT
ATOM      1  C   UNL     1       1.530 125.450 112.748  1.00  0.00    -0.031 C 
ATOM      2  C   UNL     1       2.452 124.544 112.376  1.00  0.00    -0.031 C 
ENDROOT
BRANCH   1   3
ATOM      3  C   UNL     1       1.295 126.749 112.012  1.00  0.00     0.027 C 
BRANCH   3   4
ATOM      4  C   UNL     1       2.071 127.915 112.637  1.00  0.00     0.004 C 
BRANCH   4   5
ATOM      5  C   UNL     1       3.347 128.250 111.846  1.00  0.00     0.000 C 
BRANCH   5   6
ATOM      6  C   UNL     1       4.542 128.563 112.769  1.00  0.00     0.000 C 
BRANCH   6   7
ATOM      7  C   UNL     1       4.355 128.065 114.215  1.00  0.00     0.000 C 
BRANCH   7   8
ATOM      8  C   UNL     1       5.438 128.528 115.204  1.00  0.00     0.006 C 
BRANCH   8   9
ATOM      9  C   UNL     1       5.477 130.053 115.371  1.00  0.00     0.053 C 
BRANCH   9  10
ATOM     10  C   UNL     1       6.828 130.582 115.008  1.00  0.00     0.041 C 
ATOM     11  O   UNL     1       7.290 130.398 113.852  1.00  0.00    -0.550 OA
ATOM     12  O   UNL     1       7.557 131.320 115.933  1.00  0.00    -0.550 OA
ENDBRANCH   9  10
ENDBRANCH   8   9
ENDBRANCH   7   8
ENDBRANCH   6   7
ENDBRANCH   5   6
ENDBRANCH   4   5
ENDBRANCH   3   4
ENDBRANCH   1   3
BRANCH   2  13
ATOM     13  C   UNL     1       3.401 124.725 111.220  1.00  0.00     0.027 C 
BRANCH  13  14
ATOM     14  C   UNL     1       4.756 124.066 111.522  1.00  0.00     0.004 C 
BRANCH  14  15
ATOM     15  C   UNL     1       5.726 125.014 112.244  1.00  0.00     0.000 C 
BRANCH  15  16
ATOM     16  C   UNL     1       6.641 125.776 111.273  1.00  0.00     0.000 C 
BRANCH  16  17
ATOM     17  C   UNL     1       7.917 124.976 110.982  1.00  0.00    -0.000 C 
BRANCH  17  18
ATOM     18  C   UNL     1       8.085 124.738 109.473  1.00  0.00    -0.000 C 
BRANCH  18  19
ATOM     19  C   UNL     1       6.886 125.247 108.659  1.00  0.00    -0.003 C 
ATOM     20  C   UNL     1       7.139 125.214 107.151  1.00  0.00     0.004 C 
ENDBRANCH  18  19
ENDBRANCH  17  18
ENDBRANCH  16  17
ENDBRANCH  15  16
ENDBRANCH  14  15
ENDBRANCH  13  14
ENDBRANCH   2  13
TORSDOF 15
ENDMDL
MODEL 6
REMARK VINA RESULT:    -4.130      2.185      4.985
REMARK INTER + INTRA:          -9.772
REMARK INTER:                  -7.010
REMARK INTRA:                  -2.761
REMARK UNBOUND:                -2.020
REMARK SMILES CCCCCCCCC=CCCCCCCCC(=O)[O-]
REMARK SMILES IDX 10 1 9 2 11 3 12 4 13 5 14 6 15 7 16 8 17 9 18 10 19 11
REMARK SMILES IDX 20 12 8 13 7 14 6 15 5 16 4 17 3 18 2 19 1 20
REMARK H PARENT
REMARK Flexibility Score: inf
ROOT
ATOM      1  C   UNL     1       4.833 122.942 113.075  1.00  0.00    -0.031 C 
ATOM      2  C   UNL     1       4.818 123.336 111.790  1.00  0.00    -0.031 C 
ENDROOT
BRANCH   1   3
ATOM      3  C   UNL     1       5.511 123.723 114.178  1.00  0.00     0.027 C 
BRANCH   3   4
ATOM      4  C   UNL     1       4.603 124.818 114.752  1.00  0.00     0.004 C 
BRANCH   4   5
ATOM      5  C   UNL     1       5.184 126.225 114.533  1.00  0.00     0.000 C 
BRANCH   5   6
ATOM      6  C   UNL     1       4.105 127.324 114.621  1.00  0.00     0.000 C 
BRANCH   6   7
ATOM      7  C   UNL     1       4.126 128.308 113.435  1.00  0.00     0.000 C 
BRANCH   7   8
ATOM      8  C   UNL     1       5.495 128.950 113.152  1.00  0.00     0.006 C 
BRANCH   8   9
ATOM      9  C   UNL     1       5.602 130.382 113.692  1.00  0.00     0.053 C 
BRANCH   9  10
ATOM     10  C   UNL     1       6.922 130.586 114.365  1.00  0.00     0.041 C 
ATOM     11  O   UNL     1       7.962 130.759 113.677  1.00  0.00    -0.550 OA
ATOM     12  O   UNL     1       6.996 130.635 115.752  1.00  0.00    -0.550 OA
ENDBRANCH   9  10
ENDBRANCH   8   9
ENDBRANCH   7   8
ENDBRANCH   6   7
ENDBRANCH   5   6
ENDBRANCH   4   5
ENDBRANCH   3   4
ENDBRANCH   1   3
BRANCH   2  13
ATOM     13  C   UNL     1       5.513 124.568 111.271  1.00  0.00     0.027 C 
BRANCH  13  14
ATOM     14  C   UNL     1       4.513 125.502 110.573  1.00  0.00     0.004 C 
BRANCH  14  15
ATOM     15  C   UNL     1       3.065 124.998 110.674  1.00  0.00     0.000 C 
BRANCH  15  16
ATOM     16  C   UNL     1       2.071 126.121 111.009  1.00  0.00     0.000 C 
BRANCH  16  17
ATOM     17  C   UNL     1       1.491 125.938 112.417  1.00  0.00    -0.000 C 
BRANCH  17  18
ATOM     18  C   UNL     1       1.447 124.452 112.805  1.00  0.00    -0.000 C 
BRANCH  18  19
ATOM     19  C   UNL     1       0.929 124.230 114.233  1.00  0.00    -0.003 C 
ATOM     20  C   UNL     1       0.367 125.504 114.864  1.00  0.00     0.004 C 
ENDBRANCH  18  19
ENDBRANCH  17  18
ENDBRANCH  16  17
ENDBRANCH  15  16
ENDBRANCH  14  15
ENDBRANCH  13  14
ENDBRANCH   2  13
TORSDOF 15
ENDMDL
MODEL 7
REMARK VINA RESULT:    -4.130      2.298      4.080
REMARK INTER + INTRA:          -9.771
REMARK INTER:                  -7.122
REMARK INTRA:                  -2.649
REMARK UNBOUND:                -2.020
REMARK SMILES CCCCCCCCC=CCCCCCCCC(=O)[O-]
REMARK SMILES IDX 10 1 9 2 11 3 12 4 13 5 14 6 15 7 16 8 17 9 18 10 19 11
REMARK SMILES IDX 20 12 8 13 7 14 6 15 5 16 4 17 3 18 2 19 1 20
REMARK H PARENT
REMARK Flexibility Score: inf
ROOT
ATOM      1  C   UNL     1       1.668 125.560 113.770  1.00  0.00    -0.031 C 
ATOM      2  C   UNL     1       1.538 125.091 112.516  1.00  0.00    -0.031 C 
ENDROOT
BRANCH   1   3
ATOM      3  C   UNL     1       2.441 126.812 114.116  1.00  0.00     0.027 C 
BRANCH   3   4
ATOM      4  C   UNL     1       3.854 126.496 114.621  1.00  0.00     0.004 C 
BRANCH   4   5
ATOM      5  C   UNL     1       4.906 127.451 114.031  1.00  0.00     0.000 C 
BRANCH   5   6
ATOM      6  C   UNL     1       4.386 128.193 112.781  1.00  0.00     0.000 C 
BRANCH   6   7
ATOM      7  C   UNL     1       4.243 129.714 112.979  1.00  0.00     0.000 C 
BRANCH   7   8
ATOM      8  C   UNL     1       5.122 130.307 114.094  1.00  0.00     0.006 C 
BRANCH   8   9
ATOM      9  C   UNL     1       6.540 130.645 113.615  1.00  0.00     0.053 C 
BRANCH   9  10
ATOM     10  C   UNL     1       7.423 130.954 114.782  1.00  0.00     0.041 C 
ATOM     11  O   UNL     1       8.277 130.113 115.169  1.00  0.00    -0.550 OA
ATOM     12  O   UNL     1       7.337 132.190 115.412  1.00  0.00    -0.550 OA
ENDBRANCH   9  10
ENDBRANCH   8   9
ENDBRANCH   7   8
ENDBRANCH   6   7
ENDBRANCH   5   6
ENDBRANCH   4   5
ENDBRANCH   3   4
ENDBRANCH   1   3
BRANCH   2  13
ATOM     13  C   UNL     1       2.185 125.715 111.306  1.00  0.00     0.027 C 
BRANCH  13  14
ATOM     14  C   UNL     1       3.139 124.720 110.628  1.00  0.00     0.004 C 
BRANCH  14  15
ATOM     15  C   UNL     1       4.587 125.230 110.578  1.00  0.00     0.000 C 
BRANCH  15  16
ATOM     16  C   UNL     1       5.502 124.513 111.583  1.00  0.00     0.000 C 
BRANCH  16  17
ATOM     17  C   UNL     1       4.819 123.262 112.150  1.00  0.00    -0.000 C 
BRANCH  17  18
ATOM     18  C   UNL     1       4.990 123.185 113.675  1.00  0.00    -0.000 C 
BRANCH  18  19
ATOM     19  C   UNL     1       3.802 122.503 114.369  1.00  0.00    -0.003 C 
ATOM     20  C   UNL     1       3.494 121.121 113.791  1.00  0.00     0.004 C 
ENDBRANCH  18  19
ENDBRANCH  17  18
ENDBRANCH  16  17
ENDBRANCH  15  16
ENDBRANCH  14  15
ENDBRANCH  13  14
ENDBRANCH   2  13
TORSDOF 15
ENDMDL
MODEL 8
REMARK VINA RESULT:    -4.093      2.965      6.193
REMARK INTER + INTRA:          -9.702
REMARK INTER:                  -6.935
REMARK INTRA:                  -2.767
REMARK UNBOUND:                -2.020
REMARK SMILES CCCCCCCCC=CCCCCCCCC(=O)[O-]
REMARK SMILES IDX 10 1 9 2 11 3 12 4 13 5 14 6 15 7 16 8 17 9 18 10 19 11
REMARK SMILES IDX 20 12 8 13 7 14 6 15 5 16 4 17 3 18 2 19 1 20
REMARK H PARENT
REMARK Flexibility Score: inf
ROOT
ATOM      1  C   UNL     1       1.525 127.619 113.633  1.00  0.00    -0.031 C 
ATOM      2  C   UNL     1       2.672 127.833 114.302  1.00  0.00    -0.031 C 
ENDROOT
BRANCH   1   3
ATOM      3  C   UNL     1       1.366 126.556 112.571  1.00  0.00     0.027 C 
BRANCH   3   4
ATOM      4  C   UNL     1       1.568 127.118 111.157  1.00  0.00     0.004 C 
BRANCH   4   5
ATOM      5  C   UNL     1       2.698 126.395 110.404  1.00  0.00     0.000 C 
BRANCH   5   6
ATOM      6  C   UNL     1       2.992 124.999 110.990  1.00  0.00     0.000 C 
BRANCH   6   7
ATOM      7  C   UNL     1       4.495 124.677 111.101  1.00  0.00     0.000 C 
BRANCH   7   8
ATOM      8  C   UNL     1       4.821 123.348 111.803  1.00  0.00     0.006 C 
BRANCH   8   9
ATOM      9  C   UNL     1       5.279 123.540 113.255  1.00  0.00     0.053 C 
BRANCH   9  10
ATOM     10  C   UNL     1       6.721 123.937 113.296  1.00  0.00     0.041 C 
ATOM     11  O   UNL     1       7.585 123.244 112.698  1.00  0.00    -0.550 OA
ATOM     12  O   UNL     1       7.104 125.099 113.954  1.00  0.00    -0.550 OA
ENDBRANCH   9  10
ENDBRANCH   8   9
ENDBRANCH   7   8
ENDBRANCH   6   7
ENDBRANCH   5   6
ENDBRANCH   4   5
ENDBRANCH   3   4
ENDBRANCH   1   3
BRANCH   2  13
ATOM     13  C   UNL     1       3.955 127.085 114.047  1.00  0.00     0.027 C 
BRANCH  13  14
ATOM     14  C   UNL     1       4.826 127.834 113.028  1.00  0.00     0.004 C 
BRANCH  14  15
ATOM     15  C   UNL     1       4.444 129.316 112.900  1.00  0.00     0.000 C 
BRANCH  15  16
ATOM     16  C   UNL     1       5.449 130.248 113.593  1.00  0.00     0.000 C 
BRANCH  16  17
ATOM     17  C   UNL     1       4.731 131.232 114.525  1.00  0.00    -0.000 C 
BRANCH  17  18
ATOM     18  C   UNL     1       4.534 130.622 115.922  1.00  0.00    -0.000 C 
BRANCH  18  19
ATOM     19  C   UNL     1       5.711 129.734 116.350  1.00  0.00    -0.003 C 
ATOM     20  C   UNL     1       5.283 128.580 117.257  1.00  0.00     0.004 C 
ENDBRANCH  18  19
ENDBRANCH  17  18
ENDBRANCH  16  17
ENDBRANCH  15  16
ENDBRANCH  14  15
ENDBRANCH  13  14
ENDBRANCH   2  13
TORSDOF 15
ENDMDL
MODEL 9
REMARK VINA RESULT:    -4.004      3.092      5.623
REMARK INTER + INTRA:          -9.536
REMARK INTER:                  -6.927
REMARK INTRA:                  -2.609
REMARK UNBOUND:                -2.020
REMARK SMILES CCCCCCCCC=CCCCCCCCC(=O)[O-]
REMARK SMILES IDX 10 1 9 2 11 3 12 4 13 5 14 6 15 7 16 8 17 9 18 10 19 11
REMARK SMILES IDX 20 12 8 13 7 14 6 15 5 16 4 17 3 18 2 19 1 20
REMARK H PARENT
REMARK Flexibility Score: inf
ROOT
ATOM      1  C   UNL     1       3.414 129.183 111.919  1.00  0.00    -0.031 C 
ATOM      2  C   UNL     1       3.718 128.921 113.203  1.00  0.00    -0.031 C 
ENDROOT
BRANCH   1   3
ATOM      3  C   UNL     1       2.075 128.859 111.298  1.00  0.00     0.027 C 
BRANCH   3   4
ATOM      4  C   UNL     1       2.203 127.861 110.139  1.00  0.00     0.004 C 
BRANCH   4   5
ATOM      5  C   UNL     1       2.455 126.428 110.636  1.00  0.00     0.000 C 
BRANCH   5   6
ATOM      6  C   UNL     1       3.806 125.868 110.146  1.00  0.00     0.000 C 
BRANCH   6   7
ATOM      7  C   UNL     1       4.600 125.123 111.236  1.00  0.00     0.000 C 
BRANCH   7   8
ATOM      8  C   UNL     1       5.914 125.803 111.659  1.00  0.00     0.006 C 
BRANCH   8   9
ATOM      9  C   UNL     1       6.612 125.077 112.817  1.00  0.00     0.053 C 
BRANCH   9  10
ATOM     10  C   UNL     1       7.775 124.286 112.308  1.00  0.00     0.041 C 
ATOM     11  O   UNL     1       7.967 123.111 112.716  1.00  0.00    -0.550 OA
ATOM     12  O   UNL     1       8.619 124.829 111.347  1.00  0.00    -0.550 OA
ENDBRANCH   9  10
ENDBRANCH   8   9
ENDBRANCH   7   8
ENDBRANCH   6   7
ENDBRANCH   5   6
ENDBRANCH   4   5
ENDBRANCH   3   4
ENDBRANCH   1   3
BRANCH   2  13
ATOM     13  C   UNL     1       2.793 128.227 114.169  1.00  0.00     0.027 C 
BRANCH  13  14
ATOM     14  C   UNL     1       3.128 126.730 114.259  1.00  0.00     0.004 C 
BRANCH  14  15
ATOM     15  C   UNL     1       1.873 125.843 114.267  1.00  0.00     0.000 C 
BRANCH  15  16
ATOM     16  C   UNL     1       2.155 124.417 113.770  1.00  0.00     0.000 C 
BRANCH  16  17
ATOM     17  C   UNL     1       2.727 123.547 114.896  1.00  0.00    -0.000 C 
BRANCH  17  18
ATOM     18  C   UNL     1       4.044 122.884 114.463  1.00  0.00    -0.000 C 
BRANCH  18  19
ATOM     19  C   UNL     1       3.820 121.638 113.594  1.00  0.00    -0.003 C 
ATOM     20  C   UNL     1       2.715 120.730 114.136  1.00  0.00     0.004 C 
ENDBRANCH  18  19
ENDBRANCH  17  18
ENDBRANCH  16  17
ENDBRANCH  15  16
ENDBRANCH  14  15
ENDBRANCH  13  14
ENDBRANCH   2  13
TORSDOF 15
ENDMDL
