MODEL 1
REMARK VINA RESULT:    -4.662      0.000      0.000
REMARK INTER + INTRA:         -11.585
REMARK INTER:                  -8.750
REMARK INTRA:                  -2.835
REMARK UNBOUND:                -2.835
REMARK SMILES CCCCCCCCC=CCCCCCCCC(=O)[O-]
REMARK SMILES IDX 10 1 9 2 11 3 12 4 13 5 14 6 15 7 16 8 17 9 18 10 19 11
REMARK SMILES IDX 20 12 8 13 7 14 6 15 5 16 4 17 3 18 2 19 1 20
REMARK H PARENT
REMARK Flexibility Score: inf
ROOT
ATOM      1  C   UNL     1      10.387  -7.238  -8.830  1.00  0.00    -0.031 C 
ATOM      2  C   UNL     1      11.527  -7.689  -8.273  1.00  0.00    -0.031 C 
ENDROOT
BRANCH   1   3
ATOM      3  C   UNL     1       9.398  -8.099  -9.575  1.00  0.00     0.027 C 
BRANCH   3   4
ATOM      4  C   UNL     1       9.242  -7.621 -11.022  1.00  0.00     0.004 C 
BRANCH   4   5
ATOM      5  C   UNL     1      10.368  -8.178 -11.906  1.00  0.00     0.000 C 
BRANCH   5   6
ATOM      6  C   UNL     1      11.051  -7.092 -12.758  1.00  0.00     0.000 C 
BRANCH   6   7
ATOM      7  C   UNL     1      12.333  -6.492 -12.146  1.00  0.00     0.000 C 
BRANCH   7   8
ATOM      8  C   UNL     1      13.315  -7.518 -11.553  1.00  0.00     0.006 C 
BRANCH   8   9
ATOM      9  C   UNL     1      14.259  -6.906 -10.510  1.00  0.00     0.053 C 
BRANCH   9  10
ATOM     10  C   UNL     1      15.319  -6.091 -11.179  1.00  0.00     0.041 C 
ATOM     11  O   UNL     1      15.803  -6.462 -12.281  1.00  0.00    -0.550 OA
ATOM     12  O   UNL     1      15.805  -4.943 -10.566  1.00  0.00    -0.550 OA
ENDBRANCH   9  10
ENDBRANCH   8   9
ENDBRANCH   7   8
ENDBRANCH   6   7
ENDBRANCH   5   6
ENDBRANCH   4   5
ENDBRANCH   3   4
ENDBRANCH   1   3
BRANCH   2  13
ATOM     13  C   UNL     1      12.028  -9.107  -8.383  1.00  0.00     0.027 C 
BRANCH  13  14
ATOM     14  C   UNL     1      11.913  -9.834  -7.038  1.00  0.00     0.004 C 
BRANCH  14  15
ATOM     15  C   UNL     1      10.561 -10.554  -6.921  1.00  0.00     0.000 C 
BRANCH  15  16
ATOM     16  C   UNL     1       9.764 -10.137  -5.672  1.00  0.00     0.000 C 
BRANCH  16  17
ATOM     17  C   UNL     1       8.912  -8.864  -5.834  1.00  0.00    -0.000 C 
BRANCH  17  18
ATOM     18  C   UNL     1       9.526  -7.637  -5.142  1.00  0.00    -0.000 C 
BRANCH  18  19
ATOM     19  C   UNL     1      10.561  -8.059  -4.093  1.00  0.00    -0.003 C 
ATOM     20  C   UNL     1      11.875  -7.307  -4.282  1.00  0.00     0.004 C 
ENDBRANCH  18  19
ENDBRANCH  17  18
ENDBRANCH  16  17
ENDBRANCH  15  16
ENDBRANCH  14  15
ENDBRANCH  13  14
ENDBRANCH   2  13
TORSDOF 15
ENDMDL
MODEL 2
REMARK VINA RESULT:    -4.602      2.465      5.346
REMARK INTER + INTRA:         -11.472
REMARK INTER:                  -8.785
REMARK INTRA:                  -2.687
REMARK UNBOUND:                -2.835
REMARK SMILES CCCCCCCCC=CCCCCCCCC(=O)[O-]
REMARK SMILES IDX 10 1 9 2 11 3 12 4 13 5 14 6 15 7 16 8 17 9 18 10 19 11
REMARK SMILES IDX 20 12 8 13 7 14 6 15 5 16 4 17 3 18 2 19 1 20
REMARK H PARENT
REMARK Flexibility Score: inf
ROOT
ATOM      1  C   UNL     1      14.035  -7.647  -9.672  1.00  0.00    -0.031 C 
ATOM      2  C   UNL     1      14.121  -6.729 -10.653  1.00  0.00    -0.031 C 
ENDROOT
BRANCH   1   3
ATOM      3  C   UNL     1      13.751  -9.112  -9.893  1.00  0.00     0.027 C 
BRANCH   3   4
ATOM      4  C   UNL     1      15.039  -9.873 -10.225  1.00  0.00     0.004 C 
BRANCH   4   5
ATOM      5  C   UNL     1      16.152  -9.525  -9.225  1.00  0.00     0.000 C 
BRANCH   5   6
ATOM      6  C   UNL     1      17.392  -8.913  -9.902  1.00  0.00     0.000 C 
BRANCH   6   7
ATOM      7  C   UNL     1      17.292  -8.755 -11.433  1.00  0.00     0.000 C 
BRANCH   7   8
ATOM      8  C   UNL     1      18.187  -7.658 -12.036  1.00  0.00     0.006 C 
BRANCH   8   9
ATOM      9  C   UNL     1      17.432  -6.350 -12.299  1.00  0.00     0.053 C 
BRANCH   9  10
ATOM     10  C   UNL     1      17.850  -5.299 -11.321  1.00  0.00     0.041 C 
ATOM     11  O   UNL     1      16.983  -4.614 -10.717  1.00  0.00    -0.550 OA
ATOM     12  O   UNL     1      19.199  -5.044 -11.106  1.00  0.00    -0.550 OA
ENDBRANCH   9  10
ENDBRANCH   8   9
ENDBRANCH   7   8
ENDBRANCH   6   7
ENDBRANCH   5   6
ENDBRANCH   4   5
ENDBRANCH   3   4
ENDBRANCH   1   3
BRANCH   2  13
ATOM     13  C   UNL     1      13.862  -7.011 -12.111  1.00  0.00     0.027 C 
BRANCH  13  14
ATOM     14  C   UNL     1      12.677  -6.186 -12.626  1.00  0.00     0.004 C 
BRANCH  14  15
ATOM     15  C   UNL     1      11.693  -7.070 -13.406  1.00  0.00     0.000 C 
BRANCH  15  16
ATOM     16  C   UNL     1      10.437  -7.434 -12.594  1.00  0.00     0.000 C 
BRANCH  16  17
ATOM     17  C   UNL     1      10.526  -8.754 -11.806  1.00  0.00    -0.000 C 
BRANCH  17  18
ATOM     18  C   UNL     1      10.014  -8.630 -10.363  1.00  0.00    -0.000 C 
BRANCH  18  19
ATOM     19  C   UNL     1      10.326  -7.243  -9.788  1.00  0.00    -0.003 C 
ATOM     20  C   UNL     1      10.169  -7.228  -8.270  1.00  0.00     0.004 C 
ENDBRANCH  18  19
ENDBRANCH  17  18
ENDBRANCH  16  17
ENDBRANCH  15  16
ENDBRANCH  14  15
ENDBRANCH  13  14
ENDBRANCH   2  13
TORSDOF 15
ENDMDL
MODEL 3
REMARK VINA RESULT:    -4.594      2.946      6.222
REMARK INTER + INTRA:         -11.457
REMARK INTER:                  -8.835
REMARK INTRA:                  -2.621
REMARK UNBOUND:                -2.835
REMARK SMILES CCCCCCCCC=CCCCCCCCC(=O)[O-]
REMARK SMILES IDX 10 1 9 2 11 3 12 4 13 5 14 6 15 7 16 8 17 9 18 10 19 11
REMARK SMILES IDX 20 12 8 13 7 14 6 15 5 16 4 17 3 18 2 19 1 20
REMARK H PARENT
REMARK Flexibility Score: inf
ROOT
ATOM      1  C   UNL     1      10.246  -8.968 -12.271  1.00  0.00    -0.031 C 
ATOM      2  C   UNL     1      10.239  -7.646 -12.528  1.00  0.00    -0.031 C 
ENDROOT
BRANCH   1   3
ATOM      3  C   UNL     1      11.269  -9.668 -11.411  1.00  0.00     0.027 C 
BRANCH   3   4
ATOM      4  C   UNL     1      10.793  -9.749  -9.956  1.00  0.00     0.004 C 
BRANCH   4   5
ATOM      5  C   UNL     1      11.892  -9.274  -8.995  1.00  0.00     0.000 C 
BRANCH   5   6
ATOM      6  C   UNL     1      11.647  -7.850  -8.464  1.00  0.00     0.000 C 
BRANCH   6   7
ATOM      7  C   UNL     1      10.166  -7.422  -8.398  1.00  0.00     0.000 C 
BRANCH   7   8
ATOM      8  C   UNL     1       9.708  -6.865  -7.038  1.00  0.00     0.006 C 
BRANCH   8   9
ATOM      9  C   UNL     1       9.787  -7.902  -5.912  1.00  0.00     0.053 C 
BRANCH   9  10
ATOM     10  C   UNL     1      10.781  -7.477  -4.878  1.00  0.00     0.041 C 
ATOM     11  O   UNL     1      11.717  -6.692  -5.184  1.00  0.00    -0.550 OA
ATOM     12  O   UNL     1      10.701  -7.981  -3.587  1.00  0.00    -0.550 OA
ENDBRANCH   9  10
ENDBRANCH   8   9
ENDBRANCH   7   8
ENDBRANCH   6   7
ENDBRANCH   5   6
ENDBRANCH   4   5
ENDBRANCH   3   4
ENDBRANCH   1   3
BRANCH   2  13
ATOM     13  C   UNL     1      11.299  -6.681 -12.063  1.00  0.00     0.027 C 
BRANCH  13  14
ATOM     14  C   UNL     1      12.402  -6.530 -13.118  1.00  0.00     0.004 C 
BRANCH  14  15
ATOM     15  C   UNL     1      13.715  -6.064 -12.472  1.00  0.00     0.000 C 
BRANCH  15  16
ATOM     16  C   UNL     1      13.977  -6.715 -11.102  1.00  0.00     0.000 C 
BRANCH  16  17
ATOM     17  C   UNL     1      14.787  -8.024 -11.144  1.00  0.00    -0.000 C 
BRANCH  17  18
ATOM     18  C   UNL     1      15.372  -8.415  -9.778  1.00  0.00    -0.000 C 
BRANCH  18  19
ATOM     19  C   UNL     1      15.769  -7.170  -8.976  1.00  0.00    -0.003 C 
ATOM     20  C   UNL     1      15.353  -7.301  -7.513  1.00  0.00     0.004 C 
ENDBRANCH  18  19
ENDBRANCH  17  18
ENDBRANCH  16  17
ENDBRANCH  15  16
ENDBRANCH  14  15
ENDBRANCH  13  14
ENDBRANCH   2  13
TORSDOF 15
ENDMDL
MODEL 4
REMARK VINA RESULT:    -4.582      1.318      2.253
REMARK INTER + INTRA:         -11.435
REMARK INTER:                  -9.516
REMARK INTRA:                  -1.919
REMARK UNBOUND:                -2.835
REMARK SMILES CCCCCCCCC=CCCCCCCCC(=O)[O-]
REMARK SMILES IDX 10 1 9 2 11 3 12 4 13 5 14 6 15 7 16 8 17 9 18 10 19 11
REMARK SMILES IDX 20 12 8 13 7 14 6 15 5 16 4 17 3 18 2 19 1 20
REMARK H PARENT
REMARK Flexibility Score: inf
ROOT
ATOM      1  C   UNL     1       9.435  -7.627 -10.194  1.00  0.00    -0.031 C 
ATOM      2  C   UNL     1       9.998  -7.316  -9.011  1.00  0.00    -0.031 C 
ENDROOT
BRANCH   1   3
ATOM      3  C   UNL     1       9.577  -8.959 -10.887  1.00  0.00     0.027 C 
BRANCH   3   4
ATOM      4  C   UNL     1      10.611  -8.878 -12.014  1.00  0.00     0.004 C 
BRANCH   4   5
ATOM      5  C   UNL     1      10.411  -7.605 -12.849  1.00  0.00     0.000 C 
BRANCH   5   6
ATOM      6  C   UNL     1      11.729  -6.856 -13.121  1.00  0.00     0.000 C 
BRANCH   6   7
ATOM      7  C   UNL     1      12.760  -6.908 -11.974  1.00  0.00     0.000 C 
BRANCH   7   8
ATOM      8  C   UNL     1      14.148  -6.341 -12.319  1.00  0.00     0.006 C 
BRANCH   8   9
ATOM      9  C   UNL     1      14.881  -5.775 -11.097  1.00  0.00     0.053 C 
BRANCH   9  10
ATOM     10  C   UNL     1      16.312  -6.207 -11.098  1.00  0.00     0.041 C 
ATOM     11  O   UNL     1      16.767  -6.895 -10.146  1.00  0.00    -0.550 OA
ATOM     12  O   UNL     1      17.157  -5.815 -12.128  1.00  0.00    -0.550 OA
ENDBRANCH   9  10
ENDBRANCH   8   9
ENDBRANCH   7   8
ENDBRANCH   6   7
ENDBRANCH   5   6
ENDBRANCH   4   5
ENDBRANCH   3   4
ENDBRANCH   1   3
BRANCH   2  13
ATOM     13  C   UNL     1      10.924  -8.223  -8.242  1.00  0.00     0.027 C 
BRANCH  13  14
ATOM     14  C   UNL     1      12.362  -7.694  -8.277  1.00  0.00     0.004 C 
BRANCH  14  15
ATOM     15  C   UNL     1      13.111  -8.061  -6.988  1.00  0.00     0.000 C 
BRANCH  15  16
ATOM     16  C   UNL     1      12.995  -6.982  -5.896  1.00  0.00     0.000 C 
BRANCH  16  17
ATOM     17  C   UNL     1      12.234  -7.413  -4.628  1.00  0.00    -0.000 C 
BRANCH  17  18
ATOM     18  C   UNL     1      11.743  -8.868  -4.686  1.00  0.00    -0.000 C 
BRANCH  18  19
ATOM     19  C   UNL     1      10.223  -8.941  -4.502  1.00  0.00    -0.003 C 
ATOM     20  C   UNL     1       9.541  -7.691  -5.049  1.00  0.00     0.004 C 
ENDBRANCH  18  19
ENDBRANCH  17  18
ENDBRANCH  16  17
ENDBRANCH  15  16
ENDBRANCH  14  15
ENDBRANCH  13  14
ENDBRANCH   2  13
TORSDOF 15
ENDMDL
MODEL 5
REMARK VINA RESULT:    -4.563      2.002      3.979
REMARK INTER + INTRA:         -11.400
REMARK INTER:                  -8.303
REMARK INTRA:                  -3.097
REMARK UNBOUND:                -2.835
REMARK SMILES CCCCCCCCC=CCCCCCCCC(=O)[O-]
REMARK SMILES IDX 10 1 9 2 11 3 12 4 13 5 14 6 15 7 16 8 17 9 18 10 19 11
REMARK SMILES IDX 20 12 8 13 7 14 6 15 5 16 4 17 3 18 2 19 1 20
REMARK H PARENT
REMARK Flexibility Score: inf
ROOT
ATOM      1  C   UNL     1      12.379 -10.424  -9.352  1.00  0.00    -0.031 C 
ATOM      2  C   UNL     1      11.377 -11.059  -9.990  1.00  0.00    -0.031 C 
ENDROOT
BRANCH   1   3
ATOM      3  C   UNL     1      13.430  -9.582 -10.032  1.00  0.00     0.027 C 
BRANCH   3   4
ATOM      4  C   UNL     1      13.556  -8.215  -9.353  1.00  0.00     0.004 C 
BRANCH   4   5
ATOM      5  C   UNL     1      13.204  -7.085 -10.331  1.00  0.00     0.000 C 
BRANCH   5   6
ATOM      6  C   UNL     1      13.685  -7.366 -11.767  1.00  0.00     0.000 C 
BRANCH   6   7
ATOM      7  C   UNL     1      14.336  -6.167 -12.485  1.00  0.00     0.000 C 
BRANCH   7   8
ATOM      8  C   UNL     1      15.839  -6.321 -12.782  1.00  0.00     0.006 C 
BRANCH   8   9
ATOM      9  C   UNL     1      16.487  -7.465 -11.994  1.00  0.00     0.053 C 
BRANCH   9  10
ATOM     10  C   UNL     1      17.277  -6.927 -10.844  1.00  0.00     0.041 C 
ATOM     11  O   UNL     1      16.689  -6.513  -9.810  1.00  0.00    -0.550 OA
ATOM     12  O   UNL     1      18.661  -6.840 -10.928  1.00  0.00    -0.550 OA
ENDBRANCH   9  10
ENDBRANCH   8   9
ENDBRANCH   7   8
ENDBRANCH   6   7
ENDBRANCH   5   6
ENDBRANCH   4   5
ENDBRANCH   3   4
ENDBRANCH   1   3
BRANCH   2  13
ATOM     13  C   UNL     1      11.204 -11.092 -11.487  1.00  0.00     0.027 C 
BRANCH  13  14
ATOM     14  C   UNL     1      10.016 -10.225 -11.920  1.00  0.00     0.004 C 
BRANCH  14  15
ATOM     15  C   UNL     1      10.498  -8.876 -12.473  1.00  0.00     0.000 C 
BRANCH  15  16
ATOM     16  C   UNL     1       9.836  -7.671 -11.782  1.00  0.00     0.000 C 
BRANCH  16  17
ATOM     17  C   UNL     1       9.095  -7.994 -10.471  1.00  0.00    -0.000 C 
BRANCH  17  18
ATOM     18  C   UNL     1       9.637  -7.213  -9.264  1.00  0.00    -0.000 C 
BRANCH  18  19
ATOM     19  C   UNL     1       9.765  -8.121  -8.036  1.00  0.00    -0.003 C 
ATOM     20  C   UNL     1      10.764  -7.552  -7.031  1.00  0.00     0.004 C 
ENDBRANCH  18  19
ENDBRANCH  17  18
ENDBRANCH  16  17
ENDBRANCH  15  16
ENDBRANCH  14  15
ENDBRANCH  13  14
ENDBRANCH   2  13
TORSDOF 15
ENDMDL
MODEL 6
REMARK VINA RESULT:    -4.562      3.030      6.653
REMARK INTER + INTRA:         -11.397
REMARK INTER:                  -9.066
REMARK INTRA:                  -2.331
REMARK UNBOUND:                -2.835
REMARK SMILES CCCCCCCCC=CCCCCCCCC(=O)[O-]
REMARK SMILES IDX 10 1 9 2 11 3 12 4 13 5 14 6 15 7 16 8 17 9 18 10 19 11
REMARK SMILES IDX 20 12 8 13 7 14 6 15 5 16 4 17 3 18 2 19 1 20
REMARK H PARENT
REMARK Flexibility Score: inf
ROOT
ATOM      1  C   UNL     1      12.693  -6.833 -13.083  1.00  0.00    -0.031 C 
ATOM      2  C   UNL     1      13.896  -6.726 -12.488  1.00  0.00    -0.031 C 
ENDROOT
BRANCH   1   3
ATOM      3  C   UNL     1      11.378  -6.496 -12.426  1.00  0.00     0.027 C 
BRANCH   3   4
ATOM      4  C   UNL     1      10.346  -7.601 -12.674  1.00  0.00     0.004 C 
BRANCH   4   5
ATOM      5  C   UNL     1      10.754  -8.900 -11.965  1.00  0.00     0.000 C 
BRANCH   5   6
ATOM      6  C   UNL     1      10.347  -8.923 -10.480  1.00  0.00     0.000 C 
BRANCH   6   7
ATOM      7  C   UNL     1       9.243  -7.919 -10.089  1.00  0.00     0.000 C 
BRANCH   7   8
ATOM      8  C   UNL     1       9.618  -6.944  -8.958  1.00  0.00     0.006 C 
BRANCH   8   9
ATOM      9  C   UNL     1      10.764  -7.462  -8.081  1.00  0.00     0.053 C 
BRANCH   9  10
ATOM     10  C   UNL     1      10.328  -7.556  -6.653  1.00  0.00     0.041 C 
ATOM     11  O   UNL     1      10.890  -6.853  -5.772  1.00  0.00    -0.550 OA
ATOM     12  O   UNL     1       9.331  -8.451  -6.287  1.00  0.00    -0.550 OA
ENDBRANCH   9  10
ENDBRANCH   8   9
ENDBRANCH   7   8
ENDBRANCH   6   7
ENDBRANCH   5   6
ENDBRANCH   4   5
ENDBRANCH   3   4
ENDBRANCH   1   3
BRANCH   2  13
ATOM     13  C   UNL     1      14.102  -6.333 -11.047  1.00  0.00     0.027 C 
BRANCH  13  14
ATOM     14  C   UNL     1      13.993  -7.554 -10.126  1.00  0.00     0.004 C 
BRANCH  14  15
ATOM     15  C   UNL     1      14.929  -8.677 -10.595  1.00  0.00     0.000 C 
BRANCH  15  16
ATOM     16  C   UNL     1      16.253  -8.725  -9.811  1.00  0.00     0.000 C 
BRANCH  16  17
ATOM     17  C   UNL     1      17.400  -7.891 -10.412  1.00  0.00    -0.000 C 
BRANCH  17  18
ATOM     18  C   UNL     1      17.778  -8.325 -11.837  1.00  0.00    -0.000 C 
BRANCH  18  19
ATOM     19  C   UNL     1      17.796  -7.124 -12.789  1.00  0.00    -0.003 C 
ATOM     20  C   UNL     1      17.665  -5.811 -12.023  1.00  0.00     0.004 C 
ENDBRANCH  18  19
ENDBRANCH  17  18
ENDBRANCH  16  17
ENDBRANCH  15  16
ENDBRANCH  14  15
ENDBRANCH  13  14
ENDBRANCH   2  13
TORSDOF 15
ENDMDL
MODEL 7
REMARK VINA RESULT:    -4.560      2.359      4.837
REMARK INTER + INTRA:         -11.393
REMARK INTER:                  -8.842
REMARK INTRA:                  -2.550
REMARK UNBOUND:                -2.835
REMARK SMILES CCCCCCCCC=CCCCCCCCC(=O)[O-]
REMARK SMILES IDX 10 1 9 2 11 3 12 4 13 5 14 6 15 7 16 8 17 9 18 10 19 11
REMARK SMILES IDX 20 12 8 13 7 14 6 15 5 16 4 17 3 18 2 19 1 20
REMARK H PARENT
REMARK Flexibility Score: inf
ROOT
ATOM      1  C   UNL     1      13.765  -6.632 -12.298  1.00  0.00    -0.031 C 
ATOM      2  C   UNL     1      12.549  -6.528 -12.866  1.00  0.00    -0.031 C 
ENDROOT
BRANCH   1   3
ATOM      3  C   UNL     1      14.009  -7.014 -10.859  1.00  0.00     0.027 C 
BRANCH   3   4
ATOM      4  C   UNL     1      14.204  -8.528 -10.724  1.00  0.00     0.004 C 
BRANCH   4   5
ATOM      5  C   UNL     1      14.670  -8.894  -9.307  1.00  0.00     0.000 C 
BRANCH   5   6
ATOM      6  C   UNL     1      16.129  -9.384  -9.266  1.00  0.00     0.000 C 
BRANCH   6   7
ATOM      7  C   UNL     1      16.712  -9.818 -10.627  1.00  0.00     0.000 C 
BRANCH   7   8
ATOM      8  C   UNL     1      17.903  -8.978 -11.124  1.00  0.00     0.006 C 
BRANCH   8   9
ATOM      9  C   UNL     1      17.753  -7.486 -10.807  1.00  0.00     0.053 C 
BRANCH   9  10
ATOM     10  C   UNL     1      17.797  -6.677 -12.064  1.00  0.00     0.041 C 
ATOM     11  O   UNL     1      17.894  -5.423 -12.007  1.00  0.00    -0.550 OA
ATOM     12  O   UNL     1      17.686  -7.303 -13.299  1.00  0.00    -0.550 OA
ENDBRANCH   9  10
ENDBRANCH   8   9
ENDBRANCH   7   8
ENDBRANCH   6   7
ENDBRANCH   5   6
ENDBRANCH   4   5
ENDBRANCH   3   4
ENDBRANCH   1   3
BRANCH   2  13
ATOM     13  C   UNL     1      11.245  -6.697 -12.128  1.00  0.00     0.027 C 
BRANCH  13  14
ATOM     14  C   UNL     1      10.336  -7.702 -12.846  1.00  0.00     0.004 C 
BRANCH  14  15
ATOM     15  C   UNL     1      10.632  -9.135 -12.381  1.00  0.00     0.000 C 
BRANCH  15  16
ATOM     16  C   UNL     1       9.983  -9.475 -11.027  1.00  0.00     0.000 C 
BRANCH  16  17
ATOM     17  C   UNL     1      10.965  -9.893  -9.917  1.00  0.00    -0.000 C 
BRANCH  17  18
ATOM     18  C   UNL     1      10.691  -9.196  -8.575  1.00  0.00    -0.000 C 
BRANCH  18  19
ATOM     19  C   UNL     1      11.043  -7.706  -8.651  1.00  0.00    -0.003 C 
ATOM     20  C   UNL     1       9.788  -6.839  -8.599  1.00  0.00     0.004 C 
ENDBRANCH  18  19
ENDBRANCH  17  18
ENDBRANCH  16  17
ENDBRANCH  15  16
ENDBRANCH  14  15
ENDBRANCH  13  14
ENDBRANCH   2  13
TORSDOF 15
ENDMDL
MODEL 8
REMARK VINA RESULT:    -4.526      2.158      5.736
REMARK INTER + INTRA:         -11.330
REMARK INTER:                  -8.947
REMARK INTRA:                  -2.383
REMARK UNBOUND:                -2.835
REMARK SMILES CCCCCCCCC=CCCCCCCCC(=O)[O-]
REMARK SMILES IDX 10 1 9 2 11 3 12 4 13 5 14 6 15 7 16 8 17 9 18 10 19 11
REMARK SMILES IDX 20 12 8 13 7 14 6 15 5 16 4 17 3 18 2 19 1 20
REMARK H PARENT
REMARK Flexibility Score: inf
ROOT
ATOM      1  C   UNL     1       9.533  -6.714  -6.881  1.00  0.00    -0.031 C 
ATOM      2  C   UNL     1       9.853  -7.270  -8.065  1.00  0.00    -0.031 C 
ENDROOT
BRANCH   1   3
ATOM      3  C   UNL     1       9.144  -7.490  -5.648  1.00  0.00     0.027 C 
BRANCH   3   4
ATOM      4  C   UNL     1      10.320  -7.586  -4.671  1.00  0.00     0.004 C 
BRANCH   4   5
ATOM      5  C   UNL     1      10.941  -8.990  -4.699  1.00  0.00     0.000 C 
BRANCH   5   6
ATOM      6  C   UNL     1      12.209  -9.065  -5.570  1.00  0.00     0.000 C 
BRANCH   6   7
ATOM      7  C   UNL     1      12.858  -7.705  -5.898  1.00  0.00     0.000 C 
BRANCH   7   8
ATOM      8  C   UNL     1      13.509  -7.610  -7.290  1.00  0.00     0.006 C 
BRANCH   8   9
ATOM      9  C   UNL     1      13.413  -8.919  -8.082  1.00  0.00     0.053 C 
BRANCH   9  10
ATOM     10  C   UNL     1      14.769  -9.523  -8.261  1.00  0.00     0.041 C 
ATOM     11  O   UNL     1      15.760  -8.790  -8.516  1.00  0.00    -0.550 OA
ATOM     12  O   UNL     1      14.933 -10.901  -8.190  1.00  0.00    -0.550 OA
ENDBRANCH   9  10
ENDBRANCH   8   9
ENDBRANCH   7   8
ENDBRANCH   6   7
ENDBRANCH   5   6
ENDBRANCH   4   5
ENDBRANCH   3   4
ENDBRANCH   1   3
BRANCH   2  13
ATOM     13  C   UNL     1       9.790  -8.747  -8.359  1.00  0.00     0.027 C 
BRANCH  13  14
ATOM     14  C   UNL     1       9.736  -9.001  -9.871  1.00  0.00     0.004 C 
BRANCH  14  15
ATOM     15  C   UNL     1       9.070  -7.825 -10.599  1.00  0.00     0.000 C 
BRANCH  15  16
ATOM     16  C   UNL     1       9.856  -7.362 -11.839  1.00  0.00     0.000 C 
BRANCH  16  17
ATOM     17  C   UNL     1      11.286  -6.865 -11.559  1.00  0.00    -0.000 C 
BRANCH  17  18
ATOM     18  C   UNL     1      12.147  -6.760 -12.827  1.00  0.00    -0.000 C 
BRANCH  18  19
ATOM     19  C   UNL     1      13.523  -6.164 -12.508  1.00  0.00    -0.003 C 
ATOM     20  C   UNL     1      13.965  -6.525 -11.092  1.00  0.00     0.004 C 
ENDBRANCH  18  19
ENDBRANCH  17  18
ENDBRANCH  16  17
ENDBRANCH  15  16
ENDBRANCH  14  15
ENDBRANCH  13  14
ENDBRANCH   2  13
TORSDOF 15
ENDMDL
MODEL 9
REMARK VINA RESULT:    -4.491      1.989      4.162
REMARK INTER + INTRA:         -11.264
REMARK INTER:                  -8.625
REMARK INTRA:                  -2.639
REMARK UNBOUND:                -2.835
REMARK SMILES CCCCCCCCC=CCCCCCCCC(=O)[O-]
REMARK SMILES IDX 10 1 9 2 11 3 12 4 13 5 14 6 15 7 16 8 17 9 18 10 19 11
REMARK SMILES IDX 20 12 8 13 7 14 6 15 5 16 4 17 3 18 2 19 1 20
REMARK H PARENT
REMARK Flexibility Score: inf
ROOT
ATOM      1  C   UNL     1      11.719  -6.498 -12.078  1.00  0.00    -0.031 C 
ATOM      2  C   UNL     1      10.630  -7.290 -12.088  1.00  0.00    -0.031 C 
ENDROOT
BRANCH   1   3
ATOM      3  C   UNL     1      13.024  -6.828 -12.757  1.00  0.00     0.027 C 
BRANCH   3   4
ATOM      4  C   UNL     1      14.198  -6.160 -12.034  1.00  0.00     0.004 C 
BRANCH   4   5
ATOM      5  C   UNL     1      14.559  -6.926 -10.754  1.00  0.00     0.000 C 
BRANCH   5   6
ATOM      6  C   UNL     1      14.921  -8.399 -11.021  1.00  0.00     0.000 C 
BRANCH   6   7
ATOM      7  C   UNL     1      16.138  -8.926 -10.234  1.00  0.00     0.000 C 
BRANCH   7   8
ATOM      8  C   UNL     1      17.468  -8.919 -11.007  1.00  0.00     0.006 C 
BRANCH   8   9
ATOM      9  C   UNL     1      18.331  -7.690 -10.698  1.00  0.00     0.053 C 
BRANCH   9  10
ATOM     10  C   UNL     1      18.141  -6.639 -11.745  1.00  0.00     0.041 C 
ATOM     11  O   UNL     1      17.687  -6.949 -12.878  1.00  0.00    -0.550 OA
ATOM     12  O   UNL     1      18.505  -5.324 -11.486  1.00  0.00    -0.550 OA
ENDBRANCH   9  10
ENDBRANCH   8   9
ENDBRANCH   7   8
ENDBRANCH   6   7
ENDBRANCH   5   6
ENDBRANCH   4   5
ENDBRANCH   3   4
ENDBRANCH   1   3
BRANCH   2  13
ATOM     13  C   UNL     1      10.579  -8.662 -12.710  1.00  0.00     0.027 C 
BRANCH  13  14
ATOM     14  C   UNL     1      10.297  -9.733 -11.649  1.00  0.00     0.004 C 
BRANCH  14  15
ATOM     15  C   UNL     1      11.580 -10.098 -10.888  1.00  0.00     0.000 C 
BRANCH  15  16
ATOM     16  C   UNL     1      11.397 -10.089  -9.360  1.00  0.00     0.000 C 
BRANCH  16  17
ATOM     17  C   UNL     1      12.278  -9.079  -8.601  1.00  0.00    -0.000 C 
BRANCH  17  18
ATOM     18  C   UNL     1      11.661  -7.673  -8.534  1.00  0.00    -0.000 C 
BRANCH  18  19
ATOM     19  C   UNL     1      10.148  -7.749  -8.295  1.00  0.00    -0.003 C 
ATOM     20  C   UNL     1       9.746  -6.962  -7.052  1.00  0.00     0.004 C 
ENDBRANCH  18  19
ENDBRANCH  17  18
ENDBRANCH  16  17
ENDBRANCH  15  16
ENDBRANCH  14  15
ENDBRANCH  13  14
ENDBRANCH   2  13
TORSDOF 15
ENDMDL
