MODEL 1
REMARK VINA RESULT:    -2.823      0.000      0.000
REMARK INTER + INTRA:          -6.715
REMARK INTER:                  -5.463
REMARK INTRA:                  -1.253
REMARK UNBOUND:                -1.253
REMARK SMILES CCCCCCCCCCCCCCCCCC(=O)[O-]
REMARK SMILES IDX 10 1 11 2 12 3 13 4 14 5 15 6 16 7 17 8 18 9 19 10 20 11
REMARK SMILES IDX 9 12 8 13 7 14 6 15 5 16 4 17 3 18 2 19 1 20
REMARK H PARENT
REMARK Flexibility Score: inf
ROOT
ATOM      1  C   UNL     1      29.187  47.637  41.473  1.00  0.00     0.000 C 
ENDROOT
BRANCH   1   2
ATOM      2  C   UNL     1      30.286  46.559  41.524  1.00  0.00     0.000 C 
BRANCH   2   3
ATOM      3  C   UNL     1      29.810  45.151  41.939  1.00  0.00     0.000 C 
BRANCH   3   4
ATOM      4  C   UNL     1      28.289  44.997  42.125  1.00  0.00     0.000 C 
BRANCH   4   5
ATOM      5  C   UNL     1      27.830  43.530  42.101  1.00  0.00     0.000 C 
BRANCH   5   6
ATOM      6  C   UNL     1      26.514  43.325  41.330  1.00  0.00     0.000 C 
BRANCH   6   7
ATOM      7  C   UNL     1      26.616  42.430  40.077  1.00  0.00     0.006 C 
BRANCH   7   8
ATOM      8  C   UNL     1      26.454  40.927  40.351  1.00  0.00     0.053 C 
BRANCH   8   9
ATOM      9  C   UNL     1      27.756  40.194  40.246  1.00  0.00     0.041 C 
ATOM     10  O   UNL     1      28.569  40.210  41.207  1.00  0.00    -0.550 OA
ATOM     11  O   UNL     1      28.054  39.465  39.103  1.00  0.00    -0.550 OA
ENDBRANCH   8   9
ENDBRANCH   7   8
ENDBRANCH   6   7
ENDBRANCH   5   6
ENDBRANCH   4   5
ENDBRANCH   3   4
ENDBRANCH   2   3
ENDBRANCH   1   2
BRANCH   1  12
ATOM     12  C   UNL     1      29.640  48.918  40.753  1.00  0.00     0.000 C 
BRANCH  12  13
ATOM     13  C   UNL     1      30.235  49.956  41.717  1.00  0.00    -0.000 C 
BRANCH  13  14
ATOM     14  C   UNL     1      29.337  51.197  41.880  1.00  0.00    -0.000 C 
BRANCH  14  15
ATOM     15  C   UNL     1      27.896  50.951  41.405  1.00  0.00    -0.000 C 
BRANCH  15  16
ATOM     16  C   UNL     1      27.281  52.185  40.725  1.00  0.00    -0.000 C 
BRANCH  16  17
ATOM     17  C   UNL     1      28.265  53.363  40.623  1.00  0.00    -0.000 C 
BRANCH  17  18
ATOM     18  C   UNL     1      28.469  53.878  39.182  1.00  0.00    -0.000 C 
BRANCH  18  19
ATOM     19  C   UNL     1      28.790  52.740  38.201  1.00  0.00    -0.003 C 
ATOM     20  C   UNL     1      30.173  52.155  38.469  1.00  0.00     0.004 C 
ENDBRANCH  18  19
ENDBRANCH  17  18
ENDBRANCH  16  17
ENDBRANCH  15  16
ENDBRANCH  14  15
ENDBRANCH  13  14
ENDBRANCH  12  13
ENDBRANCH   1  12
TORSDOF 16
ENDMDL
MODEL 2
REMARK VINA RESULT:    -2.777     14.056     17.582
REMARK INTER + INTRA:          -6.628
REMARK INTER:                  -4.960
REMARK INTRA:                  -1.667
REMARK UNBOUND:                -1.253
REMARK SMILES CCCCCCCCCCCCCCCCCC(=O)[O-]
REMARK SMILES IDX 10 1 11 2 12 3 13 4 14 5 15 6 16 7 17 8 18 9 19 10 20 11
REMARK SMILES IDX 9 12 8 13 7 14 6 15 5 16 4 17 3 18 2 19 1 20
REMARK H PARENT
REMARK Flexibility Score: inf
ROOT
ATOM      1  C   UNL     1      25.324  40.580  24.997  1.00  0.00     0.000 C 
ENDROOT
BRANCH   1   2
ATOM      2  C   UNL     1      24.986  40.239  26.460  1.00  0.00     0.000 C 
BRANCH   2   3
ATOM      3  C   UNL     1      25.501  41.249  27.507  1.00  0.00     0.000 C 
BRANCH   3   4
ATOM      4  C   UNL     1      25.593  42.709  27.026  1.00  0.00     0.000 C 
BRANCH   4   5
ATOM      5  C   UNL     1      27.040  43.165  26.776  1.00  0.00     0.000 C 
BRANCH   5   6
ATOM      6  C   UNL     1      28.082  42.236  27.423  1.00  0.00     0.000 C 
BRANCH   6   7
ATOM      7  C   UNL     1      29.422  42.120  26.667  1.00  0.00     0.006 C 
BRANCH   7   8
ATOM      8  C   UNL     1      29.636  43.184  25.579  1.00  0.00     0.053 C 
BRANCH   8   9
ATOM      9  C   UNL     1      30.547  44.281  26.039  1.00  0.00     0.041 C 
ATOM     10  O   UNL     1      31.691  44.408  25.527  1.00  0.00    -0.550 OA
ATOM     11  O   UNL     1      30.121  45.181  27.005  1.00  0.00    -0.550 OA
ENDBRANCH   8   9
ENDBRANCH   7   8
ENDBRANCH   6   7
ENDBRANCH   5   6
ENDBRANCH   4   5
ENDBRANCH   3   4
ENDBRANCH   2   3
ENDBRANCH   1   2
BRANCH   1  12
ATOM     12  C   UNL     1      25.093  39.398  24.040  1.00  0.00     0.000 C 
BRANCH  12  13
ATOM     13  C   UNL     1      25.385  38.042  24.699  1.00  0.00    -0.000 C 
BRANCH  13  14
ATOM     14  C   UNL     1      26.884  37.687  24.688  1.00  0.00    -0.000 C 
BRANCH  14  15
ATOM     15  C   UNL     1      27.396  37.238  26.066  1.00  0.00    -0.000 C 
BRANCH  15  16
ATOM     16  C   UNL     1      26.254  36.931  27.047  1.00  0.00    -0.000 C 
BRANCH  16  17
ATOM     17  C   UNL     1      26.492  37.526  28.446  1.00  0.00    -0.000 C 
BRANCH  17  18
ATOM     18  C   UNL     1      25.314  37.311  29.420  1.00  0.00    -0.000 C 
BRANCH  18  19
ATOM     19  C   UNL     1      25.788  36.876  30.815  1.00  0.00    -0.003 C 
ATOM     20  C   UNL     1      26.310  38.065  31.616  1.00  0.00     0.004 C 
ENDBRANCH  18  19
ENDBRANCH  17  18
ENDBRANCH  16  17
ENDBRANCH  15  16
ENDBRANCH  14  15
ENDBRANCH  13  14
ENDBRANCH  12  13
ENDBRANCH   1  12
TORSDOF 16
ENDMDL
MODEL 3
REMARK VINA RESULT:    -2.727      8.416     10.985
REMARK INTER + INTRA:          -6.531
REMARK INTER:                  -4.025
REMARK INTRA:                  -2.506
REMARK UNBOUND:                -1.253
REMARK SMILES CCCCCCCCCCCCCCCCCC(=O)[O-]
REMARK SMILES IDX 10 1 11 2 12 3 13 4 14 5 15 6 16 7 17 8 18 9 19 10 20 11
REMARK SMILES IDX 9 12 8 13 7 14 6 15 5 16 4 17 3 18 2 19 1 20
REMARK H PARENT
REMARK Flexibility Score: inf
ROOT
ATOM      1  C   UNL     1      29.419  38.718  37.971  1.00  0.00     0.000 C 
ENDROOT
BRANCH   1   2
ATOM      2  C   UNL     1      29.159  37.515  37.045  1.00  0.00     0.000 C 
BRANCH   2   3
ATOM      3  C   UNL     1      27.693  37.040  36.977  1.00  0.00     0.000 C 
BRANCH   3   4
ATOM      4  C   UNL     1      26.645  38.063  37.452  1.00  0.00     0.000 C 
BRANCH   4   5
ATOM      5  C   UNL     1      25.805  37.554  38.635  1.00  0.00     0.000 C 
BRANCH   5   6
ATOM      6  C   UNL     1      26.663  36.964  39.768  1.00  0.00     0.000 C 
BRANCH   6   7
ATOM      7  C   UNL     1      26.951  37.922  40.944  1.00  0.00     0.006 C 
BRANCH   7   8
ATOM      8  C   UNL     1      26.300  39.307  40.813  1.00  0.00     0.053 C 
BRANCH   8   9
ATOM      9  C   UNL     1      27.307  40.375  40.516  1.00  0.00     0.041 C 
ATOM     10  O   UNL     1      27.212  41.057  39.461  1.00  0.00    -0.550 OA
ATOM     11  O   UNL     1      28.328  40.641  41.418  1.00  0.00    -0.550 OA
ENDBRANCH   8   9
ENDBRANCH   7   8
ENDBRANCH   6   7
ENDBRANCH   5   6
ENDBRANCH   4   5
ENDBRANCH   3   4
ENDBRANCH   2   3
ENDBRANCH   1   2
BRANCH   1  12
ATOM     12  C   UNL     1      30.149  38.328  39.267  1.00  0.00     0.000 C 
BRANCH  12  13
ATOM     13  C   UNL     1      31.079  37.120  39.077  1.00  0.00    -0.000 C 
BRANCH  13  14
ATOM     14  C   UNL     1      32.507  37.383  39.591  1.00  0.00    -0.000 C 
BRANCH  14  15
ATOM     15  C   UNL     1      33.574  37.169  38.507  1.00  0.00    -0.000 C 
BRANCH  15  16
ATOM     16  C   UNL     1      33.046  37.465  37.093  1.00  0.00    -0.000 C 
BRANCH  16  17
ATOM     17  C   UNL     1      33.279  38.923  36.661  1.00  0.00    -0.000 C 
BRANCH  17  18
ATOM     18  C   UNL     1      32.269  39.426  35.608  1.00  0.00    -0.000 C 
BRANCH  18  19
ATOM     19  C   UNL     1      32.666  39.014  34.182  1.00  0.00    -0.003 C 
ATOM     20  C   UNL     1      31.713  37.959  33.629  1.00  0.00     0.004 C 
ENDBRANCH  18  19
ENDBRANCH  17  18
ENDBRANCH  16  17
ENDBRANCH  15  16
ENDBRANCH  14  15
ENDBRANCH  13  14
ENDBRANCH  12  13
ENDBRANCH   1  12
TORSDOF 16
ENDMDL
MODEL 4
REMARK VINA RESULT:    -2.676      4.285      9.676
REMARK INTER + INTRA:          -6.432
REMARK INTER:                  -5.669
REMARK INTRA:                  -0.764
REMARK UNBOUND:                -1.253
REMARK SMILES CCCCCCCCCCCCCCCCCC(=O)[O-]
REMARK SMILES IDX 10 1 11 2 12 3 13 4 14 5 15 6 16 7 17 8 18 9 19 10 20 11
REMARK SMILES IDX 9 12 8 13 7 14 6 15 5 16 4 17 3 18 2 19 1 20
REMARK H PARENT
REMARK Flexibility Score: inf
ROOT
ATOM      1  C   UNL     1      28.568  45.529  42.082  1.00  0.00     0.000 C 
ENDROOT
BRANCH   1   2
ATOM      2  C   UNL     1      29.523  45.990  40.965  1.00  0.00     0.000 C 
BRANCH   2   3
ATOM      3  C   UNL     1      30.790  46.728  41.445  1.00  0.00     0.000 C 
BRANCH   3   4
ATOM      4  C   UNL     1      30.599  48.220  41.777  1.00  0.00     0.000 C 
BRANCH   4   5
ATOM      5  C   UNL     1      29.821  48.979  40.691  1.00  0.00     0.000 C 
BRANCH   5   6
ATOM      6  C   UNL     1      30.710  49.931  39.871  1.00  0.00     0.000 C 
BRANCH   6   7
ATOM      7  C   UNL     1      29.956  51.024  39.084  1.00  0.00     0.006 C 
BRANCH   7   8
ATOM      8  C   UNL     1      28.467  51.154  39.440  1.00  0.00     0.053 C 
BRANCH   8   9
ATOM      9  C   UNL     1      28.184  52.396  40.229  1.00  0.00     0.041 C 
ATOM     10  O   UNL     1      27.044  52.580  40.731  1.00  0.00    -0.550 OA
ATOM     11  O   UNL     1      29.189  53.331  40.440  1.00  0.00    -0.550 OA
ENDBRANCH   8   9
ENDBRANCH   7   8
ENDBRANCH   6   7
ENDBRANCH   5   6
ENDBRANCH   4   5
ENDBRANCH   3   4
ENDBRANCH   2   3
ENDBRANCH   1   2
BRANCH   1  12
ATOM     12  C   UNL     1      28.056  44.094  41.875  1.00  0.00     0.000 C 
BRANCH  12  13
ATOM     13  C   UNL     1      26.545  43.966  42.125  1.00  0.00    -0.000 C 
BRANCH  13  14
ATOM     14  C   UNL     1      25.930  42.740  41.426  1.00  0.00    -0.000 C 
BRANCH  14  15
ATOM     15  C   UNL     1      26.362  42.619  39.956  1.00  0.00    -0.000 C 
BRANCH  15  16
ATOM     16  C   UNL     1      25.167  42.453  39.002  1.00  0.00    -0.000 C 
BRANCH  16  17
ATOM     17  C   UNL     1      25.415  41.394  37.914  1.00  0.00    -0.000 C 
BRANCH  17  18
ATOM     18  C   UNL     1      25.375  39.944  38.440  1.00  0.00    -0.000 C 
BRANCH  18  19
ATOM     19  C   UNL     1      26.766  39.292  38.449  1.00  0.00    -0.003 C 
ATOM     20  C   UNL     1      27.485  39.549  39.770  1.00  0.00     0.004 C 
ENDBRANCH  18  19
ENDBRANCH  17  18
ENDBRANCH  16  17
ENDBRANCH  15  16
ENDBRANCH  14  15
ENDBRANCH  13  14
ENDBRANCH  12  13
ENDBRANCH   1  12
TORSDOF 16
ENDMDL
MODEL 5
REMARK VINA RESULT:    -2.648      1.370      2.724
REMARK INTER + INTRA:          -6.377
REMARK INTER:                  -5.496
REMARK INTRA:                  -0.880
REMARK UNBOUND:                -1.253
REMARK SMILES CCCCCCCCCCCCCCCCCC(=O)[O-]
REMARK SMILES IDX 10 1 11 2 12 3 13 4 14 5 15 6 16 7 17 8 18 9 19 10 20 11
REMARK SMILES IDX 9 12 8 13 7 14 6 15 5 16 4 17 3 18 2 19 1 20
REMARK H PARENT
REMARK Flexibility Score: inf
ROOT
ATOM      1  C   UNL     1      29.034  45.104  41.937  1.00  0.00     0.000 C 
ENDROOT
BRANCH   1   2
ATOM      2  C   UNL     1      27.554  44.721  42.125  1.00  0.00     0.000 C 
BRANCH   2   3
ATOM      3  C   UNL     1      27.142  43.363  41.519  1.00  0.00     0.000 C 
BRANCH   3   4
ATOM      4  C   UNL     1      25.655  42.994  41.674  1.00  0.00     0.000 C 
BRANCH   4   5
ATOM      5  C   UNL     1      24.996  42.598  40.343  1.00  0.00     0.000 C 
BRANCH   5   6
ATOM      6  C   UNL     1      25.242  41.126  39.967  1.00  0.00     0.000 C 
BRANCH   6   7
ATOM      7  C   UNL     1      26.310  40.893  38.878  1.00  0.00     0.006 C 
BRANCH   7   8
ATOM      8  C   UNL     1      27.603  40.233  39.382  1.00  0.00     0.053 C 
BRANCH   8   9
ATOM      9  C   UNL     1      28.064  39.135  38.473  1.00  0.00     0.041 C 
ATOM     10  O   UNL     1      29.290  38.861  38.385  1.00  0.00    -0.550 OA
ATOM     11  O   UNL     1      27.138  38.394  37.752  1.00  0.00    -0.550 OA
ENDBRANCH   8   9
ENDBRANCH   7   8
ENDBRANCH   6   7
ENDBRANCH   5   6
ENDBRANCH   4   5
ENDBRANCH   3   4
ENDBRANCH   2   3
ENDBRANCH   1   2
BRANCH   1  12
ATOM     12  C   UNL     1      29.269  46.623  41.991  1.00  0.00     0.000 C 
BRANCH  12  13
ATOM     13  C   UNL     1      29.573  47.221  40.608  1.00  0.00    -0.000 C 
BRANCH  13  14
ATOM     14  C   UNL     1      30.342  48.552  40.694  1.00  0.00    -0.000 C 
BRANCH  14  15
ATOM     15  C   UNL     1      29.594  49.616  41.513  1.00  0.00    -0.000 C 
BRANCH  15  16
ATOM     16  C   UNL     1      29.980  51.049  41.110  1.00  0.00    -0.000 C 
BRANCH  16  17
ATOM     17  C   UNL     1      29.819  51.309  39.602  1.00  0.00    -0.000 C 
BRANCH  17  18
ATOM     18  C   UNL     1      28.348  51.348  39.134  1.00  0.00    -0.000 C 
BRANCH  18  19
ATOM     19  C   UNL     1      27.605  52.584  39.662  1.00  0.00    -0.003 C 
ATOM     20  C   UNL     1      28.380  53.864  39.362  1.00  0.00     0.004 C 
ENDBRANCH  18  19
ENDBRANCH  17  18
ENDBRANCH  16  17
ENDBRANCH  15  16
ENDBRANCH  14  15
ENDBRANCH  13  14
ENDBRANCH  12  13
ENDBRANCH   1  12
TORSDOF 16
ENDMDL
MODEL 6
REMARK VINA RESULT:    -2.615      9.627     13.955
REMARK INTER + INTRA:          -6.314
REMARK INTER:                  -5.610
REMARK INTRA:                  -0.704
REMARK UNBOUND:                -1.253
REMARK SMILES CCCCCCCCCCCCCCCCCC(=O)[O-]
REMARK SMILES IDX 10 1 11 2 12 3 13 4 14 5 15 6 16 7 17 8 18 9 19 10 20 11
REMARK SMILES IDX 9 12 8 13 7 14 6 15 5 16 4 17 3 18 2 19 1 20
REMARK H PARENT
REMARK Flexibility Score: inf
ROOT
ATOM      1  C   UNL     1      25.794  37.892  32.766  1.00  0.00     0.000 C 
ENDROOT
BRANCH   1   2
ATOM      2  C   UNL     1      24.970  38.288  31.527  1.00  0.00     0.000 C 
BRANCH   2   3
ATOM      3  C   UNL     1      25.757  38.341  30.201  1.00  0.00     0.000 C 
BRANCH   3   4
ATOM      4  C   UNL     1      25.252  39.372  29.174  1.00  0.00     0.000 C 
BRANCH   4   5
ATOM      5  C   UNL     1      24.892  38.740  27.820  1.00  0.00     0.000 C 
BRANCH   5   6
ATOM      6  C   UNL     1      24.941  39.746  26.657  1.00  0.00     0.000 C 
BRANCH   6   7
ATOM      7  C   UNL     1      25.622  41.093  26.979  1.00  0.00     0.006 C 
BRANCH   7   8
ATOM      8  C   UNL     1      27.053  41.230  26.436  1.00  0.00     0.053 C 
BRANCH   8   9
ATOM      9  C   UNL     1      27.283  42.561  25.788  1.00  0.00     0.041 C 
ATOM     10  O   UNL     1      26.593  42.906  24.792  1.00  0.00    -0.550 OA
ATOM     11  O   UNL     1      28.232  43.432  26.304  1.00  0.00    -0.550 OA
ENDBRANCH   8   9
ENDBRANCH   7   8
ENDBRANCH   6   7
ENDBRANCH   5   6
ENDBRANCH   4   5
ENDBRANCH   3   4
ENDBRANCH   2   3
ENDBRANCH   1   2
BRANCH   1  12
ATOM     12  C   UNL     1      25.077  38.213  34.088  1.00  0.00     0.000 C 
BRANCH  12  13
ATOM     13  C   UNL     1      25.741  37.536  35.297  1.00  0.00    -0.000 C 
BRANCH  13  14
ATOM     14  C   UNL     1      24.875  37.610  36.568  1.00  0.00    -0.000 C 
BRANCH  14  15
ATOM     15  C   UNL     1      25.171  38.858  37.414  1.00  0.00    -0.000 C 
BRANCH  15  16
ATOM     16  C   UNL     1      26.556  38.804  38.080  1.00  0.00    -0.000 C 
BRANCH  16  17
ATOM     17  C   UNL     1      26.919  40.109  38.810  1.00  0.00    -0.000 C 
BRANCH  17  18
ATOM     18  C   UNL     1      25.874  40.544  39.860  1.00  0.00    -0.000 C 
BRANCH  18  19
ATOM     19  C   UNL     1      25.410  41.993  39.651  1.00  0.00    -0.003 C 
ATOM     20  C   UNL     1      25.460  42.380  38.176  1.00  0.00     0.004 C 
ENDBRANCH  18  19
ENDBRANCH  17  18
ENDBRANCH  16  17
ENDBRANCH  15  16
ENDBRANCH  14  15
ENDBRANCH  13  14
ENDBRANCH  12  13
ENDBRANCH   1  12
TORSDOF 16
ENDMDL
MODEL 7
REMARK VINA RESULT:    -2.561     11.190     14.093
REMARK INTER + INTRA:          -6.209
REMARK INTER:                  -5.289
REMARK INTRA:                  -0.920
REMARK UNBOUND:                -1.253
REMARK SMILES CCCCCCCCCCCCCCCCCC(=O)[O-]
REMARK SMILES IDX 10 1 11 2 12 3 13 4 14 5 15 6 16 7 17 8 18 9 19 10 20 11
REMARK SMILES IDX 9 12 8 13 7 14 6 15 5 16 4 17 3 18 2 19 1 20
REMARK H PARENT
REMARK Flexibility Score: inf
ROOT
ATOM      1  C   UNL     1      26.225  39.904  28.551  1.00  0.00     0.000 C 
ENDROOT
BRANCH   1   2
ATOM      2  C   UNL     1      24.903  39.602  29.282  1.00  0.00     0.000 C 
BRANCH   2   3
ATOM      3  C   UNL     1      24.976  38.480  30.338  1.00  0.00     0.000 C 
BRANCH   3   4
ATOM      4  C   UNL     1      26.381  38.191  30.899  1.00  0.00     0.000 C 
BRANCH   4   5
ATOM      5  C   UNL     1      26.347  37.531  32.287  1.00  0.00     0.000 C 
BRANCH   5   6
ATOM      6  C   UNL     1      25.399  38.245  33.266  1.00  0.00     0.000 C 
BRANCH   6   7
ATOM      7  C   UNL     1      24.981  37.418  34.500  1.00  0.00     0.006 C 
BRANCH   7   8
ATOM      8  C   UNL     1      25.884  37.605  35.730  1.00  0.00     0.053 C 
BRANCH   8   9
ATOM      9  C   UNL     1      25.198  38.376  36.816  1.00  0.00     0.041 C 
ATOM     10  O   UNL     1      24.942  37.824  37.919  1.00  0.00    -0.550 OA
ATOM     11  O   UNL     1      24.875  39.713  36.624  1.00  0.00    -0.550 OA
ENDBRANCH   8   9
ENDBRANCH   7   8
ENDBRANCH   6   7
ENDBRANCH   5   6
ENDBRANCH   4   5
ENDBRANCH   3   4
ENDBRANCH   2   3
ENDBRANCH   1   2
BRANCH   1  12
ATOM     12  C   UNL     1      26.329  39.198  27.188  1.00  0.00     0.000 C 
BRANCH  12  13
ATOM     13  C   UNL     1      25.197  39.599  26.230  1.00  0.00    -0.000 C 
BRANCH  13  14
ATOM     14  C   UNL     1      25.540  40.846  25.394  1.00  0.00    -0.000 C 
BRANCH  14  15
ATOM     15  C   UNL     1      25.840  42.077  26.264  1.00  0.00    -0.000 C 
BRANCH  15  16
ATOM     16  C   UNL     1      26.589  43.176  25.493  1.00  0.00    -0.000 C 
BRANCH  16  17
ATOM     17  C   UNL     1      28.118  43.044  25.599  1.00  0.00    -0.000 C 
BRANCH  17  18
ATOM     18  C   UNL     1      28.581  42.066  26.700  1.00  0.00    -0.000 C 
BRANCH  18  19
ATOM     19  C   UNL     1      29.930  42.476  27.309  1.00  0.00    -0.003 C 
ATOM     20  C   UNL     1      30.486  43.722  26.626  1.00  0.00     0.004 C 
ENDBRANCH  18  19
ENDBRANCH  17  18
ENDBRANCH  16  17
ENDBRANCH  15  16
ENDBRANCH  14  15
ENDBRANCH  13  14
ENDBRANCH  12  13
ENDBRANCH   1  12
TORSDOF 16
ENDMDL
MODEL 8
REMARK VINA RESULT:    -2.371      4.458      9.486
REMARK INTER + INTRA:          -5.841
REMARK INTER:                  -5.108
REMARK INTRA:                  -0.733
REMARK UNBOUND:                -1.253
REMARK SMILES CCCCCCCCCCCCCCCCCC(=O)[O-]
REMARK SMILES IDX 10 1 11 2 12 3 13 4 14 5 15 6 16 7 17 8 18 9 19 10 20 11
REMARK SMILES IDX 9 12 8 13 7 14 6 15 5 16 4 17 3 18 2 19 1 20
REMARK H PARENT
REMARK Flexibility Score: inf
ROOT
ATOM      1  C   UNL     1      29.025  45.616  41.184  1.00  0.00     0.000 C 
ENDROOT
BRANCH   1   2
ATOM      2  C   UNL     1      29.365  46.918  41.932  1.00  0.00     0.000 C 
BRANCH   2   3
ATOM      3  C   UNL     1      30.367  47.848  41.216  1.00  0.00     0.000 C 
BRANCH   3   4
ATOM      4  C   UNL     1      31.056  48.892  42.114  1.00  0.00     0.000 C 
BRANCH   4   5
ATOM      5  C   UNL     1      31.010  50.311  41.523  1.00  0.00     0.000 C 
BRANCH   5   6
ATOM      6  C   UNL     1      29.641  50.990  41.700  1.00  0.00     0.000 C 
BRANCH   6   7
ATOM      7  C   UNL     1      28.668  50.833  40.513  1.00  0.00     0.006 C 
BRANCH   7   8
ATOM      8  C   UNL     1      29.217  51.332  39.167  1.00  0.00     0.053 C 
BRANCH   8   9
ATOM      9  C   UNL     1      28.451  52.511  38.651  1.00  0.00     0.041 C 
ATOM     10  O   UNL     1      27.237  52.388  38.337  1.00  0.00    -0.550 OA
ATOM     11  O   UNL     1      29.067  53.751  38.549  1.00  0.00    -0.550 OA
ENDBRANCH   8   9
ENDBRANCH   7   8
ENDBRANCH   6   7
ENDBRANCH   5   6
ENDBRANCH   4   5
ENDBRANCH   3   4
ENDBRANCH   2   3
ENDBRANCH   1   2
BRANCH   1  12
ATOM     12  C   UNL     1      28.568  44.488  42.125  1.00  0.00     0.000 C 
BRANCH  12  13
ATOM     13  C   UNL     1      27.081  44.142  41.949  1.00  0.00    -0.000 C 
BRANCH  13  14
ATOM     14  C   UNL     1      26.832  42.625  41.856  1.00  0.00    -0.000 C 
BRANCH  14  15
ATOM     15  C   UNL     1      25.537  42.283  41.102  1.00  0.00    -0.000 C 
BRANCH  15  16
ATOM     16  C   UNL     1      25.523  40.838  40.580  1.00  0.00    -0.000 C 
BRANCH  16  17
ATOM     17  C   UNL     1      25.823  40.745  39.073  1.00  0.00    -0.000 C 
BRANCH  17  18
ATOM     18  C   UNL     1      26.077  42.114  38.407  1.00  0.00    -0.000 C 
BRANCH  18  19
ATOM     19  C   UNL     1      24.875  42.586  37.575  1.00  0.00    -0.003 C 
ATOM     20  C   UNL     1      24.880  41.949  36.189  1.00  0.00     0.004 C 
ENDBRANCH  18  19
ENDBRANCH  17  18
ENDBRANCH  16  17
ENDBRANCH  15  16
ENDBRANCH  14  15
ENDBRANCH  13  14
ENDBRANCH  12  13
ENDBRANCH   1  12
TORSDOF 16
ENDMDL
