MODEL 1
REMARK VINA RESULT:    -6.614      0.000      0.000
REMARK INTER + INTRA:          -8.351
REMARK INTER:                  -7.967
REMARK INTRA:                  -0.384
REMARK UNBOUND:                -0.384
REMARK SMILES O=c1c(O)c(-c2ccc(O)cc2O)oc2cc(O)cc(O)c12
REMARK SMILES IDX 5 1 3 2 2 3 1 4 22 5 20 6 19 7 17 8 16 9 15 10 14 11 6 12
REMARK SMILES IDX 8 13 7 14 9 15 11 16 12 17 10 18 13 20 4 22 21 24 18 26
REMARK H PARENT 10 19 13 21 4 23 21 25 18 27
REMARK Flexibility Score: inf
ROOT
ATOM      1  C   UNL     1      14.463  56.126  32.727  1.00  0.00     0.184 A 
ATOM      2  C   UNL     1      14.278  55.965  31.342  1.00  0.00     0.208 A 
ATOM      3  C   UNL     1      14.736  56.968  30.475  1.00  0.00     0.238 A 
ATOM      4  O   UNL     1      14.573  56.836  29.232  1.00  0.00    -0.285 OA
ATOM      5  C   UNL     1      15.376  58.109  31.006  1.00  0.00     0.111 A 
ATOM      6  C   UNL     1      15.869  59.163  30.202  1.00  0.00     0.134 A 
ATOM      7  C   UNL     1      16.497  60.264  30.806  1.00  0.00     0.093 A 
ATOM      8  C   UNL     1      16.641  60.328  32.194  1.00  0.00     0.123 A 
ATOM      9  C   UNL     1      16.155  59.289  32.994  1.00  0.00     0.094 A 
ATOM     10  C   UNL     1      15.525  58.184  32.411  1.00  0.00     0.146 A 
ATOM     11  O   UNL     1      15.072  57.212  33.194  1.00  0.00    -0.451 OA
ENDROOT
BRANCH   1  12
ATOM     12  C   UNL     1      13.985  55.112  33.690  1.00  0.00     0.063 A 
ATOM     13  C   UNL     1      12.329  54.410  35.330  1.00  0.00     0.047 A 
ATOM     14  C   UNL     1      12.776  55.326  34.374  1.00  0.00     0.020 A 
ATOM     15  C   UNL     1      13.085  53.273  35.620  1.00  0.00     0.119 A 
ATOM     16  C   UNL     1      14.292  53.050  34.946  1.00  0.00     0.093 A 
ATOM     17  C   UNL     1      14.745  53.955  33.979  1.00  0.00     0.130 A 
BRANCH  15  18
ATOM     18  O   UNL     1      12.629  52.371  36.579  1.00  0.00    -0.508 OA
ATOM     19  H   UNL     1      13.257  51.719  37.034  1.00  0.00     0.293 HD
ENDBRANCH  15  18
BRANCH  17  20
ATOM     20  O   UNL     1      15.938  53.665  33.313  1.00  0.00    -0.507 OA
ATOM     21  H   UNL     1      16.562  52.920  33.595  1.00  0.00     0.293 HD
ENDBRANCH  17  20
ENDBRANCH   1  12
BRANCH   2  22
ATOM     22  O   UNL     1      13.661  54.813  30.848  1.00  0.00    -0.502 OA
ATOM     23  H   UNL     1      14.183  54.068  30.402  1.00  0.00     0.293 HD
ENDBRANCH   2  22
BRANCH   6  24
ATOM     24  O   UNL     1      15.741  59.128  28.813  1.00  0.00    -0.507 OA
ATOM     25  H   UNL     1      14.838  59.025  28.364  1.00  0.00     0.293 HD
ENDBRANCH   6  24
BRANCH   8  26
ATOM     26  O   UNL     1      17.269  61.431  32.768  1.00  0.00    -0.508 OA
ATOM     27  H   UNL     1      17.357  61.527  33.773  1.00  0.00     0.293 HD
ENDBRANCH   8  26
TORSDOF 6
ENDMDL
MODEL 2
REMARK VINA RESULT:    -5.997      1.976      6.243
REMARK INTER + INTRA:          -7.607
REMARK INTER:                  -7.204
REMARK INTRA:                  -0.403
REMARK UNBOUND:                -0.384
REMARK SMILES O=c1c(O)c(-c2ccc(O)cc2O)oc2cc(O)cc(O)c12
REMARK SMILES IDX 5 1 3 2 2 3 1 4 22 5 20 6 19 7 17 8 16 9 15 10 14 11 6 12
REMARK SMILES IDX 8 13 7 14 9 15 11 16 12 17 10 18 13 20 4 22 21 24 18 26
REMARK H PARENT 10 19 13 21 4 23 21 25 18 27
REMARK Flexibility Score: inf
ROOT
ATOM      1  C   UNL     1      15.474  56.543  31.793  1.00  0.00     0.184 A 
ATOM      2  C   UNL     1      15.012  56.144  30.526  1.00  0.00     0.208 A 
ATOM      3  C   UNL     1      14.711  54.792  30.309  1.00  0.00     0.238 A 
ATOM      4  O   UNL     1      14.298  54.421  29.176  1.00  0.00    -0.285 OA
ATOM      5  C   UNL     1      14.869  53.865  31.361  1.00  0.00     0.111 A 
ATOM      6  C   UNL     1      14.586  52.485  31.227  1.00  0.00     0.134 A 
ATOM      7  C   UNL     1      14.767  51.628  32.323  1.00  0.00     0.093 A 
ATOM      8  C   UNL     1      15.223  52.123  33.546  1.00  0.00     0.123 A 
ATOM      9  C   UNL     1      15.506  53.485  33.685  1.00  0.00     0.094 A 
ATOM     10  C   UNL     1      15.333  54.356  32.605  1.00  0.00     0.146 A 
ATOM     11  O   UNL     1      15.610  55.645  32.763  1.00  0.00    -0.451 OA
ENDROOT
BRANCH   1  12
ATOM     12  C   UNL     1      15.824  57.951  32.075  1.00  0.00     0.063 A 
ATOM     13  C   UNL     1      15.139  60.157  32.843  1.00  0.00     0.047 A 
ATOM     14  C   UNL     1      14.851  58.808  32.618  1.00  0.00     0.020 A 
ATOM     15  C   UNL     1      16.398  60.669  32.525  1.00  0.00     0.119 A 
ATOM     16  C   UNL     1      17.375  59.825  31.981  1.00  0.00     0.093 A 
ATOM     17  C   UNL     1      17.102  58.470  31.761  1.00  0.00     0.130 A 
BRANCH  15  18
ATOM     18  O   UNL     1      16.669  62.016  32.750  1.00  0.00    -0.508 OA
ATOM     19  H   UNL     1      16.975  62.352  33.656  1.00  0.00     0.293 HD
ENDBRANCH  15  18
BRANCH  17  20
ATOM     20  O   UNL     1      18.124  57.666  31.250  1.00  0.00    -0.507 OA
ATOM     21  H   UNL     1      18.817  57.217  31.834  1.00  0.00     0.293 HD
ENDBRANCH  17  20
ENDBRANCH   1  12
BRANCH   2  22
ATOM     22  O   UNL     1      14.843  57.091  29.512  1.00  0.00    -0.502 OA
ATOM     23  H   UNL     1      14.749  56.830  28.538  1.00  0.00     0.293 HD
ENDBRANCH   2  22
BRANCH   6  24
ATOM     24  O   UNL     1      14.128  51.960  30.018  1.00  0.00    -0.507 OA
ATOM     25  H   UNL     1      14.357  52.391  29.129  1.00  0.00     0.293 HD
ENDBRANCH   6  24
BRANCH   8  26
ATOM     26  O   UNL     1      15.394  51.250  34.619  1.00  0.00    -0.508 OA
ATOM     27  H   UNL     1      15.420  50.246  34.487  1.00  0.00     0.293 HD
ENDBRANCH   8  26
TORSDOF 6
ENDMDL
MODEL 3
REMARK VINA RESULT:    -5.872      2.091      2.412
REMARK INTER + INTRA:          -7.457
REMARK INTER:                  -7.085
REMARK INTRA:                  -0.372
REMARK UNBOUND:                -0.384
REMARK SMILES O=c1c(O)c(-c2ccc(O)cc2O)oc2cc(O)cc(O)c12
REMARK SMILES IDX 5 1 3 2 2 3 1 4 22 5 20 6 19 7 17 8 16 9 15 10 14 11 6 12
REMARK SMILES IDX 8 13 7 14 9 15 11 16 12 17 10 18 13 20 4 22 21 24 18 26
REMARK H PARENT 10 19 13 21 4 23 21 25 18 27
REMARK Flexibility Score: inf
ROOT
ATOM      1  C   UNL     1      14.216  56.489  33.081  1.00  0.00     0.184 A 
ATOM      2  C   UNL     1      12.930  56.944  32.740  1.00  0.00     0.208 A 
ATOM      3  C   UNL     1      12.749  58.302  32.437  1.00  0.00     0.238 A 
ATOM      4  O   UNL     1      11.600  58.722  32.132  1.00  0.00    -0.285 OA
ATOM      5  C   UNL     1      13.856  59.177  32.472  1.00  0.00     0.111 A 
ATOM      6  C   UNL     1      13.760  60.558  32.177  1.00  0.00     0.134 A 
ATOM      7  C   UNL     1      14.908  61.362  32.231  1.00  0.00     0.093 A 
ATOM      8  C   UNL     1      16.146  60.814  32.572  1.00  0.00     0.123 A 
ATOM      9  C   UNL     1      16.248  59.450  32.866  1.00  0.00     0.094 A 
ATOM     10  C   UNL     1      15.115  58.631  32.819  1.00  0.00     0.146 A 
ATOM     11  O   UNL     1      15.238  57.340  33.102  1.00  0.00    -0.451 OA
ENDROOT
BRANCH   1  12
ATOM     12  C   UNL     1      14.465  55.075  33.428  1.00  0.00     0.063 A 
ATOM     13  C   UNL     1      14.157  53.222  34.977  1.00  0.00     0.047 A 
ATOM     14  C   UNL     1      13.894  54.541  34.597  1.00  0.00     0.020 A 
ATOM     15  C   UNL     1      14.997  52.422  34.202  1.00  0.00     0.119 A 
ATOM     16  C   UNL     1      15.574  52.944  33.037  1.00  0.00     0.093 A 
ATOM     17  C   UNL     1      15.310  54.259  32.639  1.00  0.00     0.130 A 
BRANCH  15  18
ATOM     18  O   UNL     1      15.255  51.111  34.596  1.00  0.00    -0.508 OA
ATOM     19  H   UNL     1      16.093  50.623  34.300  1.00  0.00     0.293 HD
ENDBRANCH  15  18
BRANCH  17  20
ATOM     20  O   UNL     1      15.882  54.717  31.450  1.00  0.00    -0.507 OA
ATOM     21  H   UNL     1      15.514  55.499  30.925  1.00  0.00     0.293 HD
ENDBRANCH  17  20
ENDBRANCH   1  12
BRANCH   2  22
ATOM     22  O   UNL     1      11.860  56.047  32.692  1.00  0.00    -0.502 OA
ATOM     23  H   UNL     1      11.754  55.370  31.946  1.00  0.00     0.293 HD
ENDBRANCH   2  22
BRANCH   6  24
ATOM     24  O   UNL     1      12.537  61.136  31.832  1.00  0.00    -0.507 OA
ATOM     25  H   UNL     1      11.994  60.801  31.044  1.00  0.00     0.293 HD
ENDBRANCH   6  24
BRANCH   8  26
ATOM     26  O   UNL     1      17.272  61.634  32.618  1.00  0.00    -0.508 OA
ATOM     27  H   UNL     1      17.577  62.068  33.482  1.00  0.00     0.293 HD
ENDBRANCH   8  26
TORSDOF 6
ENDMDL
MODEL 4
REMARK VINA RESULT:    -5.685      1.594      6.694
REMARK INTER + INTRA:          -7.231
REMARK INTER:                  -6.848
REMARK INTRA:                  -0.383
REMARK UNBOUND:                -0.384
REMARK SMILES O=c1c(O)c(-c2ccc(O)cc2O)oc2cc(O)cc(O)c12
REMARK SMILES IDX 5 1 3 2 2 3 1 4 22 5 20 6 19 7 17 8 16 9 15 10 14 11 6 12
REMARK SMILES IDX 8 13 7 14 9 15 11 16 12 17 10 18 13 20 4 22 21 24 18 26
REMARK H PARENT 10 19 13 21 4 23 21 25 18 27
REMARK Flexibility Score: inf
ROOT
ATOM      1  C   UNL     1      14.867  57.311  32.751  1.00  0.00     0.184 A 
ATOM      2  C   UNL     1      13.497  57.316  33.067  1.00  0.00     0.208 A 
ATOM      3  C   UNL     1      12.893  56.122  33.487  1.00  0.00     0.238 A 
ATOM      4  O   UNL     1      11.664  56.113  33.770  1.00  0.00    -0.285 OA
ATOM      5  C   UNL     1      13.670  54.948  33.592  1.00  0.00     0.111 A 
ATOM      6  C   UNL     1      13.140  53.704  34.010  1.00  0.00     0.134 A 
ATOM      7  C   UNL     1      13.979  52.582  34.092  1.00  0.00     0.093 A 
ATOM      8  C   UNL     1      15.333  52.681  33.764  1.00  0.00     0.123 A 
ATOM      9  C   UNL     1      15.862  53.906  33.349  1.00  0.00     0.094 A 
ATOM     10  C   UNL     1      15.043  55.036  33.260  1.00  0.00     0.146 A 
ATOM     11  O   UNL     1      15.570  56.188  32.862  1.00  0.00    -0.451 OA
ENDROOT
BRANCH   1  12
ATOM     12  C   UNL     1      15.553  58.534  32.285  1.00  0.00     0.063 A 
ATOM     13  C   UNL     1      16.876  60.510  32.805  1.00  0.00     0.047 A 
ATOM     14  C   UNL     1      16.264  59.320  33.209  1.00  0.00     0.020 A 
ATOM     15  C   UNL     1      16.781  60.934  31.479  1.00  0.00     0.119 A 
ATOM     16  C   UNL     1      16.074  60.160  30.550  1.00  0.00     0.093 A 
ATOM     17  C   UNL     1      15.466  58.961  30.939  1.00  0.00     0.130 A 
BRANCH  15  18
ATOM     18  O   UNL     1      17.392  62.125  31.093  1.00  0.00    -0.508 OA
ATOM     19  H   UNL     1      17.077  62.644  30.281  1.00  0.00     0.293 HD
ENDBRANCH  15  18
BRANCH  17  20
ATOM     20  O   UNL     1      14.804  58.211  29.965  1.00  0.00    -0.507 OA
ATOM     21  H   UNL     1      14.341  58.628  29.167  1.00  0.00     0.293 HD
ENDBRANCH  17  20
ENDBRANCH   1  12
BRANCH   2  22
ATOM     22  O   UNL     1      12.761  58.501  32.975  1.00  0.00    -0.502 OA
ATOM     23  H   UNL     1      12.662  59.138  33.755  1.00  0.00     0.293 HD
ENDBRANCH   2  22
BRANCH   6  24
ATOM     24  O   UNL     1      11.791  53.574  34.345  1.00  0.00    -0.507 OA
ATOM     25  H   UNL     1      11.055  53.879  33.719  1.00  0.00     0.293 HD
ENDBRANCH   6  24
BRANCH   8  26
ATOM     26  O   UNL     1      16.144  51.552  33.854  1.00  0.00    -0.508 OA
ATOM     27  H   UNL     1      16.740  51.390  34.657  1.00  0.00     0.293 HD
ENDBRANCH   8  26
TORSDOF 6
ENDMDL
MODEL 5
REMARK VINA RESULT:    -5.528      1.877      2.292
REMARK INTER + INTRA:          -7.043
REMARK INTER:                  -6.772
REMARK INTRA:                  -0.270
REMARK UNBOUND:                -0.384
REMARK SMILES O=c1c(O)c(-c2ccc(O)cc2O)oc2cc(O)cc(O)c12
REMARK SMILES IDX 5 1 3 2 2 3 1 4 22 5 20 6 19 7 17 8 16 9 15 10 14 11 6 12
REMARK SMILES IDX 8 13 7 14 9 15 11 16 12 17 10 18 13 20 4 22 21 24 18 26
REMARK H PARENT 10 19 13 21 4 23 21 25 18 27
REMARK Flexibility Score: inf
ROOT
ATOM      1  C   UNL     1      14.428  56.163  32.985  1.00  0.00     0.184 A 
ATOM      2  C   UNL     1      13.263  56.497  32.272  1.00  0.00     0.208 A 
ATOM      3  C   UNL     1      13.113  57.805  31.791  1.00  0.00     0.238 A 
ATOM      4  O   UNL     1      12.072  58.117  31.152  1.00  0.00    -0.285 OA
ATOM      5  C   UNL     1      14.132  58.754  32.023  1.00  0.00     0.111 A 
ATOM      6  C   UNL     1      14.062  60.092  31.569  1.00  0.00     0.134 A 
ATOM      7  C   UNL     1      15.119  60.975  31.838  1.00  0.00     0.093 A 
ATOM      8  C   UNL     1      16.242  60.545  32.548  1.00  0.00     0.123 A 
ATOM      9  C   UNL     1      16.317  59.224  33.000  1.00  0.00     0.094 A 
ATOM     10  C   UNL     1      15.274  58.329  32.744  1.00  0.00     0.146 A 
ATOM     11  O   UNL     1      15.370  57.080  33.184  1.00  0.00    -0.451 OA
ENDROOT
BRANCH   1  12
ATOM     12  C   UNL     1      14.633  54.806  33.533  1.00  0.00     0.063 A 
ATOM     13  C   UNL     1      15.841  52.694  33.473  1.00  0.00     0.047 A 
ATOM     14  C   UNL     1      15.661  54.000  33.012  1.00  0.00     0.020 A 
ATOM     15  C   UNL     1      14.997  52.172  34.453  1.00  0.00     0.119 A 
ATOM     16  C   UNL     1      13.968  52.964  34.978  1.00  0.00     0.093 A 
ATOM     17  C   UNL     1      13.783  54.278  34.533  1.00  0.00     0.130 A 
BRANCH  15  18
ATOM     18  O   UNL     1      15.185  50.866  34.900  1.00  0.00    -0.508 OA
ATOM     19  H   UNL     1      14.534  50.125  34.664  1.00  0.00     0.293 HD
ENDBRANCH  15  18
BRANCH  17  20
ATOM     20  O   UNL     1      12.765  55.035  35.115  1.00  0.00    -0.507 OA
ATOM     21  H   UNL     1      12.329  55.823  34.654  1.00  0.00     0.293 HD
ENDBRANCH  17  20
ENDBRANCH   1  12
BRANCH   2  22
ATOM     22  O   UNL     1      12.283  55.528  32.039  1.00  0.00    -0.502 OA
ATOM     23  H   UNL     1      12.333  54.600  32.441  1.00  0.00     0.293 HD
ENDBRANCH   2  22
BRANCH   6  24
ATOM     24  O   UNL     1      12.954  60.552  30.856  1.00  0.00    -0.507 OA
ATOM     25  H   UNL     1      12.063  60.068  30.886  1.00  0.00     0.293 HD
ENDBRANCH   6  24
BRANCH   8  26
ATOM     26  O   UNL     1      17.278  61.442  32.802  1.00  0.00    -0.508 OA
ATOM     27  H   UNL     1      17.413  61.851  33.719  1.00  0.00     0.293 HD
ENDBRANCH   8  26
TORSDOF 6
ENDMDL
MODEL 6
REMARK VINA RESULT:    -5.358      2.914      3.753
REMARK INTER + INTRA:          -6.838
REMARK INTER:                  -6.514
REMARK INTRA:                  -0.324
REMARK UNBOUND:                -0.384
REMARK SMILES O=c1c(O)c(-c2ccc(O)cc2O)oc2cc(O)cc(O)c12
REMARK SMILES IDX 5 1 3 2 2 3 1 4 22 5 20 6 19 7 17 8 16 9 15 10 14 11 6 12
REMARK SMILES IDX 8 13 7 14 9 15 11 16 12 17 10 18 13 20 4 22 21 24 18 26
REMARK H PARENT 10 19 13 21 4 23 21 25 18 27
REMARK Flexibility Score: inf
ROOT
ATOM      1  C   UNL     1      14.385  53.814  32.075  1.00  0.00     0.184 A 
ATOM      2  C   UNL     1      13.284  54.503  32.614  1.00  0.00     0.208 A 
ATOM      3  C   UNL     1      13.367  55.893  32.777  1.00  0.00     0.238 A 
ATOM      4  O   UNL     1      12.387  56.522  33.262  1.00  0.00    -0.285 OA
ATOM      5  C   UNL     1      14.543  56.571  32.391  1.00  0.00     0.111 A 
ATOM      6  C   UNL     1      14.707  57.971  32.518  1.00  0.00     0.134 A 
ATOM      7  C   UNL     1      15.907  58.571  32.108  1.00  0.00     0.093 A 
ATOM      8  C   UNL     1      16.942  57.801  31.574  1.00  0.00     0.123 A 
ATOM      9  C   UNL     1      16.787  56.417  31.447  1.00  0.00     0.094 A 
ATOM     10  C   UNL     1      15.599  55.799  31.851  1.00  0.00     0.146 A 
ATOM     11  O   UNL     1      15.477  54.483  31.720  1.00  0.00    -0.451 OA
ENDROOT
BRANCH   1  12
ATOM     12  C   UNL     1      14.363  52.347  31.898  1.00  0.00     0.063 A 
ATOM     13  C   UNL     1      13.339  50.384  30.888  1.00  0.00     0.047 A 
ATOM     14  C   UNL     1      13.417  51.771  31.032  1.00  0.00     0.020 A 
ATOM     15  C   UNL     1      14.197  49.553  31.610  1.00  0.00     0.119 A 
ATOM     16  C   UNL     1      15.142  50.115  32.478  1.00  0.00     0.093 A 
ATOM     17  C   UNL     1      15.238  51.504  32.623  1.00  0.00     0.130 A 
BRANCH  15  18
ATOM     18  O   UNL     1      14.104  48.171  31.460  1.00  0.00    -0.508 OA
ATOM     19  H   UNL     1      14.484  47.698  30.648  1.00  0.00     0.293 HD
ENDBRANCH  15  18
BRANCH  17  20
ATOM     20  O   UNL     1      16.221  52.012  33.474  1.00  0.00    -0.507 OA
ATOM     21  H   UNL     1      17.177  52.168  33.183  1.00  0.00     0.293 HD
ENDBRANCH  17  20
ENDBRANCH   1  12
BRANCH   2  22
ATOM     22  O   UNL     1      12.125  53.805  32.965  1.00  0.00    -0.502 OA
ATOM     23  H   UNL     1      12.129  52.811  33.156  1.00  0.00     0.293 HD
ENDBRANCH   2  22
BRANCH   6  24
ATOM     24  O   UNL     1      13.691  58.768  33.047  1.00  0.00    -0.507 OA
ATOM     25  H   UNL     1      13.093  59.332  32.453  1.00  0.00     0.293 HD
ENDBRANCH   6  24
BRANCH   8  26
ATOM     26  O   UNL     1      18.124  58.421  31.174  1.00  0.00    -0.508 OA
ATOM     27  H   UNL     1      18.145  59.397  30.903  1.00  0.00     0.293 HD
ENDBRANCH   8  26
TORSDOF 6
ENDMDL
MODEL 7
REMARK VINA RESULT:    -5.183      2.436      6.377
REMARK INTER + INTRA:          -6.627
REMARK INTER:                  -6.231
REMARK INTRA:                  -0.396
REMARK UNBOUND:                -0.384
REMARK SMILES O=c1c(O)c(-c2ccc(O)cc2O)oc2cc(O)cc(O)c12
REMARK SMILES IDX 5 1 3 2 2 3 1 4 22 5 20 6 19 7 17 8 16 9 15 10 14 11 6 12
REMARK SMILES IDX 8 13 7 14 9 15 11 16 12 17 10 18 13 20 4 22 21 24 18 26
REMARK H PARENT 10 19 13 21 4 23 21 25 18 27
REMARK Flexibility Score: inf
ROOT
ATOM      1  C   UNL     1      15.495  56.636  31.549  1.00  0.00     0.184 A 
ATOM      2  C   UNL     1      15.273  55.662  32.539  1.00  0.00     0.208 A 
ATOM      3  C   UNL     1      15.016  54.340  32.146  1.00  0.00     0.238 A 
ATOM      4  O   UNL     1      14.812  53.459  33.024  1.00  0.00    -0.285 OA
ATOM      5  C   UNL     1      14.994  54.014  30.773  1.00  0.00     0.111 A 
ATOM      6  C   UNL     1      14.746  52.707  30.292  1.00  0.00     0.134 A 
ATOM      7  C   UNL     1      14.743  52.462  28.910  1.00  0.00     0.093 A 
ATOM      8  C   UNL     1      14.984  53.497  28.004  1.00  0.00     0.123 A 
ATOM      9  C   UNL     1      15.229  54.792  28.472  1.00  0.00     0.094 A 
ATOM     10  C   UNL     1      15.235  55.056  29.846  1.00  0.00     0.146 A 
ATOM     11  O   UNL     1      15.469  56.294  30.265  1.00  0.00    -0.451 OA
ENDROOT
BRANCH   1  12
ATOM     12  C   UNL     1      15.751  58.047  31.903  1.00  0.00     0.063 A 
ATOM     13  C   UNL     1      14.899  60.192  32.676  1.00  0.00     0.047 A 
ATOM     14  C   UNL     1      14.696  58.840  32.386  1.00  0.00     0.020 A 
ATOM     15  C   UNL     1      16.153  60.772  32.481  1.00  0.00     0.119 A 
ATOM     16  C   UNL     1      17.212  59.993  31.997  1.00  0.00     0.093 A 
ATOM     17  C   UNL     1      17.024  58.635  31.713  1.00  0.00     0.130 A 
BRANCH  15  18
ATOM     18  O   UNL     1      16.339  62.122  32.769  1.00  0.00    -0.508 OA
ATOM     19  H   UNL     1      15.619  62.671  33.225  1.00  0.00     0.293 HD
ENDBRANCH  15  18
BRANCH  17  20
ATOM     20  O   UNL     1      18.123  57.897  31.267  1.00  0.00    -0.507 OA
ATOM     21  H   UNL     1      18.947  58.322  30.864  1.00  0.00     0.293 HD
ENDBRANCH  17  20
ENDBRANCH   1  12
BRANCH   2  22
ATOM     22  O   UNL     1      15.325  56.013  33.891  1.00  0.00    -0.502 OA
ATOM     23  H   UNL     1      15.432  55.325  34.625  1.00  0.00     0.293 HD
ENDBRANCH   2  22
BRANCH   6  24
ATOM     24  O   UNL     1      14.502  51.652  31.172  1.00  0.00    -0.507 OA
ATOM     25  H   UNL     1      13.580  51.480  31.556  1.00  0.00     0.293 HD
ENDBRANCH   6  24
BRANCH   8  26
ATOM     26  O   UNL     1      14.977  53.228  26.637  1.00  0.00    -0.508 OA
ATOM     27  H   UNL     1      14.705  53.931  25.959  1.00  0.00     0.293 HD
ENDBRANCH   8  26
TORSDOF 6
ENDMDL
MODEL 8
REMARK VINA RESULT:    -5.178      5.175      7.269
REMARK INTER + INTRA:          -6.621
REMARK INTER:                  -6.210
REMARK INTRA:                  -0.412
REMARK UNBOUND:                -0.384
REMARK SMILES O=c1c(O)c(-c2ccc(O)cc2O)oc2cc(O)cc(O)c12
REMARK SMILES IDX 5 1 3 2 2 3 1 4 22 5 20 6 19 7 17 8 16 9 15 10 14 11 6 12
REMARK SMILES IDX 8 13 7 14 9 15 11 16 12 17 10 18 13 20 4 22 21 24 18 26
REMARK H PARENT 10 19 13 21 4 23 21 25 18 27
REMARK Flexibility Score: inf
ROOT
ATOM      1  C   UNL     1      14.840  50.184  31.073  1.00  0.00     0.184 A 
ATOM      2  C   UNL     1      13.589  50.552  30.548  1.00  0.00     0.208 A 
ATOM      3  C   UNL     1      12.940  51.682  31.068  1.00  0.00     0.238 A 
ATOM      4  O   UNL     1      11.816  52.021  30.607  1.00  0.00    -0.285 OA
ATOM      5  C   UNL     1      13.556  52.427  32.096  1.00  0.00     0.111 A 
ATOM      6  C   UNL     1      12.972  53.580  32.673  1.00  0.00     0.134 A 
ATOM      7  C   UNL     1      13.650  54.269  33.690  1.00  0.00     0.093 A 
ATOM      8  C   UNL     1      14.897  53.828  34.139  1.00  0.00     0.123 A 
ATOM      9  C   UNL     1      15.479  52.689  33.574  1.00  0.00     0.094 A 
ATOM     10  C   UNL     1      14.819  51.988  32.560  1.00  0.00     0.146 A 
ATOM     11  O   UNL     1      15.393  50.909  32.040  1.00  0.00    -0.451 OA
ENDROOT
BRANCH   1  12
ATOM     12  C   UNL     1      15.561  48.993  30.579  1.00  0.00     0.063 A 
ATOM     13  C   UNL     1      16.133  46.642  30.843  1.00  0.00     0.047 A 
ATOM     14  C   UNL     1      15.419  47.770  31.257  1.00  0.00     0.020 A 
ATOM     15  C   UNL     1      17.001  46.721  29.754  1.00  0.00     0.119 A 
ATOM     16  C   UNL     1      17.153  47.935  29.072  1.00  0.00     0.093 A 
ATOM     17  C   UNL     1      16.436  49.069  29.470  1.00  0.00     0.130 A 
BRANCH  15  18
ATOM     18  O   UNL     1      17.710  45.590  29.356  1.00  0.00    -0.508 OA
ATOM     19  H   UNL     1      18.170  44.987  30.029  1.00  0.00     0.293 HD
ENDBRANCH  15  18
BRANCH  17  20
ATOM     20  O   UNL     1      16.599  50.244  28.733  1.00  0.00    -0.507 OA
ATOM     21  H   UNL     1      17.040  50.269  27.823  1.00  0.00     0.293 HD
ENDBRANCH  17  20
ENDBRANCH   1  12
BRANCH   2  22
ATOM     22  O   UNL     1      13.016  49.807  29.514  1.00  0.00    -0.502 OA
ATOM     23  H   UNL     1      13.073  48.796  29.479  1.00  0.00     0.293 HD
ENDBRANCH   2  22
BRANCH   6  24
ATOM     24  O   UNL     1      11.728  54.046  32.245  1.00  0.00    -0.507 OA
ATOM     25  H   UNL     1      10.864  53.604  32.539  1.00  0.00     0.293 HD
ENDBRANCH   6  24
BRANCH   8  26
ATOM     26  O   UNL     1      15.550  54.530  35.150  1.00  0.00    -0.508 OA
ATOM     27  H   UNL     1      16.206  55.274  34.942  1.00  0.00     0.293 HD
ENDBRANCH   8  26
TORSDOF 6
ENDMDL
MODEL 9
REMARK VINA RESULT:    -5.132      6.213     10.007
REMARK INTER + INTRA:          -6.566
REMARK INTER:                  -6.168
REMARK INTRA:                  -0.398
REMARK UNBOUND:                -0.384
REMARK SMILES O=c1c(O)c(-c2ccc(O)cc2O)oc2cc(O)cc(O)c12
REMARK SMILES IDX 5 1 3 2 2 3 1 4 22 5 20 6 19 7 17 8 16 9 15 10 14 11 6 12
REMARK SMILES IDX 8 13 7 14 9 15 11 16 12 17 10 18 13 20 4 22 21 24 18 26
REMARK H PARENT 10 19 13 21 4 23 21 25 18 27
REMARK Flexibility Score: inf
ROOT
ATOM      1  C   UNL     1      15.023  49.361  31.611  1.00  0.00     0.184 A 
ATOM      2  C   UNL     1      15.797  48.850  30.553  1.00  0.00     0.208 A 
ATOM      3  C   UNL     1      15.715  47.483  30.252  1.00  0.00     0.238 A 
ATOM      4  O   UNL     1      16.407  47.013  29.308  1.00  0.00    -0.285 OA
ATOM      5  C   UNL     1      14.858  46.653  31.006  1.00  0.00     0.111 A 
ATOM      6  C   UNL     1      14.715  45.266  30.765  1.00  0.00     0.134 A 
ATOM      7  C   UNL     1      13.839  44.509  31.557  1.00  0.00     0.093 A 
ATOM      8  C   UNL     1      13.104  45.111  32.581  1.00  0.00     0.123 A 
ATOM      9  C   UNL     1      13.242  46.481  32.825  1.00  0.00     0.094 A 
ATOM     10  C   UNL     1      14.111  47.253  32.047  1.00  0.00     0.146 A 
ATOM     11  O   UNL     1      14.224  48.552  32.299  1.00  0.00    -0.451 OA
ENDROOT
BRANCH   1  12
ATOM     12  C   UNL     1      15.081  50.788  31.987  1.00  0.00     0.063 A 
ATOM     13  C   UNL     1      15.926  52.521  33.473  1.00  0.00     0.047 A 
ATOM     14  C   UNL     1      15.895  51.186  33.062  1.00  0.00     0.020 A 
ATOM     15  C   UNL     1      15.142  53.475  32.822  1.00  0.00     0.119 A 
ATOM     16  C   UNL     1      14.325  53.090  31.751  1.00  0.00     0.093 A 
ATOM     17  C   UNL     1      14.293  51.758  31.323  1.00  0.00     0.130 A 
BRANCH  15  18
ATOM     18  O   UNL     1      15.179  54.801  33.247  1.00  0.00    -0.508 OA
ATOM     19  H   UNL     1      14.642  55.118  34.047  1.00  0.00     0.293 HD
ENDBRANCH  15  18
BRANCH  17  20
ATOM     20  O   UNL     1      13.489  51.437  30.228  1.00  0.00    -0.507 OA
ATOM     21  H   UNL     1      13.810  50.869  29.454  1.00  0.00     0.293 HD
ENDBRANCH  17  20
ENDBRANCH   1  12
BRANCH   2  22
ATOM     22  O   UNL     1      16.618  49.703  29.811  1.00  0.00    -0.502 OA
ATOM     23  H   UNL     1      17.619  49.751  29.955  1.00  0.00     0.293 HD
ENDBRANCH   2  22
BRANCH   6  24
ATOM     24  O   UNL     1      15.434  44.635  29.749  1.00  0.00    -0.507 OA
ATOM     25  H   UNL     1      16.448  44.644  29.729  1.00  0.00     0.293 HD
ENDBRANCH   6  24
BRANCH   8  26
ATOM     26  O   UNL     1      12.241  44.337  33.353  1.00  0.00    -0.508 OA
ATOM     27  H   UNL     1      11.250  44.544  33.410  1.00  0.00     0.293 HD
ENDBRANCH   8  26
TORSDOF 6
ENDMDL
