MODEL 1
REMARK VINA RESULT:     5.727      0.000      0.000
REMARK INTER + INTRA:           6.456
REMARK INTER:                   6.732
REMARK INTRA:                  -0.276
REMARK UNBOUND:                -0.276
REMARK SMILES O=c1cc(-c2ccc(O)c(O)c2)oc2cc(O)cc(O)c12
REMARK SMILES IDX 4 1 3 2 2 3 1 4 21 5 19 6 18 7 16 8 15 9 14 10 13 11 5 12
REMARK SMILES IDX 6 13 7 14 8 15 12 16 10 17 9 18 11 20 20 22 17 24
REMARK H PARENT 9 19 11 21 20 23 17 25
REMARK Flexibility Score: inf
ROOT
ATOM      1  C   UNL     1      10.481  22.981  -4.579  1.00  0.00     0.138 A 
ATOM      2  C   UNL     1      10.428  21.633  -4.957  1.00  0.00     0.100 A 
ATOM      3  C   UNL     1       9.340  21.165  -5.697  1.00  0.00     0.197 A 
ATOM      4  O   UNL     1       9.351  19.965  -6.074  1.00  0.00    -0.289 OA
ATOM      5  C   UNL     1       8.286  22.049  -6.033  1.00  0.00     0.107 A 
ATOM      6  C   UNL     1       7.110  21.674  -6.748  1.00  0.00     0.134 A 
ATOM      7  C   UNL     1       6.188  22.660  -7.124  1.00  0.00     0.093 A 
ATOM      8  C   UNL     1       6.372  23.995  -6.759  1.00  0.00     0.123 A 
ATOM      9  C   UNL     1       7.490  24.362  -6.013  1.00  0.00     0.094 A 
ATOM     10  C   UNL     1       8.445  23.408  -5.653  1.00  0.00     0.146 A 
ATOM     11  O   UNL     1       9.504  23.802  -4.955  1.00  0.00    -0.456 OA
ENDROOT
BRANCH   1  12
ATOM     12  C   UNL     1      11.613  23.531  -3.792  1.00  0.00     0.021 A 
ATOM     13  C   UNL     1      12.934  23.501  -4.277  1.00  0.00     0.016 A 
ATOM     14  C   UNL     1      13.982  24.016  -3.510  1.00  0.00     0.051 A 
ATOM     15  C   UNL     1      13.733  24.562  -2.245  1.00  0.00     0.157 A 
ATOM     16  C   UNL     1      11.373  24.070  -2.516  1.00  0.00     0.062 A 
ATOM     17  C   UNL     1      12.420  24.587  -1.746  1.00  0.00     0.158 A 
BRANCH  15  18
ATOM     18  O   UNL     1      14.781  25.077  -1.484  1.00  0.00    -0.504 OA
ATOM     19  H   UNL     1      14.638  25.403  -0.535  1.00  0.00     0.293 HD
ENDBRANCH  15  18
BRANCH  17  20
ATOM     20  O   UNL     1      12.138  25.121  -0.489  1.00  0.00    -0.504 OA
ATOM     21  H   UNL     1      11.492  24.676   0.152  1.00  0.00     0.293 HD
ENDBRANCH  17  20
ENDBRANCH   1  12
BRANCH   6  22
ATOM     22  O   UNL     1       6.788  20.356  -7.089  1.00  0.00    -0.507 OA
ATOM     23  H   UNL     1       7.232  19.826  -7.822  1.00  0.00     0.293 HD
ENDBRANCH   6  22
BRANCH   8  24
ATOM     24  O   UNL     1       5.442  24.966  -7.125  1.00  0.00    -0.508 OA
ATOM     25  H   UNL     1       4.511  24.717  -7.439  1.00  0.00     0.293 HD
ENDBRANCH   8  24
TORSDOF 5
ENDMDL
