MODEL 1
REMARK VINA RESULT:    -4.884      0.000      0.000
REMARK INTER + INTRA:          -8.853
REMARK INTER:                  -8.310
REMARK INTRA:                  -0.543
REMARK UNBOUND:                -0.543
REMARK SMILES CCCCCCCCCCCCCC(=O)[O-]
REMARK SMILES IDX 8 1 9 2 10 3 11 4 12 5 13 6 14 7 15 8 16 9 7 10 6 11 5 12
REMARK SMILES IDX 4 13 3 14 2 15 1 16
REMARK H PARENT
REMARK Flexibility Score: inf
ROOT
ATOM      1  C   UNL     1       9.727  22.698  41.296  1.00  0.00     0.000 C 
ENDROOT
BRANCH   1   2
ATOM      2  C   UNL     1      10.137  21.284  40.853  1.00  0.00     0.000 C 
BRANCH   2   3
ATOM      3  C   UNL     1      10.368  21.174  39.334  1.00  0.00     0.000 C 
BRANCH   3   4
ATOM      4  C   UNL     1      11.290  22.250  38.732  1.00  0.00     0.000 C 
BRANCH   4   5
ATOM      5  C   UNL     1      11.305  22.235  37.194  1.00  0.00     0.006 C 
BRANCH   5   6
ATOM      6  C   UNL     1      12.580  21.592  36.633  1.00  0.00     0.053 C 
BRANCH   6   7
ATOM      7  C   UNL     1      12.535  21.471  35.140  1.00  0.00     0.041 C 
ATOM      8  O   UNL     1      11.680  22.118  34.478  1.00  0.00    -0.550 OA
ATOM      9  O   UNL     1      13.455  20.669  34.477  1.00  0.00    -0.550 OA
ENDBRANCH   6   7
ENDBRANCH   5   6
ENDBRANCH   4   5
ENDBRANCH   3   4
ENDBRANCH   2   3
ENDBRANCH   1   2
BRANCH   1  10
ATOM     10  C   UNL     1      10.143  23.008  42.743  1.00  0.00     0.000 C 
BRANCH  10  11
ATOM     11  C   UNL     1      11.664  22.931  42.952  1.00  0.00    -0.000 C 
BRANCH  11  12
ATOM     12  C   UNL     1      12.003  22.702  44.430  1.00  0.00    -0.000 C 
BRANCH  12  13
ATOM     13  C   UNL     1      12.789  23.890  45.006  1.00  0.00    -0.000 C 
BRANCH  13  14
ATOM     14  C   UNL     1      12.447  24.152  46.488  1.00  0.00    -0.000 C 
BRANCH  14  15
ATOM     15  C   UNL     1      13.165  23.202  47.462  1.00  0.00    -0.003 C 
ATOM     16  C   UNL     1      14.664  23.090  47.192  1.00  0.00     0.004 C 
ENDBRANCH  14  15
ENDBRANCH  13  14
ENDBRANCH  12  13
ENDBRANCH  11  12
ENDBRANCH  10  11
ENDBRANCH   1  10
TORSDOF 12
ENDMDL
MODEL 2
REMARK VINA RESULT:    -4.837      3.639      6.493
REMARK INTER + INTRA:          -8.773
REMARK INTER:                  -8.121
REMARK INTRA:                  -0.652
REMARK UNBOUND:                -0.543
REMARK SMILES CCCCCCCCCCCCCC(=O)[O-]
REMARK SMILES IDX 8 1 9 2 10 3 11 4 12 5 13 6 14 7 15 8 16 9 7 10 6 11 5 12
REMARK SMILES IDX 4 13 3 14 2 15 1 16
REMARK H PARENT
REMARK Flexibility Score: inf
ROOT
ATOM      1  C   UNL     1      13.467  23.143  47.298  1.00  0.00     0.000 C 
ENDROOT
BRANCH   1   2
ATOM      2  C   UNL     1      13.212  21.774  46.645  1.00  0.00     0.000 C 
BRANCH   2   3
ATOM      3  C   UNL     1      12.133  21.823  45.548  1.00  0.00     0.000 C 
BRANCH   3   4
ATOM      4  C   UNL     1      12.400  22.828  44.411  1.00  0.00     0.000 C 
BRANCH   4   5
ATOM      5  C   UNL     1      11.225  22.944  43.425  1.00  0.00     0.006 C 
BRANCH   5   6
ATOM      6  C   UNL     1      11.500  22.212  42.106  1.00  0.00     0.053 C 
BRANCH   6   7
ATOM      7  C   UNL     1      10.234  21.886  41.373  1.00  0.00     0.041 C 
ATOM      8  O   UNL     1      10.160  20.845  40.669  1.00  0.00    -0.550 OA
ATOM      9  O   UNL     1       9.126  22.716  41.493  1.00  0.00    -0.550 OA
ENDBRANCH   6   7
ENDBRANCH   5   6
ENDBRANCH   4   5
ENDBRANCH   3   4
ENDBRANCH   2   3
ENDBRANCH   1   2
BRANCH   1  10
ATOM     10  C   UNL     1      14.955  23.386  47.598  1.00  0.00     0.000 C 
BRANCH  10  11
ATOM     11  C   UNL     1      15.838  23.286  46.344  1.00  0.00    -0.000 C 
BRANCH  11  12
ATOM     12  C   UNL     1      17.152  22.560  46.657  1.00  0.00    -0.000 C 
BRANCH  12  13
ATOM     13  C   UNL     1      17.780  23.091  47.955  1.00  0.00    -0.000 C 
BRANCH  13  14
ATOM     14  C   UNL     1      19.037  22.293  48.363  1.00  0.00    -0.000 C 
BRANCH  14  15
ATOM     15  C   UNL     1      20.185  23.176  48.878  1.00  0.00    -0.003 C 
ATOM     16  C   UNL     1      19.740  24.595  49.225  1.00  0.00     0.004 C 
ENDBRANCH  14  15
ENDBRANCH  13  14
ENDBRANCH  12  13
ENDBRANCH  11  12
ENDBRANCH  10  11
ENDBRANCH   1  10
TORSDOF 12
ENDMDL
MODEL 3
REMARK VINA RESULT:    -4.817      4.400      7.897
REMARK INTER + INTRA:          -8.739
REMARK INTER:                  -7.963
REMARK INTRA:                  -0.776
REMARK UNBOUND:                -0.543
REMARK SMILES CCCCCCCCCCCCCC(=O)[O-]
REMARK SMILES IDX 8 1 9 2 10 3 11 4 12 5 13 6 14 7 15 8 16 9 7 10 6 11 5 12
REMARK SMILES IDX 4 13 3 14 2 15 1 16
REMARK H PARENT
REMARK Flexibility Score: inf
ROOT
ATOM      1  C   UNL     1      15.506  22.642  46.683  1.00  0.00     0.000 C 
ENDROOT
BRANCH   1   2
ATOM      2  C   UNL     1      14.611  23.374  47.698  1.00  0.00     0.000 C 
BRANCH   2   3
ATOM      3  C   UNL     1      13.116  23.051  47.522  1.00  0.00     0.000 C 
BRANCH   3   4
ATOM      4  C   UNL     1      12.474  23.600  46.234  1.00  0.00     0.000 C 
BRANCH   4   5
ATOM      5  C   UNL     1      12.291  22.525  45.149  1.00  0.00     0.006 C 
BRANCH   5   6
ATOM      6  C   UNL     1      12.513  23.083  43.737  1.00  0.00     0.053 C 
BRANCH   6   7
ATOM      7  C   UNL     1      11.487  22.578  42.770  1.00  0.00     0.041 C 
ATOM      8  O   UNL     1      11.790  21.691  41.929  1.00  0.00    -0.550 OA
ATOM      9  O   UNL     1      10.186  23.065  42.816  1.00  0.00    -0.550 OA
ENDBRANCH   6   7
ENDBRANCH   5   6
ENDBRANCH   4   5
ENDBRANCH   3   4
ENDBRANCH   2   3
ENDBRANCH   1   2
BRANCH   1  10
ATOM     10  C   UNL     1      16.817  23.394  46.402  1.00  0.00     0.000 C 
BRANCH  10  11
ATOM     11  C   UNL     1      17.681  23.570  47.661  1.00  0.00    -0.000 C 
BRANCH  11  12
ATOM     12  C   UNL     1      17.974  22.215  48.318  1.00  0.00    -0.000 C 
BRANCH  12  13
ATOM     13  C   UNL     1      19.487  21.992  48.469  1.00  0.00    -0.000 C 
BRANCH  13  14
ATOM     14  C   UNL     1      20.236  23.295  48.819  1.00  0.00    -0.000 C 
BRANCH  14  15
ATOM     15  C   UNL     1      21.408  23.605  47.872  1.00  0.00    -0.003 C 
ATOM     16  C   UNL     1      21.244  22.974  46.491  1.00  0.00     0.004 C 
ENDBRANCH  14  15
ENDBRANCH  13  14
ENDBRANCH  12  13
ENDBRANCH  11  12
ENDBRANCH  10  11
ENDBRANCH   1  10
TORSDOF 12
ENDMDL
MODEL 4
REMARK VINA RESULT:    -4.768      7.661     10.876
REMARK INTER + INTRA:          -8.655
REMARK INTER:                  -8.193
REMARK INTRA:                  -0.462
REMARK UNBOUND:                -0.543
REMARK SMILES CCCCCCCCCCCCCC(=O)[O-]
REMARK SMILES IDX 8 1 9 2 10 3 11 4 12 5 13 6 14 7 15 8 16 9 7 10 6 11 5 12
REMARK SMILES IDX 4 13 3 14 2 15 1 16
REMARK H PARENT
REMARK Flexibility Score: inf
ROOT
ATOM      1  C   UNL     1      19.600  21.559  32.559  1.00  0.00     0.000 C 
ENDROOT
BRANCH   1   2
ATOM      2  C   UNL     1      18.131  22.003  32.467  1.00  0.00     0.000 C 
BRANCH   2   3
ATOM      3  C   UNL     1      17.511  22.317  33.841  1.00  0.00     0.000 C 
BRANCH   3   4
ATOM      4  C   UNL     1      16.260  21.494  34.200  1.00  0.00     0.000 C 
BRANCH   4   5
ATOM      5  C   UNL     1      15.014  22.366  34.431  1.00  0.00     0.006 C 
BRANCH   5   6
ATOM      6  C   UNL     1      13.850  21.567  35.031  1.00  0.00     0.053 C 
BRANCH   6   7
ATOM      7  C   UNL     1      12.534  22.254  34.822  1.00  0.00     0.041 C 
ATOM      8  O   UNL     1      11.573  22.035  35.606  1.00  0.00    -0.550 OA
ATOM      9  O   UNL     1      12.379  23.160  33.780  1.00  0.00    -0.550 OA
ENDBRANCH   6   7
ENDBRANCH   5   6
ENDBRANCH   4   5
ENDBRANCH   3   4
ENDBRANCH   2   3
ENDBRANCH   1   2
BRANCH   1  10
ATOM     10  C   UNL     1      20.379  22.314  33.648  1.00  0.00     0.000 C 
BRANCH  10  11
ATOM     11  C   UNL     1      21.038  21.372  34.668  1.00  0.00    -0.000 C 
BRANCH  11  12
ATOM     12  C   UNL     1      22.340  21.974  35.209  1.00  0.00    -0.000 C 
BRANCH  12  13
ATOM     13  C   UNL     1      22.499  21.685  36.710  1.00  0.00    -0.000 C 
BRANCH  13  14
ATOM     14  C   UNL     1      23.928  21.224  37.067  1.00  0.00    -0.000 C 
BRANCH  14  15
ATOM     15  C   UNL     1      25.029  22.024  36.351  1.00  0.00    -0.003 C 
ATOM     16  C   UNL     1      25.299  23.381  36.998  1.00  0.00     0.004 C 
ENDBRANCH  14  15
ENDBRANCH  13  14
ENDBRANCH  12  13
ENDBRANCH  11  12
ENDBRANCH  10  11
ENDBRANCH   1  10
TORSDOF 12
ENDMDL
MODEL 5
REMARK VINA RESULT:    -4.754      5.928      9.605
REMARK INTER + INTRA:          -8.633
REMARK INTER:                  -7.923
REMARK INTRA:                  -0.709
REMARK UNBOUND:                -0.543
REMARK SMILES CCCCCCCCCCCCCC(=O)[O-]
REMARK SMILES IDX 8 1 9 2 10 3 11 4 12 5 13 6 14 7 15 8 16 9 7 10 6 11 5 12
REMARK SMILES IDX 4 13 3 14 2 15 1 16
REMARK H PARENT
REMARK Flexibility Score: inf
ROOT
ATOM      1  C   UNL     1      12.690  23.558  46.629  1.00  0.00     0.000 C 
ENDROOT
BRANCH   1   2
ATOM      2  C   UNL     1      13.429  22.210  46.681  1.00  0.00     0.000 C 
BRANCH   2   3
ATOM      3  C   UNL     1      14.951  22.351  46.494  1.00  0.00     0.000 C 
BRANCH   3   4
ATOM      4  C   UNL     1      15.675  23.151  47.593  1.00  0.00     0.000 C 
BRANCH   4   5
ATOM      5  C   UNL     1      17.167  23.369  47.292  1.00  0.00     0.006 C 
BRANCH   5   6
ATOM      6  C   UNL     1      18.073  22.574  48.241  1.00  0.00     0.053 C 
BRANCH   6   7
ATOM      7  C   UNL     1      19.456  23.148  48.306  1.00  0.00     0.041 C 
ATOM      8  O   UNL     1      20.401  22.595  47.684  1.00  0.00    -0.550 OA
ATOM      9  O   UNL     1      19.694  24.311  49.029  1.00  0.00    -0.550 OA
ENDBRANCH   6   7
ENDBRANCH   5   6
ENDBRANCH   4   5
ENDBRANCH   3   4
ENDBRANCH   2   3
ENDBRANCH   1   2
BRANCH   1  10
ATOM     10  C   UNL     1      12.379  24.007  45.192  1.00  0.00     0.000 C 
BRANCH  10  11
ATOM     11  C   UNL     1      11.947  22.842  44.288  1.00  0.00    -0.000 C 
BRANCH  11  12
ATOM     12  C   UNL     1      12.667  22.902  42.935  1.00  0.00    -0.000 C 
BRANCH  12  13
ATOM     13  C   UNL     1      11.670  23.140  41.790  1.00  0.00    -0.000 C 
BRANCH  13  14
ATOM     14  C   UNL     1      10.204  23.039  42.264  1.00  0.00    -0.000 C 
BRANCH  14  15
ATOM     15  C   UNL     1       9.270  22.378  41.237  1.00  0.00    -0.003 C 
ATOM     16  C   UNL     1       9.908  21.185  40.528  1.00  0.00     0.004 C 
ENDBRANCH  14  15
ENDBRANCH  13  14
ENDBRANCH  12  13
ENDBRANCH  11  12
ENDBRANCH  10  11
ENDBRANCH   1  10
TORSDOF 12
ENDMDL
MODEL 6
REMARK VINA RESULT:    -4.748      4.643      8.855
REMARK INTER + INTRA:          -8.622
REMARK INTER:                  -8.074
REMARK INTRA:                  -0.548
REMARK UNBOUND:                -0.543
REMARK SMILES CCCCCCCCCCCCCC(=O)[O-]
REMARK SMILES IDX 8 1 9 2 10 3 11 4 12 5 13 6 14 7 15 8 16 9 7 10 6 11 5 12
REMARK SMILES IDX 4 13 3 14 2 15 1 16
REMARK H PARENT
REMARK Flexibility Score: inf
ROOT
ATOM      1  C   UNL     1       9.663  22.186  40.634  1.00  0.00     0.000 C 
ENDROOT
BRANCH   1   2
ATOM      2  C   UNL     1       9.801  22.718  42.071  1.00  0.00     0.000 C 
BRANCH   2   3
ATOM      3  C   UNL     1      11.259  23.024  42.460  1.00  0.00     0.000 C 
BRANCH   3   4
ATOM      4  C   UNL     1      11.638  22.671  43.911  1.00  0.00     0.000 C 
BRANCH   4   5
ATOM      5  C   UNL     1      12.669  23.641  44.514  1.00  0.00     0.006 C 
BRANCH   5   6
ATOM      6  C   UNL     1      12.419  23.899  46.005  1.00  0.00     0.053 C 
BRANCH   6   7
ATOM      7  C   UNL     1      13.072  22.864  46.869  1.00  0.00     0.041 C 
ATOM      8  O   UNL     1      14.092  23.156  47.547  1.00  0.00    -0.550 OA
ATOM      9  O   UNL     1      12.537  21.584  46.949  1.00  0.00    -0.550 OA
ENDBRANCH   6   7
ENDBRANCH   5   6
ENDBRANCH   4   5
ENDBRANCH   3   4
ENDBRANCH   2   3
ENDBRANCH   1   2
BRANCH   1  10
ATOM     10  C   UNL     1      10.578  22.922  39.641  1.00  0.00     0.000 C 
BRANCH  10  11
ATOM     11  C   UNL     1      11.009  22.035  38.462  1.00  0.00    -0.000 C 
BRANCH  11  12
ATOM     12  C   UNL     1      12.530  21.844  38.447  1.00  0.00    -0.000 C 
BRANCH  12  13
ATOM     13  C   UNL     1      13.088  21.975  37.022  1.00  0.00    -0.000 C 
BRANCH  13  14
ATOM     14  C   UNL     1      11.978  22.251  35.985  1.00  0.00    -0.000 C 
BRANCH  14  15
ATOM     15  C   UNL     1      12.241  21.603  34.615  1.00  0.00    -0.003 C 
ATOM     16  C   UNL     1      13.227  20.439  34.683  1.00  0.00     0.004 C 
ENDBRANCH  14  15
ENDBRANCH  13  14
ENDBRANCH  12  13
ENDBRANCH  11  12
ENDBRANCH  10  11
ENDBRANCH   1  10
TORSDOF 12
ENDMDL
MODEL 7
REMARK VINA RESULT:    -4.723      1.420      2.446
REMARK INTER + INTRA:          -8.580
REMARK INTER:                  -8.164
REMARK INTRA:                  -0.416
REMARK UNBOUND:                -0.543
REMARK SMILES CCCCCCCCCCCCCC(=O)[O-]
REMARK SMILES IDX 8 1 9 2 10 3 11 4 12 5 13 6 14 7 15 8 16 9 7 10 6 11 5 12
REMARK SMILES IDX 4 13 3 14 2 15 1 16
REMARK H PARENT
REMARK Flexibility Score: inf
ROOT
ATOM      1  C   UNL     1      10.434  21.105  39.497  1.00  0.00     0.000 C 
ENDROOT
BRANCH   1   2
ATOM      2  C   UNL     1      11.331  22.176  38.854  1.00  0.00     0.000 C 
BRANCH   2   3
ATOM      3  C   UNL     1      11.173  22.251  37.324  1.00  0.00     0.000 C 
BRANCH   3   4
ATOM      4  C   UNL     1      12.404  21.798  36.515  1.00  0.00     0.000 C 
BRANCH   4   5
ATOM      5  C   UNL     1      12.129  21.710  35.004  1.00  0.00     0.006 C 
BRANCH   5   6
ATOM      6  C   UNL     1      12.671  22.929  34.245  1.00  0.00     0.053 C 
BRANCH   6   7
ATOM      7  C   UNL     1      13.974  23.406  34.811  1.00  0.00     0.041 C 
ATOM      8  O   UNL     1      14.012  24.443  35.525  1.00  0.00    -0.550 OA
ATOM      9  O   UNL     1      15.140  22.689  34.576  1.00  0.00    -0.550 OA
ENDBRANCH   6   7
ENDBRANCH   5   6
ENDBRANCH   4   5
ENDBRANCH   3   4
ENDBRANCH   2   3
ENDBRANCH   1   2
BRANCH   1  10
ATOM     10  C   UNL     1      10.072  21.434  40.955  1.00  0.00     0.000 C 
BRANCH  10  11
ATOM     11  C   UNL     1      10.346  22.903  41.316  1.00  0.00    -0.000 C 
BRANCH  11  12
ATOM     12  C   UNL     1      10.486  23.077  42.833  1.00  0.00    -0.000 C 
BRANCH  12  13
ATOM     13  C   UNL     1      11.862  22.596  43.318  1.00  0.00    -0.000 C 
BRANCH  13  14
ATOM     14  C   UNL     1      12.224  23.168  44.706  1.00  0.00    -0.000 C 
BRANCH  14  15
ATOM     15  C   UNL     1      12.348  22.094  45.800  1.00  0.00    -0.003 C 
ATOM     16  C   UNL     1      12.797  22.661  47.145  1.00  0.00     0.004 C 
ENDBRANCH  14  15
ENDBRANCH  13  14
ENDBRANCH  12  13
ENDBRANCH  11  12
ENDBRANCH  10  11
ENDBRANCH   1  10
TORSDOF 12
ENDMDL
MODEL 8
REMARK VINA RESULT:    -4.706      8.799     11.378
REMARK INTER + INTRA:          -8.550
REMARK INTER:                  -7.348
REMARK INTRA:                  -1.202
REMARK UNBOUND:                -0.543
REMARK SMILES CCCCCCCCCCCCCC(=O)[O-]
REMARK SMILES IDX 8 1 9 2 10 3 11 4 12 5 13 6 14 7 15 8 16 9 7 10 6 11 5 12
REMARK SMILES IDX 4 13 3 14 2 15 1 16
REMARK H PARENT
REMARK Flexibility Score: inf
ROOT
ATOM      1  C   UNL     1      21.889  21.758  35.219  1.00  0.00     0.000 C 
ENDROOT
BRANCH   1   2
ATOM      2  C   UNL     1      21.073  21.305  33.996  1.00  0.00     0.000 C 
BRANCH   2   3
ATOM      3  C   UNL     1      20.164  22.415  33.436  1.00  0.00     0.000 C 
BRANCH   3   4
ATOM      4  C   UNL     1      19.128  21.951  32.396  1.00  0.00     0.000 C 
BRANCH   4   5
ATOM      5  C   UNL     1      17.684  21.998  32.925  1.00  0.00     0.006 C 
BRANCH   5   6
ATOM      6  C   UNL     1      17.591  21.574  34.396  1.00  0.00     0.053 C 
BRANCH   6   7
ATOM      7  C   UNL     1      16.871  22.593  35.227  1.00  0.00     0.041 C 
ATOM      8  O   UNL     1      17.498  23.272  36.082  1.00  0.00    -0.550 OA
ATOM      9  O   UNL     1      15.512  22.814  35.035  1.00  0.00    -0.550 OA
ENDBRANCH   6   7
ENDBRANCH   5   6
ENDBRANCH   4   5
ENDBRANCH   3   4
ENDBRANCH   2   3
ENDBRANCH   1   2
BRANCH   1  10
ATOM     10  C   UNL     1      21.021  22.439  36.290  1.00  0.00     0.000 C 
BRANCH  10  11
ATOM     11  C   UNL     1      21.504  22.146  37.719  1.00  0.00    -0.000 C 
BRANCH  11  12
ATOM     12  C   UNL     1      22.381  20.888  37.754  1.00  0.00    -0.000 C 
BRANCH  12  13
ATOM     13  C   UNL     1      23.722  21.170  38.448  1.00  0.00    -0.000 C 
BRANCH  13  14
ATOM     14  C   UNL     1      24.926  20.910  37.516  1.00  0.00    -0.000 C 
BRANCH  14  15
ATOM     15  C   UNL     1      25.249  22.091  36.585  1.00  0.00    -0.003 C 
ATOM     16  C   UNL     1      24.996  23.450  37.233  1.00  0.00     0.004 C 
ENDBRANCH  14  15
ENDBRANCH  13  14
ENDBRANCH  12  13
ENDBRANCH  11  12
ENDBRANCH  10  11
ENDBRANCH   1  10
TORSDOF 12
ENDMDL
MODEL 9
REMARK VINA RESULT:    -4.691      4.707      9.275
REMARK INTER + INTRA:          -8.525
REMARK INTER:                  -7.776
REMARK INTRA:                  -0.749
REMARK UNBOUND:                -0.543
REMARK SMILES CCCCCCCCCCCCCC(=O)[O-]
REMARK SMILES IDX 8 1 9 2 10 3 11 4 12 5 13 6 14 7 15 8 16 9 7 10 6 11 5 12
REMARK SMILES IDX 4 13 3 14 2 15 1 16
REMARK H PARENT
REMARK Flexibility Score: inf
ROOT
ATOM      1  C   UNL     1      12.978  20.747  34.861  1.00  0.00     0.000 C 
ENDROOT
BRANCH   1   2
ATOM      2  C   UNL     1      12.248  22.077  35.117  1.00  0.00     0.000 C 
BRANCH   2   3
ATOM      3  C   UNL     1      11.665  22.179  36.538  1.00  0.00     0.000 C 
BRANCH   3   4
ATOM      4  C   UNL     1      12.707  22.234  37.671  1.00  0.00     0.000 C 
BRANCH   4   5
ATOM      5  C   UNL     1      12.101  22.649  39.023  1.00  0.00     0.006 C 
BRANCH   5   6
ATOM      6  C   UNL     1      10.656  22.159  39.186  1.00  0.00     0.053 C 
BRANCH   6   7
ATOM      7  C   UNL     1       9.939  22.888  40.281  1.00  0.00     0.041 C 
ATOM      8  O   UNL     1       9.663  24.110  40.153  1.00  0.00    -0.550 OA
ATOM      9  O   UNL     1       9.550  22.212  41.431  1.00  0.00    -0.550 OA
ENDBRANCH   6   7
ENDBRANCH   5   6
ENDBRANCH   4   5
ENDBRANCH   3   4
ENDBRANCH   2   3
ENDBRANCH   1   2
BRANCH   1  10
ATOM     10  C   UNL     1      14.454  20.947  34.482  1.00  0.00     0.000 C 
BRANCH  10  11
ATOM     11  C   UNL     1      14.879  22.423  34.510  1.00  0.00    -0.000 C 
BRANCH  11  12
ATOM     12  C   UNL     1      16.277  22.580  35.123  1.00  0.00    -0.000 C 
BRANCH  12  13
ATOM     13  C   UNL     1      17.283  21.634  34.448  1.00  0.00    -0.000 C 
BRANCH  13  14
ATOM     14  C   UNL     1      17.610  22.067  33.003  1.00  0.00    -0.000 C 
BRANCH  14  15
ATOM     15  C   UNL     1      19.115  22.065  32.686  1.00  0.00    -0.003 C 
ATOM     16  C   UNL     1      19.811  20.769  33.097  1.00  0.00     0.004 C 
ENDBRANCH  14  15
ENDBRANCH  13  14
ENDBRANCH  12  13
ENDBRANCH  11  12
ENDBRANCH  10  11
ENDBRANCH   1  10
TORSDOF 12
ENDMDL
