MODEL 1
REMARK VINA RESULT:    -4.718      0.000      0.000
REMARK INTER + INTRA:          -9.149
REMARK INTER:                  -7.476
REMARK INTRA:                  -1.673
REMARK UNBOUND:                -1.673
REMARK SMILES CCCCCCCCCCCC(=O)[O-]
REMARK SMILES IDX 7 1 8 2 9 3 10 4 11 5 12 6 13 7 14 8 6 9 5 10 4 11 3 12 2 13
REMARK SMILES IDX 1 14
REMARK H PARENT
REMARK Flexibility Score: inf
ROOT
ATOM      1  C   UNL     1      13.227  16.895  70.691  1.00  0.00     0.000 C 
ENDROOT
BRANCH   1   2
ATOM      2  C   UNL     1      14.252  15.838  70.248  1.00  0.00     0.000 C 
BRANCH   2   3
ATOM      3  C   UNL     1      13.777  15.025  69.036  1.00  0.00     0.000 C 
BRANCH   3   4
ATOM      4  C   UNL     1      13.249  13.649  69.470  1.00  0.00     0.006 C 
BRANCH   4   5
ATOM      5  C   UNL     1      12.040  13.202  68.638  1.00  0.00     0.053 C 
BRANCH   5   6
ATOM      6  C   UNL     1      10.799  13.099  69.470  1.00  0.00     0.041 C 
ATOM      7  O   UNL     1      10.856  13.271  70.716  1.00  0.00    -0.550 OA
ATOM      8  O   UNL     1       9.574  12.846  68.866  1.00  0.00    -0.550 OA
ENDBRANCH   5   6
ENDBRANCH   4   5
ENDBRANCH   3   4
ENDBRANCH   2   3
ENDBRANCH   1   2
BRANCH   1   9
ATOM      9  C   UNL     1      12.271  16.377  71.775  1.00  0.00     0.000 C 
BRANCH   9  10
ATOM     10  C   UNL     1      10.815  16.709  71.429  1.00  0.00    -0.000 C 
BRANCH  10  11
ATOM     11  C   UNL     1      10.713  17.367  70.048  1.00  0.00    -0.000 C 
BRANCH  11  12
ATOM     12  C   UNL     1       9.731  16.604  69.147  1.00  0.00    -0.000 C 
BRANCH  12  13
ATOM     13  C   UNL     1      10.295  16.348  67.741  1.00  0.00    -0.003 C 
ATOM     14  C   UNL     1      11.355  17.371  67.334  1.00  0.00     0.004 C 
ENDBRANCH  12  13
ENDBRANCH  11  12
ENDBRANCH  10  11
ENDBRANCH   9  10
ENDBRANCH   1   9
TORSDOF 10
ENDMDL
MODEL 2
REMARK VINA RESULT:    -4.617      2.167      4.134
REMARK INTER + INTRA:          -8.989
REMARK INTER:                  -7.440
REMARK INTRA:                  -1.549
REMARK UNBOUND:                -1.673
REMARK SMILES CCCCCCCCCCCC(=O)[O-]
REMARK SMILES IDX 7 1 8 2 9 3 10 4 11 5 12 6 13 7 14 8 6 9 5 10 4 11 3 12 2 13
REMARK SMILES IDX 1 14
REMARK H PARENT
REMARK Flexibility Score: inf
ROOT
ATOM      1  C   UNL     1      13.056  16.955  70.953  1.00  0.00     0.000 C 
ENDROOT
BRANCH   1   2
ATOM      2  C   UNL     1      11.775  16.476  71.654  1.00  0.00     0.000 C 
BRANCH   2   3
ATOM      3  C   UNL     1      10.498  16.958  70.950  1.00  0.00     0.000 C 
BRANCH   3   4
ATOM      4  C   UNL     1      10.839  17.759  69.683  1.00  0.00     0.006 C 
BRANCH   4   5
ATOM      5  C   UNL     1      10.435  17.017  68.401  1.00  0.00     0.053 C 
BRANCH   5   6
ATOM      6  C   UNL     1      11.505  17.089  67.356  1.00  0.00     0.041 C 
ATOM      7  O   UNL     1      12.326  16.143  67.226  1.00  0.00    -0.550 OA
ATOM      8  O   UNL     1      11.575  18.184  66.505  1.00  0.00    -0.550 OA
ENDBRANCH   5   6
ENDBRANCH   4   5
ENDBRANCH   3   4
ENDBRANCH   2   3
ENDBRANCH   1   2
BRANCH   1   9
ATOM      9  C   UNL     1      13.936  15.794  70.468  1.00  0.00     0.000 C 
BRANCH   9  10
ATOM     10  C   UNL     1      13.237  14.446  70.686  1.00  0.00    -0.000 C 
BRANCH  10  11
ATOM     11  C   UNL     1      13.519  13.485  69.525  1.00  0.00    -0.000 C 
BRANCH  11  12
ATOM     12  C   UNL     1      12.218  13.083  68.816  1.00  0.00    -0.000 C 
BRANCH  12  13
ATOM     13  C   UNL     1      10.964  13.478  69.612  1.00  0.00    -0.003 C 
ATOM     14  C   UNL     1       9.687  13.408  68.776  1.00  0.00     0.004 C 
ENDBRANCH  12  13
ENDBRANCH  11  12
ENDBRANCH  10  11
ENDBRANCH   9  10
ENDBRANCH   1   9
TORSDOF 10
ENDMDL
MODEL 3
REMARK VINA RESULT:    -4.571      1.930      3.934
REMARK INTER + INTRA:          -8.916
REMARK INTER:                  -7.367
REMARK INTRA:                  -1.549
REMARK UNBOUND:                -1.673
REMARK SMILES CCCCCCCCCCCC(=O)[O-]
REMARK SMILES IDX 7 1 8 2 9 3 10 4 11 5 12 6 13 7 14 8 6 9 5 10 4 11 3 12 2 13
REMARK SMILES IDX 1 14
REMARK H PARENT
REMARK Flexibility Score: inf
ROOT
ATOM      1  C   UNL     1       9.355  15.430  68.844  1.00  0.00     0.000 C 
ENDROOT
BRANCH   1   2
ATOM      2  C   UNL     1       9.717  13.940  68.731  1.00  0.00     0.000 C 
BRANCH   2   3
ATOM      3  C   UNL     1      10.848  13.532  69.687  1.00  0.00     0.000 C 
BRANCH   3   4
ATOM      4  C   UNL     1      12.101  13.109  68.905  1.00  0.00     0.006 C 
BRANCH   4   5
ATOM      5  C   UNL     1      13.397  13.510  69.624  1.00  0.00     0.053 C 
BRANCH   5   6
ATOM      6  C   UNL     1      13.953  14.795  69.092  1.00  0.00     0.041 C 
ATOM      7  O   UNL     1      13.572  15.236  67.976  1.00  0.00    -0.550 OA
ATOM      8  O   UNL     1      14.868  15.521  69.843  1.00  0.00    -0.550 OA
ENDBRANCH   5   6
ENDBRANCH   4   5
ENDBRANCH   3   4
ENDBRANCH   2   3
ENDBRANCH   1   2
BRANCH   1   9
ATOM      9  C   UNL     1      10.240  16.324  67.964  1.00  0.00     0.000 C 
BRANCH   9  10
ATOM     10  C   UNL     1      10.604  17.624  68.691  1.00  0.00    -0.000 C 
BRANCH  10  11
ATOM     11  C   UNL     1      10.547  17.439  70.212  1.00  0.00    -0.000 C 
BRANCH  11  12
ATOM     12  C   UNL     1      11.951  17.221  70.793  1.00  0.00    -0.000 C 
BRANCH  12  13
ATOM     13  C   UNL     1      11.971  16.169  71.913  1.00  0.00    -0.003 C 
ATOM     14  C   UNL     1      10.628  16.047  72.633  1.00  0.00     0.004 C 
ENDBRANCH  12  13
ENDBRANCH  11  12
ENDBRANCH  10  11
ENDBRANCH   9  10
ENDBRANCH   1   9
TORSDOF 10
ENDMDL
MODEL 4
REMARK VINA RESULT:    -4.563      2.133      2.704
REMARK INTER + INTRA:          -8.904
REMARK INTER:                  -7.213
REMARK INTRA:                  -1.691
REMARK UNBOUND:                -1.673
REMARK SMILES CCCCCCCCCCCC(=O)[O-]
REMARK SMILES IDX 7 1 8 2 9 3 10 4 11 5 12 6 13 7 14 8 6 9 5 10 4 11 3 12 2 13
REMARK SMILES IDX 1 14
REMARK H PARENT
REMARK Flexibility Score: inf
ROOT
ATOM      1  C   UNL     1      12.375  15.430  71.736  1.00  0.00     0.000 C 
ENDROOT
BRANCH   1   2
ATOM      2  C   UNL     1      11.219  14.418  71.783  1.00  0.00     0.000 C 
BRANCH   2   3
ATOM      3  C   UNL     1      11.295  13.379  70.655  1.00  0.00     0.000 C 
BRANCH   3   4
ATOM      4  C   UNL     1      12.650  13.450  69.934  1.00  0.00     0.006 C 
BRANCH   4   5
ATOM      5  C   UNL     1      12.504  13.859  68.462  1.00  0.00     0.053 C 
BRANCH   5   6
ATOM      6  C   UNL     1      13.412  14.996  68.108  1.00  0.00     0.041 C 
ATOM      7  O   UNL     1      14.364  15.307  68.871  1.00  0.00    -0.550 OA
ATOM      8  O   UNL     1      13.227  15.690  66.919  1.00  0.00    -0.550 OA
ENDBRANCH   5   6
ENDBRANCH   4   5
ENDBRANCH   3   4
ENDBRANCH   2   3
ENDBRANCH   1   2
BRANCH   1   9
ATOM      9  C   UNL     1      11.929  16.818  71.253  1.00  0.00     0.000 C 
BRANCH   9  10
ATOM     10  C   UNL     1      10.453  17.068  71.588  1.00  0.00    -0.000 C 
BRANCH  10  11
ATOM     11  C   UNL     1       9.669  17.496  70.342  1.00  0.00    -0.000 C 
BRANCH  11  12
ATOM     12  C   UNL     1      10.540  17.390  69.081  1.00  0.00    -0.000 C 
BRANCH  12  13
ATOM     13  C   UNL     1       9.945  16.441  68.030  1.00  0.00    -0.003 C 
ATOM     14  C   UNL     1       8.985  15.417  68.634  1.00  0.00     0.004 C 
ENDBRANCH  12  13
ENDBRANCH  11  12
ENDBRANCH  10  11
ENDBRANCH   9  10
ENDBRANCH   1   9
TORSDOF 10
ENDMDL
MODEL 5
REMARK VINA RESULT:    -4.533      1.728      4.305
REMARK INTER + INTRA:          -8.857
REMARK INTER:                  -7.213
REMARK INTRA:                  -1.643
REMARK UNBOUND:                -1.673
REMARK SMILES CCCCCCCCCCCC(=O)[O-]
REMARK SMILES IDX 7 1 8 2 9 3 10 4 11 5 12 6 13 7 14 8 6 9 5 10 4 11 3 12 2 13
REMARK SMILES IDX 1 14
REMARK H PARENT
REMARK Flexibility Score: inf
ROOT
ATOM      1  C   UNL     1      11.569  13.603  71.247  1.00  0.00     0.000 C 
ENDROOT
BRANCH   1   2
ATOM      2  C   UNL     1      11.014  14.777  72.070  1.00  0.00     0.000 C 
BRANCH   2   3
ATOM      3  C   UNL     1      11.640  16.123  71.678  1.00  0.00     0.000 C 
BRANCH   3   4
ATOM      4  C   UNL     1      10.596  17.046  71.029  1.00  0.00     0.006 C 
BRANCH   4   5
ATOM      5  C   UNL     1      10.922  17.349  69.560  1.00  0.00     0.053 C 
BRANCH   5   6
ATOM      6  C   UNL     1       9.985  16.647  68.626  1.00  0.00     0.041 C 
ATOM      7  O   UNL     1      10.281  16.523  67.408  1.00  0.00    -0.550 OA
ATOM      8  O   UNL     1       8.802  16.101  69.106  1.00  0.00    -0.550 OA
ENDBRANCH   5   6
ENDBRANCH   4   5
ENDBRANCH   3   4
ENDBRANCH   2   3
ENDBRANCH   1   2
BRANCH   1   9
ATOM      9  C   UNL     1      10.717  13.294  70.007  1.00  0.00     0.000 C 
BRANCH   9  10
ATOM     10  C   UNL     1      11.577  13.290  68.737  1.00  0.00    -0.000 C 
BRANCH  10  11
ATOM     11  C   UNL     1      13.059  13.493  69.074  1.00  0.00    -0.000 C 
BRANCH  11  12
ATOM     12  C   UNL     1      13.523  14.904  68.687  1.00  0.00    -0.000 C 
BRANCH  12  13
ATOM     13  C   UNL     1      14.607  15.449  69.630  1.00  0.00    -0.003 C 
ATOM     14  C   UNL     1      15.221  14.365  70.514  1.00  0.00     0.004 C 
ENDBRANCH  12  13
ENDBRANCH  11  12
ENDBRANCH  10  11
ENDBRANCH   9  10
ENDBRANCH   1   9
TORSDOF 10
ENDMDL
MODEL 6
REMARK VINA RESULT:    -4.525      1.639      4.314
REMARK INTER + INTRA:          -8.843
REMARK INTER:                  -7.257
REMARK INTRA:                  -1.586
REMARK UNBOUND:                -1.673
REMARK SMILES CCCCCCCCCCCC(=O)[O-]
REMARK SMILES IDX 7 1 8 2 9 3 10 4 11 5 12 6 13 7 14 8 6 9 5 10 4 11 3 12 2 13
REMARK SMILES IDX 1 14
REMARK H PARENT
REMARK Flexibility Score: inf
ROOT
ATOM      1  C   UNL     1       9.184  15.051  68.787  1.00  0.00     0.000 C 
ENDROOT
BRANCH   1   2
ATOM      2  C   UNL     1       9.992  16.131  68.049  1.00  0.00     0.000 C 
BRANCH   2   3
ATOM      3  C   UNL     1      10.584  17.182  69.000  1.00  0.00     0.000 C 
BRANCH   3   4
ATOM      4  C   UNL     1      10.093  16.959  70.438  1.00  0.00     0.006 C 
BRANCH   4   5
ATOM      5  C   UNL     1      11.241  16.614  71.397  1.00  0.00     0.053 C 
BRANCH   5   6
ATOM      6  C   UNL     1      10.779  15.756  72.534  1.00  0.00     0.041 C 
ATOM      7  O   UNL     1      10.029  16.235  73.424  1.00  0.00    -0.550 OA
ATOM      8  O   UNL     1      11.149  14.419  72.592  1.00  0.00    -0.550 OA
ENDBRANCH   5   6
ENDBRANCH   4   5
ENDBRANCH   3   4
ENDBRANCH   2   3
ENDBRANCH   1   2
BRANCH   1   9
ATOM      9  C   UNL     1       9.710  13.633  68.524  1.00  0.00     0.000 C 
BRANCH   9  10
ATOM     10  C   UNL     1      10.810  13.261  69.526  1.00  0.00    -0.000 C 
BRANCH  10  11
ATOM     11  C   UNL     1      12.186  13.237  68.850  1.00  0.00    -0.000 C 
BRANCH  11  12
ATOM     12  C   UNL     1      13.238  13.943  69.717  1.00  0.00    -0.000 C 
BRANCH  12  13
ATOM     13  C   UNL     1      13.899  15.129  68.997  1.00  0.00    -0.003 C 
ATOM     14  C   UNL     1      13.439  15.269  67.546  1.00  0.00     0.004 C 
ENDBRANCH  12  13
ENDBRANCH  11  12
ENDBRANCH  10  11
ENDBRANCH   9  10
ENDBRANCH   1   9
TORSDOF 10
ENDMDL
MODEL 7
REMARK VINA RESULT:    -4.475      1.640      4.170
REMARK INTER + INTRA:          -8.764
REMARK INTER:                  -7.225
REMARK INTRA:                  -1.539
REMARK UNBOUND:                -1.673
REMARK SMILES CCCCCCCCCCCC(=O)[O-]
REMARK SMILES IDX 7 1 8 2 9 3 10 4 11 5 12 6 13 7 14 8 6 9 5 10 4 11 3 12 2 13
REMARK SMILES IDX 1 14
REMARK H PARENT
REMARK Flexibility Score: inf
ROOT
ATOM      1  C   UNL     1      11.883  16.436  67.421  1.00  0.00     0.000 C 
ENDROOT
BRANCH   1   2
ATOM      2  C   UNL     1      11.628  17.151  68.757  1.00  0.00     0.000 C 
BRANCH   2   3
ATOM      3  C   UNL     1      10.138  17.202  69.127  1.00  0.00     0.000 C 
BRANCH   3   4
ATOM      4  C   UNL     1       9.950  17.184  70.652  1.00  0.00     0.006 C 
BRANCH   4   5
ATOM      5  C   UNL     1      11.174  16.614  71.381  1.00  0.00     0.053 C 
BRANCH   5   6
ATOM      6  C   UNL     1      10.780  15.725  72.520  1.00  0.00     0.041 C 
ATOM      7  O   UNL     1      10.052  16.168  73.447  1.00  0.00    -0.550 OA
ATOM      8  O   UNL     1      11.189  14.398  72.542  1.00  0.00    -0.550 OA
ENDBRANCH   5   6
ENDBRANCH   4   5
ENDBRANCH   3   4
ENDBRANCH   2   3
ENDBRANCH   1   2
BRANCH   1   9
ATOM      9  C   UNL     1      12.966  15.352  67.526  1.00  0.00     0.000 C 
BRANCH   9  10
ATOM     10  C   UNL     1      13.527  15.273  68.951  1.00  0.00    -0.000 C 
BRANCH  10  11
ATOM     11  C   UNL     1      13.322  13.875  69.548  1.00  0.00    -0.000 C 
BRANCH  11  12
ATOM     12  C   UNL     1      12.216  13.116  68.802  1.00  0.00    -0.000 C 
BRANCH  12  13
ATOM     13  C   UNL     1      10.891  13.086  69.581  1.00  0.00    -0.003 C 
ATOM     14  C   UNL     1       9.718  13.637  68.772  1.00  0.00     0.004 C 
ENDBRANCH  12  13
ENDBRANCH  11  12
ENDBRANCH  10  11
ENDBRANCH   9  10
ENDBRANCH   1   9
TORSDOF 10
ENDMDL
MODEL 8
REMARK VINA RESULT:    -4.438      2.399      4.594
REMARK INTER + INTRA:          -8.706
REMARK INTER:                  -7.209
REMARK INTRA:                  -1.497
REMARK UNBOUND:                -1.673
REMARK SMILES CCCCCCCCCCCC(=O)[O-]
REMARK SMILES IDX 7 1 8 2 9 3 10 4 11 5 12 6 13 7 14 8 6 9 5 10 4 11 3 12 2 13
REMARK SMILES IDX 1 14
REMARK H PARENT
REMARK Flexibility Score: inf
ROOT
ATOM      1  C   UNL     1      12.028  12.924  68.600  1.00  0.00     0.000 C 
ENDROOT
BRANCH   1   2
ATOM      2  C   UNL     1      10.878  13.762  68.019  1.00  0.00     0.000 C 
BRANCH   2   3
ATOM      3  C   UNL     1      10.051  14.467  69.104  1.00  0.00     0.000 C 
BRANCH   3   4
ATOM      4  C   UNL     1       9.852  15.952  68.766  1.00  0.00     0.006 C 
BRANCH   4   5
ATOM      5  C   UNL     1      10.568  16.353  67.469  1.00  0.00     0.053 C 
BRANCH   5   6
ATOM      6  C   UNL     1      11.083  17.758  67.528  1.00  0.00     0.041 C 
ATOM      7  O   UNL     1      10.983  18.424  68.592  1.00  0.00    -0.550 OA
ATOM      8  O   UNL     1      11.702  18.320  66.420  1.00  0.00    -0.550 OA
ENDBRANCH   5   6
ENDBRANCH   4   5
ENDBRANCH   3   4
ENDBRANCH   2   3
ENDBRANCH   1   2
BRANCH   1   9
ATOM      9  C   UNL     1      12.563  13.489  69.924  1.00  0.00     0.000 C 
BRANCH   9  10
ATOM     10  C   UNL     1      14.092  13.606  69.892  1.00  0.00    -0.000 C 
BRANCH  10  11
ATOM     11  C   UNL     1      14.545  15.019  70.279  1.00  0.00    -0.000 C 
BRANCH  11  12
ATOM     12  C   UNL     1      13.502  16.065  69.862  1.00  0.00    -0.000 C 
BRANCH  12  13
ATOM     13  C   UNL     1      13.150  17.036  70.999  1.00  0.00    -0.003 C 
ATOM     14  C   UNL     1      12.032  16.513  71.899  1.00  0.00     0.004 C 
ENDBRANCH  12  13
ENDBRANCH  11  12
ENDBRANCH  10  11
ENDBRANCH   9  10
ENDBRANCH   1   9
TORSDOF 10
ENDMDL
MODEL 9
REMARK VINA RESULT:    -4.401      2.398      3.921
REMARK INTER + INTRA:          -8.646
REMARK INTER:                  -7.253
REMARK INTRA:                  -1.394
REMARK UNBOUND:                -1.673
REMARK SMILES CCCCCCCCCCCC(=O)[O-]
REMARK SMILES IDX 7 1 8 2 9 3 10 4 11 5 12 6 13 7 14 8 6 9 5 10 4 11 3 12 2 13
REMARK SMILES IDX 1 14
REMARK H PARENT
REMARK Flexibility Score: inf
ROOT
ATOM      1  C   UNL     1      10.556  13.295  69.881  1.00  0.00     0.000 C 
ENDROOT
BRANCH   1   2
ATOM      2  C   UNL     1      12.032  13.667  70.094  1.00  0.00     0.000 C 
BRANCH   2   3
ATOM      3  C   UNL     1      12.820  13.744  68.778  1.00  0.00     0.000 C 
BRANCH   3   4
ATOM      4  C   UNL     1      13.482  15.121  68.614  1.00  0.00     0.006 C 
BRANCH   4   5
ATOM      5  C   UNL     1      14.159  15.597  69.907  1.00  0.00     0.053 C 
BRANCH   5   6
ATOM      6  C   UNL     1      15.391  14.804  70.215  1.00  0.00     0.041 C 
ATOM      7  O   UNL     1      15.388  13.969  71.158  1.00  0.00    -0.550 OA
ATOM      8  O   UNL     1      16.533  14.963  69.441  1.00  0.00    -0.550 OA
ENDBRANCH   5   6
ENDBRANCH   4   5
ENDBRANCH   3   4
ENDBRANCH   2   3
ENDBRANCH   1   2
BRANCH   1   9
ATOM      9  C   UNL     1      10.004  13.804  68.541  1.00  0.00     0.000 C 
BRANCH   9  10
ATOM     10  C   UNL     1       9.257  15.131  68.724  1.00  0.00    -0.000 C 
BRANCH  10  11
ATOM     11  C   UNL     1       9.969  16.270  67.985  1.00  0.00    -0.000 C 
BRANCH  11  12
ATOM     12  C   UNL     1      10.456  17.344  68.968  1.00  0.00    -0.000 C 
BRANCH  12  13
ATOM     13  C   UNL     1      10.155  16.985  70.432  1.00  0.00    -0.003 C 
ATOM     14  C   UNL     1       9.306  18.042  71.137  1.00  0.00     0.004 C 
ENDBRANCH  12  13
ENDBRANCH  11  12
ENDBRANCH  10  11
ENDBRANCH   9  10
ENDBRANCH   1   9
TORSDOF 10
ENDMDL
