MODEL 1
REMARK VINA RESULT:    -3.058      0.000      0.000
REMARK INTER + INTRA:         -13.546
REMARK INTER:                  -7.707
REMARK INTRA:                  -5.839
REMARK UNBOUND:                -5.839
REMARK SMILES CCCCCCCCCCCCCCCCCCCCCCCCCCCC(=O)[O-]
REMARK SMILES IDX 15 1 16 2 17 3 18 4 19 5 20 6 21 7 22 8 23 9 24 10 25 11
REMARK SMILES IDX 26 12 27 13 28 14 29 15 30 16 14 17 13 18 12 19 11 20 10 21
REMARK SMILES IDX 9 22 8 23 7 24 6 25 5 26 4 27 3 28 2 29 1 30
REMARK H PARENT
REMARK Flexibility Score: inf
ROOT
ATOM      1  C   UNL     1      31.013  -1.480 -39.267  1.00  0.00     0.000 C 
ENDROOT
BRANCH   1   2
ATOM      2  C   UNL     1      30.845   0.006 -38.923  1.00  0.00     0.000 C 
BRANCH   2   3
ATOM      3  C   UNL     1      32.150   0.591 -38.361  1.00  0.00     0.000 C 
BRANCH   3   4
ATOM      4  C   UNL     1      33.282  -0.447 -38.270  1.00  0.00     0.000 C 
BRANCH   4   5
ATOM      5  C   UNL     1      33.913  -0.606 -36.875  1.00  0.00     0.000 C 
BRANCH   5   6
ATOM      6  C   UNL     1      33.205   0.165 -35.743  1.00  0.00     0.000 C 
BRANCH   6   7
ATOM      7  C   UNL     1      33.107  -0.621 -34.418  1.00  0.00     0.000 C 
BRANCH   7   8
ATOM      8  C   UNL     1      32.229   0.088 -33.370  1.00  0.00     0.000 C 
BRANCH   8   9
ATOM      9  C   UNL     1      32.142   1.610 -33.617  1.00  0.00     0.000 C 
BRANCH   9  10
ATOM     10  C   UNL     1      30.712   2.115 -33.885  1.00  0.00     0.000 C 
BRANCH  10  11
ATOM     11  C   UNL     1      30.490   2.712 -35.285  1.00  0.00     0.000 C 
BRANCH  11  12
ATOM     12  C   UNL     1      29.475   1.915 -36.120  1.00  0.00     0.006 C 
BRANCH  12  13
ATOM     13  C   UNL     1      28.433   2.850 -36.744  1.00  0.00     0.053 C 
BRANCH  13  14
ATOM     14  C   UNL     1      28.372   2.659 -38.226  1.00  0.00     0.041 C 
ATOM     15  O   UNL     1      28.973   3.456 -38.993  1.00  0.00    -0.550 OA
ATOM     16  O   UNL     1      27.654   1.596 -38.764  1.00  0.00    -0.550 OA
ENDBRANCH  13  14
ENDBRANCH  12  13
ENDBRANCH  11  12
ENDBRANCH  10  11
ENDBRANCH   9  10
ENDBRANCH   8   9
ENDBRANCH   7   8
ENDBRANCH   6   7
ENDBRANCH   5   6
ENDBRANCH   4   5
ENDBRANCH   3   4
ENDBRANCH   2   3
ENDBRANCH   1   2
BRANCH   1  17
ATOM     17  C   UNL     1      29.755  -2.091 -39.908  1.00  0.00     0.000 C 
BRANCH  17  18
ATOM     18  C   UNL     1      29.826  -3.624 -40.074  1.00  0.00     0.000 C 
BRANCH  18  19
ATOM     19  C   UNL     1      28.938  -4.366 -39.058  1.00  0.00     0.000 C 
BRANCH  19  20
ATOM     20  C   UNL     1      29.773  -5.153 -38.024  1.00  0.00     0.000 C 
BRANCH  20  21
ATOM     21  C   UNL     1      31.288  -5.102 -38.285  1.00  0.00     0.000 C 
BRANCH  21  22
ATOM     22  C   UNL     1      32.115  -5.088 -36.990  1.00  0.00    -0.000 C 
BRANCH  22  23
ATOM     23  C   UNL     1      32.057  -3.735 -36.263  1.00  0.00    -0.000 C 
BRANCH  23  24
ATOM     24  C   UNL     1      31.381  -3.826 -34.883  1.00  0.00    -0.000 C 
BRANCH  24  25
ATOM     25  C   UNL     1      30.044  -3.056 -34.842  1.00  0.00    -0.000 C 
BRANCH  25  26
ATOM     26  C   UNL     1      29.967  -1.903 -35.857  1.00  0.00    -0.000 C 
BRANCH  26  27
ATOM     27  C   UNL     1      28.545  -1.674 -36.395  1.00  0.00    -0.000 C 
BRANCH  27  28
ATOM     28  C   UNL     1      27.469  -2.414 -35.581  1.00  0.00    -0.000 C 
BRANCH  28  29
ATOM     29  C   UNL     1      26.405  -3.144 -36.420  1.00  0.00    -0.003 C 
ATOM     30  C   UNL     1      26.479  -4.664 -36.289  1.00  0.00     0.004 C 
ENDBRANCH  28  29
ENDBRANCH  27  28
ENDBRANCH  26  27
ENDBRANCH  25  26
ENDBRANCH  24  25
ENDBRANCH  23  24
ENDBRANCH  22  23
ENDBRANCH  21  22
ENDBRANCH  20  21
ENDBRANCH  19  20
ENDBRANCH  18  19
ENDBRANCH  17  18
ENDBRANCH   1  17
TORSDOF 26
ENDMDL
MODEL 2
REMARK VINA RESULT:    -2.994      2.687      6.399
REMARK INTER + INTRA:         -13.385
REMARK INTER:                  -7.289
REMARK INTRA:                  -6.097
REMARK UNBOUND:                -5.839
REMARK SMILES CCCCCCCCCCCCCCCCCCCCCCCCCCCC(=O)[O-]
REMARK SMILES IDX 15 1 16 2 17 3 18 4 19 5 20 6 21 7 22 8 23 9 24 10 25 11
REMARK SMILES IDX 26 12 27 13 28 14 29 15 30 16 14 17 13 18 12 19 11 20 10 21
REMARK SMILES IDX 9 22 8 23 7 24 6 25 5 26 4 27 3 28 2 29 1 30
REMARK H PARENT
REMARK Flexibility Score: inf
ROOT
ATOM      1  C   UNL     1      28.235  -0.988 -34.828  1.00  0.00     0.000 C 
ENDROOT
BRANCH   1   2
ATOM      2  C   UNL     1      26.898  -0.239 -34.757  1.00  0.00     0.000 C 
BRANCH   2   3
ATOM      3  C   UNL     1      26.774   0.778 -35.901  1.00  0.00     0.000 C 
BRANCH   3   4
ATOM      4  C   UNL     1      25.729   0.370 -36.955  1.00  0.00     0.000 C 
BRANCH   4   5
ATOM      5  C   UNL     1      26.256  -0.539 -38.081  1.00  0.00     0.000 C 
BRANCH   5   6
ATOM      6  C   UNL     1      27.469   0.013 -38.855  1.00  0.00     0.000 C 
BRANCH   6   7
ATOM      7  C   UNL     1      28.333  -1.079 -39.522  1.00  0.00     0.000 C 
BRANCH   7   8
ATOM      8  C   UNL     1      28.935  -2.065 -38.505  1.00  0.00     0.000 C 
BRANCH   8   9
ATOM      9  C   UNL     1      28.972  -3.511 -39.048  1.00  0.00     0.000 C 
BRANCH   9  10
ATOM     10  C   UNL     1      28.382  -4.553 -38.078  1.00  0.00     0.000 C 
BRANCH  10  11
ATOM     11  C   UNL     1      27.756  -3.967 -36.802  1.00  0.00     0.000 C 
BRANCH  11  12
ATOM     12  C   UNL     1      26.395  -4.595 -36.461  1.00  0.00     0.006 C 
BRANCH  12  13
ATOM     13  C   UNL     1      25.386  -3.515 -36.058  1.00  0.00     0.053 C 
BRANCH  13  14
ATOM     14  C   UNL     1      24.863  -3.770 -34.679  1.00  0.00     0.041 C 
ATOM     15  O   UNL     1      23.953  -3.041 -34.203  1.00  0.00    -0.550 OA
ATOM     16  O   UNL     1      25.377  -4.815 -33.919  1.00  0.00    -0.550 OA
ENDBRANCH  13  14
ENDBRANCH  12  13
ENDBRANCH  11  12
ENDBRANCH  10  11
ENDBRANCH   9  10
ENDBRANCH   8   9
ENDBRANCH   7   8
ENDBRANCH   6   7
ENDBRANCH   5   6
ENDBRANCH   4   5
ENDBRANCH   3   4
ENDBRANCH   2   3
ENDBRANCH   1   2
BRANCH   1  17
ATOM     17  C   UNL     1      29.066  -0.853 -33.541  1.00  0.00     0.000 C 
BRANCH  17  18
ATOM     18  C   UNL     1      30.265  -1.823 -33.471  1.00  0.00     0.000 C 
BRANCH  18  19
ATOM     19  C   UNL     1      29.931  -3.210 -34.047  1.00  0.00     0.000 C 
BRANCH  19  20
ATOM     20  C   UNL     1      31.060  -3.751 -34.951  1.00  0.00     0.000 C 
BRANCH  20  21
ATOM     21  C   UNL     1      31.477  -2.779 -36.068  1.00  0.00     0.000 C 
BRANCH  21  22
ATOM     22  C   UNL     1      32.149  -3.488 -37.254  1.00  0.00    -0.000 C 
BRANCH  22  23
ATOM     23  C   UNL     1      33.143  -2.583 -38.000  1.00  0.00    -0.000 C 
BRANCH  23  24
ATOM     24  C   UNL     1      33.531  -1.330 -37.195  1.00  0.00    -0.000 C 
BRANCH  24  25
ATOM     25  C   UNL     1      33.344  -0.035 -38.013  1.00  0.00    -0.000 C 
BRANCH  25  26
ATOM     26  C   UNL     1      31.994   0.038 -38.748  1.00  0.00    -0.000 C 
BRANCH  26  27
ATOM     27  C   UNL     1      31.073   1.139 -38.198  1.00  0.00    -0.000 C 
BRANCH  27  28
ATOM     28  C   UNL     1      30.530   0.820 -36.793  1.00  0.00    -0.000 C 
BRANCH  28  29
ATOM     29  C   UNL     1      30.958   1.806 -35.691  1.00  0.00    -0.003 C 
ATOM     30  C   UNL     1      32.029   1.238 -34.762  1.00  0.00     0.004 C 
ENDBRANCH  28  29
ENDBRANCH  27  28
ENDBRANCH  26  27
ENDBRANCH  25  26
ENDBRANCH  24  25
ENDBRANCH  23  24
ENDBRANCH  22  23
ENDBRANCH  21  22
ENDBRANCH  20  21
ENDBRANCH  19  20
ENDBRANCH  18  19
ENDBRANCH  17  18
ENDBRANCH   1  17
TORSDOF 26
ENDMDL
MODEL 3
REMARK VINA RESULT:    -2.982      3.165      6.741
REMARK INTER + INTRA:         -13.353
REMARK INTER:                  -8.354
REMARK INTRA:                  -4.999
REMARK UNBOUND:                -5.839
REMARK SMILES CCCCCCCCCCCCCCCCCCCCCCCCCCCC(=O)[O-]
REMARK SMILES IDX 15 1 16 2 17 3 18 4 19 5 20 6 21 7 22 8 23 9 24 10 25 11
REMARK SMILES IDX 26 12 27 13 28 14 29 15 30 16 14 17 13 18 12 19 11 20 10 21
REMARK SMILES IDX 9 22 8 23 7 24 6 25 5 26 4 27 3 28 2 29 1 30
REMARK H PARENT
REMARK Flexibility Score: inf
ROOT
ATOM      1  C   UNL     1      31.980  -4.362 -35.971  1.00  0.00     0.000 C 
ENDROOT
BRANCH   1   2
ATOM      2  C   UNL     1      31.788  -5.274 -37.189  1.00  0.00     0.000 C 
BRANCH   2   3
ATOM      3  C   UNL     1      32.400  -4.646 -38.449  1.00  0.00     0.000 C 
BRANCH   3   4
ATOM      4  C   UNL     1      31.406  -4.563 -39.622  1.00  0.00     0.000 C 
BRANCH   4   5
ATOM      5  C   UNL     1      30.492  -3.324 -39.617  1.00  0.00     0.000 C 
BRANCH   5   6
ATOM      6  C   UNL     1      28.980  -3.625 -39.621  1.00  0.00     0.000 C 
BRANCH   6   7
ATOM      7  C   UNL     1      28.351  -3.681 -38.213  1.00  0.00     0.000 C 
BRANCH   7   8
ATOM      8  C   UNL     1      28.100  -5.122 -37.731  1.00  0.00     0.000 C 
BRANCH   8   9
ATOM      9  C   UNL     1      26.829  -5.232 -36.861  1.00  0.00     0.000 C 
BRANCH   9  10
ATOM     10  C   UNL     1      26.541  -3.973 -36.020  1.00  0.00     0.000 C 
BRANCH  10  11
ATOM     11  C   UNL     1      26.849  -4.115 -34.520  1.00  0.00     0.000 C 
BRANCH  11  12
ATOM     12  C   UNL     1      25.800  -3.431 -33.628  1.00  0.00     0.006 C 
BRANCH  12  13
ATOM     13  C   UNL     1      24.699  -4.419 -33.231  1.00  0.00     0.053 C 
BRANCH  13  14
ATOM     14  C   UNL     1      24.963  -4.988 -31.872  1.00  0.00     0.041 C 
ATOM     15  O   UNL     1      25.938  -4.574 -31.191  1.00  0.00    -0.550 OA
ATOM     16  O   UNL     1      24.131  -5.975 -31.355  1.00  0.00    -0.550 OA
ENDBRANCH  13  14
ENDBRANCH  12  13
ENDBRANCH  11  12
ENDBRANCH  10  11
ENDBRANCH   9  10
ENDBRANCH   8   9
ENDBRANCH   7   8
ENDBRANCH   6   7
ENDBRANCH   5   6
ENDBRANCH   4   5
ENDBRANCH   3   4
ENDBRANCH   2   3
ENDBRANCH   1   2
BRANCH   1  17
ATOM     17  C   UNL     1      30.726  -3.536 -35.637  1.00  0.00     0.000 C 
BRANCH  17  18
ATOM     18  C   UNL     1      30.572  -3.221 -34.133  1.00  0.00     0.000 C 
BRANCH  18  19
ATOM     19  C   UNL     1      29.977  -1.824 -33.885  1.00  0.00     0.000 C 
BRANCH  19  20
ATOM     20  C   UNL     1      31.035  -0.825 -33.369  1.00  0.00     0.000 C 
BRANCH  20  21
ATOM     21  C   UNL     1      31.568   0.127 -34.454  1.00  0.00     0.000 C 
BRANCH  21  22
ATOM     22  C   UNL     1      33.046   0.495 -34.250  1.00  0.00    -0.000 C 
BRANCH  22  23
ATOM     23  C   UNL     1      33.906   0.210 -35.491  1.00  0.00    -0.000 C 
BRANCH  23  24
ATOM     24  C   UNL     1      33.326  -0.909 -36.375  1.00  0.00    -0.000 C 
BRANCH  24  25
ATOM     25  C   UNL     1      33.536  -0.627 -37.878  1.00  0.00    -0.000 C 
BRANCH  25  26
ATOM     26  C   UNL     1      32.223  -0.444 -38.659  1.00  0.00    -0.000 C 
BRANCH  26  27
ATOM     27  C   UNL     1      31.551   0.913 -38.390  1.00  0.00    -0.000 C 
BRANCH  27  28
ATOM     28  C   UNL     1      30.032   0.798 -38.174  1.00  0.00    -0.000 C 
BRANCH  28  29
ATOM     29  C   UNL     1      29.577  -0.450 -37.395  1.00  0.00    -0.003 C 
ATOM     30  C   UNL     1      28.236  -0.261 -36.690  1.00  0.00     0.004 C 
ENDBRANCH  28  29
ENDBRANCH  27  28
ENDBRANCH  26  27
ENDBRANCH  25  26
ENDBRANCH  24  25
ENDBRANCH  23  24
ENDBRANCH  22  23
ENDBRANCH  21  22
ENDBRANCH  20  21
ENDBRANCH  19  20
ENDBRANCH  18  19
ENDBRANCH  17  18
ENDBRANCH   1  17
TORSDOF 26
ENDMDL
MODEL 4
REMARK VINA RESULT:    -2.973      1.728      4.186
REMARK INTER + INTRA:         -13.331
REMARK INTER:                  -7.751
REMARK INTRA:                  -5.580
REMARK UNBOUND:                -5.839
REMARK SMILES CCCCCCCCCCCCCCCCCCCCCCCCCCCC(=O)[O-]
REMARK SMILES IDX 15 1 16 2 17 3 18 4 19 5 20 6 21 7 22 8 23 9 24 10 25 11
REMARK SMILES IDX 26 12 27 13 28 14 29 15 30 16 14 17 13 18 12 19 11 20 10 21
REMARK SMILES IDX 9 22 8 23 7 24 6 25 5 26 4 27 3 28 2 29 1 30
REMARK H PARENT
REMARK Flexibility Score: inf
ROOT
ATOM      1  C   UNL     1      31.972  -2.094 -38.743  1.00  0.00     0.000 C 
ENDROOT
BRANCH   1   2
ATOM      2  C   UNL     1      32.242  -3.604 -38.746  1.00  0.00     0.000 C 
BRANCH   2   3
ATOM      3  C   UNL     1      32.772  -4.071 -37.382  1.00  0.00     0.000 C 
BRANCH   3   4
ATOM      4  C   UNL     1      31.675  -4.683 -36.491  1.00  0.00     0.000 C 
BRANCH   4   5
ATOM      5  C   UNL     1      31.496  -4.006 -35.119  1.00  0.00     0.000 C 
BRANCH   5   6
ATOM      6  C   UNL     1      30.276  -3.072 -35.003  1.00  0.00     0.000 C 
BRANCH   6   7
ATOM      7  C   UNL     1      30.644  -1.588 -34.790  1.00  0.00     0.000 C 
BRANCH   7   8
ATOM      8  C   UNL     1      32.144  -1.312 -34.993  1.00  0.00     0.000 C 
BRANCH   8   9
ATOM      9  C   UNL     1      32.695  -0.301 -33.963  1.00  0.00     0.000 C 
BRANCH   9  10
ATOM     10  C   UNL     1      33.415   0.904 -34.599  1.00  0.00     0.000 C 
BRANCH  10  11
ATOM     11  C   UNL     1      32.948   2.277 -34.089  1.00  0.00     0.000 C 
BRANCH  11  12
ATOM     12  C   UNL     1      31.473   2.285 -33.659  1.00  0.00     0.006 C 
BRANCH  12  13
ATOM     13  C   UNL     1      30.937   3.718 -33.584  1.00  0.00     0.053 C 
BRANCH  13  14
ATOM     14  C   UNL     1      29.987   3.987 -34.708  1.00  0.00     0.041 C 
ATOM     15  O   UNL     1      29.207   3.083 -35.108  1.00  0.00    -0.550 OA
ATOM     16  O   UNL     1      29.958   5.239 -35.314  1.00  0.00    -0.550 OA
ENDBRANCH  13  14
ENDBRANCH  12  13
ENDBRANCH  11  12
ENDBRANCH  10  11
ENDBRANCH   9  10
ENDBRANCH   8   9
ENDBRANCH   7   8
ENDBRANCH   6   7
ENDBRANCH   5   6
ENDBRANCH   4   5
ENDBRANCH   3   4
ENDBRANCH   2   3
ENDBRANCH   1   2
BRANCH   1  17
ATOM     17  C   UNL     1      33.254  -1.257 -38.590  1.00  0.00     0.000 C 
BRANCH  17  18
ATOM     18  C   UNL     1      32.991   0.219 -38.222  1.00  0.00     0.000 C 
BRANCH  18  19
ATOM     19  C   UNL     1      31.592   0.692 -38.654  1.00  0.00     0.000 C 
BRANCH  19  20
ATOM     20  C   UNL     1      30.677   0.981 -37.444  1.00  0.00     0.000 C 
BRANCH  20  21
ATOM     21  C   UNL     1      29.240   0.458 -37.617  1.00  0.00     0.000 C 
BRANCH  21  22
ATOM     22  C   UNL     1      28.916   0.077 -39.070  1.00  0.00    -0.000 C 
BRANCH  22  23
ATOM     23  C   UNL     1      28.194  -1.276 -39.182  1.00  0.00    -0.000 C 
BRANCH  23  24
ATOM     24  C   UNL     1      28.511  -2.220 -38.008  1.00  0.00    -0.000 C 
BRANCH  24  25
ATOM     25  C   UNL     1      28.577  -3.696 -38.455  1.00  0.00    -0.000 C 
BRANCH  25  26
ATOM     26  C   UNL     1      27.843  -4.660 -37.506  1.00  0.00    -0.000 C 
BRANCH  26  27
ATOM     27  C   UNL     1      26.752  -3.965 -36.675  1.00  0.00    -0.000 C 
BRANCH  27  28
ATOM     28  C   UNL     1      26.801  -4.346 -35.184  1.00  0.00    -0.000 C 
BRANCH  28  29
ATOM     29  C   UNL     1      26.576  -3.178 -34.207  1.00  0.00    -0.003 C 
ATOM     30  C   UNL     1      26.779  -1.809 -34.853  1.00  0.00     0.004 C 
ENDBRANCH  28  29
ENDBRANCH  27  28
ENDBRANCH  26  27
ENDBRANCH  25  26
ENDBRANCH  24  25
ENDBRANCH  23  24
ENDBRANCH  22  23
ENDBRANCH  21  22
ENDBRANCH  20  21
ENDBRANCH  19  20
ENDBRANCH  18  19
ENDBRANCH  17  18
ENDBRANCH   1  17
TORSDOF 26
ENDMDL
MODEL 5
REMARK VINA RESULT:    -2.932      2.743      5.180
REMARK INTER + INTRA:         -13.228
REMARK INTER:                  -7.631
REMARK INTRA:                  -5.597
REMARK UNBOUND:                -5.839
REMARK SMILES CCCCCCCCCCCCCCCCCCCCCCCCCCCC(=O)[O-]
REMARK SMILES IDX 15 1 16 2 17 3 18 4 19 5 20 6 21 7 22 8 23 9 24 10 25 11
REMARK SMILES IDX 26 12 27 13 28 14 29 15 30 16 14 17 13 18 12 19 11 20 10 21
REMARK SMILES IDX 9 22 8 23 7 24 6 25 5 26 4 27 3 28 2 29 1 30
REMARK H PARENT
REMARK Flexibility Score: inf
ROOT
ATOM      1  C   UNL     1      30.123   2.139 -36.525  1.00  0.00     0.000 C 
ENDROOT
BRANCH   1   2
ATOM      2  C   UNL     1      29.399   1.514 -37.725  1.00  0.00     0.000 C 
BRANCH   2   3
ATOM      3  C   UNL     1      30.385   1.201 -38.860  1.00  0.00     0.000 C 
BRANCH   3   4
ATOM      4  C   UNL     1      30.468  -0.302 -39.184  1.00  0.00     0.000 C 
BRANCH   4   5
ATOM      5  C   UNL     1      31.408  -1.115 -38.276  1.00  0.00     0.000 C 
BRANCH   5   6
ATOM      6  C   UNL     1      32.908  -0.995 -38.608  1.00  0.00     0.000 C 
BRANCH   6   7
ATOM      7  C   UNL     1      33.790  -0.638 -37.393  1.00  0.00     0.000 C 
BRANCH   7   8
ATOM      8  C   UNL     1      33.000   0.051 -36.266  1.00  0.00     0.000 C 
BRANCH   8   9
ATOM      9  C   UNL     1      33.519  -0.342 -34.866  1.00  0.00     0.000 C 
BRANCH   9  10
ATOM     10  C   UNL     1      32.987   0.555 -33.731  1.00  0.00     0.000 C 
BRANCH  10  11
ATOM     11  C   UNL     1      33.464   2.015 -33.785  1.00  0.00     0.000 C 
BRANCH  11  12
ATOM     12  C   UNL     1      32.472   2.992 -33.135  1.00  0.00     0.006 C 
BRANCH  12  13
ATOM     13  C   UNL     1      32.973   4.435 -33.254  1.00  0.00     0.053 C 
BRANCH  13  14
ATOM     14  C   UNL     1      34.332   4.575 -32.644  1.00  0.00     0.041 C 
ATOM     15  O   UNL     1      34.514   4.295 -31.431  1.00  0.00    -0.550 OA
ATOM     16  O   UNL     1      35.402   5.012 -33.418  1.00  0.00    -0.550 OA
ENDBRANCH  13  14
ENDBRANCH  12  13
ENDBRANCH  11  12
ENDBRANCH  10  11
ENDBRANCH   9  10
ENDBRANCH   8   9
ENDBRANCH   7   8
ENDBRANCH   6   7
ENDBRANCH   5   6
ENDBRANCH   4   5
ENDBRANCH   3   4
ENDBRANCH   2   3
ENDBRANCH   1   2
BRANCH   1  17
ATOM     17  C   UNL     1      29.729   1.493 -35.185  1.00  0.00     0.000 C 
BRANCH  17  18
ATOM     18  C   UNL     1      28.830   0.247 -35.337  1.00  0.00     0.000 C 
BRANCH  18  19
ATOM     19  C   UNL     1      29.523  -1.039 -34.852  1.00  0.00     0.000 C 
BRANCH  19  20
ATOM     20  C   UNL     1      29.046  -2.285 -35.629  1.00  0.00     0.000 C 
BRANCH  20  21
ATOM     21  C   UNL     1      28.068  -1.963 -36.773  1.00  0.00     0.000 C 
BRANCH  21  22
ATOM     22  C   UNL     1      28.173  -2.954 -37.943  1.00  0.00    -0.000 C 
BRANCH  22  23
ATOM     23  C   UNL     1      28.112  -4.420 -37.485  1.00  0.00    -0.000 C 
BRANCH  23  24
ATOM     24  C   UNL     1      28.967  -5.355 -38.358  1.00  0.00    -0.000 C 
BRANCH  24  25
ATOM     25  C   UNL     1      30.263  -4.670 -38.843  1.00  0.00    -0.000 C 
BRANCH  25  26
ATOM     26  C   UNL     1      31.545  -5.404 -38.412  1.00  0.00    -0.000 C 
BRANCH  26  27
ATOM     27  C   UNL     1      32.434  -4.560 -37.484  1.00  0.00    -0.000 C 
BRANCH  27  28
ATOM     28  C   UNL     1      31.764  -4.246 -36.134  1.00  0.00    -0.000 C 
BRANCH  28  29
ATOM     29  C   UNL     1      32.737  -3.960 -34.976  1.00  0.00    -0.003 C 
ATOM     30  C   UNL     1      34.204  -4.036 -35.393  1.00  0.00     0.004 C 
ENDBRANCH  28  29
ENDBRANCH  27  28
ENDBRANCH  26  27
ENDBRANCH  25  26
ENDBRANCH  24  25
ENDBRANCH  23  24
ENDBRANCH  22  23
ENDBRANCH  21  22
ENDBRANCH  20  21
ENDBRANCH  19  20
ENDBRANCH  18  19
ENDBRANCH  17  18
ENDBRANCH   1  17
TORSDOF 26
ENDMDL
MODEL 6
REMARK VINA RESULT:    -2.883      1.690      3.076
REMARK INTER + INTRA:         -13.106
REMARK INTER:                  -7.818
REMARK INTRA:                  -5.287
REMARK UNBOUND:                -5.839
REMARK SMILES CCCCCCCCCCCCCCCCCCCCCCCCCCCC(=O)[O-]
REMARK SMILES IDX 15 1 16 2 17 3 18 4 19 5 20 6 21 7 22 8 23 9 24 10 25 11
REMARK SMILES IDX 26 12 27 13 28 14 29 15 30 16 14 17 13 18 12 19 11 20 10 21
REMARK SMILES IDX 9 22 8 23 7 24 6 25 5 26 4 27 3 28 2 29 1 30
REMARK H PARENT
REMARK Flexibility Score: inf
ROOT
ATOM      1  C   UNL     1      30.306  -0.402 -38.551  1.00  0.00     0.000 C 
ENDROOT
BRANCH   1   2
ATOM      2  C   UNL     1      31.524   0.530 -38.501  1.00  0.00     0.000 C 
BRANCH   2   3
ATOM      3  C   UNL     1      32.832  -0.268 -38.604  1.00  0.00     0.000 C 
BRANCH   3   4
ATOM      4  C   UNL     1      33.639  -0.269 -37.293  1.00  0.00     0.000 C 
BRANCH   4   5
ATOM      5  C   UNL     1      33.307  -1.417 -36.323  1.00  0.00     0.000 C 
BRANCH   5   6
ATOM      6  C   UNL     1      32.633  -0.989 -35.005  1.00  0.00     0.000 C 
BRANCH   6   7
ATOM      7  C   UNL     1      31.116  -1.269 -34.959  1.00  0.00     0.000 C 
BRANCH   7   8
ATOM      8  C   UNL     1      30.274   0.020 -34.922  1.00  0.00     0.000 C 
BRANCH   8   9
ATOM      9  C   UNL     1      31.154   1.289 -34.895  1.00  0.00     0.000 C 
BRANCH   9  10
ATOM     10  C   UNL     1      30.455   2.541 -35.460  1.00  0.00     0.000 C 
BRANCH  10  11
ATOM     11  C   UNL     1      29.134   2.266 -36.198  1.00  0.00     0.000 C 
BRANCH  11  12
ATOM     12  C   UNL     1      28.691   3.440 -37.086  1.00  0.00     0.006 C 
BRANCH  12  13
ATOM     13  C   UNL     1      27.632   2.986 -38.095  1.00  0.00     0.053 C 
BRANCH  13  14
ATOM     14  C   UNL     1      28.256   2.699 -39.424  1.00  0.00     0.041 C 
ATOM     15  O   UNL     1      29.075   3.511 -39.928  1.00  0.00    -0.550 OA
ATOM     16  O   UNL     1      27.936   1.530 -40.108  1.00  0.00    -0.550 OA
ENDBRANCH  13  14
ENDBRANCH  12  13
ENDBRANCH  11  12
ENDBRANCH  10  11
ENDBRANCH   9  10
ENDBRANCH   8   9
ENDBRANCH   7   8
ENDBRANCH   6   7
ENDBRANCH   5   6
ENDBRANCH   4   5
ENDBRANCH   3   4
ENDBRANCH   2   3
ENDBRANCH   1   2
BRANCH   1  17
ATOM     17  C   UNL     1      30.555  -1.666 -39.392  1.00  0.00     0.000 C 
BRANCH  17  18
ATOM     18  C   UNL     1      29.710  -2.881 -38.951  1.00  0.00     0.000 C 
BRANCH  18  19
ATOM     19  C   UNL     1      30.206  -3.491 -37.628  1.00  0.00     0.000 C 
BRANCH  19  20
ATOM     20  C   UNL     1      29.040  -3.974 -36.738  1.00  0.00     0.000 C 
BRANCH  20  21
ATOM     21  C   UNL     1      27.898  -4.641 -37.523  1.00  0.00     0.000 C 
BRANCH  21  22
ATOM     22  C   UNL     1      26.554  -4.589 -36.779  1.00  0.00    -0.000 C 
BRANCH  22  23
ATOM     23  C   UNL     1      26.692  -4.064 -35.341  1.00  0.00    -0.000 C 
BRANCH  23  24
ATOM     24  C   UNL     1      25.507  -4.463 -34.444  1.00  0.00    -0.000 C 
BRANCH  24  25
ATOM     25  C   UNL     1      24.245  -3.626 -34.744  1.00  0.00    -0.000 C 
BRANCH  25  26
ATOM     26  C   UNL     1      24.376  -2.148 -34.338  1.00  0.00    -0.000 C 
BRANCH  26  27
ATOM     27  C   UNL     1      23.760  -1.187 -35.367  1.00  0.00    -0.000 C 
BRANCH  27  28
ATOM     28  C   UNL     1      24.805  -0.283 -36.046  1.00  0.00    -0.000 C 
BRANCH  28  29
ATOM     29  C   UNL     1      25.616  -0.954 -37.169  1.00  0.00    -0.003 C 
ATOM     30  C   UNL     1      27.123  -0.766 -37.014  1.00  0.00     0.004 C 
ENDBRANCH  28  29
ENDBRANCH  27  28
ENDBRANCH  26  27
ENDBRANCH  25  26
ENDBRANCH  24  25
ENDBRANCH  23  24
ENDBRANCH  22  23
ENDBRANCH  21  22
ENDBRANCH  20  21
ENDBRANCH  19  20
ENDBRANCH  18  19
ENDBRANCH  17  18
ENDBRANCH   1  17
TORSDOF 26
ENDMDL
MODEL 7
REMARK VINA RESULT:    -2.876      2.565      6.014
REMARK INTER + INTRA:         -13.086
REMARK INTER:                  -7.593
REMARK INTRA:                  -5.493
REMARK UNBOUND:                -5.839
REMARK SMILES CCCCCCCCCCCCCCCCCCCCCCCCCCCC(=O)[O-]
REMARK SMILES IDX 15 1 16 2 17 3 18 4 19 5 20 6 21 7 22 8 23 9 24 10 25 11
REMARK SMILES IDX 26 12 27 13 28 14 29 15 30 16 14 17 13 18 12 19 11 20 10 21
REMARK SMILES IDX 9 22 8 23 7 24 6 25 5 26 4 27 3 28 2 29 1 30
REMARK H PARENT
REMARK Flexibility Score: inf
ROOT
ATOM      1  C   UNL     1      30.305   1.580 -37.463  1.00  0.00     0.000 C 
ENDROOT
BRANCH   1   2
ATOM      2  C   UNL     1      29.022   2.384 -37.711  1.00  0.00     0.000 C 
BRANCH   2   3
ATOM      3  C   UNL     1      28.684   2.433 -39.209  1.00  0.00     0.000 C 
BRANCH   3   4
ATOM      4  C   UNL     1      27.347   1.747 -39.544  1.00  0.00     0.000 C 
BRANCH   4   5
ATOM      5  C   UNL     1      27.387   0.208 -39.551  1.00  0.00     0.000 C 
BRANCH   5   6
ATOM      6  C   UNL     1      26.706  -0.472 -38.346  1.00  0.00     0.000 C 
BRANCH   6   7
ATOM      7  C   UNL     1      27.697  -1.085 -37.334  1.00  0.00     0.000 C 
BRANCH   7   8
ATOM      8  C   UNL     1      28.756  -1.978 -38.005  1.00  0.00     0.000 C 
BRANCH   8   9
ATOM      9  C   UNL     1      28.271  -3.435 -38.167  1.00  0.00     0.000 C 
BRANCH   9  10
ATOM     10  C   UNL     1      28.011  -4.156 -36.830  1.00  0.00     0.000 C 
BRANCH  10  11
ATOM     11  C   UNL     1      26.618  -4.795 -36.701  1.00  0.00     0.000 C 
BRANCH  11  12
ATOM     12  C   UNL     1      25.892  -4.390 -35.409  1.00  0.00     0.006 C 
BRANCH  12  13
ATOM     13  C   UNL     1      25.230  -3.018 -35.566  1.00  0.00     0.053 C 
BRANCH  13  14
ATOM     14  C   UNL     1      24.053  -2.890 -34.651  1.00  0.00     0.041 C 
ATOM     15  O   UNL     1      23.505  -1.770 -34.477  1.00  0.00    -0.550 OA
ATOM     16  O   UNL     1      23.557  -4.010 -33.992  1.00  0.00    -0.550 OA
ENDBRANCH  13  14
ENDBRANCH  12  13
ENDBRANCH  11  12
ENDBRANCH  10  11
ENDBRANCH   9  10
ENDBRANCH   8   9
ENDBRANCH   7   8
ENDBRANCH   6   7
ENDBRANCH   5   6
ENDBRANCH   4   5
ENDBRANCH   3   4
ENDBRANCH   2   3
ENDBRANCH   1   2
BRANCH   1  17
ATOM     17  C   UNL     1      30.945   1.057 -38.761  1.00  0.00     0.000 C 
BRANCH  17  18
ATOM     18  C   UNL     1      32.346   0.443 -38.559  1.00  0.00     0.000 C 
BRANCH  18  19
ATOM     19  C   UNL     1      32.286  -0.958 -37.925  1.00  0.00     0.000 C 
BRANCH  19  20
ATOM     20  C   UNL     1      33.546  -1.271 -37.088  1.00  0.00     0.000 C 
BRANCH  20  21
ATOM     21  C   UNL     1      33.910  -0.166 -36.082  1.00  0.00     0.000 C 
BRANCH  21  22
ATOM     22  C   UNL     1      33.165  -0.308 -34.745  1.00  0.00    -0.000 C 
BRANCH  22  23
ATOM     23  C   UNL     1      32.223   0.872 -34.462  1.00  0.00    -0.000 C 
BRANCH  23  24
ATOM     24  C   UNL     1      30.804   0.422 -34.067  1.00  0.00    -0.000 C 
BRANCH  24  25
ATOM     25  C   UNL     1      30.416  -0.916 -34.730  1.00  0.00    -0.000 C 
BRANCH  25  26
ATOM     26  C   UNL     1      29.897  -1.968 -33.734  1.00  0.00    -0.000 C 
BRANCH  26  27
ATOM     27  C   UNL     1      30.230  -3.408 -34.158  1.00  0.00    -0.000 C 
BRANCH  27  28
ATOM     28  C   UNL     1      31.219  -3.474 -35.336  1.00  0.00    -0.000 C 
BRANCH  28  29
ATOM     29  C   UNL     1      32.480  -4.318 -35.081  1.00  0.00    -0.003 C 
ATOM     30  C   UNL     1      33.232  -3.904 -33.818  1.00  0.00     0.004 C 
ENDBRANCH  28  29
ENDBRANCH  27  28
ENDBRANCH  26  27
ENDBRANCH  25  26
ENDBRANCH  24  25
ENDBRANCH  23  24
ENDBRANCH  22  23
ENDBRANCH  21  22
ENDBRANCH  20  21
ENDBRANCH  19  20
ENDBRANCH  18  19
ENDBRANCH  17  18
ENDBRANCH   1  17
TORSDOF 26
ENDMDL
MODEL 8
REMARK VINA RESULT:    -2.864      2.902      6.770
REMARK INTER + INTRA:         -13.056
REMARK INTER:                  -7.874
REMARK INTRA:                  -5.182
REMARK UNBOUND:                -5.839
REMARK SMILES CCCCCCCCCCCCCCCCCCCCCCCCCCCC(=O)[O-]
REMARK SMILES IDX 15 1 16 2 17 3 18 4 19 5 20 6 21 7 22 8 23 9 24 10 25 11
REMARK SMILES IDX 26 12 27 13 28 14 29 15 30 16 14 17 13 18 12 19 11 20 10 21
REMARK SMILES IDX 9 22 8 23 7 24 6 25 5 26 4 27 3 28 2 29 1 30
REMARK H PARENT
REMARK Flexibility Score: inf
ROOT
ATOM      1  C   UNL     1      28.708   0.266 -35.015  1.00  0.00     0.000 C 
ENDROOT
BRANCH   1   2
ATOM      2  C   UNL     1      28.564  -0.938 -34.075  1.00  0.00     0.000 C 
BRANCH   2   3
ATOM      3  C   UNL     1      29.934  -1.391 -33.548  1.00  0.00     0.000 C 
BRANCH   3   4
ATOM      4  C   UNL     1      30.068  -2.923 -33.465  1.00  0.00     0.000 C 
BRANCH   4   5
ATOM      5  C   UNL     1      30.276  -3.634 -34.815  1.00  0.00     0.000 C 
BRANCH   5   6
ATOM      6  C   UNL     1      30.670  -2.714 -35.987  1.00  0.00     0.000 C 
BRANCH   6   7
ATOM      7  C   UNL     1      30.111  -3.169 -37.353  1.00  0.00     0.000 C 
BRANCH   7   8
ATOM      8  C   UNL     1      28.576  -3.089 -37.423  1.00  0.00     0.000 C 
BRANCH   8   9
ATOM      9  C   UNL     1      27.932  -4.470 -37.676  1.00  0.00     0.000 C 
BRANCH   9  10
ATOM     10  C   UNL     1      26.790  -4.812 -36.700  1.00  0.00     0.000 C 
BRANCH  10  11
ATOM     11  C   UNL     1      26.529  -3.753 -35.615  1.00  0.00     0.000 C 
BRANCH  11  12
ATOM     12  C   UNL     1      26.732  -4.294 -34.191  1.00  0.00     0.006 C 
BRANCH  12  13
ATOM     13  C   UNL     1      25.779  -3.605 -33.208  1.00  0.00     0.053 C 
BRANCH  13  14
ATOM     14  C   UNL     1      24.490  -4.358 -33.106  1.00  0.00     0.041 C 
ATOM     15  O   UNL     1      24.475  -5.527 -32.641  1.00  0.00    -0.550 OA
ATOM     16  O   UNL     1      23.302  -3.765 -33.521  1.00  0.00    -0.550 OA
ENDBRANCH  13  14
ENDBRANCH  12  13
ENDBRANCH  11  12
ENDBRANCH  10  11
ENDBRANCH   9  10
ENDBRANCH   8   9
ENDBRANCH   7   8
ENDBRANCH   6   7
ENDBRANCH   5   6
ENDBRANCH   4   5
ENDBRANCH   3   4
ENDBRANCH   2   3
ENDBRANCH   1   2
BRANCH   1  17
ATOM     17  C   UNL     1      29.529   1.412 -34.400  1.00  0.00     0.000 C 
BRANCH  17  18
ATOM     18  C   UNL     1      30.685   1.900 -35.298  1.00  0.00     0.000 C 
BRANCH  18  19
ATOM     19  C   UNL     1      32.054   1.791 -34.604  1.00  0.00     0.000 C 
BRANCH  19  20
ATOM     20  C   UNL     1      32.640   0.365 -34.697  1.00  0.00     0.000 C 
BRANCH  20  21
ATOM     21  C   UNL     1      33.895   0.268 -35.582  1.00  0.00     0.000 C 
BRANCH  21  22
ATOM     22  C   UNL     1      33.763  -0.792 -36.687  1.00  0.00    -0.000 C 
BRANCH  22  23
ATOM     23  C   UNL     1      33.543  -0.175 -38.078  1.00  0.00    -0.000 C 
BRANCH  23  24
ATOM     24  C   UNL     1      32.193  -0.573 -38.701  1.00  0.00    -0.000 C 
BRANCH  24  25
ATOM     25  C   UNL     1      31.143   0.552 -38.576  1.00  0.00    -0.000 C 
BRANCH  25  26
ATOM     26  C   UNL     1      29.743   0.143 -39.064  1.00  0.00    -0.000 C 
BRANCH  26  27
ATOM     27  C   UNL     1      28.639   1.097 -38.581  1.00  0.00    -0.000 C 
BRANCH  27  28
ATOM     28  C   UNL     1      29.012   2.582 -38.750  1.00  0.00    -0.000 C 
BRANCH  28  29
ATOM     29  C   UNL     1      28.381   3.533 -37.718  1.00  0.00    -0.003 C 
ATOM     30  C   UNL     1      27.130   2.957 -37.058  1.00  0.00     0.004 C 
ENDBRANCH  28  29
ENDBRANCH  27  28
ENDBRANCH  26  27
ENDBRANCH  25  26
ENDBRANCH  24  25
ENDBRANCH  23  24
ENDBRANCH  22  23
ENDBRANCH  21  22
ENDBRANCH  20  21
ENDBRANCH  19  20
ENDBRANCH  18  19
ENDBRANCH  17  18
ENDBRANCH   1  17
TORSDOF 26
ENDMDL
MODEL 9
REMARK VINA RESULT:    -2.838      1.532      5.856
REMARK INTER + INTRA:         -12.991
REMARK INTER:                  -7.420
REMARK INTRA:                  -5.571
REMARK UNBOUND:                -5.839
REMARK SMILES CCCCCCCCCCCCCCCCCCCCCCCCCCCC(=O)[O-]
REMARK SMILES IDX 15 1 16 2 17 3 18 4 19 5 20 6 21 7 22 8 23 9 24 10 25 11
REMARK SMILES IDX 26 12 27 13 28 14 29 15 30 16 14 17 13 18 12 19 11 20 10 21
REMARK SMILES IDX 9 22 8 23 7 24 6 25 5 26 4 27 3 28 2 29 1 30
REMARK H PARENT
REMARK Flexibility Score: inf
ROOT
ATOM      1  C   UNL     1      30.626  -3.198 -34.272  1.00  0.00     0.000 C 
ENDROOT
BRANCH   1   2
ATOM      2  C   UNL     1      29.366  -2.384 -33.952  1.00  0.00     0.000 C 
BRANCH   2   3
ATOM      3  C   UNL     1      28.877  -1.617 -35.190  1.00  0.00     0.000 C 
BRANCH   3   4
ATOM      4  C   UNL     1      27.381  -1.837 -35.479  1.00  0.00     0.000 C 
BRANCH   4   5
ATOM      5  C   UNL     1      26.735  -3.012 -34.723  1.00  0.00     0.000 C 
BRANCH   5   6
ATOM      6  C   UNL     1      26.600  -4.318 -35.531  1.00  0.00     0.000 C 
BRANCH   6   7
ATOM      7  C   UNL     1      26.898  -4.154 -37.037  1.00  0.00     0.000 C 
BRANCH   7   8
ATOM      8  C   UNL     1      28.045  -5.060 -37.518  1.00  0.00     0.000 C 
BRANCH   8   9
ATOM      9  C   UNL     1      28.843  -4.423 -38.677  1.00  0.00     0.000 C 
BRANCH   9  10
ATOM     10  C   UNL     1      28.703  -2.891 -38.760  1.00  0.00     0.000 C 
BRANCH  10  11
ATOM     11  C   UNL     1      29.065  -2.281 -40.124  1.00  0.00     0.000 C 
BRANCH  11  12
ATOM     12  C   UNL     1      29.133  -0.747 -40.094  1.00  0.00     0.006 C 
BRANCH  12  13
ATOM     13  C   UNL     1      29.441  -0.245 -38.680  1.00  0.00     0.053 C 
BRANCH  13  14
ATOM     14  C   UNL     1      29.861   1.190 -38.707  1.00  0.00     0.041 C 
ATOM     15  O   UNL     1      30.588   1.620 -39.640  1.00  0.00    -0.550 OA
ATOM     16  O   UNL     1      29.447   2.058 -37.702  1.00  0.00    -0.550 OA
ENDBRANCH  13  14
ENDBRANCH  12  13
ENDBRANCH  11  12
ENDBRANCH  10  11
ENDBRANCH   9  10
ENDBRANCH   8   9
ENDBRANCH   7   8
ENDBRANCH   6   7
ENDBRANCH   5   6
ENDBRANCH   4   5
ENDBRANCH   3   4
ENDBRANCH   2   3
ENDBRANCH   1   2
BRANCH   1  17
ATOM     17  C   UNL     1      30.905  -3.301 -35.782  1.00  0.00     0.000 C 
BRANCH  17  18
ATOM     18  C   UNL     1      31.905  -4.417 -36.153  1.00  0.00     0.000 C 
BRANCH  18  19
ATOM     19  C   UNL     1      32.694  -4.094 -37.435  1.00  0.00     0.000 C 
BRANCH  19  20
ATOM     20  C   UNL     1      32.105  -2.882 -38.189  1.00  0.00     0.000 C 
BRANCH  20  21
ATOM     21  C   UNL     1      33.150  -2.085 -38.990  1.00  0.00     0.000 C 
BRANCH  21  22
ATOM     22  C   UNL     1      33.208  -0.604 -38.585  1.00  0.00    -0.000 C 
BRANCH  22  23
ATOM     23  C   UNL     1      32.732  -0.364 -37.144  1.00  0.00    -0.000 C 
BRANCH  23  24
ATOM     24  C   UNL     1      33.895  -0.235 -36.144  1.00  0.00    -0.000 C 
BRANCH  24  25
ATOM     25  C   UNL     1      33.522   0.643 -34.931  1.00  0.00    -0.000 C 
BRANCH  25  26
ATOM     26  C   UNL     1      32.021   0.973 -34.850  1.00  0.00    -0.000 C 
BRANCH  26  27
ATOM     27  C   UNL     1      31.415   0.664 -33.471  1.00  0.00    -0.000 C 
BRANCH  27  28
ATOM     28  C   UNL     1      32.305  -0.256 -32.617  1.00  0.00    -0.000 C 
BRANCH  28  29
ATOM     29  C   UNL     1      32.765   0.344 -31.276  1.00  0.00    -0.003 C 
ATOM     30  C   UNL     1      32.902   1.864 -31.316  1.00  0.00     0.004 C 
ENDBRANCH  28  29
ENDBRANCH  27  28
ENDBRANCH  26  27
ENDBRANCH  25  26
ENDBRANCH  24  25
ENDBRANCH  23  24
ENDBRANCH  22  23
ENDBRANCH  21  22
ENDBRANCH  20  21
ENDBRANCH  19  20
ENDBRANCH  18  19
ENDBRANCH  17  18
ENDBRANCH   1  17
TORSDOF 26
ENDMDL
