MODEL 1
REMARK VINA RESULT:    -7.665      0.000      0.000
REMARK INTER + INTRA:          -9.555
REMARK INTER:                  -9.234
REMARK INTRA:                  -0.321
REMARK UNBOUND:                -0.321
REMARK SMILES O=c1c(O)c(-c2ccc(O)c(O)c2)oc2cc(O)cc(O)c12
REMARK SMILES IDX 5 1 3 2 2 3 1 4 22 5 20 6 19 7 17 8 16 9 15 10 14 11 6 12
REMARK SMILES IDX 7 13 8 14 9 15 13 16 11 17 10 18 12 20 4 22 21 24 18 26
REMARK H PARENT 10 19 12 21 4 23 21 25 18 27
REMARK Flexibility Score: inf
ROOT
ATOM      1  C   UNL     1      38.087  -6.957  19.049  1.00  0.00     0.180 A 
ATOM      2  C   UNL     1      38.696  -7.981  19.795  1.00  0.00     0.208 A 
ATOM      3  C   UNL     1      38.097  -8.399  20.994  1.00  0.00     0.238 A 
ATOM      4  O   UNL     1      38.686  -9.263  21.694  1.00  0.00    -0.285 OA
ATOM      5  C   UNL     1      36.867  -7.830  21.403  1.00  0.00     0.111 A 
ATOM      6  C   UNL     1      36.146  -8.209  22.577  1.00  0.00     0.134 A 
ATOM      7  C   UNL     1      34.993  -7.502  22.938  1.00  0.00     0.093 A 
ATOM      8  C   UNL     1      34.499  -6.470  22.135  1.00  0.00     0.123 A 
ATOM      9  C   UNL     1      35.163  -6.130  20.960  1.00  0.00     0.094 A 
ATOM     10  C   UNL     1      36.338  -6.792  20.593  1.00  0.00     0.146 A 
ATOM     11  O   UNL     1      36.951  -6.418  19.475  1.00  0.00    -0.452 OA
ENDROOT
BRANCH   1  12
ATOM     12  C   UNL     1      38.667  -6.452  17.784  1.00  0.00     0.025 A 
ATOM     13  C   UNL     1      39.490  -5.313  17.759  1.00  0.00     0.016 A 
ATOM     14  C   UNL     1      40.005  -4.841  16.548  1.00  0.00     0.051 A 
ATOM     15  C   UNL     1      39.696  -5.491  15.346  1.00  0.00     0.157 A 
ATOM     16  C   UNL     1      38.343  -7.087  16.574  1.00  0.00     0.062 A 
ATOM     17  C   UNL     1      38.858  -6.618  15.360  1.00  0.00     0.158 A 
BRANCH  15  18
ATOM     18  O   UNL     1      40.213  -5.019  14.141  1.00  0.00    -0.504 OA
ATOM     19  H   UNL     1      41.210  -5.007  13.960  1.00  0.00     0.293 HD
ENDBRANCH  15  18
BRANCH  17  20
ATOM     20  O   UNL     1      38.525  -7.283  14.181  1.00  0.00    -0.504 OA
ATOM     21  H   UNL     1      37.988  -8.143  14.181  1.00  0.00     0.293 HD
ENDBRANCH  17  20
ENDBRANCH   1  12
BRANCH   2  22
ATOM     22  O   UNL     1      39.870  -8.583  19.335  1.00  0.00    -0.502 OA
ATOM     23  H   UNL     1      39.877  -9.496  18.895  1.00  0.00     0.293 HD
ENDBRANCH   2  22
BRANCH   6  24
ATOM     24  O   UNL     1      36.502  -9.280  23.401  1.00  0.00    -0.507 OA
ATOM     25  H   UNL     1      37.131  -9.221  24.187  1.00  0.00     0.293 HD
ENDBRANCH   6  24
BRANCH   8  26
ATOM     26  O   UNL     1      33.341  -5.784  22.493  1.00  0.00    -0.508 OA
ATOM     27  H   UNL     1      32.951  -5.059  21.902  1.00  0.00     0.293 HD
ENDBRANCH   8  26
TORSDOF 6
ENDMDL
MODEL 2
REMARK VINA RESULT:    -7.324     11.313     13.185
REMARK INTER + INTRA:          -9.144
REMARK INTER:                  -9.177
REMARK INTRA:                   0.033
REMARK UNBOUND:                -0.321
REMARK SMILES O=c1c(O)c(-c2ccc(O)c(O)c2)oc2cc(O)cc(O)c12
REMARK SMILES IDX 5 1 3 2 2 3 1 4 22 5 20 6 19 7 17 8 16 9 15 10 14 11 6 12
REMARK SMILES IDX 7 13 8 14 9 15 13 16 11 17 10 18 12 20 4 22 21 24 18 26
REMARK H PARENT 10 19 12 21 4 23 21 25 18 27
REMARK Flexibility Score: inf
ROOT
ATOM      1  C   UNL     1      44.111   4.425  19.856  1.00  0.00     0.180 A 
ATOM      2  C   UNL     1      43.977   5.337  20.917  1.00  0.00     0.208 A 
ATOM      3  C   UNL     1      42.815   5.302  21.704  1.00  0.00     0.238 A 
ATOM      4  O   UNL     1      42.669   6.169  22.604  1.00  0.00    -0.285 OA
ATOM      5  C   UNL     1      41.827   4.319  21.458  1.00  0.00     0.111 A 
ATOM      6  C   UNL     1      40.630   4.161  22.221  1.00  0.00     0.134 A 
ATOM      7  C   UNL     1      39.673   3.220  21.819  1.00  0.00     0.093 A 
ATOM      8  C   UNL     1      39.898   2.389  20.719  1.00  0.00     0.123 A 
ATOM      9  C   UNL     1      41.086   2.497  20.001  1.00  0.00     0.094 A 
ATOM     10  C   UNL     1      42.043   3.452  20.355  1.00  0.00     0.146 A 
ATOM     11  O   UNL     1      43.151   3.535  19.628  1.00  0.00    -0.452 OA
ENDROOT
BRANCH   1  12
ATOM     12  C   UNL     1      45.299   4.411  18.973  1.00  0.00     0.025 A 
ATOM     13  C   UNL     1      46.028   3.231  18.745  1.00  0.00     0.016 A 
ATOM     14  C   UNL     1      47.161   3.248  17.927  1.00  0.00     0.051 A 
ATOM     15  C   UNL     1      47.588   4.444  17.335  1.00  0.00     0.157 A 
ATOM     16  C   UNL     1      45.744   5.611  18.396  1.00  0.00     0.062 A 
ATOM     17  C   UNL     1      46.878   5.632  17.575  1.00  0.00     0.158 A 
BRANCH  15  18
ATOM     18  O   UNL     1      48.717   4.457  16.518  1.00  0.00    -0.504 OA
ATOM     19  H   UNL     1      48.663   4.217  15.535  1.00  0.00     0.293 HD
ENDBRANCH  15  18
BRANCH  17  20
ATOM     20  O   UNL     1      47.281   6.840  17.007  1.00  0.00    -0.504 OA
ATOM     21  H   UNL     1      48.146   6.929  16.488  1.00  0.00     0.293 HD
ENDBRANCH  17  20
ENDBRANCH   1  12
BRANCH   2  22
ATOM     22  O   UNL     1      44.999   6.250  21.192  1.00  0.00    -0.502 OA
ATOM     23  H   UNL     1      45.715   6.073  21.886  1.00  0.00     0.293 HD
ENDBRANCH   2  22
BRANCH   6  24
ATOM     24  O   UNL     1      40.345   4.876  23.388  1.00  0.00    -0.507 OA
ATOM     25  H   UNL     1      40.192   5.872  23.433  1.00  0.00     0.293 HD
ENDBRANCH   6  24
BRANCH   8  26
ATOM     26  O   UNL     1      38.948   1.444  20.336  1.00  0.00    -0.508 OA
ATOM     27  H   UNL     1      37.985   1.504  20.648  1.00  0.00     0.293 HD
ENDBRANCH   8  26
TORSDOF 6
ENDMDL
MODEL 3
REMARK VINA RESULT:    -7.292     13.081     15.569
REMARK INTER + INTRA:          -9.105
REMARK INTER:                  -8.782
REMARK INTRA:                  -0.323
REMARK UNBOUND:                -0.321
REMARK SMILES O=c1c(O)c(-c2ccc(O)c(O)c2)oc2cc(O)cc(O)c12
REMARK SMILES IDX 5 1 3 2 2 3 1 4 22 5 20 6 19 7 17 8 16 9 15 10 14 11 6 12
REMARK SMILES IDX 7 13 8 14 9 15 13 16 11 17 10 18 12 20 4 22 21 24 18 26
REMARK H PARENT 10 19 12 21 4 23 21 25 18 27
REMARK Flexibility Score: inf
ROOT
ATOM      1  C   UNL     1      44.152   4.311  23.972  1.00  0.00     0.180 A 
ATOM      2  C   UNL     1      43.384   3.426  23.196  1.00  0.00     0.208 A 
ATOM      3  C   UNL     1      43.842   3.064  21.920  1.00  0.00     0.238 A 
ATOM      4  O   UNL     1      43.113   2.331  21.203  1.00  0.00    -0.285 OA
ATOM      5  C   UNL     1      45.090   3.545  21.456  1.00  0.00     0.111 A 
ATOM      6  C   UNL     1      45.675   3.208  20.197  1.00  0.00     0.134 A 
ATOM      7  C   UNL     1      46.865   3.828  19.800  1.00  0.00     0.093 A 
ATOM      8  C   UNL     1      47.525   4.728  20.641  1.00  0.00     0.123 A 
ATOM      9  C   UNL     1      46.992   5.021  21.894  1.00  0.00     0.094 A 
ATOM     10  C   UNL     1      45.786   4.447  22.303  1.00  0.00     0.146 A 
ATOM     11  O   UNL     1      45.303   4.773  23.497  1.00  0.00    -0.452 OA
ENDROOT
BRANCH   1  12
ATOM     12  C   UNL     1      43.728   4.752  25.320  1.00  0.00     0.025 A 
ATOM     13  C   UNL     1      44.073   4.023  26.471  1.00  0.00     0.016 A 
ATOM     14  C   UNL     1      43.639   4.445  27.730  1.00  0.00     0.051 A 
ATOM     15  C   UNL     1      42.845   5.593  27.857  1.00  0.00     0.157 A 
ATOM     16  C   UNL     1      42.914   5.889  25.450  1.00  0.00     0.062 A 
ATOM     17  C   UNL     1      42.478   6.315  26.710  1.00  0.00     0.158 A 
BRANCH  15  18
ATOM     18  O   UNL     1      42.416   6.013  29.115  1.00  0.00    -0.504 OA
ATOM     19  H   UNL     1      42.750   5.572  29.964  1.00  0.00     0.293 HD
ENDBRANCH  15  18
BRANCH  17  20
ATOM     20  O   UNL     1      41.683   7.457  26.801  1.00  0.00    -0.504 OA
ATOM     21  H   UNL     1      40.829   7.562  26.266  1.00  0.00     0.293 HD
ENDBRANCH  17  20
ENDBRANCH   1  12
BRANCH   2  22
ATOM     22  O   UNL     1      42.191   2.902  23.703  1.00  0.00    -0.502 OA
ATOM     23  H   UNL     1      42.173   2.153  24.385  1.00  0.00     0.293 HD
ENDBRANCH   2  22
BRANCH   6  24
ATOM     24  O   UNL     1      45.146   2.257  19.319  1.00  0.00    -0.507 OA
ATOM     25  H   UNL     1      44.517   1.514  19.581  1.00  0.00     0.293 HD
ENDBRANCH   6  24
BRANCH   8  26
ATOM     26  O   UNL     1      48.718   5.327  20.245  1.00  0.00    -0.508 OA
ATOM     27  H   UNL     1      49.333   4.889  19.569  1.00  0.00     0.293 HD
ENDBRANCH   8  26
TORSDOF 6
ENDMDL
MODEL 4
REMARK VINA RESULT:    -7.236      7.212      8.435
REMARK INTER + INTRA:          -9.038
REMARK INTER:                  -8.726
REMARK INTRA:                  -0.312
REMARK UNBOUND:                -0.321
REMARK SMILES O=c1c(O)c(-c2ccc(O)c(O)c2)oc2cc(O)cc(O)c12
REMARK SMILES IDX 5 1 3 2 2 3 1 4 22 5 20 6 19 7 17 8 16 9 15 10 14 11 6 12
REMARK SMILES IDX 7 13 8 14 9 15 13 16 11 17 10 18 12 20 4 22 21 24 18 26
REMARK H PARENT 10 19 12 21 4 23 21 25 18 27
REMARK Flexibility Score: inf
ROOT
ATOM      1  C   UNL     1      44.854  -3.945  21.185  1.00  0.00     0.180 A 
ATOM      2  C   UNL     1      45.231  -2.734  21.790  1.00  0.00     0.208 A 
ATOM      3  C   UNL     1      45.120  -2.605  23.183  1.00  0.00     0.238 A 
ATOM      4  O   UNL     1      45.389  -1.494  23.710  1.00  0.00    -0.285 OA
ATOM      5  C   UNL     1      44.689  -3.706  23.962  1.00  0.00     0.111 A 
ATOM      6  C   UNL     1      44.582  -3.704  25.386  1.00  0.00     0.134 A 
ATOM      7  C   UNL     1      44.042  -4.818  26.041  1.00  0.00     0.093 A 
ATOM      8  C   UNL     1      43.662  -5.958  25.328  1.00  0.00     0.123 A 
ATOM      9  C   UNL     1      43.814  -5.992  23.945  1.00  0.00     0.094 A 
ATOM     10  C   UNL     1      44.315  -4.882  23.259  1.00  0.00     0.146 A 
ATOM     11  O   UNL     1      44.421  -4.950  21.937  1.00  0.00    -0.452 OA
ENDROOT
BRANCH   1  12
ATOM     12  C   UNL     1      44.928  -4.152  19.721  1.00  0.00     0.025 A 
ATOM     13  C   UNL     1      46.053  -4.741  19.120  1.00  0.00     0.016 A 
ATOM     14  C   UNL     1      46.110  -4.902  17.733  1.00  0.00     0.051 A 
ATOM     15  C   UNL     1      45.049  -4.468  16.926  1.00  0.00     0.157 A 
ATOM     16  C   UNL     1      43.877  -3.698  18.906  1.00  0.00     0.062 A 
ATOM     17  C   UNL     1      43.930  -3.859  17.517  1.00  0.00     0.158 A 
BRANCH  15  18
ATOM     18  O   UNL     1      45.108  -4.633  15.543  1.00  0.00    -0.504 OA
ATOM     19  H   UNL     1      45.429  -3.890  14.934  1.00  0.00     0.293 HD
ENDBRANCH  15  18
BRANCH  17  20
ATOM     20  O   UNL     1      42.861  -3.409  16.742  1.00  0.00    -0.504 OA
ATOM     21  H   UNL     1      41.923  -3.776  16.854  1.00  0.00     0.293 HD
ENDBRANCH  17  20
ENDBRANCH   1  12
BRANCH   2  22
ATOM     22  O   UNL     1      45.727  -1.684  21.012  1.00  0.00    -0.502 OA
ATOM     23  H   UNL     1      46.694  -1.385  21.055  1.00  0.00     0.293 HD
ENDBRANCH   2  22
BRANCH   6  24
ATOM     24  O   UNL     1      45.013  -2.653  26.201  1.00  0.00    -0.507 OA
ATOM     25  H   UNL     1      45.237  -1.724  25.878  1.00  0.00     0.293 HD
ENDBRANCH   6  24
BRANCH   8  26
ATOM     26  O   UNL     1      43.142  -7.068  25.990  1.00  0.00    -0.508 OA
ATOM     27  H   UNL     1      43.604  -7.969  25.957  1.00  0.00     0.293 HD
ENDBRANCH   8  26
TORSDOF 6
ENDMDL
MODEL 5
REMARK VINA RESULT:    -7.228     12.023     14.878
REMARK INTER + INTRA:          -9.028
REMARK INTER:                  -8.720
REMARK INTRA:                  -0.308
REMARK UNBOUND:                -0.321
REMARK SMILES O=c1c(O)c(-c2ccc(O)c(O)c2)oc2cc(O)cc(O)c12
REMARK SMILES IDX 5 1 3 2 2 3 1 4 22 5 20 6 19 7 17 8 16 9 15 10 14 11 6 12
REMARK SMILES IDX 7 13 8 14 9 15 13 16 11 17 10 18 12 20 4 22 21 24 18 26
REMARK H PARENT 10 19 12 21 4 23 21 25 18 27
REMARK Flexibility Score: inf
ROOT
ATOM      1  C   UNL     1      43.774   4.699  20.364  1.00  0.00     0.180 A 
ATOM      2  C   UNL     1      44.513   4.872  21.548  1.00  0.00     0.208 A 
ATOM      3  C   UNL     1      45.707   5.608  21.503  1.00  0.00     0.238 A 
ATOM      4  O   UNL     1      46.401   5.696  22.549  1.00  0.00    -0.285 OA
ATOM      5  C   UNL     1      46.119   6.212  20.291  1.00  0.00     0.111 A 
ATOM      6  C   UNL     1      47.288   7.018  20.140  1.00  0.00     0.134 A 
ATOM      7  C   UNL     1      47.653   7.475  18.867  1.00  0.00     0.093 A 
ATOM      8  C   UNL     1      46.858   7.207  17.750  1.00  0.00     0.123 A 
ATOM      9  C   UNL     1      45.687   6.469  17.896  1.00  0.00     0.094 A 
ATOM     10  C   UNL     1      45.316   5.967  19.146  1.00  0.00     0.146 A 
ATOM     11  O   UNL     1      44.203   5.248  19.234  1.00  0.00    -0.452 OA
ENDROOT
BRANCH   1  12
ATOM     12  C   UNL     1      42.514   3.922  20.328  1.00  0.00     0.025 A 
ATOM     13  C   UNL     1      41.289   4.496  20.708  1.00  0.00     0.016 A 
ATOM     14  C   UNL     1      40.117   3.735  20.689  1.00  0.00     0.051 A 
ATOM     15  C   UNL     1      40.153   2.389  20.302  1.00  0.00     0.157 A 
ATOM     16  C   UNL     1      42.549   2.567  19.962  1.00  0.00     0.062 A 
ATOM     17  C   UNL     1      41.377   1.802  19.940  1.00  0.00     0.158 A 
BRANCH  15  18
ATOM     18  O   UNL     1      38.982   1.633  20.282  1.00  0.00    -0.504 OA
ATOM     19  H   UNL     1      38.268   1.743  20.992  1.00  0.00     0.293 HD
ENDBRANCH  15  18
BRANCH  17  20
ATOM     20  O   UNL     1      41.449   0.463  19.557  1.00  0.00    -0.504 OA
ATOM     21  H   UNL     1      40.968   0.111  18.738  1.00  0.00     0.293 HD
ENDBRANCH  17  20
ENDBRANCH   1  12
BRANCH   2  22
ATOM     22  O   UNL     1      44.049   4.332  22.751  1.00  0.00    -0.502 OA
ATOM     23  H   UNL     1      43.114   3.958  22.854  1.00  0.00     0.293 HD
ENDBRANCH   2  22
BRANCH   6  24
ATOM     24  O   UNL     1      48.104   7.419  21.202  1.00  0.00    -0.507 OA
ATOM     25  H   UNL     1      48.054   7.054  22.140  1.00  0.00     0.293 HD
ENDBRANCH   6  24
BRANCH   8  26
ATOM     26  O   UNL     1      47.220   7.681  16.491  1.00  0.00    -0.508 OA
ATOM     27  H   UNL     1      46.928   8.595  16.165  1.00  0.00     0.293 HD
ENDBRANCH   8  26
TORSDOF 6
ENDMDL
MODEL 6
REMARK VINA RESULT:    -7.226      7.470      8.869
REMARK INTER + INTRA:          -9.026
REMARK INTER:                  -8.717
REMARK INTRA:                  -0.309
REMARK UNBOUND:                -0.321
REMARK SMILES O=c1c(O)c(-c2ccc(O)c(O)c2)oc2cc(O)cc(O)c12
REMARK SMILES IDX 5 1 3 2 2 3 1 4 22 5 20 6 19 7 17 8 16 9 15 10 14 11 6 12
REMARK SMILES IDX 7 13 8 14 9 15 13 16 11 17 10 18 12 20 4 22 21 24 18 26
REMARK H PARENT 10 19 12 21 4 23 21 25 18 27
REMARK Flexibility Score: inf
ROOT
ATOM      1  C   UNL     1      45.165  -4.040  20.476  1.00  0.00     0.180 A 
ATOM      2  C   UNL     1      46.001  -2.927  20.675  1.00  0.00     0.208 A 
ATOM      3  C   UNL     1      46.247  -2.485  21.984  1.00  0.00     0.238 A 
ATOM      4  O   UNL     1      46.935  -1.445  22.151  1.00  0.00    -0.285 OA
ATOM      5  C   UNL     1      45.702  -3.194  23.082  1.00  0.00     0.111 A 
ATOM      6  C   UNL     1      45.922  -2.863  24.454  1.00  0.00     0.134 A 
ATOM      7  C   UNL     1      45.245  -3.572  25.453  1.00  0.00     0.093 A 
ATOM      8  C   UNL     1      44.403  -4.640  25.134  1.00  0.00     0.123 A 
ATOM      9  C   UNL     1      44.224  -5.007  23.803  1.00  0.00     0.094 A 
ATOM     10  C   UNL     1      44.857  -4.294  22.781  1.00  0.00     0.146 A 
ATOM     11  O   UNL     1      44.640  -4.665  21.524  1.00  0.00    -0.452 OA
ENDROOT
BRANCH   1  12
ATOM     12  C   UNL     1      44.846  -4.555  19.126  1.00  0.00     0.025 A 
ATOM     13  C   UNL     1      43.867  -3.947  18.322  1.00  0.00     0.016 A 
ATOM     14  C   UNL     1      43.566  -4.467  17.060  1.00  0.00     0.051 A 
ATOM     15  C   UNL     1      44.228  -5.608  16.589  1.00  0.00     0.157 A 
ATOM     16  C   UNL     1      45.491  -5.712  18.658  1.00  0.00     0.062 A 
ATOM     17  C   UNL     1      45.193  -6.235  17.395  1.00  0.00     0.158 A 
BRANCH  15  18
ATOM     18  O   UNL     1      43.927  -6.123  15.330  1.00  0.00    -0.504 OA
ATOM     19  H   UNL     1      43.835  -7.120  15.172  1.00  0.00     0.293 HD
ENDBRANCH  15  18
BRANCH  17  20
ATOM     20  O   UNL     1      45.865  -7.376  16.959  1.00  0.00    -0.504 OA
ATOM     21  H   UNL     1      46.876  -7.417  16.901  1.00  0.00     0.293 HD
ENDBRANCH  17  20
ENDBRANCH   1  12
BRANCH   2  22
ATOM     22  O   UNL     1      46.591  -2.288  19.582  1.00  0.00    -0.502 OA
ATOM     23  H   UNL     1      47.564  -2.420  19.334  1.00  0.00     0.293 HD
ENDBRANCH   2  22
BRANCH   6  24
ATOM     24  O   UNL     1      46.809  -1.873  24.887  1.00  0.00    -0.507 OA
ATOM     25  H   UNL     1      46.885  -0.949  24.489  1.00  0.00     0.293 HD
ENDBRANCH   6  24
BRANCH   8  26
ATOM     26  O   UNL     1      43.746  -5.351  26.137  1.00  0.00    -0.508 OA
ATOM     27  H   UNL     1      43.455  -4.905  26.999  1.00  0.00     0.293 HD
ENDBRANCH   8  26
TORSDOF 6
ENDMDL
MODEL 7
REMARK VINA RESULT:    -7.182      9.339     10.839
REMARK INTER + INTRA:          -8.972
REMARK INTER:                  -8.667
REMARK INTRA:                  -0.305
REMARK UNBOUND:                -0.321
REMARK SMILES O=c1c(O)c(-c2ccc(O)c(O)c2)oc2cc(O)cc(O)c12
REMARK SMILES IDX 5 1 3 2 2 3 1 4 22 5 20 6 19 7 17 8 16 9 15 10 14 11 6 12
REMARK SMILES IDX 7 13 8 14 9 15 13 16 11 17 10 18 12 20 4 22 21 24 18 26
REMARK H PARENT 10 19 12 21 4 23 21 25 18 27
REMARK Flexibility Score: inf
ROOT
ATOM      1  C   UNL     1      44.706  -0.062  21.987  1.00  0.00     0.180 A 
ATOM      2  C   UNL     1      44.994  -0.920  20.911  1.00  0.00     0.208 A 
ATOM      3  C   UNL     1      45.079  -2.301  21.144  1.00  0.00     0.238 A 
ATOM      4  O   UNL     1      45.410  -3.054  20.192  1.00  0.00    -0.285 OA
ATOM      5  C   UNL     1      44.818  -2.815  22.437  1.00  0.00     0.111 A 
ATOM      6  C   UNL     1      44.830  -4.203  22.778  1.00  0.00     0.134 A 
ATOM      7  C   UNL     1      44.661  -4.587  24.114  1.00  0.00     0.093 A 
ATOM      8  C   UNL     1      44.419  -3.640  25.111  1.00  0.00     0.123 A 
ATOM      9  C   UNL     1      44.350  -2.289  24.781  1.00  0.00     0.094 A 
ATOM     10  C   UNL     1      44.552  -1.871  23.462  1.00  0.00     0.146 A 
ATOM     11  O   UNL     1      44.499  -0.571  23.196  1.00  0.00    -0.452 OA
ENDROOT
BRANCH   1  12
ATOM     12  C   UNL     1      44.617   1.406  21.824  1.00  0.00     0.025 A 
ATOM     13  C   UNL     1      45.769   2.208  21.760  1.00  0.00     0.016 A 
ATOM     14  C   UNL     1      45.658   3.595  21.631  1.00  0.00     0.051 A 
ATOM     15  C   UNL     1      44.396   4.202  21.575  1.00  0.00     0.157 A 
ATOM     16  C   UNL     1      43.354   2.021  21.790  1.00  0.00     0.062 A 
ATOM     17  C   UNL     1      43.239   3.410  21.659  1.00  0.00     0.158 A 
BRANCH  15  18
ATOM     18  O   UNL     1      44.289   5.585  21.444  1.00  0.00    -0.504 OA
ATOM     19  H   UNL     1      43.911   6.011  20.605  1.00  0.00     0.293 HD
ENDBRANCH  15  18
BRANCH  17  20
ATOM     20  O   UNL     1      41.969   3.983  21.615  1.00  0.00    -0.504 OA
ATOM     21  H   UNL     1      41.730   4.713  20.954  1.00  0.00     0.293 HD
ENDBRANCH  17  20
ENDBRANCH   1  12
BRANCH   2  22
ATOM     22  O   UNL     1      45.174  -0.399  19.626  1.00  0.00    -0.502 OA
ATOM     23  H   UNL     1      44.436  -0.398  18.932  1.00  0.00     0.293 HD
ENDBRANCH   2  22
BRANCH   6  24
ATOM     24  O   UNL     1      44.976  -5.236  21.848  1.00  0.00    -0.507 OA
ATOM     25  H   UNL     1      44.789  -5.156  20.860  1.00  0.00     0.293 HD
ENDBRANCH   6  24
BRANCH   8  26
ATOM     26  O   UNL     1      44.235  -4.033  26.435  1.00  0.00    -0.508 OA
ATOM     27  H   UNL     1      44.959  -3.903  27.132  1.00  0.00     0.293 HD
ENDBRANCH   8  26
TORSDOF 6
ENDMDL
MODEL 8
REMARK VINA RESULT:    -7.146     10.808     12.589
REMARK INTER + INTRA:          -8.929
REMARK INTER:                  -8.651
REMARK INTRA:                  -0.278
REMARK UNBOUND:                -0.321
REMARK SMILES O=c1c(O)c(-c2ccc(O)c(O)c2)oc2cc(O)cc(O)c12
REMARK SMILES IDX 5 1 3 2 2 3 1 4 22 5 20 6 19 7 17 8 16 9 15 10 14 11 6 12
REMARK SMILES IDX 7 13 8 14 9 15 13 16 11 17 10 18 12 20 4 22 21 24 18 26
REMARK H PARENT 10 19 12 21 4 23 21 25 18 27
REMARK Flexibility Score: inf
ROOT
ATOM      1  C   UNL     1      43.761   3.860  19.525  1.00  0.00     0.180 A 
ATOM      2  C   UNL     1      43.617   2.465  19.423  1.00  0.00     0.208 A 
ATOM      3  C   UNL     1      42.469   1.858  19.953  1.00  0.00     0.238 A 
ATOM      4  O   UNL     1      42.382   0.602  19.924  1.00  0.00    -0.285 OA
ATOM      5  C   UNL     1      41.450   2.655  20.527  1.00  0.00     0.111 A 
ATOM      6  C   UNL     1      40.222   2.151  21.055  1.00  0.00     0.134 A 
ATOM      7  C   UNL     1      39.334   3.024  21.695  1.00  0.00     0.093 A 
ATOM      8  C   UNL     1      39.601   4.393  21.772  1.00  0.00     0.123 A 
ATOM      9  C   UNL     1      40.769   4.904  21.212  1.00  0.00     0.094 A 
ATOM     10  C   UNL     1      41.692   4.052  20.600  1.00  0.00     0.146 A 
ATOM     11  O   UNL     1      42.803   4.579  20.100  1.00  0.00    -0.452 OA
ENDROOT
BRANCH   1  12
ATOM     12  C   UNL     1      44.950   4.571  19.005  1.00  0.00     0.025 A 
ATOM     13  C   UNL     1      44.921   5.242  17.770  1.00  0.00     0.016 A 
ATOM     14  C   UNL     1      46.064   5.884  17.289  1.00  0.00     0.051 A 
ATOM     15  C   UNL     1      47.255   5.857  18.027  1.00  0.00     0.157 A 
ATOM     16  C   UNL     1      46.152   4.528  19.730  1.00  0.00     0.062 A 
ATOM     17  C   UNL     1      47.299   5.172  19.252  1.00  0.00     0.158 A 
BRANCH  15  18
ATOM     18  O   UNL     1      48.393   6.502  17.545  1.00  0.00    -0.504 OA
ATOM     19  H   UNL     1      48.491   7.510  17.588  1.00  0.00     0.293 HD
ENDBRANCH  15  18
BRANCH  17  20
ATOM     20  O   UNL     1      48.470   5.119  20.007  1.00  0.00    -0.504 OA
ATOM     21  H   UNL     1      48.560   4.521  20.820  1.00  0.00     0.293 HD
ENDBRANCH  17  20
ENDBRANCH   1  12
BRANCH   2  22
ATOM     22  O   UNL     1      44.600   1.703  18.784  1.00  0.00    -0.502 OA
ATOM     23  H   UNL     1      44.902   0.802  19.133  1.00  0.00     0.293 HD
ENDBRANCH   2  22
BRANCH   6  24
ATOM     24  O   UNL     1      39.817   0.817  20.954  1.00  0.00    -0.507 OA
ATOM     25  H   UNL     1      39.028   0.414  21.435  1.00  0.00     0.293 HD
ENDBRANCH   6  24
BRANCH   8  26
ATOM     26  O   UNL     1      38.703   5.258  22.396  1.00  0.00    -0.508 OA
ATOM     27  H   UNL     1      37.931   4.909  22.953  1.00  0.00     0.293 HD
ENDBRANCH   8  26
TORSDOF 6
ENDMDL
MODEL 9
REMARK VINA RESULT:    -7.098      6.720      9.079
REMARK INTER + INTRA:          -8.871
REMARK INTER:                  -8.549
REMARK INTRA:                  -0.323
REMARK UNBOUND:                -0.321
REMARK SMILES O=c1c(O)c(-c2ccc(O)c(O)c2)oc2cc(O)cc(O)c12
REMARK SMILES IDX 5 1 3 2 2 3 1 4 22 5 20 6 19 7 17 8 16 9 15 10 14 11 6 12
REMARK SMILES IDX 7 13 8 14 9 15 13 16 11 17 10 18 12 20 4 22 21 24 18 26
REMARK H PARENT 10 19 12 21 4 23 21 25 18 27
REMARK Flexibility Score: inf
ROOT
ATOM      1  C   UNL     1      44.515  -4.139  18.637  1.00  0.00     0.180 A 
ATOM      2  C   UNL     1      45.081  -5.181  17.880  1.00  0.00     0.208 A 
ATOM      3  C   UNL     1      44.418  -5.620  16.724  1.00  0.00     0.238 A 
ATOM      4  O   UNL     1      44.891  -6.601  16.093  1.00  0.00    -0.285 OA
ATOM      5  C   UNL     1      43.230  -4.975  16.304  1.00  0.00     0.111 A 
ATOM      6  C   UNL     1      42.499  -5.307  15.122  1.00  0.00     0.134 A 
ATOM      7  C   UNL     1      41.278  -4.671  14.864  1.00  0.00     0.093 A 
ATOM      8  C   UNL     1      40.792  -3.673  15.711  1.00  0.00     0.123 A 
ATOM      9  C   UNL     1      41.524  -3.303  16.836  1.00  0.00     0.094 A 
ATOM     10  C   UNL     1      42.727  -3.946  17.141  1.00  0.00     0.146 A 
ATOM     11  O   UNL     1      43.381  -3.576  18.237  1.00  0.00    -0.452 OA
ENDROOT
BRANCH   1  12
ATOM     12  C   UNL     1      45.146  -3.633  19.877  1.00  0.00     0.025 A 
ATOM     13  C   UNL     1      46.113  -2.614  19.843  1.00  0.00     0.016 A 
ATOM     14  C   UNL     1      46.712  -2.170  21.025  1.00  0.00     0.051 A 
ATOM     15  C   UNL     1      46.363  -2.744  22.255  1.00  0.00     0.157 A 
ATOM     16  C   UNL     1      44.815  -4.221  21.109  1.00  0.00     0.062 A 
ATOM     17  C   UNL     1      45.413  -3.777  22.295  1.00  0.00     0.158 A 
BRANCH  15  18
ATOM     18  O   UNL     1      46.960  -2.297  23.432  1.00  0.00    -0.504 OA
ATOM     19  H   UNL     1      47.161  -2.929  24.198  1.00  0.00     0.293 HD
ENDBRANCH  15  18
BRANCH  17  20
ATOM     20  O   UNL     1      45.049  -4.376  23.500  1.00  0.00    -0.504 OA
ATOM     21  H   UNL     1      44.354  -5.112  23.548  1.00  0.00     0.293 HD
ENDBRANCH  17  20
ENDBRANCH   1  12
BRANCH   2  22
ATOM     22  O   UNL     1      46.295  -5.753  18.270  1.00  0.00    -0.502 OA
ATOM     23  H   UNL     1      46.719  -5.568  19.171  1.00  0.00     0.293 HD
ENDBRANCH   2  22
BRANCH   6  24
ATOM     24  O   UNL     1      42.936  -6.225  14.164  1.00  0.00    -0.507 OA
ATOM     25  H   UNL     1      43.453  -5.990  13.331  1.00  0.00     0.293 HD
ENDBRANCH   6  24
BRANCH   8  26
ATOM     26  O   UNL     1      39.584  -3.034  15.437  1.00  0.00    -0.508 OA
ATOM     27  H   UNL     1      39.059  -2.559  16.163  1.00  0.00     0.293 HD
ENDBRANCH   8  26
TORSDOF 6
ENDMDL
