MODEL 1
REMARK VINA RESULT:    -4.123      0.000      0.000
REMARK INTER + INTRA:          -7.297
REMARK INTER:                  -6.534
REMARK INTRA:                  -0.763
REMARK UNBOUND:                -0.763
REMARK SMILES CCCCCCCCCCCC(=O)[O-]
REMARK SMILES IDX 7 1 8 2 9 3 10 4 11 5 12 6 13 7 14 8 6 9 5 10 4 11 3 12 2 13
REMARK SMILES IDX 1 14
REMARK H PARENT
REMARK Flexibility Score: inf
ROOT
ATOM      1  C   UNL     1       1.971   1.033   7.844  1.00  0.00     0.000 C 
ENDROOT
BRANCH   1   2
ATOM      2  C   UNL     1       1.734   2.241   6.924  1.00  0.00     0.000 C 
BRANCH   2   3
ATOM      3  C   UNL     1       0.812   3.268   7.596  1.00  0.00     0.000 C 
BRANCH   3   4
ATOM      4  C   UNL     1       0.687   4.570   6.788  1.00  0.00     0.006 C 
BRANCH   4   5
ATOM      5  C   UNL     1       1.612   4.597   5.565  1.00  0.00     0.053 C 
BRANCH   5   6
ATOM      6  C   UNL     1       0.884   5.128   4.371  1.00  0.00     0.041 C 
ATOM      7  O   UNL     1      -0.340   5.412   4.450  1.00  0.00    -0.550 OA
ATOM      8  O   UNL     1       1.568   5.356   3.184  1.00  0.00    -0.550 OA
ENDBRANCH   5   6
ENDBRANCH   4   5
ENDBRANCH   3   4
ENDBRANCH   2   3
ENDBRANCH   1   2
BRANCH   1   9
ATOM      9  C   UNL     1       1.320  -0.253   7.314  1.00  0.00     0.000 C 
BRANCH   9  10
ATOM     10  C   UNL     1       1.291  -0.313   5.779  1.00  0.00    -0.000 C 
BRANCH  10  11
ATOM     11  C   UNL     1       1.113  -1.756   5.289  1.00  0.00    -0.000 C 
BRANCH  11  12
ATOM     12  C   UNL     1       2.351  -2.604   5.617  1.00  0.00    -0.000 C 
BRANCH  12  13
ATOM     13  C   UNL     1       3.648  -1.994   5.063  1.00  0.00    -0.003 C 
ATOM     14  C   UNL     1       4.679  -1.706   6.154  1.00  0.00     0.004 C 
ENDBRANCH  12  13
ENDBRANCH  11  12
ENDBRANCH  10  11
ENDBRANCH   9  10
ENDBRANCH   1   9
TORSDOF 10
ENDMDL
MODEL 2
REMARK VINA RESULT:    -4.104      1.745      2.838
REMARK INTER + INTRA:          -7.266
REMARK INTER:                  -6.873
REMARK INTRA:                  -0.393
REMARK UNBOUND:                -0.763
REMARK SMILES CCCCCCCCCCCC(=O)[O-]
REMARK SMILES IDX 7 1 8 2 9 3 10 4 11 5 12 6 13 7 14 8 6 9 5 10 4 11 3 12 2 13
REMARK SMILES IDX 1 14
REMARK H PARENT
REMARK Flexibility Score: inf
ROOT
ATOM      1  C   UNL     1       1.309   2.485   7.544  1.00  0.00     0.000 C 
ENDROOT
BRANCH   1   2
ATOM      2  C   UNL     1       0.496   3.073   8.709  1.00  0.00     0.000 C 
BRANCH   2   3
ATOM      3  C   UNL     1       0.018   4.495   8.381  1.00  0.00     0.000 C 
BRANCH   3   4
ATOM      4  C   UNL     1       0.196   4.851   6.896  1.00  0.00     0.006 C 
BRANCH   4   5
ATOM      5  C   UNL     1      -0.651   6.058   6.473  1.00  0.00     0.053 C 
BRANCH   5   6
ATOM      6  C   UNL     1      -0.630   6.215   4.985  1.00  0.00     0.041 C 
ATOM      7  O   UNL     1      -0.113   5.324   4.262  1.00  0.00    -0.550 OA
ATOM      8  O   UNL     1      -1.224   7.323   4.394  1.00  0.00    -0.550 OA
ENDBRANCH   5   6
ENDBRANCH   4   5
ENDBRANCH   3   4
ENDBRANCH   2   3
ENDBRANCH   1   2
BRANCH   1   9
ATOM      9  C   UNL     1       1.565   0.979   7.701  1.00  0.00     0.000 C 
BRANCH   9  10
ATOM     10  C   UNL     1       1.596   0.241   6.353  1.00  0.00    -0.000 C 
BRANCH  10  11
ATOM     11  C   UNL     1       1.114  -1.207   6.508  1.00  0.00    -0.000 C 
BRANCH  11  12
ATOM     12  C   UNL     1       0.485  -1.719   5.204  1.00  0.00    -0.000 C 
BRANCH  12  13
ATOM     13  C   UNL     1      -0.903  -2.341   5.423  1.00  0.00    -0.003 C 
ATOM     14  C   UNL     1      -1.935  -1.859   4.402  1.00  0.00     0.004 C 
ENDBRANCH  12  13
ENDBRANCH  11  12
ENDBRANCH  10  11
ENDBRANCH   9  10
ENDBRANCH   1   9
TORSDOF 10
ENDMDL
MODEL 3
REMARK VINA RESULT:    -4.057      1.403      2.200
REMARK INTER + INTRA:          -7.192
REMARK INTER:                  -6.595
REMARK INTRA:                  -0.597
REMARK UNBOUND:                -0.763
REMARK SMILES CCCCCCCCCCCC(=O)[O-]
REMARK SMILES IDX 7 1 8 2 9 3 10 4 11 5 12 6 13 7 14 8 6 9 5 10 4 11 3 12 2 13
REMARK SMILES IDX 1 14
REMARK H PARENT
REMARK Flexibility Score: inf
ROOT
ATOM      1  C   UNL     1       1.086   2.274   8.143  1.00  0.00     0.000 C 
ENDROOT
BRANCH   1   2
ATOM      2  C   UNL     1       0.679   3.631   7.546  1.00  0.00     0.000 C 
BRANCH   2   3
ATOM      3  C   UNL     1       1.306   3.828   6.158  1.00  0.00     0.000 C 
BRANCH   3   4
ATOM      4  C   UNL     1       1.066   5.238   5.594  1.00  0.00     0.006 C 
BRANCH   4   5
ATOM      5  C   UNL     1      -0.357   5.422   5.051  1.00  0.00     0.053 C 
BRANCH   5   6
ATOM      6  C   UNL     1      -0.796   6.844   5.210  1.00  0.00     0.041 C 
ATOM      7  O   UNL     1      -0.737   7.637   4.234  1.00  0.00    -0.550 OA
ATOM      8  O   UNL     1      -1.318   7.279   6.421  1.00  0.00    -0.550 OA
ENDBRANCH   5   6
ENDBRANCH   4   5
ENDBRANCH   3   4
ENDBRANCH   2   3
ENDBRANCH   1   2
BRANCH   1   9
ATOM      9  C   UNL     1       2.287   1.645   7.420  1.00  0.00     0.000 C 
BRANCH   9  10
ATOM     10  C   UNL     1       2.100   0.141   7.162  1.00  0.00    -0.000 C 
BRANCH  10  11
ATOM     11  C   UNL     1       1.181  -0.100   5.959  1.00  0.00    -0.000 C 
BRANCH  11  12
ATOM     12  C   UNL     1       1.304  -1.545   5.454  1.00  0.00    -0.000 C 
BRANCH  12  13
ATOM     13  C   UNL     1       2.633  -2.200   5.860  1.00  0.00    -0.003 C 
ATOM     14  C   UNL     1       3.586  -2.388   4.679  1.00  0.00     0.004 C 
ENDBRANCH  12  13
ENDBRANCH  11  12
ENDBRANCH  10  11
ENDBRANCH   9  10
ENDBRANCH   1   9
TORSDOF 10
ENDMDL
MODEL 4
REMARK VINA RESULT:    -3.980      4.925      6.895
REMARK INTER + INTRA:          -7.070
REMARK INTER:                  -5.650
REMARK INTRA:                  -1.420
REMARK UNBOUND:                -0.763
REMARK SMILES CCCCCCCCCCCC(=O)[O-]
REMARK SMILES IDX 7 1 8 2 9 3 10 4 11 5 12 6 13 7 14 8 6 9 5 10 4 11 3 12 2 13
REMARK SMILES IDX 1 14
REMARK H PARENT
REMARK Flexibility Score: inf
ROOT
ATOM      1  C   UNL     1      -2.905  -4.017   6.727  1.00  0.00     0.000 C 
ENDROOT
BRANCH   1   2
ATOM      2  C   UNL     1      -1.403  -4.044   6.405  1.00  0.00     0.000 C 
BRANCH   2   3
ATOM      3  C   UNL     1      -0.789  -2.642   6.543  1.00  0.00     0.000 C 
BRANCH   3   4
ATOM      4  C   UNL     1      -0.156  -2.141   5.235  1.00  0.00     0.006 C 
BRANCH   4   5
ATOM      5  C   UNL     1       0.913  -1.066   5.471  1.00  0.00     0.053 C 
BRANCH   5   6
ATOM      6  C   UNL     1       2.255  -1.699   5.663  1.00  0.00     0.041 C 
ATOM      7  O   UNL     1       2.721  -1.855   6.822  1.00  0.00    -0.550 OA
ATOM      8  O   UNL     1       2.970  -2.160   4.566  1.00  0.00    -0.550 OA
ENDBRANCH   5   6
ENDBRANCH   4   5
ENDBRANCH   3   4
ENDBRANCH   2   3
ENDBRANCH   1   2
BRANCH   1   9
ATOM      9  C   UNL     1      -3.442  -2.592   6.936  1.00  0.00     0.000 C 
BRANCH   9  10
ATOM     10  C   UNL     1      -4.686  -2.298   6.084  1.00  0.00    -0.000 C 
BRANCH  10  11
ATOM     11  C   UNL     1      -4.461  -1.074   5.187  1.00  0.00    -0.000 C 
BRANCH  11  12
ATOM     12  C   UNL     1      -3.545  -1.421   4.004  1.00  0.00    -0.000 C 
BRANCH  12  13
ATOM     13  C   UNL     1      -3.926  -2.750   3.333  1.00  0.00    -0.003 C 
ATOM     14  C   UNL     1      -2.706  -3.582   2.936  1.00  0.00     0.004 C 
ENDBRANCH  12  13
ENDBRANCH  11  12
ENDBRANCH  10  11
ENDBRANCH   9  10
ENDBRANCH   1   9
TORSDOF 10
ENDMDL
MODEL 5
REMARK VINA RESULT:    -3.947      5.344      7.390
REMARK INTER + INTRA:          -7.018
REMARK INTER:                  -6.345
REMARK INTRA:                  -0.673
REMARK UNBOUND:                -0.763
REMARK SMILES CCCCCCCCCCCC(=O)[O-]
REMARK SMILES IDX 7 1 8 2 9 3 10 4 11 5 12 6 13 7 14 8 6 9 5 10 4 11 3 12 2 13
REMARK SMILES IDX 1 14
REMARK H PARENT
REMARK Flexibility Score: inf
ROOT
ATOM      1  C   UNL     1      -2.145  -2.868   5.358  1.00  0.00     0.000 C 
ENDROOT
BRANCH   1   2
ATOM      2  C   UNL     1      -0.698  -2.957   5.867  1.00  0.00     0.000 C 
BRANCH   2   3
ATOM      3  C   UNL     1       0.160  -1.826   5.280  1.00  0.00     0.000 C 
BRANCH   3   4
ATOM      4  C   UNL     1       1.053  -1.153   6.333  1.00  0.00     0.006 C 
BRANCH   4   5
ATOM      5  C   UNL     1       2.520  -1.060   5.891  1.00  0.00     0.053 C 
BRANCH   5   6
ATOM      6  C   UNL     1       3.002  -2.388   5.400  1.00  0.00     0.041 C 
ATOM      7  O   UNL     1       3.464  -2.502   4.234  1.00  0.00    -0.550 OA
ATOM      8  O   UNL     1       2.988  -3.489   6.245  1.00  0.00    -0.550 OA
ENDBRANCH   5   6
ENDBRANCH   4   5
ENDBRANCH   3   4
ENDBRANCH   2   3
ENDBRANCH   1   2
BRANCH   1   9
ATOM      9  C   UNL     1      -2.285  -1.962   4.125  1.00  0.00     0.000 C 
BRANCH   9  10
ATOM     10  C   UNL     1      -3.642  -1.243   4.070  1.00  0.00    -0.000 C 
BRANCH  10  11
ATOM     11  C   UNL     1      -4.791  -2.212   4.375  1.00  0.00    -0.000 C 
BRANCH  11  12
ATOM     12  C   UNL     1      -5.833  -1.558   5.293  1.00  0.00    -0.000 C 
BRANCH  12  13
ATOM     13  C   UNL     1      -5.246  -0.409   6.128  1.00  0.00    -0.003 C 
ATOM     14  C   UNL     1      -6.272   0.225   7.066  1.00  0.00     0.004 C 
ENDBRANCH  12  13
ENDBRANCH  11  12
ENDBRANCH  10  11
ENDBRANCH   9  10
ENDBRANCH   1   9
TORSDOF 10
ENDMDL
MODEL 6
REMARK VINA RESULT:    -3.938      4.866      7.044
REMARK INTER + INTRA:          -7.004
REMARK INTER:                  -5.890
REMARK INTRA:                  -1.114
REMARK UNBOUND:                -0.763
REMARK SMILES CCCCCCCCCCCC(=O)[O-]
REMARK SMILES IDX 7 1 8 2 9 3 10 4 11 5 12 6 13 7 14 8 6 9 5 10 4 11 3 12 2 13
REMARK SMILES IDX 1 14
REMARK H PARENT
REMARK Flexibility Score: inf
ROOT
ATOM      1  C   UNL     1      -1.547  -4.093   5.892  1.00  0.00     0.000 C 
ENDROOT
BRANCH   1   2
ATOM      2  C   UNL     1      -1.511  -2.944   6.912  1.00  0.00     0.000 C 
BRANCH   2   3
ATOM      3  C   UNL     1      -0.137  -2.257   6.914  1.00  0.00     0.000 C 
BRANCH   3   4
ATOM      4  C   UNL     1       0.438  -2.078   5.500  1.00  0.00     0.006 C 
BRANCH   4   5
ATOM      5  C   UNL     1       1.718  -1.232   5.487  1.00  0.00     0.053 C 
BRANCH   5   6
ATOM      6  C   UNL     1       2.924  -2.112   5.392  1.00  0.00     0.041 C 
ATOM      7  O   UNL     1       3.473  -2.317   4.278  1.00  0.00    -0.550 OA
ATOM      8  O   UNL     1       3.472  -2.667   6.541  1.00  0.00    -0.550 OA
ENDBRANCH   5   6
ENDBRANCH   4   5
ENDBRANCH   3   4
ENDBRANCH   2   3
ENDBRANCH   1   2
BRANCH   1   9
ATOM      9  C   UNL     1      -2.772  -4.027   4.967  1.00  0.00     0.000 C 
BRANCH   9  10
ATOM     10  C   UNL     1      -2.462  -3.353   3.621  1.00  0.00    -0.000 C 
BRANCH  10  11
ATOM     11  C   UNL     1      -2.768  -1.851   3.675  1.00  0.00    -0.000 C 
BRANCH  11  12
ATOM     12  C   UNL     1      -4.257  -1.604   3.954  1.00  0.00    -0.000 C 
BRANCH  12  13
ATOM     13  C   UNL     1      -4.486  -0.703   5.178  1.00  0.00    -0.003 C 
ATOM     14  C   UNL     1      -5.028  -1.471   6.384  1.00  0.00     0.004 C 
ENDBRANCH  12  13
ENDBRANCH  11  12
ENDBRANCH  10  11
ENDBRANCH   9  10
ENDBRANCH   1   9
TORSDOF 10
ENDMDL
MODEL 7
REMARK VINA RESULT:    -3.921      5.635      6.937
REMARK INTER + INTRA:          -6.977
REMARK INTER:                  -6.474
REMARK INTRA:                  -0.503
REMARK UNBOUND:                -0.763
REMARK SMILES CCCCCCCCCCCC(=O)[O-]
REMARK SMILES IDX 7 1 8 2 9 3 10 4 11 5 12 6 13 7 14 8 6 9 5 10 4 11 3 12 2 13
REMARK SMILES IDX 1 14
REMARK H PARENT
REMARK Flexibility Score: inf
ROOT
ATOM      1  C   UNL     1      -2.096  -1.679   4.121  1.00  0.00     0.000 C 
ENDROOT
BRANCH   1   2
ATOM      2  C   UNL     1      -3.595  -1.827   3.815  1.00  0.00     0.000 C 
BRANCH   2   3
ATOM      3  C   UNL     1      -4.410  -0.743   4.535  1.00  0.00     0.000 C 
BRANCH   3   4
ATOM      4  C   UNL     1      -4.829  -1.162   5.954  1.00  0.00     0.006 C 
BRANCH   4   5
ATOM      5  C   UNL     1      -5.748  -0.134   6.626  1.00  0.00     0.053 C 
BRANCH   5   6
ATOM      6  C   UNL     1      -7.105  -0.719   6.858  1.00  0.00     0.041 C 
ATOM      7  O   UNL     1      -7.243  -1.963   6.996  1.00  0.00    -0.550 OA
ATOM      8  O   UNL     1      -8.212   0.112   6.971  1.00  0.00    -0.550 OA
ENDBRANCH   5   6
ENDBRANCH   4   5
ENDBRANCH   3   4
ENDBRANCH   2   3
ENDBRANCH   1   2
BRANCH   1   9
ATOM      9  C   UNL     1      -1.545  -2.841   4.961  1.00  0.00     0.000 C 
BRANCH   9  10
ATOM     10  C   UNL     1      -0.436  -2.399   5.928  1.00  0.00    -0.000 C 
BRANCH  10  11
ATOM     11  C   UNL     1       0.533  -1.426   5.244  1.00  0.00    -0.000 C 
BRANCH  11  12
ATOM     12  C   UNL     1       1.798  -1.224   6.091  1.00  0.00    -0.000 C 
BRANCH  12  13
ATOM     13  C   UNL     1       2.764  -2.416   6.003  1.00  0.00    -0.003 C 
ATOM     14  C   UNL     1       3.507  -2.478   4.669  1.00  0.00     0.004 C 
ENDBRANCH  12  13
ENDBRANCH  11  12
ENDBRANCH  10  11
ENDBRANCH   9  10
ENDBRANCH   1   9
TORSDOF 10
ENDMDL
MODEL 8
REMARK VINA RESULT:    -3.915      3.259      6.630
REMARK INTER + INTRA:          -6.967
REMARK INTER:                  -6.273
REMARK INTRA:                  -0.694
REMARK UNBOUND:                -0.763
REMARK SMILES CCCCCCCCCCCC(=O)[O-]
REMARK SMILES IDX 7 1 8 2 9 3 10 4 11 5 12 6 13 7 14 8 6 9 5 10 4 11 3 12 2 13
REMARK SMILES IDX 1 14
REMARK H PARENT
REMARK Flexibility Score: inf
ROOT
ATOM      1  C   UNL     1       2.065   1.551   7.465  1.00  0.00     0.000 C 
ENDROOT
BRANCH   1   2
ATOM      2  C   UNL     1       1.536   0.120   7.278  1.00  0.00     0.000 C 
BRANCH   2   3
ATOM      3  C   UNL     1       1.296  -0.185   5.792  1.00  0.00     0.000 C 
BRANCH   3   4
ATOM      4  C   UNL     1       1.206  -1.692   5.503  1.00  0.00     0.006 C 
BRANCH   4   5
ATOM      5  C   UNL     1       2.372  -2.481   6.113  1.00  0.00     0.053 C 
BRANCH   5   6
ATOM      6  C   UNL     1       3.644  -2.177   5.387  1.00  0.00     0.041 C 
ATOM      7  O   UNL     1       3.715  -2.337   4.140  1.00  0.00    -0.550 OA
ATOM      8  O   UNL     1       4.736  -1.671   6.079  1.00  0.00    -0.550 OA
ENDBRANCH   5   6
ENDBRANCH   4   5
ENDBRANCH   3   4
ENDBRANCH   2   3
ENDBRANCH   1   2
BRANCH   1   9
ATOM      9  C   UNL     1       1.115   2.431   8.291  1.00  0.00     0.000 C 
BRANCH   9  10
ATOM     10  C   UNL     1       0.659   3.686   7.530  1.00  0.00    -0.000 C 
BRANCH  10  11
ATOM     11  C   UNL     1       1.301   3.748   6.138  1.00  0.00    -0.000 C 
BRANCH  11  12
ATOM     12  C   UNL     1       0.665   4.858   5.289  1.00  0.00    -0.000 C 
BRANCH  12  13
ATOM     13  C   UNL     1      -0.359   5.690   6.076  1.00  0.00    -0.003 C 
ATOM     14  C   UNL     1      -1.404   6.350   5.175  1.00  0.00     0.004 C 
ENDBRANCH  12  13
ENDBRANCH  11  12
ENDBRANCH  10  11
ENDBRANCH   9  10
ENDBRANCH   1   9
TORSDOF 10
ENDMDL
MODEL 9
REMARK VINA RESULT:    -3.862      5.780      8.086
REMARK INTER + INTRA:          -6.883
REMARK INTER:                  -5.666
REMARK INTRA:                  -1.217
REMARK UNBOUND:                -0.763
REMARK SMILES CCCCCCCCCCCC(=O)[O-]
REMARK SMILES IDX 7 1 8 2 9 3 10 4 11 5 12 6 13 7 14 8 6 9 5 10 4 11 3 12 2 13
REMARK SMILES IDX 1 14
REMARK H PARENT
REMARK Flexibility Score: inf
ROOT
ATOM      1  C   UNL     1      -4.163  -3.574   3.057  1.00  0.00     0.000 C 
ENDROOT
BRANCH   1   2
ATOM      2  C   UNL     1      -2.665  -3.305   3.273  1.00  0.00     0.000 C 
BRANCH   2   3
ATOM      3  C   UNL     1      -2.163  -3.999   4.548  1.00  0.00     0.000 C 
BRANCH   3   4
ATOM      4  C   UNL     1      -1.613  -3.008   5.586  1.00  0.00     0.006 C 
BRANCH   4   5
ATOM      5  C   UNL     1      -0.642  -1.990   4.973  1.00  0.00     0.053 C 
BRANCH   5   6
ATOM      6  C   UNL     1       0.704  -2.101   5.616  1.00  0.00     0.041 C 
ATOM      7  O   UNL     1       0.801  -2.386   6.839  1.00  0.00    -0.550 OA
ATOM      8  O   UNL     1       1.854  -1.938   4.854  1.00  0.00    -0.550 OA
ENDBRANCH   5   6
ENDBRANCH   4   5
ENDBRANCH   3   4
ENDBRANCH   2   3
ENDBRANCH   1   2
BRANCH   1   9
ATOM      9  C   UNL     1      -5.058  -2.536   3.753  1.00  0.00     0.000 C 
BRANCH   9  10
ATOM     10  C   UNL     1      -4.394  -1.154   3.851  1.00  0.00    -0.000 C 
BRANCH  10  11
ATOM     11  C   UNL     1      -4.496  -0.596   5.276  1.00  0.00    -0.000 C 
BRANCH  11  12
ATOM     12  C   UNL     1      -5.070  -1.646   6.238  1.00  0.00    -0.000 C 
BRANCH  12  13
ATOM     13  C   UNL     1      -5.995  -1.030   7.300  1.00  0.00    -0.003 C 
ATOM     14  C   UNL     1      -6.258   0.457   7.064  1.00  0.00     0.004 C 
ENDBRANCH  12  13
ENDBRANCH  11  12
ENDBRANCH  10  11
ENDBRANCH   9  10
ENDBRANCH   1   9
TORSDOF 10
ENDMDL
