MODEL 1
REMARK VINA RESULT:    -6.220      0.000      0.000
REMARK INTER + INTRA:         -14.820
REMARK INTER:                 -12.037
REMARK INTRA:                  -2.783
REMARK UNBOUND:                -2.783
REMARK SMILES CCCCCCCCCCCCCCCCCC(=O)[O-]
REMARK SMILES IDX 10 1 11 2 12 3 13 4 14 5 15 6 16 7 17 8 18 9 19 10 20 11
REMARK SMILES IDX 9 12 8 13 7 14 6 15 5 16 4 17 3 18 2 19 1 20
REMARK H PARENT
REMARK Flexibility Score: inf
ROOT
ATOM      1  C   UNL     1     -19.078  -9.386  -0.491  1.00  0.00     0.000 C 
ENDROOT
BRANCH   1   2
ATOM      2  C   UNL     1     -18.184  -9.409   0.762  1.00  0.00     0.000 C 
BRANCH   2   3
ATOM      3  C   UNL     1     -17.807  -7.997   1.244  1.00  0.00     0.000 C 
BRANCH   3   4
ATOM      4  C   UNL     1     -16.374  -7.601   0.859  1.00  0.00     0.000 C 
BRANCH   4   5
ATOM      5  C   UNL     1     -15.525  -8.844   0.552  1.00  0.00     0.000 C 
BRANCH   5   6
ATOM      6  C   UNL     1     -15.057  -8.906  -0.914  1.00  0.00     0.000 C 
BRANCH   6   7
ATOM      7  C   UNL     1     -15.662  -7.832  -1.836  1.00  0.00     0.006 C 
BRANCH   7   8
ATOM      8  C   UNL     1     -16.681  -8.402  -2.832  1.00  0.00     0.053 C 
BRANCH   8   9
ATOM      9  C   UNL     1     -16.061  -8.551  -4.185  1.00  0.00     0.041 C 
ATOM     10  O   UNL     1     -16.451  -7.835  -5.144  1.00  0.00    -0.550 OA
ATOM     11  O   UNL     1     -15.084  -9.515  -4.401  1.00  0.00    -0.550 OA
ENDBRANCH   8   9
ENDBRANCH   7   8
ENDBRANCH   6   7
ENDBRANCH   5   6
ENDBRANCH   4   5
ENDBRANCH   3   4
ENDBRANCH   2   3
ENDBRANCH   1   2
BRANCH   1  12
ATOM     12  C   UNL     1     -19.003 -10.699  -1.289  1.00  0.00     0.000 C 
BRANCH  12  13
ATOM     13  C   UNL     1     -19.003 -11.940  -0.380  1.00  0.00    -0.000 C 
BRANCH  13  14
ATOM     14  C   UNL     1     -18.668 -13.237  -1.138  1.00  0.00    -0.000 C 
BRANCH  14  15
ATOM     15  C   UNL     1     -18.216 -13.043  -2.597  1.00  0.00    -0.000 C 
BRANCH  15  16
ATOM     16  C   UNL     1     -16.748 -13.429  -2.828  1.00  0.00    -0.000 C 
BRANCH  16  17
ATOM     17  C   UNL     1     -15.805 -12.343  -2.289  1.00  0.00    -0.000 C 
BRANCH  17  18
ATOM     18  C   UNL     1     -14.885 -12.852  -1.164  1.00  0.00    -0.000 C 
BRANCH  18  19
ATOM     19  C   UNL     1     -15.320 -12.449   0.257  1.00  0.00    -0.003 C 
ATOM     20  C   UNL     1     -15.669 -13.647   1.137  1.00  0.00     0.004 C 
ENDBRANCH  18  19
ENDBRANCH  17  18
ENDBRANCH  16  17
ENDBRANCH  15  16
ENDBRANCH  14  15
ENDBRANCH  13  14
ENDBRANCH  12  13
ENDBRANCH   1  12
TORSDOF 16
ENDMDL
MODEL 2
REMARK VINA RESULT:    -6.200      0.778      1.523
REMARK INTER + INTRA:         -14.783
REMARK INTER:                 -12.201
REMARK INTRA:                  -2.582
REMARK UNBOUND:                -2.783
REMARK SMILES CCCCCCCCCCCCCCCCCC(=O)[O-]
REMARK SMILES IDX 10 1 11 2 12 3 13 4 14 5 15 6 16 7 17 8 18 9 19 10 20 11
REMARK SMILES IDX 9 12 8 13 7 14 6 15 5 16 4 17 3 18 2 19 1 20
REMARK H PARENT
REMARK Flexibility Score: inf
ROOT
ATOM      1  C   UNL     1     -18.963 -10.695  -1.367  1.00  0.00     0.000 C 
ENDROOT
BRANCH   1   2
ATOM      2  C   UNL     1     -19.017  -9.387  -0.557  1.00  0.00     0.000 C 
BRANCH   2   3
ATOM      3  C   UNL     1     -18.002  -9.364   0.598  1.00  0.00     0.000 C 
BRANCH   3   4
ATOM      4  C   UNL     1     -17.865  -7.977   1.242  1.00  0.00     0.000 C 
BRANCH   4   5
ATOM      5  C   UNL     1     -16.530  -7.321   0.853  1.00  0.00     0.000 C 
BRANCH   5   6
ATOM      6  C   UNL     1     -15.647  -8.230  -0.022  1.00  0.00     0.000 C 
BRANCH   6   7
ATOM      7  C   UNL     1     -15.352  -7.689  -1.433  1.00  0.00     0.006 C 
BRANCH   7   8
ATOM      8  C   UNL     1     -16.443  -8.047  -2.451  1.00  0.00     0.053 C 
BRANCH   8   9
ATOM      9  C   UNL     1     -15.829  -8.442  -3.756  1.00  0.00     0.041 C 
ATOM     10  O   UNL     1     -16.329  -8.041  -4.840  1.00  0.00    -0.550 OA
ATOM     11  O   UNL     1     -14.733  -9.295  -3.779  1.00  0.00    -0.550 OA
ENDBRANCH   8   9
ENDBRANCH   7   8
ENDBRANCH   6   7
ENDBRANCH   5   6
ENDBRANCH   4   5
ENDBRANCH   3   4
ENDBRANCH   2   3
ENDBRANCH   1   2
BRANCH   1  12
ATOM     12  C   UNL     1     -19.141 -11.941  -0.483  1.00  0.00     0.000 C 
BRANCH  12  13
ATOM     13  C   UNL     1     -19.045 -13.249  -1.286  1.00  0.00    -0.000 C 
BRANCH  13  14
ATOM     14  C   UNL     1     -18.385 -13.058  -2.665  1.00  0.00    -0.000 C 
BRANCH  14  15
ATOM     15  C   UNL     1     -17.203 -14.000  -2.959  1.00  0.00    -0.000 C 
BRANCH  15  16
ATOM     16  C   UNL     1     -16.751 -14.798  -1.727  1.00  0.00    -0.000 C 
BRANCH  16  17
ATOM     17  C   UNL     1     -15.345 -14.370  -1.282  1.00  0.00    -0.000 C 
BRANCH  17  18
ATOM     18  C   UNL     1     -15.319 -13.780   0.140  1.00  0.00    -0.000 C 
BRANCH  18  19
ATOM     19  C   UNL     1     -15.662 -12.281   0.224  1.00  0.00    -0.003 C 
ATOM     20  C   UNL     1     -15.265 -11.507  -1.032  1.00  0.00     0.004 C 
ENDBRANCH  18  19
ENDBRANCH  17  18
ENDBRANCH  16  17
ENDBRANCH  15  16
ENDBRANCH  14  15
ENDBRANCH  13  14
ENDBRANCH  12  13
ENDBRANCH   1  12
TORSDOF 16
ENDMDL
MODEL 3
REMARK VINA RESULT:    -6.110      2.505      5.569
REMARK INTER + INTRA:         -14.608
REMARK INTER:                 -11.804
REMARK INTRA:                  -2.804
REMARK UNBOUND:                -2.783
REMARK SMILES CCCCCCCCCCCCCCCCCC(=O)[O-]
REMARK SMILES IDX 10 1 11 2 12 3 13 4 14 5 15 6 16 7 17 8 18 9 19 10 20 11
REMARK SMILES IDX 9 12 8 13 7 14 6 15 5 16 4 17 3 18 2 19 1 20
REMARK H PARENT
REMARK Flexibility Score: inf
ROOT
ATOM      1  C   UNL     1     -18.745  -9.129  -0.647  1.00  0.00     0.000 C 
ENDROOT
BRANCH   1   2
ATOM      2  C   UNL     1     -19.062 -10.495  -1.282  1.00  0.00     0.000 C 
BRANCH   2   3
ATOM      3  C   UNL     1     -18.503 -11.671  -0.463  1.00  0.00     0.000 C 
BRANCH   3   4
ATOM      4  C   UNL     1     -18.928 -13.038  -1.021  1.00  0.00     0.000 C 
BRANCH   4   5
ATOM      5  C   UNL     1     -18.508 -13.184  -2.491  1.00  0.00     0.000 C 
BRANCH   5   6
ATOM      6  C   UNL     1     -17.013 -13.515  -2.660  1.00  0.00     0.000 C 
BRANCH   6   7
ATOM      7  C   UNL     1     -16.433 -14.467  -1.598  1.00  0.00     0.006 C 
BRANCH   7   8
ATOM      8  C   UNL     1     -15.092 -13.984  -1.031  1.00  0.00     0.053 C 
BRANCH   8   9
ATOM      9  C   UNL     1     -15.225 -13.668   0.425  1.00  0.00     0.041 C 
ATOM     10  O   UNL     1     -16.273 -13.983   1.050  1.00  0.00    -0.550 OA
ATOM     11  O   UNL     1     -14.214 -12.981   1.084  1.00  0.00    -0.550 OA
ENDBRANCH   8   9
ENDBRANCH   7   8
ENDBRANCH   6   7
ENDBRANCH   5   6
ENDBRANCH   4   5
ENDBRANCH   3   4
ENDBRANCH   2   3
ENDBRANCH   1   2
BRANCH   1  12
ATOM     12  C   UNL     1     -18.149  -9.261   0.764  1.00  0.00     0.000 C 
BRANCH  12  13
ATOM     13  C   UNL     1     -17.439  -7.976   1.224  1.00  0.00    -0.000 C 
BRANCH  13  14
ATOM     14  C   UNL     1     -16.111  -7.728   0.483  1.00  0.00    -0.000 C 
BRANCH  14  15
ATOM     15  C   UNL     1     -15.241  -8.980   0.267  1.00  0.00    -0.000 C 
BRANCH  15  16
ATOM     16  C   UNL     1     -14.697  -9.092  -1.165  1.00  0.00    -0.000 C 
BRANCH  16  17
ATOM     17  C   UNL     1     -15.309 -10.299  -1.891  1.00  0.00    -0.000 C 
BRANCH  17  18
ATOM     18  C   UNL     1     -15.995  -9.919  -3.216  1.00  0.00    -0.000 C 
BRANCH  18  19
ATOM     19  C   UNL     1     -16.338  -8.425  -3.360  1.00  0.00    -0.003 C 
ATOM     20  C   UNL     1     -16.586  -8.005  -4.808  1.00  0.00     0.004 C 
ENDBRANCH  18  19
ENDBRANCH  17  18
ENDBRANCH  16  17
ENDBRANCH  15  16
ENDBRANCH  14  15
ENDBRANCH  13  14
ENDBRANCH  12  13
ENDBRANCH   1  12
TORSDOF 16
ENDMDL
MODEL 4
REMARK VINA RESULT:    -6.100      2.444      5.587
REMARK INTER + INTRA:         -14.589
REMARK INTER:                 -12.040
REMARK INTRA:                  -2.548
REMARK UNBOUND:                -2.783
REMARK SMILES CCCCCCCCCCCCCCCCCC(=O)[O-]
REMARK SMILES IDX 10 1 11 2 12 3 13 4 14 5 15 6 16 7 17 8 18 9 19 10 20 11
REMARK SMILES IDX 9 12 8 13 7 14 6 15 5 16 4 17 3 18 2 19 1 20
REMARK H PARENT
REMARK Flexibility Score: inf
ROOT
ATOM      1  C   UNL     1     -18.732 -10.698  -1.417  1.00  0.00     0.000 C 
ENDROOT
BRANCH   1   2
ATOM      2  C   UNL     1     -18.660 -11.963  -0.543  1.00  0.00     0.000 C 
BRANCH   2   3
ATOM      3  C   UNL     1     -19.041 -13.237  -1.316  1.00  0.00     0.000 C 
BRANCH   3   4
ATOM      4  C   UNL     1     -18.540 -13.224  -2.767  1.00  0.00     0.000 C 
BRANCH   4   5
ATOM      5  C   UNL     1     -17.114 -13.787  -2.860  1.00  0.00     0.000 C 
BRANCH   5   6
ATOM      6  C   UNL     1     -16.057 -12.703  -3.147  1.00  0.00     0.000 C 
BRANCH   6   7
ATOM      7  C   UNL     1     -15.267 -12.222  -1.916  1.00  0.00     0.006 C 
BRANCH   7   8
ATOM      8  C   UNL     1     -14.486 -13.350  -1.228  1.00  0.00     0.053 C 
BRANCH   8   9
ATOM      9  C   UNL     1     -14.933 -13.504   0.190  1.00  0.00     0.041 C 
ATOM     10  O   UNL     1     -15.924 -14.230   0.468  1.00  0.00    -0.550 OA
ATOM     11  O   UNL     1     -14.287 -12.807   1.204  1.00  0.00    -0.550 OA
ENDBRANCH   8   9
ENDBRANCH   7   8
ENDBRANCH   6   7
ENDBRANCH   5   6
ENDBRANCH   4   5
ENDBRANCH   3   4
ENDBRANCH   2   3
ENDBRANCH   1   2
BRANCH   1  12
ATOM     12  C   UNL     1     -19.017  -9.430  -0.594  1.00  0.00     0.000 C 
BRANCH  12  13
ATOM     13  C   UNL     1     -18.245  -9.409   0.737  1.00  0.00    -0.000 C 
BRANCH  13  14
ATOM     14  C   UNL     1     -17.777  -7.996   1.134  1.00  0.00    -0.000 C 
BRANCH  14  15
ATOM     15  C   UNL     1     -16.322  -7.661   0.759  1.00  0.00    -0.000 C 
BRANCH  15  16
ATOM     16  C   UNL     1     -15.589  -8.833   0.089  1.00  0.00    -0.000 C 
BRANCH  16  17
ATOM     17  C   UNL     1     -15.002  -8.410  -1.266  1.00  0.00    -0.000 C 
BRANCH  17  18
ATOM     18  C   UNL     1     -16.076  -7.944  -2.266  1.00  0.00    -0.000 C 
BRANCH  18  19
ATOM     19  C   UNL     1     -16.233  -8.840  -3.508  1.00  0.00    -0.003 C 
ATOM     20  C   UNL     1     -16.656  -8.065  -4.755  1.00  0.00     0.004 C 
ENDBRANCH  18  19
ENDBRANCH  17  18
ENDBRANCH  16  17
ENDBRANCH  15  16
ENDBRANCH  14  15
ENDBRANCH  13  14
ENDBRANCH  12  13
ENDBRANCH   1  12
TORSDOF 16
ENDMDL
MODEL 5
REMARK VINA RESULT:    -5.939      1.149      4.031
REMARK INTER + INTRA:         -14.277
REMARK INTER:                 -11.617
REMARK INTRA:                  -2.660
REMARK UNBOUND:                -2.783
REMARK SMILES CCCCCCCCCCCCCCCCCC(=O)[O-]
REMARK SMILES IDX 10 1 11 2 12 3 13 4 14 5 15 6 16 7 17 8 18 9 19 10 20 11
REMARK SMILES IDX 9 12 8 13 7 14 6 15 5 16 4 17 3 18 2 19 1 20
REMARK H PARENT
REMARK Flexibility Score: inf
ROOT
ATOM      1  C   UNL     1     -16.971 -14.887  -1.902  1.00  0.00     0.000 C 
ENDROOT
BRANCH   1   2
ATOM      2  C   UNL     1     -15.741 -14.631  -1.013  1.00  0.00     0.000 C 
BRANCH   2   3
ATOM      3  C   UNL     1     -16.058 -13.723   0.187  1.00  0.00     0.000 C 
BRANCH   3   4
ATOM      4  C   UNL     1     -14.872 -12.834   0.590  1.00  0.00     0.000 C 
BRANCH   4   5
ATOM      5  C   UNL     1     -15.166 -11.357   0.284  1.00  0.00     0.000 C 
BRANCH   5   6
ATOM      6  C   UNL     1     -15.278 -11.066  -1.224  1.00  0.00     0.000 C 
BRANCH   6   7
ATOM      7  C   UNL     1     -14.836  -9.654  -1.650  1.00  0.00     0.006 C 
BRANCH   7   8
ATOM      8  C   UNL     1     -15.027  -9.395  -3.150  1.00  0.00     0.053 C 
BRANCH   8   9
ATOM      9  C   UNL     1     -16.099  -8.375  -3.371  1.00  0.00     0.041 C 
ATOM     10  O   UNL     1     -16.455  -7.616  -2.432  1.00  0.00    -0.550 OA
ATOM     11  O   UNL     1     -16.740  -8.294  -4.601  1.00  0.00    -0.550 OA
ENDBRANCH   8   9
ENDBRANCH   7   8
ENDBRANCH   6   7
ENDBRANCH   5   6
ENDBRANCH   4   5
ENDBRANCH   3   4
ENDBRANCH   2   3
ENDBRANCH   1   2
BRANCH   1  12
ATOM     12  C   UNL     1     -17.219 -13.749  -2.905  1.00  0.00     0.000 C 
BRANCH  12  13
ATOM     13  C   UNL     1     -18.631 -13.152  -2.779  1.00  0.00    -0.000 C 
BRANCH  13  14
ATOM     14  C   UNL     1     -19.189 -13.234  -1.346  1.00  0.00    -0.000 C 
BRANCH  14  15
ATOM     15  C   UNL     1     -19.122 -11.921  -0.543  1.00  0.00    -0.000 C 
BRANCH  15  16
ATOM     16  C   UNL     1     -18.779 -10.703  -1.412  1.00  0.00    -0.000 C 
BRANCH  16  17
ATOM     17  C   UNL     1     -18.939  -9.399  -0.617  1.00  0.00    -0.000 C 
BRANCH  17  18
ATOM     18  C   UNL     1     -18.100  -9.375   0.674  1.00  0.00    -0.000 C 
BRANCH  18  19
ATOM     19  C   UNL     1     -17.764  -7.968   1.200  1.00  0.00    -0.003 C 
ATOM     20  C   UNL     1     -16.292  -7.600   1.022  1.00  0.00     0.004 C 
ENDBRANCH  18  19
ENDBRANCH  17  18
ENDBRANCH  16  17
ENDBRANCH  15  16
ENDBRANCH  14  15
ENDBRANCH  13  14
ENDBRANCH  12  13
ENDBRANCH   1  12
TORSDOF 16
ENDMDL
MODEL 6
REMARK VINA RESULT:    -5.919      0.975      2.349
REMARK INTER + INTRA:         -14.239
REMARK INTER:                 -11.787
REMARK INTRA:                  -2.452
REMARK UNBOUND:                -2.783
REMARK SMILES CCCCCCCCCCCCCCCCCC(=O)[O-]
REMARK SMILES IDX 10 1 11 2 12 3 13 4 14 5 15 6 16 7 17 8 18 9 19 10 20 11
REMARK SMILES IDX 9 12 8 13 7 14 6 15 5 16 4 17 3 18 2 19 1 20
REMARK H PARENT
REMARK Flexibility Score: inf
ROOT
ATOM      1  C   UNL     1     -19.441 -10.187  -0.539  1.00  0.00     0.000 C 
ENDROOT
BRANCH   1   2
ATOM      2  C   UNL     1     -19.098  -8.755  -0.091  1.00  0.00     0.000 C 
BRANCH   2   3
ATOM      3  C   UNL     1     -18.120  -8.725   1.096  1.00  0.00     0.000 C 
BRANCH   3   4
ATOM      4  C   UNL     1     -16.890  -7.844   0.830  1.00  0.00     0.000 C 
BRANCH   4   5
ATOM      5  C   UNL     1     -15.629  -8.703   0.649  1.00  0.00     0.000 C 
BRANCH   5   6
ATOM      6  C   UNL     1     -15.182  -8.811  -0.821  1.00  0.00     0.000 C 
BRANCH   6   7
ATOM      7  C   UNL     1     -15.819  -7.782  -1.773  1.00  0.00     0.006 C 
BRANCH   7   8
ATOM      8  C   UNL     1     -16.769  -8.422  -2.794  1.00  0.00     0.053 C 
BRANCH   8   9
ATOM      9  C   UNL     1     -16.098  -8.545  -4.125  1.00  0.00     0.041 C 
ATOM     10  O   UNL     1     -15.178  -9.388  -4.295  1.00  0.00    -0.550 OA
ATOM     11  O   UNL     1     -16.454  -7.697  -5.166  1.00  0.00    -0.550 OA
ENDBRANCH   8   9
ENDBRANCH   7   8
ENDBRANCH   6   7
ENDBRANCH   5   6
ENDBRANCH   4   5
ENDBRANCH   3   4
ENDBRANCH   2   3
ENDBRANCH   1   2
BRANCH   1  12
ATOM     12  C   UNL     1     -18.204 -10.966  -1.016  1.00  0.00     0.000 C 
BRANCH  12  13
ATOM     13  C   UNL     1     -17.923 -12.208  -0.153  1.00  0.00    -0.000 C 
BRANCH  13  14
ATOM     14  C   UNL     1     -16.527 -12.182   0.497  1.00  0.00    -0.000 C 
BRANCH  14  15
ATOM     15  C   UNL     1     -15.697 -13.466   0.312  1.00  0.00    -0.000 C 
BRANCH  15  16
ATOM     16  C   UNL     1     -16.249 -14.384  -0.788  1.00  0.00    -0.000 C 
BRANCH  16  17
ATOM     17  C   UNL     1     -15.646 -14.027  -2.155  1.00  0.00    -0.000 C 
BRANCH  17  18
ATOM     18  C   UNL     1     -16.710 -13.862  -3.256  1.00  0.00    -0.000 C 
BRANCH  18  19
ATOM     19  C   UNL     1     -17.939 -14.777  -3.108  1.00  0.00    -0.003 C 
ATOM     20  C   UNL     1     -19.251 -14.001  -2.992  1.00  0.00     0.004 C 
ENDBRANCH  18  19
ENDBRANCH  17  18
ENDBRANCH  16  17
ENDBRANCH  15  16
ENDBRANCH  14  15
ENDBRANCH  13  14
ENDBRANCH  12  13
ENDBRANCH   1  12
TORSDOF 16
ENDMDL
MODEL 7
REMARK VINA RESULT:    -5.894      2.483      4.268
REMARK INTER + INTRA:         -14.190
REMARK INTER:                 -11.321
REMARK INTRA:                  -2.869
REMARK UNBOUND:                -2.783
REMARK SMILES CCCCCCCCCCCCCCCCCC(=O)[O-]
REMARK SMILES IDX 10 1 11 2 12 3 13 4 14 5 15 6 16 7 17 8 18 9 19 10 20 11
REMARK SMILES IDX 9 12 8 13 7 14 6 15 5 16 4 17 3 18 2 19 1 20
REMARK H PARENT
REMARK Flexibility Score: inf
ROOT
ATOM      1  C   UNL     1     -17.353  -7.881   1.087  1.00  0.00     0.000 C 
ENDROOT
BRANCH   1   2
ATOM      2  C   UNL     1     -15.914  -7.945   0.544  1.00  0.00     0.000 C 
BRANCH   2   3
ATOM      3  C   UNL     1     -15.826  -7.565  -0.943  1.00  0.00     0.000 C 
BRANCH   3   4
ATOM      4  C   UNL     1     -15.056  -8.600  -1.777  1.00  0.00     0.000 C 
BRANCH   4   5
ATOM      5  C   UNL     1     -16.022  -9.563  -2.483  1.00  0.00     0.000 C 
BRANCH   5   6
ATOM      6  C   UNL     1     -15.798 -11.036  -2.090  1.00  0.00     0.000 C 
BRANCH   6   7
ATOM      7  C   UNL     1     -15.038 -11.248  -0.768  1.00  0.00     0.006 C 
BRANCH   7   8
ATOM      8  C   UNL     1     -15.850 -12.036   0.268  1.00  0.00     0.053 C 
BRANCH   8   9
ATOM      9  C   UNL     1     -15.059 -13.200   0.775  1.00  0.00     0.041 C 
ATOM     10  O   UNL     1     -14.042 -13.597   0.148  1.00  0.00    -0.550 OA
ATOM     11  O   UNL     1     -15.472 -13.880   1.914  1.00  0.00    -0.550 OA
ENDBRANCH   8   9
ENDBRANCH   7   8
ENDBRANCH   6   7
ENDBRANCH   5   6
ENDBRANCH   4   5
ENDBRANCH   3   4
ENDBRANCH   2   3
ENDBRANCH   1   2
BRANCH   1  12
ATOM     12  C   UNL     1     -18.137  -9.179   0.828  1.00  0.00     0.000 C 
BRANCH  12  13
ATOM     13  C   UNL     1     -19.067  -9.069  -0.392  1.00  0.00    -0.000 C 
BRANCH  13  14
ATOM     14  C   UNL     1     -19.273 -10.415  -1.111  1.00  0.00    -0.000 C 
BRANCH  14  15
ATOM     15  C   UNL     1     -19.371 -11.642  -0.186  1.00  0.00    -0.000 C 
BRANCH  15  16
ATOM     16  C   UNL     1     -19.232 -12.974  -0.937  1.00  0.00    -0.000 C 
BRANCH  16  17
ATOM     17  C   UNL     1     -18.801 -12.740  -2.392  1.00  0.00    -0.000 C 
BRANCH  17  18
ATOM     18  C   UNL     1     -18.599 -14.049  -3.177  1.00  0.00    -0.000 C 
BRANCH  18  19
ATOM     19  C   UNL     1     -17.132 -14.484  -3.340  1.00  0.00    -0.003 C 
ATOM     20  C   UNL     1     -16.483 -14.907  -2.023  1.00  0.00     0.004 C 
ENDBRANCH  18  19
ENDBRANCH  17  18
ENDBRANCH  16  17
ENDBRANCH  15  16
ENDBRANCH  14  15
ENDBRANCH  13  14
ENDBRANCH  12  13
ENDBRANCH   1  12
TORSDOF 16
ENDMDL
MODEL 8
REMARK VINA RESULT:    -5.793      1.093      3.316
REMARK INTER + INTRA:         -13.996
REMARK INTER:                 -11.155
REMARK INTRA:                  -2.841
REMARK UNBOUND:                -2.783
REMARK SMILES CCCCCCCCCCCCCCCCCC(=O)[O-]
REMARK SMILES IDX 10 1 11 2 12 3 13 4 14 5 15 6 16 7 17 8 18 9 19 10 20 11
REMARK SMILES IDX 9 12 8 13 7 14 6 15 5 16 4 17 3 18 2 19 1 20
REMARK H PARENT
REMARK Flexibility Score: inf
ROOT
ATOM      1  C   UNL     1     -15.467  -8.842   0.859  1.00  0.00     0.000 C 
ENDROOT
BRANCH   1   2
ATOM      2  C   UNL     1     -16.392  -7.632   0.635  1.00  0.00     0.000 C 
BRANCH   2   3
ATOM      3  C   UNL     1     -17.783  -7.827   1.262  1.00  0.00     0.000 C 
BRANCH   3   4
ATOM      4  C   UNL     1     -18.437  -9.156   0.856  1.00  0.00     0.000 C 
BRANCH   4   5
ATOM      5  C   UNL     1     -18.895  -9.116  -0.610  1.00  0.00     0.000 C 
BRANCH   5   6
ATOM      6  C   UNL     1     -18.560 -10.408  -1.380  1.00  0.00     0.000 C 
BRANCH   6   7
ATOM      7  C   UNL     1     -17.590 -10.228  -2.563  1.00  0.00     0.006 C 
BRANCH   7   8
ATOM      8  C   UNL     1     -17.148  -8.772  -2.758  1.00  0.00     0.053 C 
BRANCH   8   9
ATOM      9  C   UNL     1     -16.286  -8.647  -3.973  1.00  0.00     0.041 C 
ATOM     10  O   UNL     1     -15.126  -9.136  -3.982  1.00  0.00    -0.550 OA
ATOM     11  O   UNL     1     -16.744  -7.946  -5.083  1.00  0.00    -0.550 OA
ENDBRANCH   8   9
ENDBRANCH   7   8
ENDBRANCH   6   7
ENDBRANCH   5   6
ENDBRANCH   4   5
ENDBRANCH   3   4
ENDBRANCH   2   3
ENDBRANCH   1   2
BRANCH   1  12
ATOM     12  C   UNL     1     -14.632  -9.182  -0.387  1.00  0.00     0.000 C 
BRANCH  12  13
ATOM     13  C   UNL     1     -14.711 -10.673  -0.757  1.00  0.00    -0.000 C 
BRANCH  13  14
ATOM     14  C   UNL     1     -15.536 -11.497   0.249  1.00  0.00    -0.000 C 
BRANCH  14  15
ATOM     15  C   UNL     1     -14.829 -12.749   0.801  1.00  0.00    -0.000 C 
BRANCH  15  16
ATOM     16  C   UNL     1     -15.731 -13.992   0.809  1.00  0.00    -0.000 C 
BRANCH  16  17
ATOM     17  C   UNL     1     -16.822 -13.886  -0.266  1.00  0.00    -0.000 C 
BRANCH  17  18
ATOM     18  C   UNL     1     -16.500 -14.704  -1.530  1.00  0.00    -0.000 C 
BRANCH  18  19
ATOM     19  C   UNL     1     -16.820 -13.993  -2.858  1.00  0.00    -0.003 C 
ATOM     20  C   UNL     1     -15.680 -13.102  -3.348  1.00  0.00     0.004 C 
ENDBRANCH  18  19
ENDBRANCH  17  18
ENDBRANCH  16  17
ENDBRANCH  15  16
ENDBRANCH  14  15
ENDBRANCH  13  14
ENDBRANCH  12  13
ENDBRANCH   1  12
TORSDOF 16
ENDMDL
MODEL 9
REMARK VINA RESULT:    -5.744      2.230      5.678
REMARK INTER + INTRA:         -13.900
REMARK INTER:                 -11.286
REMARK INTRA:                  -2.614
REMARK UNBOUND:                -2.783
REMARK SMILES CCCCCCCCCCCCCCCCCC(=O)[O-]
REMARK SMILES IDX 10 1 11 2 12 3 13 4 14 5 15 6 16 7 17 8 18 9 19 10 20 11
REMARK SMILES IDX 9 12 8 13 7 14 6 15 5 16 4 17 3 18 2 19 1 20
REMARK H PARENT
REMARK Flexibility Score: inf
ROOT
ATOM      1  C   UNL     1     -16.622  -8.524  -2.938  1.00  0.00     0.000 C 
ENDROOT
BRANCH   1   2
ATOM      2  C   UNL     1     -15.496  -8.750  -3.962  1.00  0.00     0.000 C 
BRANCH   2   3
ATOM      3  C   UNL     1     -15.109 -10.233  -4.098  1.00  0.00     0.000 C 
BRANCH   3   4
ATOM      4  C   UNL     1     -15.867 -11.137  -3.115  1.00  0.00     0.000 C 
BRANCH   4   5
ATOM      5  C   UNL     1     -15.563 -12.618  -3.385  1.00  0.00     0.000 C 
BRANCH   5   6
ATOM      6  C   UNL     1     -16.689 -13.559  -2.917  1.00  0.00     0.000 C 
BRANCH   6   7
ATOM      7  C   UNL     1     -16.314 -14.493  -1.751  1.00  0.00     0.006 C 
BRANCH   7   8
ATOM      8  C   UNL     1     -15.033 -14.061  -1.027  1.00  0.00     0.053 C 
BRANCH   8   9
ATOM      9  C   UNL     1     -15.368 -13.319   0.228  1.00  0.00     0.041 C 
ATOM     10  O   UNL     1     -15.019 -12.117   0.367  1.00  0.00    -0.550 OA
ATOM     11  O   UNL     1     -16.023 -13.968   1.267  1.00  0.00    -0.550 OA
ENDBRANCH   8   9
ENDBRANCH   7   8
ENDBRANCH   6   7
ENDBRANCH   5   6
ENDBRANCH   4   5
ENDBRANCH   3   4
ENDBRANCH   2   3
ENDBRANCH   1   2
BRANCH   1  12
ATOM     12  C   UNL     1     -16.161  -7.688  -1.732  1.00  0.00     0.000 C 
BRANCH  12  13
ATOM     13  C   UNL     1     -15.281  -8.493  -0.762  1.00  0.00    -0.000 C 
BRANCH  13  14
ATOM     14  C   UNL     1     -15.790  -8.442   0.691  1.00  0.00    -0.000 C 
BRANCH  14  15
ATOM     15  C   UNL     1     -17.126  -7.704   0.889  1.00  0.00    -0.000 C 
BRANCH  15  16
ATOM     16  C   UNL     1     -18.296  -8.651   1.196  1.00  0.00    -0.000 C 
BRANCH  16  17
ATOM     17  C   UNL     1     -19.299  -8.677   0.034  1.00  0.00    -0.000 C 
BRANCH  17  18
ATOM     18  C   UNL     1     -19.100  -9.881  -0.905  1.00  0.00    -0.000 C 
BRANCH  18  19
ATOM     19  C   UNL     1     -18.322 -11.058  -0.289  1.00  0.00    -0.003 C 
ATOM     20  C   UNL     1     -19.042 -12.397  -0.446  1.00  0.00     0.004 C 
ENDBRANCH  18  19
ENDBRANCH  17  18
ENDBRANCH  16  17
ENDBRANCH  15  16
ENDBRANCH  14  15
ENDBRANCH  13  14
ENDBRANCH  12  13
ENDBRANCH   1  12
TORSDOF 16
ENDMDL
