MODEL 1
REMARK VINA RESULT:    -8.539      0.000      0.000
REMARK INTER + INTRA:         -10.352
REMARK INTER:                 -10.036
REMARK INTRA:                  -0.316
REMARK UNBOUND:                -0.316
REMARK SMILES O=c1cc(-c2ccc(O)c(O)c2)oc2cc(O)cc(O)c12
REMARK SMILES IDX 4 1 3 2 2 3 1 4 21 5 19 6 18 7 16 8 15 9 14 10 13 11 5 12
REMARK SMILES IDX 6 13 7 14 8 15 12 16 10 17 9 18 11 20 20 22 17 24
REMARK H PARENT 9 19 11 21 20 23 17 25
REMARK Flexibility Score: inf
ROOT
ATOM      1  C   UNL     1     -12.106 -13.157  15.001  1.00  0.00     0.138 A 
ATOM      2  C   UNL     1     -12.555 -12.988  16.317  1.00  0.00     0.100 A 
ATOM      3  C   UNL     1     -13.904 -13.186  16.617  1.00  0.00     0.197 A 
ATOM      4  O   UNL     1     -14.266 -13.080  17.817  1.00  0.00    -0.289 OA
ATOM      5  C   UNL     1     -14.813 -13.520  15.586  1.00  0.00     0.107 A 
ATOM      6  C   UNL     1     -16.216 -13.712  15.767  1.00  0.00     0.134 A 
ATOM      7  C   UNL     1     -16.999 -14.139  14.686  1.00  0.00     0.093 A 
ATOM      8  C   UNL     1     -16.444 -14.323  13.421  1.00  0.00     0.123 A 
ATOM      9  C   UNL     1     -15.083 -14.089  13.221  1.00  0.00     0.094 A 
ATOM     10  C   UNL     1     -14.268 -13.698  14.285  1.00  0.00     0.146 A 
ATOM     11  O   UNL     1     -12.974 -13.503  14.056  1.00  0.00    -0.456 OA
ENDROOT
BRANCH   1  12
ATOM     12  C   UNL     1     -10.684 -12.956  14.625  1.00  0.00     0.021 A 
ATOM     13  C   UNL     1      -9.759 -12.369  15.510  1.00  0.00     0.016 A 
ATOM     14  C   UNL     1      -8.424 -12.202  15.132  1.00  0.00     0.051 A 
ATOM     15  C   UNL     1      -7.986 -12.624  13.874  1.00  0.00     0.157 A 
ATOM     16  C   UNL     1     -10.234 -13.390  13.365  1.00  0.00     0.062 A 
ATOM     17  C   UNL     1      -8.894 -13.222  12.985  1.00  0.00     0.158 A 
BRANCH  15  18
ATOM     18  O   UNL     1      -6.648 -12.442  13.526  1.00  0.00    -0.504 OA
ATOM     19  H   UNL     1      -6.143 -13.115  12.961  1.00  0.00     0.293 HD
ENDBRANCH  15  18
BRANCH  17  20
ATOM     20  O   UNL     1      -8.463 -13.648  11.730  1.00  0.00    -0.504 OA
ATOM     21  H   UNL     1      -8.838 -13.251  10.877  1.00  0.00     0.293 HD
ENDBRANCH  17  20
ENDBRANCH   1  12
BRANCH   6  22
ATOM     22  O   UNL     1     -16.890 -13.481  16.969  1.00  0.00    -0.507 OA
ATOM     23  H   UNL     1     -16.457 -13.175  17.827  1.00  0.00     0.293 HD
ENDBRANCH   6  22
BRANCH   8  24
ATOM     24  O   UNL     1     -17.257 -14.732  12.366  1.00  0.00    -0.508 OA
ATOM     25  H   UNL     1     -17.769 -15.605  12.399  1.00  0.00     0.293 HD
ENDBRANCH   8  24
TORSDOF 5
ENDMDL
MODEL 2
REMARK VINA RESULT:    -8.244      1.308      2.808
REMARK INTER + INTRA:         -10.006
REMARK INTER:                  -9.711
REMARK INTRA:                  -0.295
REMARK UNBOUND:                -0.316
REMARK SMILES O=c1cc(-c2ccc(O)c(O)c2)oc2cc(O)cc(O)c12
REMARK SMILES IDX 4 1 3 2 2 3 1 4 21 5 19 6 18 7 16 8 15 9 14 10 13 11 5 12
REMARK SMILES IDX 6 13 7 14 8 15 12 16 10 17 9 18 11 20 20 22 17 24
REMARK H PARENT 9 19 11 21 20 23 17 25
REMARK Flexibility Score: inf
ROOT
ATOM      1  C   UNL     1     -12.017 -13.118  15.071  1.00  0.00     0.138 A 
ATOM      2  C   UNL     1     -12.850 -13.624  14.065  1.00  0.00     0.100 A 
ATOM      3  C   UNL     1     -14.199 -13.860  14.339  1.00  0.00     0.197 A 
ATOM      4  O   UNL     1     -14.932 -14.261  13.399  1.00  0.00    -0.289 OA
ATOM      5  C   UNL     1     -14.705 -13.622  15.638  1.00  0.00     0.107 A 
ATOM      6  C   UNL     1     -16.053 -13.859  16.043  1.00  0.00     0.134 A 
ATOM      7  C   UNL     1     -16.462 -13.491  17.331  1.00  0.00     0.093 A 
ATOM      8  C   UNL     1     -15.561 -12.950  18.247  1.00  0.00     0.123 A 
ATOM      9  C   UNL     1     -14.228 -12.762  17.879  1.00  0.00     0.094 A 
ATOM     10  C   UNL     1     -13.797 -13.085  16.591  1.00  0.00     0.146 A 
ATOM     11  O   UNL     1     -12.524 -12.873  16.274  1.00  0.00    -0.456 OA
ENDROOT
BRANCH   1  12
ATOM     12  C   UNL     1     -10.575 -12.851  14.836  1.00  0.00     0.021 A 
ATOM     13  C   UNL     1      -9.735 -12.364  15.855  1.00  0.00     0.016 A 
ATOM     14  C   UNL     1      -8.380 -12.132  15.607  1.00  0.00     0.051 A 
ATOM     15  C   UNL     1      -7.837 -12.389  14.346  1.00  0.00     0.157 A 
ATOM     16  C   UNL     1     -10.020 -13.121  13.572  1.00  0.00     0.062 A 
ATOM     17  C   UNL     1      -8.660 -12.888  13.322  1.00  0.00     0.158 A 
BRANCH  15  18
ATOM     18  O   UNL     1      -6.481 -12.146  14.129  1.00  0.00    -0.504 OA
ATOM     19  H   UNL     1      -5.817 -12.083  14.892  1.00  0.00     0.293 HD
ENDBRANCH  15  18
BRANCH  17  20
ATOM     20  O   UNL     1      -8.124 -13.150  12.063  1.00  0.00    -0.504 OA
ATOM     21  H   UNL     1      -8.380 -13.978  11.538  1.00  0.00     0.293 HD
ENDBRANCH  17  20
ENDBRANCH   1  12
BRANCH   6  22
ATOM     22  O   UNL     1     -17.019 -14.466  15.235  1.00  0.00    -0.507 OA
ATOM     23  H   UNL     1     -17.359 -15.409  15.348  1.00  0.00     0.293 HD
ENDBRANCH   6  22
BRANCH   8  24
ATOM     24  O   UNL     1     -15.999 -12.611  19.525  1.00  0.00    -0.508 OA
ATOM     25  H   UNL     1     -15.934 -11.662  19.873  1.00  0.00     0.293 HD
ENDBRANCH   8  24
TORSDOF 5
ENDMDL
MODEL 3
REMARK VINA RESULT:    -7.739      1.535      3.232
REMARK INTER + INTRA:          -9.412
REMARK INTER:                  -9.094
REMARK INTRA:                  -0.318
REMARK UNBOUND:                -0.316
REMARK SMILES O=c1cc(-c2ccc(O)c(O)c2)oc2cc(O)cc(O)c12
REMARK SMILES IDX 4 1 3 2 2 3 1 4 21 5 19 6 18 7 16 8 15 9 14 10 13 11 5 12
REMARK SMILES IDX 6 13 7 14 8 15 12 16 10 17 9 18 11 20 20 22 17 24
REMARK H PARENT 9 19 11 21 20 23 17 25
REMARK Flexibility Score: inf
ROOT
ATOM      1  C   UNL     1     -11.888 -13.128  15.036  1.00  0.00     0.138 A 
ATOM      2  C   UNL     1     -12.735 -13.630  14.038  1.00  0.00     0.100 A 
ATOM      3  C   UNL     1     -14.082 -13.855  14.325  1.00  0.00     0.197 A 
ATOM      4  O   UNL     1     -14.828 -14.253  13.394  1.00  0.00    -0.289 OA
ATOM      5  C   UNL     1     -14.574 -13.611  15.630  1.00  0.00     0.107 A 
ATOM      6  C   UNL     1     -15.920 -13.837  16.047  1.00  0.00     0.134 A 
ATOM      7  C   UNL     1     -16.314 -13.464  17.339  1.00  0.00     0.093 A 
ATOM      8  C   UNL     1     -15.400 -12.928  18.245  1.00  0.00     0.123 A 
ATOM      9  C   UNL     1     -14.069 -12.750  17.863  1.00  0.00     0.094 A 
ATOM     10  C   UNL     1     -13.653 -13.079  16.572  1.00  0.00     0.146 A 
ATOM     11  O   UNL     1     -12.382 -12.877  16.243  1.00  0.00    -0.456 OA
ENDROOT
BRANCH   1  12
ATOM     12  C   UNL     1     -10.447 -12.872  14.786  1.00  0.00     0.021 A 
ATOM     13  C   UNL     1      -9.872 -13.048  13.513  1.00  0.00     0.016 A 
ATOM     14  C   UNL     1      -8.515 -12.790  13.305  1.00  0.00     0.051 A 
ATOM     15  C   UNL     1      -7.710 -12.346  14.358  1.00  0.00     0.157 A 
ATOM     16  C   UNL     1      -9.634 -12.413  15.838  1.00  0.00     0.062 A 
ATOM     17  C   UNL     1      -8.271 -12.154  15.631  1.00  0.00     0.158 A 
BRANCH  15  18
ATOM     18  O   UNL     1      -6.358 -12.098  14.119  1.00  0.00    -0.504 OA
ATOM     19  H   UNL     1      -5.769 -11.630  14.799  1.00  0.00     0.293 HD
ENDBRANCH  15  18
BRANCH  17  20
ATOM     20  O   UNL     1      -7.475 -11.708  16.684  1.00  0.00    -0.504 OA
ATOM     21  H   UNL     1      -7.744 -11.850  17.650  1.00  0.00     0.293 HD
ENDBRANCH  17  20
ENDBRANCH   1  12
BRANCH   6  22
ATOM     22  O   UNL     1     -16.898 -14.439  15.250  1.00  0.00    -0.507 OA
ATOM     23  H   UNL     1     -17.674 -14.983  15.597  1.00  0.00     0.293 HD
ENDBRANCH   6  22
BRANCH   8  24
ATOM     24  O   UNL     1     -15.823 -12.583  19.527  1.00  0.00    -0.508 OA
ATOM     25  H   UNL     1     -16.173 -11.657  19.738  1.00  0.00     0.293 HD
ENDBRANCH   8  24
TORSDOF 5
ENDMDL
MODEL 4
REMARK VINA RESULT:    -7.398      1.720      2.376
REMARK INTER + INTRA:          -9.012
REMARK INTER:                  -8.743
REMARK INTRA:                  -0.268
REMARK UNBOUND:                -0.316
REMARK SMILES O=c1cc(-c2ccc(O)c(O)c2)oc2cc(O)cc(O)c12
REMARK SMILES IDX 4 1 3 2 2 3 1 4 21 5 19 6 18 7 16 8 15 9 14 10 13 11 5 12
REMARK SMILES IDX 6 13 7 14 8 15 12 16 10 17 9 18 11 20 20 22 17 24
REMARK H PARENT 9 19 11 21 20 23 17 25
REMARK Flexibility Score: inf
ROOT
ATOM      1  C   UNL     1     -10.740 -12.319  14.682  1.00  0.00     0.138 A 
ATOM      2  C   UNL     1     -11.127 -12.621  15.994  1.00  0.00     0.100 A 
ATOM      3  C   UNL     1     -12.479 -12.810  16.289  1.00  0.00     0.197 A 
ATOM      4  O   UNL     1     -12.789 -13.135  17.463  1.00  0.00    -0.289 OA
ATOM      5  C   UNL     1     -13.449 -12.658  15.270  1.00  0.00     0.107 A 
ATOM      6  C   UNL     1     -14.857 -12.792  15.460  1.00  0.00     0.134 A 
ATOM      7  C   UNL     1     -15.713 -12.717  14.353  1.00  0.00     0.093 A 
ATOM      8  C   UNL     1     -15.220 -12.455  13.076  1.00  0.00     0.123 A 
ATOM      9  C   UNL     1     -13.849 -12.272  12.887  1.00  0.00     0.094 A 
ATOM     10  C   UNL     1     -12.966 -12.376  13.963  1.00  0.00     0.146 A 
ATOM     11  O   UNL     1     -11.667 -12.213  13.737  1.00  0.00    -0.456 OA
ENDROOT
BRANCH   1  12
ATOM     12  C   UNL     1      -9.317 -12.105  14.314  1.00  0.00     0.021 A 
ATOM     13  C   UNL     1      -8.702 -12.832  13.277  1.00  0.00     0.016 A 
ATOM     14  C   UNL     1      -7.364 -12.602  12.946  1.00  0.00     0.051 A 
ATOM     15  C   UNL     1      -6.620 -11.641  13.635  1.00  0.00     0.157 A 
ATOM     16  C   UNL     1      -8.566 -11.130  14.995  1.00  0.00     0.062 A 
ATOM     17  C   UNL     1      -7.223 -10.899  14.664  1.00  0.00     0.158 A 
BRANCH  15  18
ATOM     18  O   UNL     1      -5.286 -11.436  13.282  1.00  0.00    -0.504 OA
ATOM     19  H   UNL     1      -4.837 -11.967  12.544  1.00  0.00     0.293 HD
ENDBRANCH  15  18
BRANCH  17  20
ATOM     20  O   UNL     1      -6.487  -9.937  15.352  1.00  0.00    -0.504 OA
ATOM     21  H   UNL     1      -6.904  -9.369  16.080  1.00  0.00     0.293 HD
ENDBRANCH  17  20
ENDBRANCH   1  12
BRANCH   6  22
ATOM     22  O   UNL     1     -15.467 -12.977  16.704  1.00  0.00    -0.507 OA
ATOM     23  H   UNL     1     -16.017 -12.284  17.188  1.00  0.00     0.293 HD
ENDBRANCH   6  22
BRANCH   8  24
ATOM     24  O   UNL     1     -16.103 -12.372  12.001  1.00  0.00    -0.508 OA
ATOM     25  H   UNL     1     -15.772 -12.347  11.045  1.00  0.00     0.293 HD
ENDBRANCH   8  24
TORSDOF 5
ENDMDL
MODEL 5
REMARK VINA RESULT:    -7.311      1.384      6.964
REMARK INTER + INTRA:          -8.909
REMARK INTER:                  -8.614
REMARK INTRA:                  -0.295
REMARK UNBOUND:                -0.316
REMARK SMILES O=c1cc(-c2ccc(O)c(O)c2)oc2cc(O)cc(O)c12
REMARK SMILES IDX 4 1 3 2 2 3 1 4 21 5 19 6 18 7 16 8 15 9 14 10 13 11 5 12
REMARK SMILES IDX 6 13 7 14 8 15 12 16 10 17 9 18 11 20 20 22 17 24
REMARK H PARENT 9 19 11 21 20 23 17 25
REMARK Flexibility Score: inf
ROOT
ATOM      1  C   UNL     1     -12.376 -13.242  14.824  1.00  0.00     0.138 A 
ATOM      2  C   UNL     1     -11.836 -12.832  16.051  1.00  0.00     0.100 A 
ATOM      3  C   UNL     1     -10.472 -12.551  16.146  1.00  0.00     0.197 A 
ATOM      4  O   UNL     1     -10.029 -12.132  17.246  1.00  0.00    -0.289 OA
ATOM      5  C   UNL     1      -9.639 -12.716  15.014  1.00  0.00     0.107 A 
ATOM      6  C   UNL     1      -8.229 -12.493  15.002  1.00  0.00     0.134 A 
ATOM      7  C   UNL     1      -7.525 -12.594  13.795  1.00  0.00     0.093 A 
ATOM      8  C   UNL     1      -8.167 -12.966  12.614  1.00  0.00     0.123 A 
ATOM      9  C   UNL     1      -9.536 -13.236  12.625  1.00  0.00     0.094 A 
ATOM     10  C   UNL     1     -10.273 -13.110  13.804  1.00  0.00     0.146 A 
ATOM     11  O   UNL     1     -11.578 -13.358  13.769  1.00  0.00    -0.456 OA
ENDROOT
BRANCH   1  12
ATOM     12  C   UNL     1     -13.818 -13.557  14.667  1.00  0.00     0.021 A 
ATOM     13  C   UNL     1     -14.356 -13.977  13.436  1.00  0.00     0.016 A 
ATOM     14  C   UNL     1     -15.716 -14.277  13.320  1.00  0.00     0.051 A 
ATOM     15  C   UNL     1     -16.560 -14.170  14.428  1.00  0.00     0.157 A 
ATOM     16  C   UNL     1     -14.671 -13.464  15.782  1.00  0.00     0.062 A 
ATOM     17  C   UNL     1     -16.036 -13.764  15.667  1.00  0.00     0.158 A 
BRANCH  15  18
ATOM     18  O   UNL     1     -17.913 -14.475  14.281  1.00  0.00    -0.504 OA
ATOM     19  H   UNL     1     -18.551 -14.485  15.069  1.00  0.00     0.293 HD
ENDBRANCH  15  18
BRANCH  17  20
ATOM     20  O   UNL     1     -16.872 -13.660  16.777  1.00  0.00    -0.504 OA
ATOM     21  H   UNL     1     -17.763 -14.141  16.818  1.00  0.00     0.293 HD
ENDBRANCH  17  20
ENDBRANCH   1  12
BRANCH   6  22
ATOM     22  O   UNL     1      -7.472 -12.193  16.138  1.00  0.00    -0.507 OA
ATOM     23  H   UNL     1      -7.722 -11.510  16.836  1.00  0.00     0.293 HD
ENDBRANCH   6  22
BRANCH   8  24
ATOM     24  O   UNL     1      -7.432 -13.072  11.435  1.00  0.00    -0.508 OA
ATOM     25  H   UNL     1      -7.659 -12.520  10.618  1.00  0.00     0.293 HD
ENDBRANCH   8  24
TORSDOF 5
ENDMDL
MODEL 6
REMARK VINA RESULT:    -7.151      4.987      7.527
REMARK INTER + INTRA:          -8.721
REMARK INTER:                  -8.410
REMARK INTRA:                  -0.311
REMARK UNBOUND:                -0.316
REMARK SMILES O=c1cc(-c2ccc(O)c(O)c2)oc2cc(O)cc(O)c12
REMARK SMILES IDX 4 1 3 2 2 3 1 4 21 5 19 6 18 7 16 8 15 9 14 10 13 11 5 12
REMARK SMILES IDX 6 13 7 14 8 15 12 16 10 17 9 18 11 20 20 22 17 24
REMARK H PARENT 9 19 11 21 20 23 17 25
REMARK Flexibility Score: inf
ROOT
ATOM      1  C   UNL     1     -16.103 -12.230  19.365  1.00  0.00     0.138 A 
ATOM      2  C   UNL     1     -15.249 -12.022  20.457  1.00  0.00     0.100 A 
ATOM      3  C   UNL     1     -15.766 -11.514  21.650  1.00  0.00     0.197 A 
ATOM      4  O   UNL     1     -14.985 -11.391  22.628  1.00  0.00    -0.289 OA
ATOM      5  C   UNL     1     -17.138 -11.178  21.737  1.00  0.00     0.107 A 
ATOM      6  C   UNL     1     -17.768 -10.621  22.889  1.00  0.00     0.134 A 
ATOM      7  C   UNL     1     -19.155 -10.423  22.889  1.00  0.00     0.093 A 
ATOM      8  C   UNL     1     -19.924 -10.706  21.762  1.00  0.00     0.123 A 
ATOM      9  C   UNL     1     -19.310 -11.204  20.612  1.00  0.00     0.094 A 
ATOM     10  C   UNL     1     -17.936 -11.446  20.591  1.00  0.00     0.146 A 
ATOM     11  O   UNL     1     -17.393 -11.938  19.483  1.00  0.00    -0.456 OA
ENDROOT
BRANCH   1  12
ATOM     12  C   UNL     1     -15.606 -12.766  18.072  1.00  0.00     0.021 A 
ATOM     13  C   UNL     1     -14.251 -12.672  17.702  1.00  0.00     0.016 A 
ATOM     14  C   UNL     1     -13.811 -13.194  16.483  1.00  0.00     0.051 A 
ATOM     15  C   UNL     1     -14.709 -13.824  15.617  1.00  0.00     0.157 A 
ATOM     16  C   UNL     1     -16.503 -13.413  17.202  1.00  0.00     0.062 A 
ATOM     17  C   UNL     1     -16.062 -13.936  15.978  1.00  0.00     0.158 A 
BRANCH  15  18
ATOM     18  O   UNL     1     -14.240 -14.334  14.407  1.00  0.00    -0.504 OA
ATOM     19  H   UNL     1     -13.566 -13.834  13.838  1.00  0.00     0.293 HD
ENDBRANCH  15  18
BRANCH  17  20
ATOM     20  O   UNL     1     -16.962 -14.567  15.121  1.00  0.00    -0.504 OA
ATOM     21  H   UNL     1     -16.664 -14.967  14.239  1.00  0.00     0.293 HD
ENDBRANCH  17  20
ENDBRANCH   1  12
BRANCH   6  22
ATOM     22  O   UNL     1     -17.085 -10.227  24.044  1.00  0.00    -0.507 OA
ATOM     23  H   UNL     1     -16.262  -9.645  24.059  1.00  0.00     0.293 HD
ENDBRANCH   6  22
BRANCH   8  24
ATOM     24  O   UNL     1     -21.299 -10.482  21.792  1.00  0.00    -0.508 OA
ATOM     25  H   UNL     1     -21.957 -11.240  21.924  1.00  0.00     0.293 HD
ENDBRANCH   8  24
TORSDOF 5
ENDMDL
MODEL 7
REMARK VINA RESULT:    -7.118      3.359      7.114
REMARK INTER + INTRA:          -8.682
REMARK INTER:                  -8.368
REMARK INTRA:                  -0.314
REMARK UNBOUND:                -0.316
REMARK SMILES O=c1cc(-c2ccc(O)c(O)c2)oc2cc(O)cc(O)c12
REMARK SMILES IDX 4 1 3 2 2 3 1 4 21 5 19 6 18 7 16 8 15 9 14 10 13 11 5 12
REMARK SMILES IDX 6 13 7 14 8 15 12 16 10 17 9 18 11 20 20 22 17 24
REMARK H PARENT 9 19 11 21 20 23 17 25
REMARK Flexibility Score: inf
ROOT
ATOM      1  C   UNL     1     -15.484 -12.744  17.853  1.00  0.00     0.138 A 
ATOM      2  C   UNL     1     -14.140 -12.759  17.455  1.00  0.00     0.100 A 
ATOM      3  C   UNL     1     -13.812 -13.131  16.150  1.00  0.00     0.197 A 
ATOM      4  O   UNL     1     -12.603 -13.081  15.807  1.00  0.00    -0.289 OA
ATOM      5  C   UNL     1     -14.832 -13.525  15.252  1.00  0.00     0.107 A 
ATOM      6  C   UNL     1     -14.613 -13.956  13.909  1.00  0.00     0.134 A 
ATOM      7  C   UNL     1     -15.711 -14.226  13.083  1.00  0.00     0.093 A 
ATOM      8  C   UNL     1     -17.016 -14.137  13.566  1.00  0.00     0.123 A 
ATOM      9  C   UNL     1     -17.240 -13.765  14.892  1.00  0.00     0.094 A 
ATOM     10  C   UNL     1     -16.168 -13.455  15.731  1.00  0.00     0.146 A 
ATOM     11  O   UNL     1     -16.425 -13.087  16.982  1.00  0.00    -0.456 OA
ENDROOT
BRANCH   1  12
ATOM     12  C   UNL     1     -15.889 -12.360  19.229  1.00  0.00     0.021 A 
ATOM     13  C   UNL     1     -14.968 -12.329  20.293  1.00  0.00     0.016 A 
ATOM     14  C   UNL     1     -15.377 -11.954  21.575  1.00  0.00     0.051 A 
ATOM     15  C   UNL     1     -16.705 -11.596  21.818  1.00  0.00     0.157 A 
ATOM     16  C   UNL     1     -17.223 -11.986  19.477  1.00  0.00     0.062 A 
ATOM     17  C   UNL     1     -17.634 -11.610  20.764  1.00  0.00     0.158 A 
BRANCH  15  18
ATOM     18  O   UNL     1     -17.083 -11.228  23.109  1.00  0.00    -0.504 OA
ATOM     19  H   UNL     1     -16.587 -11.558  23.929  1.00  0.00     0.293 HD
ENDBRANCH  15  18
BRANCH  17  20
ATOM     20  O   UNL     1     -18.960 -11.251  20.999  1.00  0.00    -0.504 OA
ATOM     21  H   UNL     1     -19.217 -10.304  21.250  1.00  0.00     0.293 HD
ENDBRANCH  17  20
ENDBRANCH   1  12
BRANCH   6  22
ATOM     22  O   UNL     1     -13.349 -14.156  13.346  1.00  0.00    -0.507 OA
ATOM     23  H   UNL     1     -12.779 -14.978  13.478  1.00  0.00     0.293 HD
ENDBRANCH   6  22
BRANCH   8  24
ATOM     24  O   UNL     1     -18.084 -14.428  12.720  1.00  0.00    -0.508 OA
ATOM     25  H   UNL     1     -18.783 -13.733  12.490  1.00  0.00     0.293 HD
ENDBRANCH   8  24
TORSDOF 5
ENDMDL
MODEL 8
REMARK VINA RESULT:    -6.732      3.446      7.562
REMARK INTER + INTRA:          -8.229
REMARK INTER:                  -7.936
REMARK INTRA:                  -0.293
REMARK UNBOUND:                -0.316
REMARK SMILES O=c1cc(-c2ccc(O)c(O)c2)oc2cc(O)cc(O)c12
REMARK SMILES IDX 4 1 3 2 2 3 1 4 21 5 19 6 18 7 16 8 15 9 14 10 13 11 5 12
REMARK SMILES IDX 6 13 7 14 8 15 12 16 10 17 9 18 11 20 20 22 17 24
REMARK H PARENT 9 19 11 21 20 23 17 25
REMARK Flexibility Score: inf
ROOT
ATOM      1  C   UNL     1     -15.510 -12.712  18.087  1.00  0.00     0.138 A 
ATOM      2  C   UNL     1     -16.461 -13.196  17.178  1.00  0.00     0.100 A 
ATOM      3  C   UNL     1     -16.049 -13.642  15.921  1.00  0.00     0.197 A 
ATOM      4  O   UNL     1     -16.918 -14.122  15.149  1.00  0.00    -0.289 OA
ATOM      5  C   UNL     1     -14.683 -13.568  15.560  1.00  0.00     0.107 A 
ATOM      6  C   UNL     1     -14.152 -13.961  14.295  1.00  0.00     0.134 A 
ATOM      7  C   UNL     1     -12.767 -13.935  14.089  1.00  0.00     0.093 A 
ATOM      8  C   UNL     1     -11.899 -13.476  15.079  1.00  0.00     0.123 A 
ATOM      9  C   UNL     1     -12.411 -13.042  16.302  1.00  0.00     0.094 A 
ATOM     10  C   UNL     1     -13.784 -13.089  16.552  1.00  0.00     0.146 A 
ATOM     11  O   UNL     1     -14.230 -12.683  17.736  1.00  0.00    -0.456 OA
ENDROOT
BRANCH   1  12
ATOM     12  C   UNL     1     -15.892 -12.223  19.436  1.00  0.00     0.021 A 
ATOM     13  C   UNL     1     -14.929 -11.940  20.423  1.00  0.00     0.016 A 
ATOM     14  C   UNL     1     -15.318 -11.470  21.680  1.00  0.00     0.051 A 
ATOM     15  C   UNL     1     -16.669 -11.267  21.973  1.00  0.00     0.157 A 
ATOM     16  C   UNL     1     -17.250 -12.003  19.732  1.00  0.00     0.062 A 
ATOM     17  C   UNL     1     -17.641 -11.533  20.994  1.00  0.00     0.158 A 
BRANCH  15  18
ATOM     18  O   UNL     1     -17.026 -10.799  23.237  1.00  0.00    -0.504 OA
ATOM     19  H   UNL     1     -16.333 -10.550  23.934  1.00  0.00     0.293 HD
ENDBRANCH  15  18
BRANCH  17  20
ATOM     20  O   UNL     1     -18.990 -11.329  21.278  1.00  0.00    -0.504 OA
ATOM     21  H   UNL     1     -19.349 -10.413  21.524  1.00  0.00     0.293 HD
ENDBRANCH  17  20
ENDBRANCH   1  12
BRANCH   6  22
ATOM     22  O   UNL     1     -14.934 -14.362  13.207  1.00  0.00    -0.507 OA
ATOM     23  H   UNL     1     -15.884 -14.070  13.038  1.00  0.00     0.293 HD
ENDBRANCH   6  22
BRANCH   8  24
ATOM     24  O   UNL     1     -10.528 -13.449  14.834  1.00  0.00    -0.508 OA
ATOM     25  H   UNL     1     -10.096 -12.687  14.325  1.00  0.00     0.293 HD
ENDBRANCH   8  24
TORSDOF 5
ENDMDL
MODEL 9
REMARK VINA RESULT:    -6.720      3.905      7.218
REMARK INTER + INTRA:          -8.214
REMARK INTER:                  -7.921
REMARK INTRA:                  -0.294
REMARK UNBOUND:                -0.316
REMARK SMILES O=c1cc(-c2ccc(O)c(O)c2)oc2cc(O)cc(O)c12
REMARK SMILES IDX 4 1 3 2 2 3 1 4 21 5 19 6 18 7 16 8 15 9 14 10 13 11 5 12
REMARK SMILES IDX 6 13 7 14 8 15 12 16 10 17 9 18 11 20 20 22 17 24
REMARK H PARENT 9 19 11 21 20 23 17 25
REMARK Flexibility Score: inf
ROOT
ATOM      1  C   UNL     1     -15.419 -12.692  18.329  1.00  0.00     0.138 A 
ATOM      2  C   UNL     1     -16.648 -12.548  18.987  1.00  0.00     0.100 A 
ATOM      3  C   UNL     1     -16.671 -12.175  20.332  1.00  0.00     0.197 A 
ATOM      4  O   UNL     1     -17.790 -12.000  20.878  1.00  0.00    -0.289 OA
ATOM      5  C   UNL     1     -15.455 -11.981  21.030  1.00  0.00     0.107 A 
ATOM      6  C   UNL     1     -15.356 -11.633  22.410  1.00  0.00     0.134 A 
ATOM      7  C   UNL     1     -14.097 -11.369  22.966  1.00  0.00     0.093 A 
ATOM      8  C   UNL     1     -12.933 -11.498  22.210  1.00  0.00     0.123 A 
ATOM      9  C   UNL     1     -13.016 -11.887  20.873  1.00  0.00     0.094 A 
ATOM     10  C   UNL     1     -14.257 -12.122  20.279  1.00  0.00     0.146 A 
ATOM     11  O   UNL     1     -14.293 -12.473  18.998  1.00  0.00    -0.456 OA
ENDROOT
BRANCH   1  12
ATOM     12  C   UNL     1     -15.336 -13.090  16.901  1.00  0.00     0.021 A 
ATOM     13  C   UNL     1     -14.114 -13.092  16.201  1.00  0.00     0.016 A 
ATOM     14  C   UNL     1     -14.064 -13.481  14.860  1.00  0.00     0.051 A 
ATOM     15  C   UNL     1     -15.226 -13.883  14.197  1.00  0.00     0.157 A 
ATOM     16  C   UNL     1     -16.500 -13.509  16.231  1.00  0.00     0.062 A 
ATOM     17  C   UNL     1     -16.451 -13.899  14.885  1.00  0.00     0.158 A 
BRANCH  15  18
ATOM     18  O   UNL     1     -15.145 -14.264  12.858  1.00  0.00    -0.504 OA
ATOM     19  H   UNL     1     -14.871 -15.200  12.581  1.00  0.00     0.293 HD
ENDBRANCH  15  18
BRANCH  17  20
ATOM     20  O   UNL     1     -17.613 -14.302  14.230  1.00  0.00    -0.504 OA
ATOM     21  H   UNL     1     -17.611 -15.070  13.568  1.00  0.00     0.293 HD
ENDBRANCH  17  20
ENDBRANCH   1  12
BRANCH   6  22
ATOM     22  O   UNL     1     -16.448 -11.552  23.279  1.00  0.00    -0.507 OA
ATOM     23  H   UNL     1     -16.940 -12.343  23.665  1.00  0.00     0.293 HD
ENDBRANCH   6  22
BRANCH   8  24
ATOM     24  O   UNL     1     -11.697 -11.244  22.801  1.00  0.00    -0.508 OA
ATOM     25  H   UNL     1     -11.570 -10.484  23.458  1.00  0.00     0.293 HD
ENDBRANCH   8  24
TORSDOF 5
ENDMDL
