MODEL 1
REMARK VINA RESULT:    -7.387      0.000      0.000
REMARK INTER + INTRA:          -7.831
REMARK INTER:                  -8.035
REMARK INTRA:                   0.204
REMARK UNBOUND:                 0.204
REMARK SMILES C[C@@H]1[C@@H](C)CC[C@]2(C(=O)[O-])CC[C@]3(C)C(=CC[C@H]4[C@]5(C)CC[C@@H](O)C(C)(C)[C@H]5CC[C@]43C)[C@@H]12
REMARK SMILES IDX 7 1 6 2 11 3 33 4 5 5 12 6 15 7 2 8 3 9 13 10 16 11 1 12
REMARK SMILES IDX 4 13 14 14 31 15 17 16 18 17 30 18 32 19 19 20 29 21 28 22
REMARK SMILES IDX 21 23 20 24 25 25 22 26 23 27 26 28 27 29 8 30 9 31 10 32
REMARK SMILES IDX 24 33
REMARK H PARENT 24 34
REMARK Flexibility Score: inf
ROOT
ATOM      1  C   UNL     1      -8.605 -17.411  16.107  1.00  0.00     0.017 C 
ATOM      2  C   UNL     1      -7.366 -17.036  16.998  1.00  0.00     0.014 C 
ATOM      3  C   UNL     1      -9.799 -17.696  17.056  1.00  0.00     0.014 C 
ATOM      4  C   UNL     1      -8.359 -18.713  15.276  1.00  0.00     0.030 C 
ATOM      5  C   UNL     1      -6.066 -17.759  16.636  1.00  0.00     0.004 C 
ATOM      6  C   UNL     1     -11.094 -17.982  16.290  1.00  0.00     0.013 C 
ATOM      7  C   UNL     1      -9.649 -19.128  14.507  1.00  0.00    -0.063 C 
ATOM      8  C   UNL     1      -7.013 -18.695  14.449  1.00  0.00    -0.003 C 
ATOM      9  C   UNL     1      -5.859 -17.879  15.124  1.00  0.00    -0.011 C 
ATOM     10  C   UNL     1     -11.005 -19.168  15.253  1.00  0.00    -0.006 C 
ATOM     11  C   UNL     1      -9.572 -19.718  13.292  1.00  0.00    -0.027 C 
ATOM     12  C   UNL     1      -6.502 -20.143  14.228  1.00  0.00     0.008 C 
ATOM     13  C   UNL     1      -5.601 -16.515  14.460  1.00  0.00     0.008 C 
ATOM     14  C   UNL     1     -11.021 -20.479  16.096  1.00  0.00     0.017 C 
ATOM     15  C   UNL     1     -12.246 -19.093  14.196  1.00  0.00    -0.020 C 
ATOM     16  C   UNL     1     -10.633 -20.654  12.808  1.00  0.00     0.032 C 
ATOM     17  C   UNL     1     -12.031 -20.015  12.904  1.00  0.00     0.006 C 
ATOM     18  C   UNL     1     -13.587 -19.461  14.903  1.00  0.00     0.008 C 
ATOM     19  C   UNL     1     -12.413 -17.621  13.671  1.00  0.00     0.012 C 
ATOM     20  C   UNL     1     -13.237 -20.982  12.508  1.00  0.00    -0.025 C 
ATOM     21  C   UNL     1     -14.814 -19.496  13.973  1.00  0.00     0.005 C 
ATOM     22  C   UNL     1     -14.552 -20.118  12.566  1.00  0.00     0.003 C 
ATOM     23  C   UNL     1     -13.015 -21.462  11.034  1.00  0.00     0.010 C 
ATOM     24  C   UNL     1     -13.328 -22.235  13.441  1.00  0.00     0.012 C 
ATOM     25  C   UNL     1     -15.833 -20.737  11.873  1.00  0.00    -0.006 C 
ATOM     26  C   UNL     1     -14.246 -22.101  10.382  1.00  0.00     0.033 C 
ATOM     27  C   UNL     1     -15.458 -21.159  10.419  1.00  0.00     0.120 C 
ATOM     28  C   UNL     1     -16.930 -19.645  11.778  1.00  0.00     0.014 C 
ATOM     29  C   UNL     1     -16.452 -21.943  12.639  1.00  0.00     0.014 C 
ENDROOT
BRANCH   1  30
ATOM     30  C   UNL     1      -8.950 -16.218  15.217  1.00  0.00     0.048 C 
ATOM     31  O   UNL     1      -9.029 -16.333  13.965  1.00  0.00    -0.550 OA
ATOM     32  O   UNL     1      -9.192 -14.975  15.792  1.00  0.00    -0.550 OA
ENDBRANCH   1  30
BRANCH  27  33
ATOM     33  O   UNL     1     -16.551 -21.779   9.786  1.00  0.00    -0.393 OA
ATOM     34  H   UNL     1     -16.563 -22.726  10.087  1.00  0.00     0.210 HD
ENDBRANCH  27  33
TORSDOF 2
ENDMDL
MODEL 2
REMARK VINA RESULT:    -6.723      1.984      8.176
REMARK INTER + INTRA:          -7.109
REMARK INTER:                  -7.312
REMARK INTRA:                   0.203
REMARK UNBOUND:                 0.204
REMARK SMILES C[C@@H]1[C@@H](C)CC[C@]2(C(=O)[O-])CC[C@]3(C)C(=CC[C@H]4[C@]5(C)CC[C@@H](O)C(C)(C)[C@H]5CC[C@]43C)[C@@H]12
REMARK SMILES IDX 7 1 6 2 11 3 33 4 5 5 12 6 15 7 2 8 3 9 13 10 16 11 1 12
REMARK SMILES IDX 4 13 14 14 31 15 17 16 18 17 30 18 32 19 19 20 29 21 28 22
REMARK SMILES IDX 21 23 20 24 25 25 22 26 23 27 26 28 27 29 8 30 9 31 10 32
REMARK SMILES IDX 24 33
REMARK H PARENT 24 34
REMARK Flexibility Score: inf
ROOT
ATOM      1  C   UNL     1     -13.181 -21.346  12.960  1.00  0.00     0.017 C 
ATOM      2  C   UNL     1     -14.233 -22.493  12.750  1.00  0.00     0.014 C 
ATOM      3  C   UNL     1     -12.265 -21.757  14.144  1.00  0.00     0.014 C 
ATOM      4  C   UNL     1     -13.857 -19.991  13.353  1.00  0.00     0.030 C 
ATOM      5  C   UNL     1     -15.684 -22.023  12.607  1.00  0.00     0.004 C 
ATOM      6  C   UNL     1     -11.135 -20.750  14.379  1.00  0.00     0.013 C 
ATOM      7  C   UNL     1     -12.782 -18.912  13.681  1.00  0.00    -0.063 C 
ATOM      8  C   UNL     1     -15.026 -19.558  12.382  1.00  0.00    -0.003 C 
ATOM      9  C   UNL     1     -15.813 -20.758  11.754  1.00  0.00    -0.011 C 
ATOM     10  C   UNL     1     -11.606 -19.266  14.626  1.00  0.00    -0.006 C 
ATOM     11  C   UNL     1     -12.997 -17.609  13.391  1.00  0.00    -0.027 C 
ATOM     12  C   UNL     1     -16.046 -18.668  13.138  1.00  0.00     0.008 C 
ATOM     13  C   UNL     1     -15.467 -21.014  10.277  1.00  0.00     0.008 C 
ATOM     14  C   UNL     1     -12.167 -19.227  16.080  1.00  0.00     0.017 C 
ATOM     15  C   UNL     1     -10.364 -18.231  14.410  1.00  0.00    -0.020 C 
ATOM     16  C   UNL     1     -12.356 -16.514  14.183  1.00  0.00     0.032 C 
ATOM     17  C   UNL     1     -10.831 -16.705  14.270  1.00  0.00     0.006 C 
ATOM     18  C   UNL     1      -9.329 -18.373  15.568  1.00  0.00     0.008 C 
ATOM     19  C   UNL     1      -9.596 -18.586  13.086  1.00  0.00     0.012 C 
ATOM     20  C   UNL     1     -10.075 -15.640  15.188  1.00  0.00    -0.025 C 
ATOM     21  C   UNL     1      -8.150 -17.383  15.500  1.00  0.00     0.005 C 
ATOM     22  C   UNL     1      -8.534 -15.938  15.057  1.00  0.00     0.003 C 
ATOM     23  C   UNL     1     -10.362 -14.210  14.616  1.00  0.00     0.010 C 
ATOM     24  C   UNL     1     -10.549 -15.694  16.678  1.00  0.00     0.012 C 
ATOM     25  C   UNL     1      -7.553 -14.810  15.576  1.00  0.00    -0.006 C 
ATOM     26  C   UNL     1      -9.437 -13.113  15.154  1.00  0.00     0.033 C 
ATOM     27  C   UNL     1      -7.958 -13.455  14.918  1.00  0.00     0.120 C 
ATOM     28  C   UNL     1      -6.111 -15.146  15.111  1.00  0.00     0.014 C 
ATOM     29  C   UNL     1      -7.512 -14.662  17.125  1.00  0.00     0.014 C 
ENDROOT
BRANCH   1  30
ATOM     30  C   UNL     1     -12.333 -21.218  11.695  1.00  0.00     0.048 C 
ATOM     31  O   UNL     1     -12.232 -20.124  11.079  1.00  0.00    -0.550 OA
ATOM     32  O   UNL     1     -11.647 -22.326  11.210  1.00  0.00    -0.550 OA
ENDBRANCH   1  30
BRANCH  27  33
ATOM     33  O   UNL     1      -7.153 -12.408  15.404  1.00  0.00    -0.393 OA
ATOM     34  H   UNL     1      -7.765 -11.709  15.755  1.00  0.00     0.210 HD
ENDBRANCH  27  33
TORSDOF 2
ENDMDL
MODEL 3
REMARK VINA RESULT:    -6.636     13.087     16.920
REMARK INTER + INTRA:          -7.014
REMARK INTER:                  -7.235
REMARK INTRA:                   0.220
REMARK UNBOUND:                 0.204
REMARK SMILES C[C@@H]1[C@@H](C)CC[C@]2(C(=O)[O-])CC[C@]3(C)C(=CC[C@H]4[C@]5(C)CC[C@@H](O)C(C)(C)[C@H]5CC[C@]43C)[C@@H]12
REMARK SMILES IDX 7 1 6 2 11 3 33 4 5 5 12 6 15 7 2 8 3 9 13 10 16 11 1 12
REMARK SMILES IDX 4 13 14 14 31 15 17 16 18 17 30 18 32 19 19 20 29 21 28 22
REMARK SMILES IDX 21 23 20 24 25 25 22 26 23 27 26 28 27 29 8 30 9 31 10 32
REMARK SMILES IDX 24 33
REMARK H PARENT 24 34
REMARK Flexibility Score: inf
ROOT
ATOM      1  C   UNL     1     -19.560 -10.760   2.635  1.00  0.00     0.017 C 
ATOM      2  C   UNL     1     -20.580 -11.192   1.521  1.00  0.00     0.014 C 
ATOM      3  C   UNL     1     -20.379 -10.279   3.863  1.00  0.00     0.014 C 
ATOM      4  C   UNL     1     -18.666  -9.559   2.182  1.00  0.00     0.030 C 
ATOM      5  C   UNL     1     -20.285 -10.639   0.124  1.00  0.00     0.004 C 
ATOM      6  C   UNL     1     -19.484  -9.920   5.052  1.00  0.00     0.013 C 
ATOM      7  C   UNL     1     -17.760  -9.073   3.352  1.00  0.00    -0.063 C 
ATOM      8  C   UNL     1     -17.964  -9.781   0.784  1.00  0.00    -0.003 C 
ATOM      9  C   UNL     1     -18.792 -10.658  -0.216  1.00  0.00    -0.011 C 
ATOM     10  C   UNL     1     -18.380  -8.835   4.752  1.00  0.00    -0.006 C 
ATOM     11  C   UNL     1     -16.519  -8.591   3.115  1.00  0.00    -0.027 C 
ATOM     12  C   UNL     1     -17.690  -8.416   0.101  1.00  0.00     0.008 C 
ATOM     13  C   UNL     1     -18.248 -12.089  -0.373  1.00  0.00     0.008 C 
ATOM     14  C   UNL     1     -19.126  -7.467   4.689  1.00  0.00     0.017 C 
ATOM     15  C   UNL     1     -17.226  -8.862   5.905  1.00  0.00    -0.020 C 
ATOM     16  C   UNL     1     -15.880  -7.590   4.023  1.00  0.00     0.032 C 
ATOM     17  C   UNL     1     -15.898  -8.070   5.486  1.00  0.00     0.006 C 
ATOM     18  C   UNL     1     -17.785  -8.303   7.248  1.00  0.00     0.008 C 
ATOM     19  C   UNL     1     -16.791 -10.344   6.190  1.00  0.00     0.012 C 
ATOM     20  C   UNL     1     -15.331  -7.017   6.544  1.00  0.00    -0.025 C 
ATOM     21  C   UNL     1     -16.751  -8.213   8.386  1.00  0.00     0.005 C 
ATOM     22  C   UNL     1     -15.334  -7.733   7.946  1.00  0.00     0.003 C 
ATOM     23  C   UNL     1     -13.853  -6.679   6.152  1.00  0.00     0.010 C 
ATOM     24  C   UNL     1     -16.164  -5.693   6.570  1.00  0.00     0.012 C 
ATOM     25  C   UNL     1     -14.490  -7.039   9.091  1.00  0.00    -0.006 C 
ATOM     26  C   UNL     1     -13.053  -5.967   7.249  1.00  0.00     0.033 C 
ATOM     27  C   UNL     1     -13.049  -6.773   8.557  1.00  0.00     0.120 C 
ATOM     28  C   UNL     1     -14.374  -8.015  10.291  1.00  0.00     0.014 C 
ATOM     29  C   UNL     1     -15.113  -5.719   9.632  1.00  0.00     0.014 C 
ENDROOT
BRANCH   1  30
ATOM     30  C   UNL     1     -18.727 -11.976   3.037  1.00  0.00     0.048 C 
ATOM     31  O   UNL     1     -17.475 -11.992   2.894  1.00  0.00    -0.550 OA
ATOM     32  O   UNL     1     -19.354 -13.092   3.583  1.00  0.00    -0.550 OA
ENDBRANCH   1  30
BRANCH  27  33
ATOM     33  O   UNL     1     -12.281  -6.093   9.521  1.00  0.00    -0.393 OA
ATOM     34  H   UNL     1     -11.565  -5.608   9.034  1.00  0.00     0.210 HD
ENDBRANCH  27  33
TORSDOF 2
ENDMDL
MODEL 4
REMARK VINA RESULT:    -6.612      3.729      8.483
REMARK INTER + INTRA:          -6.987
REMARK INTER:                  -7.199
REMARK INTRA:                   0.212
REMARK UNBOUND:                 0.204
REMARK SMILES C[C@@H]1[C@@H](C)CC[C@]2(C(=O)[O-])CC[C@]3(C)C(=CC[C@H]4[C@]5(C)CC[C@@H](O)C(C)(C)[C@H]5CC[C@]43C)[C@@H]12
REMARK SMILES IDX 7 1 6 2 11 3 33 4 5 5 12 6 15 7 2 8 3 9 13 10 16 11 1 12
REMARK SMILES IDX 4 13 14 14 31 15 17 16 18 17 30 18 32 19 19 20 29 21 28 22
REMARK SMILES IDX 21 23 20 24 25 25 22 26 23 27 26 28 27 29 8 30 9 31 10 32
REMARK SMILES IDX 24 33
REMARK H PARENT 24 34
REMARK Flexibility Score: inf
ROOT
ATOM      1  C   UNL     1     -14.083 -20.615  11.941  1.00  0.00     0.017 C 
ATOM      2  C   UNL     1     -14.454 -22.125  12.161  1.00  0.00     0.014 C 
ATOM      3  C   UNL     1     -12.560 -20.460  12.198  1.00  0.00     0.014 C 
ATOM      4  C   UNL     1     -14.817 -19.675  12.953  1.00  0.00     0.030 C 
ATOM      5  C   UNL     1     -15.688 -22.369  13.034  1.00  0.00     0.004 C 
ATOM      6  C   UNL     1     -12.066 -19.038  11.920  1.00  0.00     0.013 C 
ATOM      7  C   UNL     1     -14.329 -18.204  12.794  1.00  0.00    -0.063 C 
ATOM      8  C   UNL     1     -16.379 -19.903  13.015  1.00  0.00    -0.003 C 
ATOM      9  C   UNL     1     -16.821 -21.381  12.744  1.00  0.00    -0.011 C 
ATOM     10  C   UNL     1     -12.810 -17.905  12.725  1.00  0.00    -0.006 C 
ATOM     11  C   UNL     1     -15.174 -17.167  12.993  1.00  0.00    -0.027 C 
ATOM     12  C   UNL     1     -16.924 -19.495  14.409  1.00  0.00     0.008 C 
ATOM     13  C   UNL     1     -17.435 -21.592  11.348  1.00  0.00     0.008 C 
ATOM     14  C   UNL     1     -12.267 -17.985  14.184  1.00  0.00     0.017 C 
ATOM     15  C   UNL     1     -12.542 -16.449  12.039  1.00  0.00    -0.020 C 
ATOM     16  C   UNL     1     -14.682 -15.833  13.455  1.00  0.00     0.032 C 
ATOM     17  C   UNL     1     -13.546 -15.313  12.557  1.00  0.00     0.006 C 
ATOM     18  C   UNL     1     -11.064 -16.005  12.266  1.00  0.00     0.008 C 
ATOM     19  C   UNL     1     -12.740 -16.546  10.484  1.00  0.00     0.012 C 
ATOM     20  C   UNL     1     -12.886 -13.942  13.038  1.00  0.00    -0.025 C 
ATOM     21  C   UNL     1     -10.724 -14.604  11.723  1.00  0.00     0.005 C 
ATOM     22  C   UNL     1     -11.835 -13.531  11.940  1.00  0.00     0.003 C 
ATOM     23  C   UNL     1     -14.009 -12.852  13.094  1.00  0.00     0.010 C 
ATOM     24  C   UNL     1     -12.226 -14.062  14.451  1.00  0.00     0.012 C 
ATOM     25  C   UNL     1     -11.306 -12.040  11.994  1.00  0.00    -0.006 C 
ATOM     26  C   UNL     1     -13.492 -11.412  13.191  1.00  0.00     0.033 C 
ATOM     27  C   UNL     1     -12.533 -11.077  12.039  1.00  0.00     0.120 C 
ATOM     28  C   UNL     1     -10.519 -11.739  10.692  1.00  0.00     0.014 C 
ATOM     29  C   UNL     1     -10.350 -11.746  13.186  1.00  0.00     0.014 C 
ENDROOT
BRANCH   1  30
ATOM     30  C   UNL     1     -14.383 -20.241  10.489  1.00  0.00     0.048 C 
ATOM     31  O   UNL     1     -15.077 -19.230  10.201  1.00  0.00    -0.550 OA
ATOM     32  O   UNL     1     -13.875 -21.022   9.457  1.00  0.00    -0.550 OA
ENDBRANCH   1  30
BRANCH  27  33
ATOM     33  O   UNL     1     -12.109  -9.741  12.157  1.00  0.00    -0.393 OA
ATOM     34  H   UNL     1     -12.073  -9.532  13.128  1.00  0.00     0.210 HD
ENDBRANCH  27  33
TORSDOF 2
ENDMDL
MODEL 5
REMARK VINA RESULT:    -6.588     12.803     14.833
REMARK INTER + INTRA:          -6.962
REMARK INTER:                  -7.164
REMARK INTRA:                   0.202
REMARK UNBOUND:                 0.204
REMARK SMILES C[C@@H]1[C@@H](C)CC[C@]2(C(=O)[O-])CC[C@]3(C)C(=CC[C@H]4[C@]5(C)CC[C@@H](O)C(C)(C)[C@H]5CC[C@]43C)[C@@H]12
REMARK SMILES IDX 7 1 6 2 11 3 33 4 5 5 12 6 15 7 2 8 3 9 13 10 16 11 1 12
REMARK SMILES IDX 4 13 14 14 31 15 17 16 18 17 30 18 32 19 19 20 29 21 28 22
REMARK SMILES IDX 21 23 20 24 25 25 22 26 23 27 26 28 27 29 8 30 9 31 10 32
REMARK SMILES IDX 24 33
REMARK H PARENT 24 34
REMARK Flexibility Score: inf
ROOT
ATOM      1  C   UNL     1     -13.278  -7.040   7.959  1.00  0.00     0.017 C 
ATOM      2  C   UNL     1     -12.498  -6.280   9.091  1.00  0.00     0.014 C 
ATOM      3  C   UNL     1     -13.209  -6.172   6.674  1.00  0.00     0.014 C 
ATOM      4  C   UNL     1     -14.791  -7.223   8.308  1.00  0.00     0.030 C 
ATOM      5  C   UNL     1     -13.232  -6.185  10.432  1.00  0.00     0.004 C 
ATOM      6  C   UNL     1     -13.860  -6.862   5.473  1.00  0.00     0.013 C 
ATOM      7  C   UNL     1     -15.560  -7.861   7.113  1.00  0.00    -0.063 C 
ATOM      8  C   UNL     1     -15.044  -7.855   9.734  1.00  0.00    -0.003 C 
ATOM      9  C   UNL     1     -13.958  -7.482  10.800  1.00  0.00    -0.011 C 
ATOM     10  C   UNL     1     -15.361  -7.294   5.685  1.00  0.00    -0.006 C 
ATOM     11  C   UNL     1     -16.596  -8.705   7.325  1.00  0.00    -0.027 C 
ATOM     12  C   UNL     1     -16.421  -7.401  10.284  1.00  0.00     0.008 C 
ATOM     13  C   UNL     1     -12.981  -8.630  11.109  1.00  0.00     0.008 C 
ATOM     14  C   UNL     1     -16.203  -5.985   5.597  1.00  0.00     0.017 C 
ATOM     15  C   UNL     1     -15.802  -8.394   4.563  1.00  0.00    -0.020 C 
ATOM     16  C   UNL     1     -17.706  -8.847   6.334  1.00  0.00     0.032 C 
ATOM     17  C   UNL     1     -17.164  -9.154   4.925  1.00  0.00     0.006 C 
ATOM     18  C   UNL     1     -15.918  -7.723   3.159  1.00  0.00     0.008 C 
ATOM     19  C   UNL     1     -14.694  -9.499   4.433  1.00  0.00     0.012 C 
ATOM     20  C   UNL     1     -18.274  -9.218   3.780  1.00  0.00    -0.025 C 
ATOM     21  C   UNL     1     -16.404  -8.661   2.038  1.00  0.00     0.005 C 
ATOM     22  C   UNL     1     -17.538  -9.646   2.456  1.00  0.00     0.003 C 
ATOM     23  C   UNL     1     -19.310 -10.328   4.163  1.00  0.00     0.010 C 
ATOM     24  C   UNL     1     -19.029  -7.858   3.607  1.00  0.00     0.012 C 
ATOM     25  C   UNL     1     -18.461 -10.130   1.263  1.00  0.00    -0.006 C 
ATOM     26  C   UNL     1     -20.230 -10.761   3.017  1.00  0.00     0.033 C 
ATOM     27  C   UNL     1     -19.426 -11.232   1.796  1.00  0.00     0.120 C 
ATOM     28  C   UNL     1     -17.569 -10.773   0.169  1.00  0.00     0.014 C 
ATOM     29  C   UNL     1     -19.272  -8.989   0.582  1.00  0.00     0.014 C 
ENDROOT
BRANCH   1  30
ATOM     30  C   UNL     1     -12.584  -8.376   7.696  1.00  0.00     0.048 C 
ATOM     31  O   UNL     1     -13.214  -9.465   7.745  1.00  0.00    -0.550 OA
ATOM     32  O   UNL     1     -11.228  -8.399   7.385  1.00  0.00    -0.550 OA
ENDBRANCH   1  30
BRANCH  27  33
ATOM     33  O   UNL     1     -20.313 -11.644   0.784  1.00  0.00    -0.393 OA
ATOM     34  H   UNL     1     -20.937 -10.889   0.619  1.00  0.00     0.210 HD
ENDBRANCH  27  33
TORSDOF 2
ENDMDL
MODEL 6
REMARK VINA RESULT:    -6.530     13.011     16.550
REMARK INTER + INTRA:          -6.899
REMARK INTER:                  -7.103
REMARK INTRA:                   0.204
REMARK UNBOUND:                 0.204
REMARK SMILES C[C@@H]1[C@@H](C)CC[C@]2(C(=O)[O-])CC[C@]3(C)C(=CC[C@H]4[C@]5(C)CC[C@@H](O)C(C)(C)[C@H]5CC[C@]43C)[C@@H]12
REMARK SMILES IDX 7 1 6 2 11 3 33 4 5 5 12 6 15 7 2 8 3 9 13 10 16 11 1 12
REMARK SMILES IDX 4 13 14 14 31 15 17 16 18 17 30 18 32 19 19 20 29 21 28 22
REMARK SMILES IDX 21 23 20 24 25 25 22 26 23 27 26 28 27 29 8 30 9 31 10 32
REMARK SMILES IDX 24 33
REMARK H PARENT 24 34
REMARK Flexibility Score: inf
ROOT
ATOM      1  C   UNL     1     -18.745  -9.199   2.845  1.00  0.00     0.017 C 
ATOM      2  C   UNL     1     -19.636  -9.387   1.565  1.00  0.00     0.014 C 
ATOM      3  C   UNL     1     -19.101  -7.824   3.470  1.00  0.00     0.014 C 
ATOM      4  C   UNL     1     -17.220  -9.165   2.501  1.00  0.00     0.030 C 
ATOM      5  C   UNL     1     -18.885  -9.854   0.315  1.00  0.00     0.004 C 
ATOM      6  C   UNL     1     -18.356  -7.574   4.784  1.00  0.00     0.013 C 
ATOM      7  C   UNL     1     -16.374  -8.848   3.770  1.00  0.00    -0.063 C 
ATOM      8  C   UNL     1     -16.741 -10.382   1.613  1.00  0.00    -0.003 C 
ATOM      9  C   UNL     1     -17.830 -10.920   0.625  1.00  0.00    -0.011 C 
ATOM     10  C   UNL     1     -16.785  -7.670   4.688  1.00  0.00    -0.006 C 
ATOM     11  C   UNL     1     -15.147  -9.389   3.939  1.00  0.00    -0.027 C 
ATOM     12  C   UNL     1     -15.501  -9.975   0.774  1.00  0.00     0.008 C 
ATOM     13  C   UNL     1     -18.461 -12.251   1.072  1.00  0.00     0.008 C 
ATOM     14  C   UNL     1     -16.316  -6.361   3.982  1.00  0.00     0.017 C 
ATOM     15  C   UNL     1     -16.133  -7.844   6.174  1.00  0.00    -0.020 C 
ATOM     16  C   UNL     1     -14.089  -8.699   4.739  1.00  0.00     0.032 C 
ATOM     17  C   UNL     1     -14.604  -8.320   6.140  1.00  0.00     0.006 C 
ATOM     18  C   UNL     1     -16.266  -6.519   6.985  1.00  0.00     0.008 C 
ATOM     19  C   UNL     1     -16.923  -8.937   6.979  1.00  0.00     0.012 C 
ATOM     20  C   UNL     1     -13.575  -7.483   7.027  1.00  0.00    -0.025 C 
ATOM     21  C   UNL     1     -15.612  -6.552   8.379  1.00  0.00     0.005 C 
ATOM     22  C   UNL     1     -14.242  -7.295   8.441  1.00  0.00     0.003 C 
ATOM     23  C   UNL     1     -12.270  -8.332   7.194  1.00  0.00     0.010 C 
ATOM     24  C   UNL     1     -13.207  -6.109   6.376  1.00  0.00     0.012 C 
ATOM     25  C   UNL     1     -13.288  -6.816   9.611  1.00  0.00    -0.006 C 
ATOM     26  C   UNL     1     -11.328  -7.838   8.298  1.00  0.00     0.033 C 
ATOM     27  C   UNL     1     -12.044  -7.757   9.655  1.00  0.00     0.120 C 
ATOM     28  C   UNL     1     -14.037  -6.963  10.961  1.00  0.00     0.014 C 
ATOM     29  C   UNL     1     -12.834  -5.332   9.497  1.00  0.00     0.014 C 
ENDROOT
BRANCH   1  30
ATOM     30  C   UNL     1     -19.083 -10.304   3.846  1.00  0.00     0.048 C 
ATOM     31  O   UNL     1     -18.186 -11.029   4.352  1.00  0.00    -0.550 OA
ATOM     32  O   UNL     1     -20.407 -10.515   4.219  1.00  0.00    -0.550 OA
ENDBRANCH   1  30
BRANCH  27  33
ATOM     33  O   UNL     1     -11.133  -7.326  10.638  1.00  0.00    -0.393 OA
ATOM     34  H   UNL     1     -10.444  -8.035  10.727  1.00  0.00     0.210 HD
ENDBRANCH  27  33
TORSDOF 2
ENDMDL
MODEL 7
REMARK VINA RESULT:    -6.494     11.711     13.324
REMARK INTER + INTRA:          -6.860
REMARK INTER:                  -7.067
REMARK INTRA:                   0.207
REMARK UNBOUND:                 0.204
REMARK SMILES C[C@@H]1[C@@H](C)CC[C@]2(C(=O)[O-])CC[C@]3(C)C(=CC[C@H]4[C@]5(C)CC[C@@H](O)C(C)(C)[C@H]5CC[C@]43C)[C@@H]12
REMARK SMILES IDX 7 1 6 2 11 3 33 4 5 5 12 6 15 7 2 8 3 9 13 10 16 11 1 12
REMARK SMILES IDX 4 13 14 14 31 15 17 16 18 17 30 18 32 19 19 20 29 21 28 22
REMARK SMILES IDX 21 23 20 24 25 25 22 26 23 27 26 28 27 29 8 30 9 31 10 32
REMARK SMILES IDX 24 33
REMARK H PARENT 24 34
REMARK Flexibility Score: inf
ROOT
ATOM      1  C   UNL     1     -11.802  -6.388  11.726  1.00  0.00     0.017 C 
ATOM      2  C   UNL     1     -11.182  -6.199  13.156  1.00  0.00     0.014 C 
ATOM      3  C   UNL     1     -12.954  -5.360  11.571  1.00  0.00     0.014 C 
ATOM      4  C   UNL     1     -12.428  -7.809  11.539  1.00  0.00     0.030 C 
ATOM      5  C   UNL     1     -10.975  -7.492  13.949  1.00  0.00     0.004 C 
ATOM      6  C   UNL     1     -13.574  -5.390  10.171  1.00  0.00     0.013 C 
ATOM      7  C   UNL     1     -13.147  -7.919  10.162  1.00  0.00    -0.063 C 
ATOM      8  C   UNL     1     -11.452  -8.990  11.928  1.00  0.00    -0.003 C 
ATOM      9  C   UNL     1     -10.452  -8.640  13.081  1.00  0.00    -0.011 C 
ATOM     10  C   UNL     1     -14.117  -6.798   9.714  1.00  0.00    -0.006 C 
ATOM     11  C   UNL     1     -13.163  -9.086   9.478  1.00  0.00    -0.027 C 
ATOM     12  C   UNL     1     -12.267 -10.233  12.371  1.00  0.00     0.008 C 
ATOM     13  C   UNL     1      -9.014  -8.392  12.592  1.00  0.00     0.008 C 
ATOM     14  C   UNL     1     -15.452  -7.018  10.489  1.00  0.00     0.017 C 
ATOM     15  C   UNL     1     -14.325  -6.830   8.095  1.00  0.00    -0.020 C 
ATOM     16  C   UNL     1     -14.276  -9.431   8.542  1.00  0.00     0.032 C 
ATOM     17  C   UNL     1     -14.509  -8.310   7.511  1.00  0.00     0.006 C 
ATOM     18  C   UNL     1     -15.535  -5.935   7.684  1.00  0.00     0.008 C 
ATOM     19  C   UNL     1     -13.064  -6.222   7.383  1.00  0.00     0.012 C 
ATOM     20  C   UNL     1     -15.750  -8.544   6.536  1.00  0.00    -0.025 C 
ATOM     21  C   UNL     1     -15.866  -5.956   6.180  1.00  0.00     0.005 C 
ATOM     22  C   UNL     1     -15.748  -7.356   5.503  1.00  0.00     0.003 C 
ATOM     23  C   UNL     1     -15.517  -9.886   5.762  1.00  0.00     0.010 C 
ATOM     24  C   UNL     1     -17.107  -8.635   7.310  1.00  0.00     0.012 C 
ATOM     25  C   UNL     1     -16.651  -7.541   4.216  1.00  0.00    -0.006 C 
ATOM     26  C   UNL     1     -16.424 -10.081   4.542  1.00  0.00     0.033 C 
ATOM     27  C   UNL     1     -16.302  -8.910   3.555  1.00  0.00     0.120 C 
ATOM     28  C   UNL     1     -16.306  -6.424   3.196  1.00  0.00     0.014 C 
ATOM     29  C   UNL     1     -18.181  -7.454   4.492  1.00  0.00     0.014 C 
ENDROOT
BRANCH   1  30
ATOM     30  C   UNL     1     -10.727  -6.093  10.680  1.00  0.00     0.048 C 
ATOM     31  O   UNL     1     -10.470  -6.906   9.754  1.00  0.00    -0.550 OA
ATOM     32  O   UNL     1     -10.017  -4.898  10.739  1.00  0.00    -0.550 OA
ENDBRANCH   1  30
BRANCH  27  33
ATOM     33  O   UNL     1     -17.131  -9.148   2.443  1.00  0.00    -0.393 OA
ATOM     34  H   UNL     1     -17.023  -8.376   1.828  1.00  0.00     0.210 HD
ENDBRANCH  27  33
TORSDOF 2
ENDMDL
MODEL 8
REMARK VINA RESULT:    -6.414     13.305     15.430
REMARK INTER + INTRA:          -6.772
REMARK INTER:                  -6.984
REMARK INTRA:                   0.212
REMARK UNBOUND:                 0.204
REMARK SMILES C[C@@H]1[C@@H](C)CC[C@]2(C(=O)[O-])CC[C@]3(C)C(=CC[C@H]4[C@]5(C)CC[C@@H](O)C(C)(C)[C@H]5CC[C@]43C)[C@@H]12
REMARK SMILES IDX 7 1 6 2 11 3 33 4 5 5 12 6 15 7 2 8 3 9 13 10 16 11 1 12
REMARK SMILES IDX 4 13 14 14 31 15 17 16 18 17 30 18 32 19 19 20 29 21 28 22
REMARK SMILES IDX 21 23 20 24 25 25 22 26 23 27 26 28 27 29 8 30 9 31 10 32
REMARK SMILES IDX 24 33
REMARK H PARENT 24 34
REMARK Flexibility Score: inf
ROOT
ATOM      1  C   UNL     1     -13.761  -8.164   6.975  1.00  0.00     0.017 C 
ATOM      2  C   UNL     1     -12.752  -7.440   7.936  1.00  0.00     0.014 C 
ATOM      3  C   UNL     1     -12.939  -8.826   5.838  1.00  0.00     0.014 C 
ATOM      4  C   UNL     1     -14.753  -7.161   6.299  1.00  0.00     0.030 C 
ATOM      5  C   UNL     1     -13.131  -6.005   8.313  1.00  0.00     0.004 C 
ATOM      6  C   UNL     1     -13.817  -9.645   4.888  1.00  0.00     0.013 C 
ATOM      7  C   UNL     1     -15.652  -7.891   5.257  1.00  0.00    -0.063 C 
ATOM      8  C   UNL     1     -15.484  -6.203   7.321  1.00  0.00    -0.003 C 
ATOM      9  C   UNL     1     -14.630  -5.842   8.583  1.00  0.00    -0.011 C 
ATOM     10  C   UNL     1     -15.004  -8.847   4.225  1.00  0.00    -0.006 C 
ATOM     11  C   UNL     1     -16.931  -7.504   5.052  1.00  0.00    -0.027 C 
ATOM     12  C   UNL     1     -15.877  -4.875   6.622  1.00  0.00     0.008 C 
ATOM     13  C   UNL     1     -15.076  -6.581   9.858  1.00  0.00     0.008 C 
ATOM     14  C   UNL     1     -14.360  -7.953   3.122  1.00  0.00     0.017 C 
ATOM     15  C   UNL     1     -16.115  -9.878   3.619  1.00  0.00    -0.020 C 
ATOM     16  C   UNL     1     -17.609  -7.705   3.735  1.00  0.00     0.032 C 
ATOM     17  C   UNL     1     -17.509  -9.170   3.271  1.00  0.00     0.006 C 
ATOM     18  C   UNL     1     -15.552 -10.607   2.360  1.00  0.00     0.008 C 
ATOM     19  C   UNL     1     -16.434 -10.999   4.673  1.00  0.00     0.012 C 
ATOM     20  C   UNL     1     -18.113  -9.457   1.822  1.00  0.00    -0.025 C 
ATOM     21  C   UNL     1     -16.552 -11.549   1.664  1.00  0.00     0.005 C 
ATOM     22  C   UNL     1     -18.013 -11.010   1.586  1.00  0.00     0.003 C 
ATOM     23  C   UNL     1     -19.624  -9.045   1.832  1.00  0.00     0.010 C 
ATOM     24  C   UNL     1     -17.376  -8.654   0.700  1.00  0.00     0.012 C 
ATOM     25  C   UNL     1     -18.866 -11.596   0.387  1.00  0.00    -0.006 C 
ATOM     26  C   UNL     1     -20.436  -9.578   0.646  1.00  0.00     0.033 C 
ATOM     27  C   UNL     1     -20.339 -11.107   0.538  1.00  0.00     0.120 C 
ATOM     28  C   UNL     1     -18.872 -13.144   0.485  1.00  0.00     0.014 C 
ATOM     29  C   UNL     1     -18.320 -11.228  -1.023  1.00  0.00     0.014 C 
ENDROOT
BRANCH   1  30
ATOM     30  C   UNL     1     -14.492  -9.253   7.761  1.00  0.00     0.048 C 
ATOM     31  O   UNL     1     -15.750  -9.334   7.757  1.00  0.00    -0.550 OA
ATOM     32  O   UNL     1     -13.762 -10.184   8.491  1.00  0.00    -0.550 OA
ENDBRANCH   1  30
BRANCH  27  33
ATOM     33  O   UNL     1     -21.120 -11.548  -0.546  1.00  0.00    -0.393 OA
ATOM     34  H   UNL     1     -20.561 -12.179  -1.071  1.00  0.00     0.210 HD
ENDBRANCH  27  33
TORSDOF 2
ENDMDL
MODEL 9
REMARK VINA RESULT:    -6.341      3.500      9.244
REMARK INTER + INTRA:          -6.693
REMARK INTER:                  -6.947
REMARK INTRA:                   0.254
REMARK UNBOUND:                 0.204
REMARK SMILES C[C@@H]1[C@@H](C)CC[C@]2(C(=O)[O-])CC[C@]3(C)C(=CC[C@H]4[C@]5(C)CC[C@@H](O)C(C)(C)[C@H]5CC[C@]43C)[C@@H]12
REMARK SMILES IDX 7 1 6 2 11 3 33 4 5 5 12 6 15 7 2 8 3 9 13 10 16 11 1 12
REMARK SMILES IDX 4 13 14 14 31 15 17 16 18 17 30 18 32 19 19 20 29 21 28 22
REMARK SMILES IDX 21 23 20 24 25 25 22 26 23 27 26 28 27 29 8 30 9 31 10 32
REMARK SMILES IDX 24 33
REMARK H PARENT 24 34
REMARK Flexibility Score: inf
ROOT
ATOM      1  C   UNL     1     -11.108 -18.374  15.219  1.00  0.00     0.017 C 
ATOM      2  C   UNL     1     -12.212 -19.489  15.294  1.00  0.00     0.014 C 
ATOM      3  C   UNL     1     -10.568 -18.148  16.657  1.00  0.00     0.014 C 
ATOM      4  C   UNL     1     -11.685 -17.006  14.726  1.00  0.00     0.030 C 
ATOM      5  C   UNL     1     -13.513 -19.163  14.555  1.00  0.00     0.004 C 
ATOM      6  C   UNL     1      -9.414 -17.143  16.691  1.00  0.00     0.013 C 
ATOM      7  C   UNL     1     -10.597 -15.893  14.789  1.00  0.00    -0.063 C 
ATOM      8  C   UNL     1     -12.517 -17.113  13.387  1.00  0.00    -0.003 C 
ATOM      9  C   UNL     1     -13.271 -18.474  13.209  1.00  0.00    -0.011 C 
ATOM     10  C   UNL     1      -9.741 -15.731  16.070  1.00  0.00    -0.006 C 
ATOM     11  C   UNL     1     -10.569 -14.898  13.873  1.00  0.00    -0.027 C 
ATOM     12  C   UNL     1     -13.572 -15.977  13.322  1.00  0.00     0.008 C 
ATOM     13  C   UNL     1     -12.609 -19.413  12.185  1.00  0.00     0.008 C 
ATOM     14  C   UNL     1     -10.631 -14.995  17.118  1.00  0.00     0.017 C 
ATOM     15  C   UNL     1      -8.364 -14.919  15.743  1.00  0.00    -0.020 C 
ATOM     16  C   UNL     1     -10.010 -13.550  14.199  1.00  0.00     0.032 C 
ATOM     17  C   UNL     1      -8.588 -13.658  14.780  1.00  0.00     0.006 C 
ATOM     18  C   UNL     1      -7.670 -14.470  17.065  1.00  0.00     0.008 C 
ATOM     19  C   UNL     1      -7.347 -15.866  15.010  1.00  0.00     0.012 C 
ATOM     20  C   UNL     1      -7.952 -12.274  15.256  1.00  0.00    -0.025 C 
ATOM     21  C   UNL     1      -6.397 -13.626  16.867  1.00  0.00     0.005 C 
ATOM     22  C   UNL     1      -6.477 -12.583  15.710  1.00  0.00     0.003 C 
ATOM     23  C   UNL     1      -7.909 -11.307  14.025  1.00  0.00     0.010 C 
ATOM     24  C   UNL     1      -8.779 -11.601  16.401  1.00  0.00     0.012 C 
ATOM     25  C   UNL     1      -5.518 -11.335  15.884  1.00  0.00    -0.006 C 
ATOM     26  C   UNL     1      -7.014 -10.077  14.215  1.00  0.00     0.033 C 
ATOM     27  C   UNL     1      -5.578 -10.476  14.583  1.00  0.00     0.120 C 
ATOM     28  C   UNL     1      -4.061 -11.840  16.048  1.00  0.00     0.014 C 
ATOM     29  C   UNL     1      -5.840 -10.452  17.125  1.00  0.00     0.014 C 
ENDROOT
BRANCH   1  30
ATOM     30  C   UNL     1      -9.968 -18.870  14.331  1.00  0.00     0.048 C 
ATOM     31  O   UNL     1      -9.428 -19.993  14.519  1.00  0.00    -0.550 OA
ATOM     32  O   UNL     1      -9.514 -18.075  13.283  1.00  0.00    -0.550 OA
ENDBRANCH   1  30
BRANCH  27  33
ATOM     33  O   UNL     1      -4.792  -9.317  14.719  1.00  0.00    -0.393 OA
ATOM     34  H   UNL     1      -4.713  -8.910  13.816  1.00  0.00     0.210 HD
ENDBRANCH  27  33
TORSDOF 2
ENDMDL
