MODEL 1
REMARK VINA RESULT:    -4.499      0.000      0.000
REMARK INTER + INTRA:         -10.729
REMARK INTER:                  -8.708
REMARK INTRA:                  -2.022
REMARK UNBOUND:                -2.022
REMARK SMILES CCCCCCCCCCCCCCCCCC(=O)[O-]
REMARK SMILES IDX 10 1 11 2 12 3 13 4 14 5 15 6 16 7 17 8 18 9 19 10 20 11
REMARK SMILES IDX 9 12 8 13 7 14 6 15 5 16 4 17 3 18 2 19 1 20
REMARK H PARENT
REMARK Flexibility Score: inf
ROOT
ATOM      1  C   UNL     1      43.894  -0.605  23.527  1.00  0.00     0.000 C 
ENDROOT
BRANCH   1   2
ATOM      2  C   UNL     1      44.693   0.614  24.020  1.00  0.00     0.000 C 
BRANCH   2   3
ATOM      3  C   UNL     1      45.222   1.478  22.865  1.00  0.00     0.000 C 
BRANCH   3   4
ATOM      4  C   UNL     1      46.403   0.820  22.130  1.00  0.00     0.000 C 
BRANCH   4   5
ATOM      5  C   UNL     1      46.862   1.631  20.907  1.00  0.00     0.000 C 
BRANCH   5   6
ATOM      6  C   UNL     1      48.248   1.202  20.401  1.00  0.00     0.000 C 
BRANCH   6   7
ATOM      7  C   UNL     1      48.606  -0.202  20.912  1.00  0.00     0.006 C 
BRANCH   7   8
ATOM      8  C   UNL     1      50.025  -0.263  21.495  1.00  0.00     0.053 C 
BRANCH   8   9
ATOM      9  C   UNL     1      51.014  -0.771  20.491  1.00  0.00     0.041 C 
ATOM     10  O   UNL     1      50.619  -1.385  19.466  1.00  0.00    -0.550 OA
ATOM     11  O   UNL     1      52.371  -0.539  20.674  1.00  0.00    -0.550 OA
ENDBRANCH   8   9
ENDBRANCH   7   8
ENDBRANCH   6   7
ENDBRANCH   5   6
ENDBRANCH   4   5
ENDBRANCH   3   4
ENDBRANCH   2   3
ENDBRANCH   1   2
BRANCH   1  12
ATOM     12  C   UNL     1      42.729  -0.211  22.605  1.00  0.00     0.000 C 
BRANCH  12  13
ATOM     13  C   UNL     1      42.796  -0.916  21.237  1.00  0.00    -0.000 C 
BRANCH  13  14
ATOM     14  C   UNL     1      41.495  -0.769  20.433  1.00  0.00    -0.000 C 
BRANCH  14  15
ATOM     15  C   UNL     1      41.748  -0.411  18.960  1.00  0.00    -0.000 C 
BRANCH  15  16
ATOM     16  C   UNL     1      41.531   1.088  18.715  1.00  0.00    -0.000 C 
BRANCH  16  17
ATOM     17  C   UNL     1      42.868   1.805  18.479  1.00  0.00    -0.000 C 
BRANCH  17  18
ATOM     18  C   UNL     1      43.368   2.565  19.721  1.00  0.00    -0.000 C 
BRANCH  18  19
ATOM     19  C   UNL     1      42.278   2.905  20.753  1.00  0.00    -0.003 C 
ATOM     20  C   UNL     1      42.685   4.027  21.706  1.00  0.00     0.004 C 
ENDBRANCH  18  19
ENDBRANCH  17  18
ENDBRANCH  16  17
ENDBRANCH  15  16
ENDBRANCH  14  15
ENDBRANCH  13  14
ENDBRANCH  12  13
ENDBRANCH   1  12
TORSDOF 16
ENDMDL
MODEL 2
REMARK VINA RESULT:    -4.437      3.047      7.402
REMARK INTER + INTRA:         -10.609
REMARK INTER:                  -9.105
REMARK INTRA:                  -1.504
REMARK UNBOUND:                -2.022
REMARK SMILES CCCCCCCCCCCCCCCCCC(=O)[O-]
REMARK SMILES IDX 10 1 11 2 12 3 13 4 14 5 15 6 16 7 17 8 18 9 19 10 20 11
REMARK SMILES IDX 9 12 8 13 7 14 6 15 5 16 4 17 3 18 2 19 1 20
REMARK H PARENT
REMARK Flexibility Score: inf
ROOT
ATOM      1  C   UNL     1      45.274   2.573  22.501  1.00  0.00     0.000 C 
ENDROOT
BRANCH   1   2
ATOM      2  C   UNL     1      44.859   3.066  21.103  1.00  0.00     0.000 C 
BRANCH   2   3
ATOM      3  C   UNL     1      43.343   2.979  20.875  1.00  0.00     0.000 C 
BRANCH   3   4
ATOM      4  C   UNL     1      42.930   1.692  20.139  1.00  0.00     0.000 C 
BRANCH   4   5
ATOM      5  C   UNL     1      42.077   0.759  21.014  1.00  0.00     0.000 C 
BRANCH   5   6
ATOM      6  C   UNL     1      42.721  -0.623  21.203  1.00  0.00     0.000 C 
BRANCH   6   7
ATOM      7  C   UNL     1      43.763  -0.592  22.332  1.00  0.00     0.006 C 
BRANCH   7   8
ATOM      8  C   UNL     1      43.113  -0.567  23.722  1.00  0.00     0.053 C 
BRANCH   8   9
ATOM      9  C   UNL     1      43.957  -1.269  24.741  1.00  0.00     0.041 C 
ATOM     10  O   UNL     1      45.095  -0.821  25.039  1.00  0.00    -0.550 OA
ATOM     11  O   UNL     1      43.474  -2.401  25.383  1.00  0.00    -0.550 OA
ENDBRANCH   8   9
ENDBRANCH   7   8
ENDBRANCH   6   7
ENDBRANCH   5   6
ENDBRANCH   4   5
ENDBRANCH   3   4
ENDBRANCH   2   3
ENDBRANCH   1   2
BRANCH   1  12
ATOM     12  C   UNL     1      46.552   1.720  22.469  1.00  0.00     0.000 C 
BRANCH  12  13
ATOM     13  C   UNL     1      46.989   1.366  21.036  1.00  0.00    -0.000 C 
BRANCH  13  14
ATOM     14  C   UNL     1      47.941   0.160  20.989  1.00  0.00    -0.000 C 
BRANCH  14  15
ATOM     15  C   UNL     1      49.417   0.576  20.895  1.00  0.00    -0.000 C 
BRANCH  15  16
ATOM     16  C   UNL     1      50.331  -0.510  21.476  1.00  0.00    -0.000 C 
BRANCH  16  17
ATOM     17  C   UNL     1      51.164  -1.177  20.371  1.00  0.00    -0.000 C 
BRANCH  17  18
ATOM     18  C   UNL     1      52.561  -0.551  20.213  1.00  0.00    -0.000 C 
BRANCH  18  19
ATOM     19  C   UNL     1      53.038  -0.393  18.758  1.00  0.00    -0.003 C 
ATOM     20  C   UNL     1      52.060  -0.979  17.741  1.00  0.00     0.004 C 
ENDBRANCH  18  19
ENDBRANCH  17  18
ENDBRANCH  16  17
ENDBRANCH  15  16
ENDBRANCH  14  15
ENDBRANCH  13  14
ENDBRANCH  12  13
ENDBRANCH   1  12
TORSDOF 16
ENDMDL
MODEL 3
REMARK VINA RESULT:    -4.416      1.792      4.256
REMARK INTER + INTRA:         -10.567
REMARK INTER:                  -7.976
REMARK INTRA:                  -2.591
REMARK UNBOUND:                -2.022
REMARK SMILES CCCCCCCCCCCCCCCCCC(=O)[O-]
REMARK SMILES IDX 10 1 11 2 12 3 13 4 14 5 15 6 16 7 17 8 18 9 19 10 20 11
REMARK SMILES IDX 9 12 8 13 7 14 6 15 5 16 4 17 3 18 2 19 1 20
REMARK H PARENT
REMARK Flexibility Score: inf
ROOT
ATOM      1  C   UNL     1      41.895   2.032  17.381  1.00  0.00     0.000 C 
ENDROOT
BRANCH   1   2
ATOM      2  C   UNL     1      43.362   1.594  17.229  1.00  0.00     0.000 C 
BRANCH   2   3
ATOM      3  C   UNL     1      44.345   2.606  17.837  1.00  0.00     0.000 C 
BRANCH   3   4
ATOM      4  C   UNL     1      44.151   2.780  19.353  1.00  0.00     0.000 C 
BRANCH   4   5
ATOM      5  C   UNL     1      45.329   2.219  20.167  1.00  0.00     0.000 C 
BRANCH   5   6
ATOM      6  C   UNL     1      45.317   2.697  21.627  1.00  0.00     0.000 C 
BRANCH   6   7
ATOM      7  C   UNL     1      46.277   1.857  22.485  1.00  0.00     0.006 C 
BRANCH   7   8
ATOM      8  C   UNL     1      46.902   0.700  21.694  1.00  0.00     0.053 C 
BRANCH   8   9
ATOM      9  C   UNL     1      48.391   0.838  21.595  1.00  0.00     0.041 C 
ATOM     10  O   UNL     1      48.904   1.934  21.247  1.00  0.00    -0.550 OA
ATOM     11  O   UNL     1      49.211  -0.234  21.916  1.00  0.00    -0.550 OA
ENDBRANCH   8   9
ENDBRANCH   7   8
ENDBRANCH   6   7
ENDBRANCH   5   6
ENDBRANCH   4   5
ENDBRANCH   3   4
ENDBRANCH   2   3
ENDBRANCH   1   2
BRANCH   1  12
ATOM     12  C   UNL     1      41.118   1.153  18.374  1.00  0.00     0.000 C 
BRANCH  12  13
ATOM     13  C   UNL     1      41.796  -0.210  18.610  1.00  0.00    -0.000 C 
BRANCH  13  14
ATOM     14  C   UNL     1      41.565  -0.745  20.032  1.00  0.00    -0.000 C 
BRANCH  14  15
ATOM     15  C   UNL     1      42.202   0.145  21.109  1.00  0.00    -0.000 C 
BRANCH  15  16
ATOM     16  C   UNL     1      43.366  -0.576  21.800  1.00  0.00    -0.000 C 
BRANCH  16  17
ATOM     17  C   UNL     1      43.331  -0.349  23.319  1.00  0.00    -0.000 C 
BRANCH  17  18
ATOM     18  C   UNL     1      42.521   0.897  23.720  1.00  0.00    -0.000 C 
BRANCH  18  19
ATOM     19  C   UNL     1      43.224   1.831  24.721  1.00  0.00    -0.003 C 
ATOM     20  C   UNL     1      44.321   1.131  25.522  1.00  0.00     0.004 C 
ENDBRANCH  18  19
ENDBRANCH  17  18
ENDBRANCH  16  17
ENDBRANCH  15  16
ENDBRANCH  14  15
ENDBRANCH  13  14
ENDBRANCH  12  13
ENDBRANCH   1  12
TORSDOF 16
ENDMDL
MODEL 4
REMARK VINA RESULT:    -4.379     13.544     16.221
REMARK INTER + INTRA:         -10.497
REMARK INTER:                  -8.643
REMARK INTRA:                  -1.854
REMARK UNBOUND:                -2.022
REMARK SMILES CCCCCCCCCCCCCCCCCC(=O)[O-]
REMARK SMILES IDX 10 1 11 2 12 3 13 4 14 5 15 6 16 7 17 8 18 9 19 10 20 11
REMARK SMILES IDX 9 12 8 13 7 14 6 15 5 16 4 17 3 18 2 19 1 20
REMARK H PARENT
REMARK Flexibility Score: inf
ROOT
ATOM      1  C   UNL     1      36.466  -9.554  25.927  1.00  0.00     0.000 C 
ENDROOT
BRANCH   1   2
ATOM      2  C   UNL     1      36.244 -11.062  26.138  1.00  0.00     0.000 C 
BRANCH   2   3
ATOM      3  C   UNL     1      37.039 -11.613  27.332  1.00  0.00     0.000 C 
BRANCH   3   4
ATOM      4  C   UNL     1      36.480 -11.137  28.684  1.00  0.00     0.000 C 
BRANCH   4   5
ATOM      5  C   UNL     1      37.031 -11.947  29.868  1.00  0.00     0.000 C 
BRANCH   5   6
ATOM      6  C   UNL     1      38.241 -12.811  29.481  1.00  0.00     0.000 C 
BRANCH   6   7
ATOM      7  C   UNL     1      39.098 -13.137  30.713  1.00  0.00     0.006 C 
BRANCH   7   8
ATOM      8  C   UNL     1      40.393 -13.872  30.342  1.00  0.00     0.053 C 
BRANCH   8   9
ATOM      9  C   UNL     1      41.598 -13.004  30.538  1.00  0.00     0.041 C 
ATOM     10  O   UNL     1      41.474 -11.843  31.009  1.00  0.00    -0.550 OA
ATOM     11  O   UNL     1      42.862 -13.489  30.230  1.00  0.00    -0.550 OA
ENDBRANCH   8   9
ENDBRANCH   7   8
ENDBRANCH   6   7
ENDBRANCH   5   6
ENDBRANCH   4   5
ENDBRANCH   3   4
ENDBRANCH   2   3
ENDBRANCH   1   2
BRANCH   1  12
ATOM     12  C   UNL     1      37.711  -9.256  25.076  1.00  0.00     0.000 C 
BRANCH  12  13
ATOM     13  C   UNL     1      38.973  -9.045  25.933  1.00  0.00    -0.000 C 
BRANCH  13  14
ATOM     14  C   UNL     1      40.270  -9.255  25.136  1.00  0.00    -0.000 C 
BRANCH  14  15
ATOM     15  C   UNL     1      41.141 -10.383  25.710  1.00  0.00    -0.000 C 
BRANCH  15  16
ATOM     16  C   UNL     1      40.425 -11.097  26.863  1.00  0.00    -0.000 C 
BRANCH  16  17
ATOM     17  C   UNL     1      40.866 -12.565  26.961  1.00  0.00    -0.000 C 
BRANCH  17  18
ATOM     18  C   UNL     1      42.389 -12.743  26.832  1.00  0.00    -0.000 C 
BRANCH  18  19
ATOM     19  C   UNL     1      42.837 -14.108  26.279  1.00  0.00    -0.003 C 
ATOM     20  C   UNL     1      44.016 -14.004  25.313  1.00  0.00     0.004 C 
ENDBRANCH  18  19
ENDBRANCH  17  18
ENDBRANCH  16  17
ENDBRANCH  15  16
ENDBRANCH  14  15
ENDBRANCH  13  14
ENDBRANCH  12  13
ENDBRANCH   1  12
TORSDOF 16
ENDMDL
MODEL 5
REMARK VINA RESULT:    -4.366      2.886      6.828
REMARK INTER + INTRA:         -10.471
REMARK INTER:                  -9.026
REMARK INTRA:                  -1.446
REMARK UNBOUND:                -2.022
REMARK SMILES CCCCCCCCCCCCCCCCCC(=O)[O-]
REMARK SMILES IDX 10 1 11 2 12 3 13 4 14 5 15 6 16 7 17 8 18 9 19 10 20 11
REMARK SMILES IDX 9 12 8 13 7 14 6 15 5 16 4 17 3 18 2 19 1 20
REMARK H PARENT
REMARK Flexibility Score: inf
ROOT
ATOM      1  C   UNL     1      43.483   2.056  17.501  1.00  0.00     0.000 C 
ENDROOT
BRANCH   1   2
ATOM      2  C   UNL     1      42.026   1.561  17.531  1.00  0.00     0.000 C 
BRANCH   2   3
ATOM      3  C   UNL     1      41.617   1.018  18.908  1.00  0.00     0.000 C 
BRANCH   3   4
ATOM      4  C   UNL     1      41.535  -0.518  18.937  1.00  0.00     0.000 C 
BRANCH   4   5
ATOM      5  C   UNL     1      41.921  -1.104  20.306  1.00  0.00     0.000 C 
BRANCH   5   6
ATOM      6  C   UNL     1      42.399  -0.029  21.294  1.00  0.00     0.000 C 
BRANCH   6   7
ATOM      7  C   UNL     1      43.458  -0.598  22.251  1.00  0.00     0.006 C 
BRANCH   7   8
ATOM      8  C   UNL     1      43.209  -0.180  23.707  1.00  0.00     0.053 C 
BRANCH   8   9
ATOM      9  C   UNL     1      44.068  -0.955  24.659  1.00  0.00     0.041 C 
ATOM     10  O   UNL     1      45.199  -0.515  24.994  1.00  0.00    -0.550 OA
ATOM     11  O   UNL     1      43.606  -2.147  25.200  1.00  0.00    -0.550 OA
ENDBRANCH   8   9
ENDBRANCH   7   8
ENDBRANCH   6   7
ENDBRANCH   5   6
ENDBRANCH   4   5
ENDBRANCH   3   4
ENDBRANCH   2   3
ENDBRANCH   1   2
BRANCH   1  12
ATOM     12  C   UNL     1      44.018   2.394  18.901  1.00  0.00     0.000 C 
BRANCH  12  13
ATOM     13  C   UNL     1      45.520   2.732  18.892  1.00  0.00    -0.000 C 
BRANCH  13  14
ATOM     14  C   UNL     1      46.053   3.096  20.287  1.00  0.00    -0.000 C 
BRANCH  14  15
ATOM     15  C   UNL     1      45.842   1.971  21.312  1.00  0.00    -0.000 C 
BRANCH  15  16
ATOM     16  C   UNL     1      47.184   1.472  21.863  1.00  0.00    -0.000 C 
BRANCH  16  17
ATOM     17  C   UNL     1      47.763   0.360  20.977  1.00  0.00    -0.000 C 
BRANCH  17  18
ATOM     18  C   UNL     1      49.200  -0.031  21.368  1.00  0.00    -0.000 C 
BRANCH  18  19
ATOM     19  C   UNL     1      50.240   0.121  20.244  1.00  0.00    -0.003 C 
ATOM     20  C   UNL     1      50.890  -1.203  19.848  1.00  0.00     0.004 C 
ENDBRANCH  18  19
ENDBRANCH  17  18
ENDBRANCH  16  17
ENDBRANCH  15  16
ENDBRANCH  14  15
ENDBRANCH  13  14
ENDBRANCH  12  13
ENDBRANCH   1  12
TORSDOF 16
ENDMDL
MODEL 6
REMARK VINA RESULT:    -4.354      1.618      3.404
REMARK INTER + INTRA:         -10.449
REMARK INTER:                  -8.820
REMARK INTRA:                  -1.629
REMARK UNBOUND:                -2.022
REMARK SMILES CCCCCCCCCCCCCCCCCC(=O)[O-]
REMARK SMILES IDX 10 1 11 2 12 3 13 4 14 5 15 6 16 7 17 8 18 9 19 10 20 11
REMARK SMILES IDX 9 12 8 13 7 14 6 15 5 16 4 17 3 18 2 19 1 20
REMARK H PARENT
REMARK Flexibility Score: inf
ROOT
ATOM      1  C   UNL     1      45.044   3.208  23.848  1.00  0.00     0.000 C 
ENDROOT
BRANCH   1   2
ATOM      2  C   UNL     1      45.688   2.548  22.616  1.00  0.00     0.000 C 
BRANCH   2   3
ATOM      3  C   UNL     1      46.162   1.113  22.897  1.00  0.00     0.000 C 
BRANCH   3   4
ATOM      4  C   UNL     1      46.985   0.526  21.737  1.00  0.00     0.000 C 
BRANCH   4   5
ATOM      5  C   UNL     1      47.630   1.613  20.861  1.00  0.00     0.000 C 
BRANCH   5   6
ATOM      6  C   UNL     1      49.024   1.213  20.356  1.00  0.00     0.000 C 
BRANCH   6   7
ATOM      7  C   UNL     1      49.242  -0.302  20.492  1.00  0.00     0.006 C 
BRANCH   7   8
ATOM      8  C   UNL     1      50.634  -0.642  21.040  1.00  0.00     0.053 C 
BRANCH   8   9
ATOM      9  C   UNL     1      51.646  -0.768  19.942  1.00  0.00     0.041 C 
ATOM     10  O   UNL     1      52.872  -0.851  20.215  1.00  0.00    -0.550 OA
ATOM     11  O   UNL     1      51.231  -0.824  18.618  1.00  0.00    -0.550 OA
ENDBRANCH   8   9
ENDBRANCH   7   8
ENDBRANCH   6   7
ENDBRANCH   5   6
ENDBRANCH   4   5
ENDBRANCH   3   4
ENDBRANCH   2   3
ENDBRANCH   1   2
BRANCH   1  12
ATOM     12  C   UNL     1      44.775   2.204  24.980  1.00  0.00     0.000 C 
BRANCH  12  13
ATOM     13  C   UNL     1      43.330   1.672  24.965  1.00  0.00    -0.000 C 
BRANCH  13  14
ATOM     14  C   UNL     1      43.255   0.159  25.225  1.00  0.00    -0.000 C 
BRANCH  14  15
ATOM     15  C   UNL     1      42.992  -0.648  23.945  1.00  0.00    -0.000 C 
BRANCH  15  16
ATOM     16  C   UNL     1      42.546   0.268  22.799  1.00  0.00    -0.000 C 
BRANCH  16  17
ATOM     17  C   UNL     1      42.893  -0.347  21.435  1.00  0.00    -0.000 C 
BRANCH  17  18
ATOM     18  C   UNL     1      41.911   0.064  20.324  1.00  0.00    -0.000 C 
BRANCH  18  19
ATOM     19  C   UNL     1      41.469  -1.081  19.395  1.00  0.00    -0.003 C 
ATOM     20  C   UNL     1      40.363  -1.946  19.996  1.00  0.00     0.004 C 
ENDBRANCH  18  19
ENDBRANCH  17  18
ENDBRANCH  16  17
ENDBRANCH  15  16
ENDBRANCH  14  15
ENDBRANCH  13  14
ENDBRANCH  12  13
ENDBRANCH   1  12
TORSDOF 16
ENDMDL
MODEL 7
REMARK VINA RESULT:    -4.337      3.647      7.426
REMARK INTER + INTRA:         -10.415
REMARK INTER:                  -8.728
REMARK INTRA:                  -1.686
REMARK UNBOUND:                -2.022
REMARK SMILES CCCCCCCCCCCCCCCCCC(=O)[O-]
REMARK SMILES IDX 10 1 11 2 12 3 13 4 14 5 15 6 16 7 17 8 18 9 19 10 20 11
REMARK SMILES IDX 9 12 8 13 7 14 6 15 5 16 4 17 3 18 2 19 1 20
REMARK H PARENT
REMARK Flexibility Score: inf
ROOT
ATOM      1  C   UNL     1      44.987   3.549  22.845  1.00  0.00     0.000 C 
ENDROOT
BRANCH   1   2
ATOM      2  C   UNL     1      44.993   3.381  24.374  1.00  0.00     0.000 C 
BRANCH   2   3
ATOM      3  C   UNL     1      44.088   2.232  24.843  1.00  0.00     0.000 C 
BRANCH   3   4
ATOM      4  C   UNL     1      44.822   0.880  24.876  1.00  0.00     0.000 C 
BRANCH   4   5
ATOM      5  C   UNL     1      44.194  -0.156  23.930  1.00  0.00     0.000 C 
BRANCH   5   6
ATOM      6  C   UNL     1      42.804   0.267  23.431  1.00  0.00     0.000 C 
BRANCH   6   7
ATOM      7  C   UNL     1      42.801   0.446  21.905  1.00  0.00     0.006 C 
BRANCH   7   8
ATOM      8  C   UNL     1      42.572  -0.880  21.165  1.00  0.00     0.053 C 
BRANCH   8   9
ATOM      9  C   UNL     1      41.444  -0.779  20.184  1.00  0.00     0.041 C 
ATOM     10  O   UNL     1      41.325   0.243  19.459  1.00  0.00    -0.550 OA
ATOM     11  O   UNL     1      40.544  -1.827  20.049  1.00  0.00    -0.550 OA
ENDBRANCH   8   9
ENDBRANCH   7   8
ENDBRANCH   6   7
ENDBRANCH   5   6
ENDBRANCH   4   5
ENDBRANCH   3   4
ENDBRANCH   2   3
ENDBRANCH   1   2
BRANCH   1  12
ATOM     12  C   UNL     1      46.321   3.138  22.202  1.00  0.00     0.000 C 
BRANCH  12  13
ATOM     13  C   UNL     1      46.211   1.825  21.405  1.00  0.00    -0.000 C 
BRANCH  13  14
ATOM     14  C   UNL     1      47.135   0.724  21.950  1.00  0.00    -0.000 C 
BRANCH  14  15
ATOM     15  C   UNL     1      48.023   0.105  20.860  1.00  0.00    -0.000 C 
BRANCH  15  16
ATOM     16  C   UNL     1      49.509   0.311  21.179  1.00  0.00    -0.000 C 
BRANCH  16  17
ATOM     17  C   UNL     1      50.378  -0.722  20.446  1.00  0.00    -0.000 C 
BRANCH  17  18
ATOM     18  C   UNL     1      51.872  -0.356  20.444  1.00  0.00    -0.000 C 
BRANCH  18  19
ATOM     19  C   UNL     1      52.658  -0.849  19.216  1.00  0.00    -0.003 C 
ATOM     20  C   UNL     1      51.801  -0.936  17.954  1.00  0.00     0.004 C 
ENDBRANCH  18  19
ENDBRANCH  17  18
ENDBRANCH  16  17
ENDBRANCH  15  16
ENDBRANCH  14  15
ENDBRANCH  13  14
ENDBRANCH  12  13
ENDBRANCH   1  12
TORSDOF 16
ENDMDL
MODEL 8
REMARK VINA RESULT:    -4.308      2.064      3.813
REMARK INTER + INTRA:         -10.360
REMARK INTER:                  -7.887
REMARK INTRA:                  -2.472
REMARK UNBOUND:                -2.022
REMARK SMILES CCCCCCCCCCCCCCCCCC(=O)[O-]
REMARK SMILES IDX 10 1 11 2 12 3 13 4 14 5 15 6 16 7 17 8 18 9 19 10 20 11
REMARK SMILES IDX 9 12 8 13 7 14 6 15 5 16 4 17 3 18 2 19 1 20
REMARK H PARENT
REMARK Flexibility Score: inf
ROOT
ATOM      1  C   UNL     1      44.145   2.568  26.401  1.00  0.00     0.000 C 
ENDROOT
BRANCH   1   2
ATOM      2  C   UNL     1      44.504   3.885  25.692  1.00  0.00     0.000 C 
BRANCH   2   3
ATOM      3  C   UNL     1      43.669   4.117  24.423  1.00  0.00     0.000 C 
BRANCH   3   4
ATOM      4  C   UNL     1      44.529   4.145  23.148  1.00  0.00     0.000 C 
BRANCH   4   5
ATOM      5  C   UNL     1      44.039   3.150  22.083  1.00  0.00     0.000 C 
BRANCH   5   6
ATOM      6  C   UNL     1      45.195   2.444  21.359  1.00  0.00     0.000 C 
BRANCH   6   7
ATOM      7  C   UNL     1      46.272   1.992  22.357  1.00  0.00     0.006 C 
BRANCH   7   8
ATOM      8  C   UNL     1      46.933   0.672  21.941  1.00  0.00     0.053 C 
BRANCH   8   9
ATOM      9  C   UNL     1      48.388   0.854  21.633  1.00  0.00     0.041 C 
ATOM     10  O   UNL     1      49.112  -0.144  21.380  1.00  0.00    -0.550 OA
ATOM     11  O   UNL     1      48.936   2.128  21.595  1.00  0.00    -0.550 OA
ENDBRANCH   8   9
ENDBRANCH   7   8
ENDBRANCH   6   7
ENDBRANCH   5   6
ENDBRANCH   4   5
ENDBRANCH   3   4
ENDBRANCH   2   3
ENDBRANCH   1   2
BRANCH   1  12
ATOM     12  C   UNL     1      44.396   1.336  25.517  1.00  0.00     0.000 C 
BRANCH  12  13
ATOM     13  C   UNL     1      43.156   0.429  25.404  1.00  0.00    -0.000 C 
BRANCH  13  14
ATOM     14  C   UNL     1      42.717   0.207  23.948  1.00  0.00    -0.000 C 
BRANCH  14  15
ATOM     15  C   UNL     1      43.696  -0.681  23.165  1.00  0.00    -0.000 C 
BRANCH  15  16
ATOM     16  C   UNL     1      43.418  -0.609  21.659  1.00  0.00    -0.000 C 
BRANCH  16  17
ATOM     17  C   UNL     1      42.000  -0.086  21.385  1.00  0.00    -0.000 C 
BRANCH  17  18
ATOM     18  C   UNL     1      41.300  -0.827  20.232  1.00  0.00    -0.000 C 
BRANCH  18  19
ATOM     19  C   UNL     1      41.701  -0.356  18.823  1.00  0.00    -0.003 C 
ATOM     20  C   UNL     1      41.550   1.152  18.630  1.00  0.00     0.004 C 
ENDBRANCH  18  19
ENDBRANCH  17  18
ENDBRANCH  16  17
ENDBRANCH  15  16
ENDBRANCH  14  15
ENDBRANCH  13  14
ENDBRANCH  12  13
ENDBRANCH   1  12
TORSDOF 16
ENDMDL
MODEL 9
REMARK VINA RESULT:    -4.261      3.366      6.836
REMARK INTER + INTRA:         -10.267
REMARK INTER:                  -7.944
REMARK INTRA:                  -2.324
REMARK UNBOUND:                -2.022
REMARK SMILES CCCCCCCCCCCCCCCCCC(=O)[O-]
REMARK SMILES IDX 10 1 11 2 12 3 13 4 14 5 15 6 16 7 17 8 18 9 19 10 20 11
REMARK SMILES IDX 9 12 8 13 7 14 6 15 5 16 4 17 3 18 2 19 1 20
REMARK H PARENT
REMARK Flexibility Score: inf
ROOT
ATOM      1  C   UNL     1      45.251   0.383  24.125  1.00  0.00     0.000 C 
ENDROOT
BRANCH   1   2
ATOM      2  C   UNL     1      43.910   0.093  24.820  1.00  0.00     0.000 C 
BRANCH   2   3
ATOM      3  C   UNL     1      42.717   0.178  23.856  1.00  0.00     0.000 C 
BRANCH   3   4
ATOM      4  C   UNL     1      42.966  -0.579  22.540  1.00  0.00     0.000 C 
BRANCH   4   5
ATOM      5  C   UNL     1      42.643   0.271  21.300  1.00  0.00     0.000 C 
BRANCH   5   6
ATOM      6  C   UNL     1      42.249   1.711  21.659  1.00  0.00     0.000 C 
BRANCH   6   7
ATOM      7  C   UNL     1      42.714   2.693  20.572  1.00  0.00     0.006 C 
BRANCH   7   8
ATOM      8  C   UNL     1      43.274   1.971  19.338  1.00  0.00     0.053 C 
BRANCH   8   9
ATOM      9  C   UNL     1      42.330   2.045  18.178  1.00  0.00     0.041 C 
ATOM     10  O   UNL     1      41.125   1.708  18.317  1.00  0.00    -0.550 OA
ATOM     11  O   UNL     1      42.774   2.516  16.950  1.00  0.00    -0.550 OA
ENDBRANCH   8   9
ENDBRANCH   7   8
ENDBRANCH   6   7
ENDBRANCH   5   6
ENDBRANCH   4   5
ENDBRANCH   3   4
ENDBRANCH   2   3
ENDBRANCH   1   2
BRANCH   1  12
ATOM     12  C   UNL     1      45.393   1.857  23.711  1.00  0.00     0.000 C 
BRANCH  12  13
ATOM     13  C   UNL     1      46.142   2.024  22.376  1.00  0.00    -0.000 C 
BRANCH  13  14
ATOM     14  C   UNL     1      46.337   0.691  21.637  1.00  0.00    -0.000 C 
BRANCH  14  15
ATOM     15  C   UNL     1      47.797   0.454  21.220  1.00  0.00    -0.000 C 
BRANCH  15  16
ATOM     16  C   UNL     1      48.683   1.640  21.624  1.00  0.00    -0.000 C 
BRANCH  16  17
ATOM     17  C   UNL     1      49.751   1.917  20.556  1.00  0.00    -0.000 C 
BRANCH  17  18
ATOM     18  C   UNL     1      49.788   0.845  19.452  1.00  0.00    -0.000 C 
BRANCH  18  19
ATOM     19  C   UNL     1      51.087   0.021  19.393  1.00  0.00    -0.003 C 
ATOM     20  C   UNL     1      51.226  -0.960  20.556  1.00  0.00     0.004 C 
ENDBRANCH  18  19
ENDBRANCH  17  18
ENDBRANCH  16  17
ENDBRANCH  15  16
ENDBRANCH  14  15
ENDBRANCH  13  14
ENDBRANCH  12  13
ENDBRANCH   1  12
TORSDOF 16
ENDMDL
