MODEL 1
REMARK VINA RESULT:    -6.297      0.000      0.000
REMARK INTER + INTRA:          -7.670
REMARK INTER:                  -7.402
REMARK INTRA:                  -0.268
REMARK UNBOUND:                -0.268
REMARK SMILES O=c1cc(-c2ccc(O)c(O)c2)oc2cc(O)cc(O)c12
REMARK SMILES IDX 4 1 3 2 2 3 1 4 21 5 19 6 18 7 16 8 15 9 14 10 13 11 5 12
REMARK SMILES IDX 6 13 7 14 8 15 12 16 10 17 9 18 11 20 20 22 17 24
REMARK H PARENT 9 19 11 21 20 23 17 25
REMARK Flexibility Score: inf
ROOT
ATOM      1  C   UNL     1      39.493  20.698  -6.076  1.00  0.00     0.138 A 
ATOM      2  C   UNL     1      40.136  19.467  -6.263  1.00  0.00     0.100 A 
ATOM      3  C   UNL     1      40.941  18.946  -5.249  1.00  0.00     0.197 A 
ATOM      4  O   UNL     1      41.459  17.813  -5.426  1.00  0.00    -0.289 OA
ATOM      5  C   UNL     1      41.131  19.681  -4.054  1.00  0.00     0.107 A 
ATOM      6  C   UNL     1      41.955  19.266  -2.965  1.00  0.00     0.134 A 
ATOM      7  C   UNL     1      41.987  20.031  -1.793  1.00  0.00     0.093 A 
ATOM      8  C   UNL     1      41.272  21.223  -1.690  1.00  0.00     0.123 A 
ATOM      9  C   UNL     1      40.501  21.664  -2.767  1.00  0.00     0.094 A 
ATOM     10  C   UNL     1      40.421  20.907  -3.937  1.00  0.00     0.146 A 
ATOM     11  O   UNL     1      39.662  21.353  -4.932  1.00  0.00    -0.456 OA
ENDROOT
BRANCH   1  12
ATOM     12  C   UNL     1      38.628  21.299  -7.121  1.00  0.00     0.021 A 
ATOM     13  C   UNL     1      39.168  21.892  -8.279  1.00  0.00     0.016 A 
ATOM     14  C   UNL     1      38.327  22.442  -9.251  1.00  0.00     0.051 A 
ATOM     15  C   UNL     1      36.937  22.404  -9.088  1.00  0.00     0.157 A 
ATOM     16  C   UNL     1      37.230  21.253  -6.973  1.00  0.00     0.062 A 
ATOM     17  C   UNL     1      36.387  21.806  -7.948  1.00  0.00     0.158 A 
BRANCH  15  18
ATOM     18  O   UNL     1      36.097  22.952 -10.055  1.00  0.00    -0.504 OA
ATOM     19  H   UNL     1      35.620  22.370 -10.733  1.00  0.00     0.293 HD
ENDBRANCH  15  18
BRANCH  17  20
ATOM     20  O   UNL     1      35.003  21.765  -7.789  1.00  0.00    -0.504 OA
ATOM     21  H   UNL     1      34.374  21.999  -8.549  1.00  0.00     0.293 HD
ENDBRANCH  17  20
ENDBRANCH   1  12
BRANCH   6  22
ATOM     22  O   UNL     1      42.775  18.133  -2.990  1.00  0.00    -0.507 OA
ATOM     23  H   UNL     1      43.738  18.108  -2.693  1.00  0.00     0.293 HD
ENDBRANCH   6  22
BRANCH   8  24
ATOM     24  O   UNL     1      41.339  21.966  -0.514  1.00  0.00    -0.508 OA
ATOM     25  H   UNL     1      41.072  21.569   0.379  1.00  0.00     0.293 HD
ENDBRANCH   8  24
TORSDOF 5
ENDMDL
MODEL 2
REMARK VINA RESULT:    -6.081      2.964      5.655
REMARK INTER + INTRA:          -7.416
REMARK INTER:                  -7.125
REMARK INTRA:                  -0.291
REMARK UNBOUND:                -0.268
REMARK SMILES O=c1cc(-c2ccc(O)c(O)c2)oc2cc(O)cc(O)c12
REMARK SMILES IDX 4 1 3 2 2 3 1 4 21 5 19 6 18 7 16 8 15 9 14 10 13 11 5 12
REMARK SMILES IDX 6 13 7 14 8 15 12 16 10 17 9 18 11 20 20 22 17 24
REMARK H PARENT 9 19 11 21 20 23 17 25
REMARK Flexibility Score: inf
ROOT
ATOM      1  C   UNL     1      40.980  18.158  -5.955  1.00  0.00     0.138 A 
ATOM      2  C   UNL     1      41.733  18.182  -4.773  1.00  0.00     0.100 A 
ATOM      3  C   UNL     1      41.434  19.119  -3.782  1.00  0.00     0.197 A 
ATOM      4  O   UNL     1      42.092  19.078  -2.710  1.00  0.00    -0.289 OA
ATOM      5  C   UNL     1      40.398  20.059  -3.992  1.00  0.00     0.107 A 
ATOM      6  C   UNL     1      40.026  21.081  -3.068  1.00  0.00     0.134 A 
ATOM      7  C   UNL     1      38.917  21.892  -3.345  1.00  0.00     0.093 A 
ATOM      8  C   UNL     1      38.204  21.756  -4.535  1.00  0.00     0.123 A 
ATOM      9  C   UNL     1      38.589  20.793  -5.468  1.00  0.00     0.094 A 
ATOM     10  C   UNL     1      39.668  19.947  -5.207  1.00  0.00     0.146 A 
ATOM     11  O   UNL     1      39.992  19.031  -6.114  1.00  0.00    -0.456 OA
ENDROOT
BRANCH   1  12
ATOM     12  C   UNL     1      41.256  17.186  -7.042  1.00  0.00     0.021 A 
ATOM     13  C   UNL     1      40.786  17.388  -8.354  1.00  0.00     0.016 A 
ATOM     14  C   UNL     1      41.070  16.459  -9.359  1.00  0.00     0.051 A 
ATOM     15  C   UNL     1      41.832  15.319  -9.075  1.00  0.00     0.157 A 
ATOM     16  C   UNL     1      42.032  16.045  -6.768  1.00  0.00     0.062 A 
ATOM     17  C   UNL     1      42.316  15.113  -7.777  1.00  0.00     0.158 A 
BRANCH  15  18
ATOM     18  O   UNL     1      42.116  14.391 -10.074  1.00  0.00    -0.504 OA
ATOM     19  H   UNL     1      43.015  13.927 -10.126  1.00  0.00     0.293 HD
ENDBRANCH  15  18
BRANCH  17  20
ATOM     20  O   UNL     1      43.077  13.980  -7.497  1.00  0.00    -0.504 OA
ATOM     21  H   UNL     1      44.086  13.982  -7.590  1.00  0.00     0.293 HD
ENDBRANCH  17  20
ENDBRANCH   1  12
BRANCH   6  22
ATOM     22  O   UNL     1      40.717  21.358  -1.885  1.00  0.00    -0.507 OA
ATOM     23  H   UNL     1      40.512  22.121  -1.258  1.00  0.00     0.293 HD
ENDBRANCH   6  22
BRANCH   8  24
ATOM     24  O   UNL     1      37.116  22.590  -4.782  1.00  0.00    -0.508 OA
ATOM     25  H   UNL     1      37.235  23.508  -5.196  1.00  0.00     0.293 HD
ENDBRANCH   8  24
TORSDOF 5
ENDMDL
MODEL 3
REMARK VINA RESULT:    -6.059      2.648      5.143
REMARK INTER + INTRA:          -7.390
REMARK INTER:                  -7.096
REMARK INTRA:                  -0.294
REMARK UNBOUND:                -0.268
REMARK SMILES O=c1cc(-c2ccc(O)c(O)c2)oc2cc(O)cc(O)c12
REMARK SMILES IDX 4 1 3 2 2 3 1 4 21 5 19 6 18 7 16 8 15 9 14 10 13 11 5 12
REMARK SMILES IDX 6 13 7 14 8 15 12 16 10 17 9 18 11 20 20 22 17 24
REMARK H PARENT 9 19 11 21 20 23 17 25
REMARK Flexibility Score: inf
ROOT
ATOM      1  C   UNL     1      40.478  18.738  -6.163  1.00  0.00     0.138 A 
ATOM      2  C   UNL     1      39.311  19.511  -6.231  1.00  0.00     0.100 A 
ATOM      3  C   UNL     1      39.046  20.451  -5.234  1.00  0.00     0.197 A 
ATOM      4  O   UNL     1      38.019  21.168  -5.353  1.00  0.00    -0.289 OA
ATOM      5  C   UNL     1      39.939  20.591  -4.144  1.00  0.00     0.107 A 
ATOM      6  C   UNL     1      39.755  21.492  -3.052  1.00  0.00     0.134 A 
ATOM      7  C   UNL     1      40.757  21.613  -2.081  1.00  0.00     0.093 A 
ATOM      8  C   UNL     1      41.907  20.826  -2.130  1.00  0.00     0.123 A 
ATOM      9  C   UNL     1      42.074  19.906  -3.165  1.00  0.00     0.094 A 
ATOM     10  C   UNL     1      41.110  19.787  -4.168  1.00  0.00     0.146 A 
ATOM     11  O   UNL     1      41.316  18.911  -5.146  1.00  0.00    -0.456 OA
ENDROOT
BRANCH   1  12
ATOM     12  C   UNL     1      40.809  17.722  -7.194  1.00  0.00     0.021 A 
ATOM     13  C   UNL     1      40.674  17.992  -8.570  1.00  0.00     0.016 A 
ATOM     14  C   UNL     1      41.002  17.019  -9.518  1.00  0.00     0.051 A 
ATOM     15  C   UNL     1      41.475  15.766  -9.111  1.00  0.00     0.157 A 
ATOM     16  C   UNL     1      41.298  16.465  -6.795  1.00  0.00     0.062 A 
ATOM     17  C   UNL     1      41.625  15.489  -7.747  1.00  0.00     0.158 A 
BRANCH  15  18
ATOM     18  O   UNL     1      41.802  14.793 -10.054  1.00  0.00    -0.504 OA
ATOM     19  H   UNL     1      41.092  14.205 -10.476  1.00  0.00     0.293 HD
ENDBRANCH  15  18
BRANCH  17  20
ATOM     20  O   UNL     1      42.100  14.242  -7.344  1.00  0.00    -0.504 OA
ATOM     21  H   UNL     1      43.068  14.104  -7.073  1.00  0.00     0.293 HD
ENDBRANCH  17  20
ENDBRANCH   1  12
BRANCH   6  22
ATOM     22  O   UNL     1      38.608  22.269  -2.861  1.00  0.00    -0.507 OA
ATOM     23  H   UNL     1      38.187  22.471  -1.967  1.00  0.00     0.293 HD
ENDBRANCH   6  22
BRANCH   8  24
ATOM     24  O   UNL     1      42.875  20.963  -1.137  1.00  0.00    -0.508 OA
ATOM     25  H   UNL     1      43.724  21.493  -1.296  1.00  0.00     0.293 HD
ENDBRANCH   8  24
TORSDOF 5
ENDMDL
MODEL 4
REMARK VINA RESULT:    -6.048      2.455      7.731
REMARK INTER + INTRA:          -7.378
REMARK INTER:                  -7.071
REMARK INTRA:                  -0.306
REMARK UNBOUND:                -0.268
REMARK SMILES O=c1cc(-c2ccc(O)c(O)c2)oc2cc(O)cc(O)c12
REMARK SMILES IDX 4 1 3 2 2 3 1 4 21 5 19 6 18 7 16 8 15 9 14 10 13 11 5 12
REMARK SMILES IDX 6 13 7 14 8 15 12 16 10 17 9 18 11 20 20 22 17 24
REMARK H PARENT 9 19 11 21 20 23 17 25
REMARK Flexibility Score: inf
ROOT
ATOM      1  C   UNL     1      41.500  20.659  -1.452  1.00  0.00     0.138 A 
ATOM      2  C   UNL     1      42.222  19.770  -2.260  1.00  0.00     0.100 A 
ATOM      3  C   UNL     1      41.776  19.496  -3.555  1.00  0.00     0.197 A 
ATOM      4  O   UNL     1      42.476  18.737  -4.274  1.00  0.00    -0.289 OA
ATOM      5  C   UNL     1      40.582  20.090  -4.029  1.00  0.00     0.107 A 
ATOM      6  C   UNL     1      40.014  19.859  -5.317  1.00  0.00     0.134 A 
ATOM      7  C   UNL     1      38.880  20.581  -5.711  1.00  0.00     0.093 A 
ATOM      8  C   UNL     1      38.261  21.480  -4.844  1.00  0.00     0.123 A 
ATOM      9  C   UNL     1      38.779  21.677  -3.563  1.00  0.00     0.094 A 
ATOM     10  C   UNL     1      39.928  20.999  -3.153  1.00  0.00     0.146 A 
ATOM     11  O   UNL     1      40.399  21.228  -1.932  1.00  0.00    -0.456 OA
ENDROOT
BRANCH   1  12
ATOM     12  C   UNL     1      41.926  20.984  -0.068  1.00  0.00     0.021 A 
ATOM     13  C   UNL     1      42.651  20.069   0.719  1.00  0.00     0.016 A 
ATOM     14  C   UNL     1      43.047  20.407   2.016  1.00  0.00     0.051 A 
ATOM     15  C   UNL     1      42.733  21.664   2.546  1.00  0.00     0.157 A 
ATOM     16  C   UNL     1      41.626  22.250   0.468  1.00  0.00     0.062 A 
ATOM     17  C   UNL     1      42.023  22.588   1.770  1.00  0.00     0.158 A 
BRANCH  15  18
ATOM     18  O   UNL     1      43.125  22.004   3.839  1.00  0.00    -0.504 OA
ATOM     19  H   UNL     1      44.102  22.116   4.084  1.00  0.00     0.293 HD
ENDBRANCH  15  18
BRANCH  17  20
ATOM     20  O   UNL     1      41.714  23.840   2.299  1.00  0.00    -0.504 OA
ATOM     21  H   UNL     1      42.187  24.202   3.120  1.00  0.00     0.293 HD
ENDBRANCH  17  20
ENDBRANCH   1  12
BRANCH   6  22
ATOM     22  O   UNL     1      40.504  18.924  -6.234  1.00  0.00    -0.507 OA
ATOM     23  H   UNL     1      41.321  19.050  -6.810  1.00  0.00     0.293 HD
ENDBRANCH   6  22
BRANCH   8  24
ATOM     24  O   UNL     1      37.125  22.169  -5.265  1.00  0.00    -0.508 OA
ATOM     25  H   UNL     1      36.594  22.753  -4.630  1.00  0.00     0.293 HD
ENDBRANCH   8  24
TORSDOF 5
ENDMDL
MODEL 5
REMARK VINA RESULT:    -5.967      7.199     12.545
REMARK INTER + INTRA:          -7.282
REMARK INTER:                  -7.020
REMARK INTRA:                  -0.262
REMARK UNBOUND:                -0.268
REMARK SMILES O=c1cc(-c2ccc(O)c(O)c2)oc2cc(O)cc(O)c12
REMARK SMILES IDX 4 1 3 2 2 3 1 4 21 5 19 6 18 7 16 8 15 9 14 10 13 11 5 12
REMARK SMILES IDX 6 13 7 14 8 15 12 16 10 17 9 18 11 20 20 22 17 24
REMARK H PARENT 9 19 11 21 20 23 17 25
REMARK Flexibility Score: inf
ROOT
ATOM      1  C   UNL     1      42.093  20.437   5.293  1.00  0.00     0.138 A 
ATOM      2  C   UNL     1      42.338  21.810   5.436  1.00  0.00     0.100 A 
ATOM      3  C   UNL     1      42.402  22.623   4.303  1.00  0.00     0.197 A 
ATOM      4  O   UNL     1      42.567  23.859   4.469  1.00  0.00    -0.289 OA
ATOM      5  C   UNL     1      42.255  22.050   3.017  1.00  0.00     0.107 A 
ATOM      6  C   UNL     1      42.334  22.774   1.790  1.00  0.00     0.134 A 
ATOM      7  C   UNL     1      42.074  22.115   0.582  1.00  0.00     0.093 A 
ATOM      8  C   UNL     1      41.794  20.750   0.551  1.00  0.00     0.123 A 
ATOM      9  C   UNL     1      41.763  20.022   1.741  1.00  0.00     0.094 A 
ATOM     10  C   UNL     1      41.983  20.656   2.964  1.00  0.00     0.146 A 
ATOM     11  O   UNL     1      41.927  19.930   4.076  1.00  0.00    -0.456 OA
ENDROOT
BRANCH   1  12
ATOM     12  C   UNL     1      42.017  19.527   6.462  1.00  0.00     0.021 A 
ATOM     13  C   UNL     1      43.084  18.674   6.808  1.00  0.00     0.016 A 
ATOM     14  C   UNL     1      42.987  17.835   7.921  1.00  0.00     0.051 A 
ATOM     15  C   UNL     1      41.830  17.835   8.709  1.00  0.00     0.157 A 
ATOM     16  C   UNL     1      40.864  19.531   7.268  1.00  0.00     0.062 A 
ATOM     17  C   UNL     1      40.768  18.687   8.384  1.00  0.00     0.158 A 
BRANCH  15  18
ATOM     18  O   UNL     1      41.731  16.998   9.819  1.00  0.00    -0.504 OA
ATOM     19  H   UNL     1      41.114  16.194   9.822  1.00  0.00     0.293 HD
ENDBRANCH  15  18
BRANCH  17  20
ATOM     20  O   UNL     1      39.619  18.689   9.172  1.00  0.00    -0.504 OA
ATOM     21  H   UNL     1      38.876  19.364   9.027  1.00  0.00     0.293 HD
ENDBRANCH  17  20
ENDBRANCH   1  12
BRANCH   6  22
ATOM     22  O   UNL     1      42.685  24.125   1.697  1.00  0.00    -0.507 OA
ATOM     23  H   UNL     1      42.565  24.700   0.878  1.00  0.00     0.293 HD
ENDBRANCH   6  22
BRANCH   8  24
ATOM     24  O   UNL     1      41.555  20.125  -0.671  1.00  0.00    -0.508 OA
ATOM     25  H   UNL     1      41.350  19.135  -0.729  1.00  0.00     0.293 HD
ENDBRANCH   8  24
TORSDOF 5
ENDMDL
MODEL 6
REMARK VINA RESULT:    -5.890      2.814      6.680
REMARK INTER + INTRA:          -7.192
REMARK INTER:                  -6.877
REMARK INTRA:                  -0.315
REMARK UNBOUND:                -0.268
REMARK SMILES O=c1cc(-c2ccc(O)c(O)c2)oc2cc(O)cc(O)c12
REMARK SMILES IDX 4 1 3 2 2 3 1 4 21 5 19 6 18 7 16 8 15 9 14 10 13 11 5 12
REMARK SMILES IDX 6 13 7 14 8 15 12 16 10 17 9 18 11 20 20 22 17 24
REMARK H PARENT 9 19 11 21 20 23 17 25
REMARK Flexibility Score: inf
ROOT
ATOM      1  C   UNL     1      40.954  19.698  -5.289  1.00  0.00     0.138 A 
ATOM      2  C   UNL     1      40.574  20.340  -6.475  1.00  0.00     0.100 A 
ATOM      3  C   UNL     1      40.502  19.611  -7.663  1.00  0.00     0.197 A 
ATOM      4  O   UNL     1      40.104  20.203  -8.699  1.00  0.00    -0.289 OA
ATOM      5  C   UNL     1      40.847  18.238  -7.668  1.00  0.00     0.107 A 
ATOM      6  C   UNL     1      40.843  17.402  -8.825  1.00  0.00     0.134 A 
ATOM      7  C   UNL     1      41.109  16.034  -8.688  1.00  0.00     0.093 A 
ATOM      8  C   UNL     1      41.434  15.482  -7.450  1.00  0.00     0.123 A 
ATOM      9  C   UNL     1      41.489  16.300  -6.320  1.00  0.00     0.094 A 
ATOM     10  C   UNL     1      41.195  17.661  -6.417  1.00  0.00     0.146 A 
ATOM     11  O   UNL     1      41.242  18.401  -5.314  1.00  0.00    -0.456 OA
ENDROOT
BRANCH   1  12
ATOM     12  C   UNL     1      41.050  20.425  -3.998  1.00  0.00     0.021 A 
ATOM     13  C   UNL     1      41.052  21.832  -3.939  1.00  0.00     0.016 A 
ATOM     14  C   UNL     1      41.134  22.489  -2.708  1.00  0.00     0.051 A 
ATOM     15  C   UNL     1      41.207  21.755  -1.518  1.00  0.00     0.157 A 
ATOM     16  C   UNL     1      41.110  19.696  -2.797  1.00  0.00     0.062 A 
ATOM     17  C   UNL     1      41.193  20.355  -1.562  1.00  0.00     0.158 A 
BRANCH  15  18
ATOM     18  O   UNL     1      41.290  22.407  -0.289  1.00  0.00    -0.504 OA
ATOM     19  H   UNL     1      40.479  22.511   0.310  1.00  0.00     0.293 HD
ENDBRANCH  15  18
BRANCH  17  20
ATOM     20  O   UNL     1      41.263  19.627  -0.376  1.00  0.00    -0.504 OA
ATOM     21  H   UNL     1      41.836  18.794  -0.297  1.00  0.00     0.293 HD
ENDBRANCH  17  20
ENDBRANCH   1  12
BRANCH   6  22
ATOM     22  O   UNL     1      40.611  17.862 -10.125  1.00  0.00    -0.507 OA
ATOM     23  H   UNL     1      40.112  18.706 -10.360  1.00  0.00     0.293 HD
ENDBRANCH   6  22
BRANCH   8  24
ATOM     24  O   UNL     1      41.706  14.119  -7.355  1.00  0.00    -0.508 OA
ATOM     25  H   UNL     1      42.618  13.780  -7.073  1.00  0.00     0.293 HD
ENDBRANCH   8  24
TORSDOF 5
ENDMDL
MODEL 7
REMARK VINA RESULT:    -5.753      7.460     11.405
REMARK INTER + INTRA:          -7.030
REMARK INTER:                  -6.738
REMARK INTRA:                  -0.292
REMARK UNBOUND:                -0.268
REMARK SMILES O=c1cc(-c2ccc(O)c(O)c2)oc2cc(O)cc(O)c12
REMARK SMILES IDX 4 1 3 2 2 3 1 4 21 5 19 6 18 7 16 8 15 9 14 10 13 11 5 12
REMARK SMILES IDX 6 13 7 14 8 15 12 16 10 17 9 18 11 20 20 22 17 24
REMARK H PARENT 9 19 11 21 20 23 17 25
REMARK Flexibility Score: inf
ROOT
ATOM      1  C   UNL     1      42.145  20.749   4.658  1.00  0.00     0.138 A 
ATOM      2  C   UNL     1      41.767  21.838   5.455  1.00  0.00     0.100 A 
ATOM      3  C   UNL     1      41.626  21.671   6.833  1.00  0.00     0.197 A 
ATOM      4  O   UNL     1      41.340  22.681   7.527  1.00  0.00    -0.289 OA
ATOM      5  C   UNL     1      41.831  20.395   7.412  1.00  0.00     0.107 A 
ATOM      6  C   UNL     1      41.683  20.097   8.800  1.00  0.00     0.134 A 
ATOM      7  C   UNL     1      42.010  18.819   9.270  1.00  0.00     0.093 A 
ATOM      8  C   UNL     1      42.422  17.813   8.397  1.00  0.00     0.123 A 
ATOM      9  C   UNL     1      42.522  18.079   7.031  1.00  0.00     0.094 A 
ATOM     10  C   UNL     1      42.238  19.353   6.535  1.00  0.00     0.146 A 
ATOM     11  O   UNL     1      42.363  19.569   5.230  1.00  0.00    -0.456 OA
ENDROOT
BRANCH   1  12
ATOM     12  C   UNL     1      42.307  20.870   3.188  1.00  0.00     0.021 A 
ATOM     13  C   UNL     1      42.997  19.899   2.436  1.00  0.00     0.016 A 
ATOM     14  C   UNL     1      43.125  20.035   1.051  1.00  0.00     0.051 A 
ATOM     15  C   UNL     1      42.563  21.136   0.393  1.00  0.00     0.157 A 
ATOM     16  C   UNL     1      41.733  21.965   2.517  1.00  0.00     0.062 A 
ATOM     17  C   UNL     1      41.863  22.101   1.127  1.00  0.00     0.158 A 
BRANCH  15  18
ATOM     18  O   UNL     1      42.689  21.275  -0.987  1.00  0.00    -0.504 OA
ATOM     19  H   UNL     1      43.338  21.938  -1.396  1.00  0.00     0.293 HD
ENDBRANCH  15  18
BRANCH  17  20
ATOM     20  O   UNL     1      41.301  23.194   0.470  1.00  0.00    -0.504 OA
ATOM     21  H   UNL     1      41.851  23.788  -0.140  1.00  0.00     0.293 HD
ENDBRANCH  17  20
ENDBRANCH   1  12
BRANCH   6  22
ATOM     22  O   UNL     1      41.202  21.004   9.749  1.00  0.00    -0.507 OA
ATOM     23  H   UNL     1      41.721  21.340  10.546  1.00  0.00     0.293 HD
ENDBRANCH   6  22
BRANCH   8  24
ATOM     24  O   UNL     1      42.724  16.550   8.899  1.00  0.00    -0.508 OA
ATOM     25  H   UNL     1      42.874  15.758   8.285  1.00  0.00     0.293 HD
ENDBRANCH   8  24
TORSDOF 5
ENDMDL
MODEL 8
REMARK VINA RESULT:    -5.686      4.954      8.638
REMARK INTER + INTRA:          -6.951
REMARK INTER:                  -6.670
REMARK INTRA:                  -0.282
REMARK UNBOUND:                -0.268
REMARK SMILES O=c1cc(-c2ccc(O)c(O)c2)oc2cc(O)cc(O)c12
REMARK SMILES IDX 4 1 3 2 2 3 1 4 21 5 19 6 18 7 16 8 15 9 14 10 13 11 5 12
REMARK SMILES IDX 6 13 7 14 8 15 12 16 10 17 9 18 11 20 20 22 17 24
REMARK H PARENT 9 19 11 21 20 23 17 25
REMARK Flexibility Score: inf
ROOT
ATOM      1  C   UNL     1      42.405  21.084   1.442  1.00  0.00     0.138 A 
ATOM      2  C   UNL     1      42.373  22.418   1.872  1.00  0.00     0.100 A 
ATOM      3  C   UNL     1      42.374  22.703   3.239  1.00  0.00     0.197 A 
ATOM      4  O   UNL     1      42.401  23.910   3.592  1.00  0.00    -0.289 OA
ATOM      5  C   UNL     1      42.372  21.645   4.179  1.00  0.00     0.107 A 
ATOM      6  C   UNL     1      42.340  21.815   5.596  1.00  0.00     0.134 A 
ATOM      7  C   UNL     1      42.441  20.693   6.428  1.00  0.00     0.093 A 
ATOM      8  C   UNL     1      42.514  19.406   5.897  1.00  0.00     0.123 A 
ATOM      9  C   UNL     1      42.496  19.225   4.513  1.00  0.00     0.094 A 
ATOM     10  C   UNL     1      42.432  20.325   3.657  1.00  0.00     0.146 A 
ATOM     11  O   UNL     1      42.434  20.109   2.345  1.00  0.00    -0.456 OA
ENDROOT
BRANCH   1  12
ATOM     12  C   UNL     1      42.402  20.723   0.003  1.00  0.00     0.021 A 
ATOM     13  C   UNL     1      43.125  19.616  -0.485  1.00  0.00     0.016 A 
ATOM     14  C   UNL     1      43.095  19.295  -1.845  1.00  0.00     0.051 A 
ATOM     15  C   UNL     1      42.342  20.067  -2.738  1.00  0.00     0.157 A 
ATOM     16  C   UNL     1      41.637  21.484  -0.900  1.00  0.00     0.062 A 
ATOM     17  C   UNL     1      41.610  21.162  -2.264  1.00  0.00     0.158 A 
BRANCH  15  18
ATOM     18  O   UNL     1      42.312  19.750  -4.095  1.00  0.00    -0.504 OA
ATOM     19  H   UNL     1      42.896  19.017  -4.481  1.00  0.00     0.293 HD
ENDBRANCH  15  18
BRANCH  17  20
ATOM     20  O   UNL     1      40.858  21.926  -3.154  1.00  0.00    -0.504 OA
ATOM     21  H   UNL     1      40.935  21.803  -4.158  1.00  0.00     0.293 HD
ENDBRANCH  17  20
ENDBRANCH   1  12
BRANCH   6  22
ATOM     22  O   UNL     1      42.188  23.050   6.234  1.00  0.00    -0.507 OA
ATOM     23  H   UNL     1      42.880  23.783   6.251  1.00  0.00     0.293 HD
ENDBRANCH   6  22
BRANCH   8  24
ATOM     24  O   UNL     1      42.598  18.312   6.756  1.00  0.00    -0.508 OA
ATOM     25  H   UNL     1      41.777  17.932   7.212  1.00  0.00     0.293 HD
ENDBRANCH   8  24
TORSDOF 5
ENDMDL
MODEL 9
REMARK VINA RESULT:    -5.683      1.859      7.040
REMARK INTER + INTRA:          -6.948
REMARK INTER:                  -6.654
REMARK INTRA:                  -0.294
REMARK UNBOUND:                -0.268
REMARK SMILES O=c1cc(-c2ccc(O)c(O)c2)oc2cc(O)cc(O)c12
REMARK SMILES IDX 4 1 3 2 2 3 1 4 21 5 19 6 18 7 16 8 15 9 14 10 13 11 5 12
REMARK SMILES IDX 6 13 7 14 8 15 12 16 10 17 9 18 11 20 20 22 17 24
REMARK H PARENT 9 19 11 21 20 23 17 25
REMARK Flexibility Score: inf
ROOT
ATOM      1  C   UNL     1      41.210  20.658  -3.883  1.00  0.00     0.138 A 
ATOM      2  C   UNL     1      42.060  20.518  -4.989  1.00  0.00     0.100 A 
ATOM      3  C   UNL     1      41.532  20.589  -6.279  1.00  0.00     0.197 A 
ATOM      4  O   UNL     1      42.329  20.516  -7.250  1.00  0.00    -0.289 OA
ATOM      5  C   UNL     1      40.140  20.766  -6.462  1.00  0.00     0.107 A 
ATOM      6  C   UNL     1      39.485  20.820  -7.729  1.00  0.00     0.134 A 
ATOM      7  C   UNL     1      38.114  21.098  -7.786  1.00  0.00     0.093 A 
ATOM      8  C   UNL     1      37.363  21.267  -6.623  1.00  0.00     0.123 A 
ATOM      9  C   UNL     1      37.984  21.167  -5.377  1.00  0.00     0.094 A 
ATOM     10  C   UNL     1      39.356  20.926  -5.287  1.00  0.00     0.146 A 
ATOM     11  O   UNL     1      39.911  20.855  -4.082  1.00  0.00    -0.456 OA
ENDROOT
BRANCH   1  12
ATOM     12  C   UNL     1      41.716  20.589  -2.490  1.00  0.00     0.021 A 
ATOM     13  C   UNL     1      42.660  19.622  -2.091  1.00  0.00     0.016 A 
ATOM     14  C   UNL     1      43.125  19.587  -0.774  1.00  0.00     0.051 A 
ATOM     15  C   UNL     1      42.663  20.518   0.165  1.00  0.00     0.157 A 
ATOM     16  C   UNL     1      41.268  21.528  -1.544  1.00  0.00     0.062 A 
ATOM     17  C   UNL     1      41.734  21.492  -0.222  1.00  0.00     0.158 A 
BRANCH  15  18
ATOM     18  O   UNL     1      43.125  20.485   1.479  1.00  0.00    -0.504 OA
ATOM     19  H   UNL     1      43.273  21.336   2.009  1.00  0.00     0.293 HD
ENDBRANCH  15  18
BRANCH  17  20
ATOM     20  O   UNL     1      41.279  22.420   0.713  1.00  0.00    -0.504 OA
ATOM     21  H   UNL     1      41.913  23.060   1.178  1.00  0.00     0.293 HD
ENDBRANCH  17  20
ENDBRANCH   1  12
BRANCH   6  22
ATOM     22  O   UNL     1      40.123  20.587  -8.952  1.00  0.00    -0.507 OA
ATOM     23  H   UNL     1      40.072  19.728  -9.477  1.00  0.00     0.293 HD
ENDBRANCH   6  22
BRANCH   8  24
ATOM     24  O   UNL     1      35.998  21.528  -6.719  1.00  0.00    -0.508 OA
ATOM     25  H   UNL     1      35.450  21.201  -7.506  1.00  0.00     0.293 HD
ENDBRANCH   8  24
TORSDOF 5
ENDMDL
