MODEL 1
REMARK VINA RESULT:    -4.104      0.000      0.000
REMARK INTER + INTRA:          -4.949
REMARK INTER:                  -4.824
REMARK INTRA:                  -0.125
REMARK UNBOUND:                -0.125
REMARK SMILES O=C([O-])C=Cc1ccc(O)c(O)c1
REMARK SMILES IDX 6 1 13 2 7 3 11 4 8 5 9 6 5 7 4 8 2 9 1 10 3 11 12 12 10 14
REMARK H PARENT 12 13 10 15
REMARK Flexibility Score: inf
ROOT
ATOM      1  C   UNL     1      25.381  20.092  15.405  1.00  0.00    -0.022 A 
ATOM      2  C   UNL     1      26.281  19.925  14.335  1.00  0.00     0.058 A 
ATOM      3  C   UNL     1      25.888  20.408  16.673  1.00  0.00     0.012 A 
ATOM      4  C   UNL     1      27.660  20.093  14.521  1.00  0.00     0.157 A 
ATOM      5  C   UNL     1      27.260  20.580  16.866  1.00  0.00     0.051 A 
ATOM      6  C   UNL     1      28.155  20.431  15.802  1.00  0.00     0.157 A 
ENDROOT
BRANCH   1   7
ATOM      7  C   UNL     1      23.916  19.911  15.251  1.00  0.00     0.010 C 
ATOM      8  C   UNL     1      23.252  20.142  14.109  1.00  0.00     0.025 C 
BRANCH   8   9
ATOM      9  C   UNL     1      21.796  19.961  14.006  1.00  0.00     0.064 C 
ATOM     10  O   UNL     1      21.103  19.882  15.053  1.00  0.00    -0.545 OA
ATOM     11  O   UNL     1      21.170  19.875  12.767  1.00  0.00    -0.545 OA
ENDBRANCH   8   9
ENDBRANCH   1   7
BRANCH   4  12
ATOM     12  O   UNL     1      28.493  19.911  13.416  1.00  0.00    -0.504 OA
ATOM     13  H   UNL     1      29.492  20.058  13.431  1.00  0.00     0.293 HD
ENDBRANCH   4  12
BRANCH   6  14
ATOM     14  O   UNL     1      29.514  20.623  16.060  1.00  0.00    -0.504 OA
ATOM     15  H   UNL     1      30.235  19.964  15.807  1.00  0.00     0.293 HD
ENDBRANCH   6  14
TORSDOF 4
ENDMDL
MODEL 2
REMARK VINA RESULT:    -3.788      3.363      5.214
REMARK INTER + INTRA:          -4.578
REMARK INTER:                  -4.455
REMARK INTRA:                  -0.123
REMARK UNBOUND:                -0.125
REMARK SMILES O=C([O-])C=Cc1ccc(O)c(O)c1
REMARK SMILES IDX 6 1 13 2 7 3 11 4 8 5 9 6 5 7 4 8 2 9 1 10 3 11 12 12 10 14
REMARK H PARENT 12 13 10 15
REMARK Flexibility Score: inf
ROOT
ATOM      1  C   UNL     1      28.074  20.988  12.927  1.00  0.00    -0.022 A 
ATOM      2  C   UNL     1      28.609  22.288  12.827  1.00  0.00     0.058 A 
ATOM      3  C   UNL     1      28.218  20.113  11.842  1.00  0.00     0.012 A 
ATOM      4  C   UNL     1      29.294  22.698  11.675  1.00  0.00     0.157 A 
ATOM      5  C   UNL     1      28.902  20.512  10.692  1.00  0.00     0.051 A 
ATOM      6  C   UNL     1      29.447  21.796  10.596  1.00  0.00     0.157 A 
ENDROOT
BRANCH   1   7
ATOM      7  C   UNL     1      27.332  20.521  14.124  1.00  0.00     0.010 C 
ATOM      8  C   UNL     1      27.449  21.078  15.338  1.00  0.00     0.025 C 
BRANCH   8   9
ATOM      9  C   UNL     1      26.702  20.573  16.501  1.00  0.00     0.064 C 
ATOM     10  O   UNL     1      27.242  20.581  17.637  1.00  0.00    -0.545 OA
ATOM     11  O   UNL     1      25.406  20.088  16.365  1.00  0.00    -0.545 OA
ENDBRANCH   8   9
ENDBRANCH   1   7
BRANCH   4  12
ATOM     12  O   UNL     1      29.796  24.000  11.645  1.00  0.00    -0.504 OA
ATOM     13  H   UNL     1      30.479  24.357  12.297  1.00  0.00     0.293 HD
ENDBRANCH   4  12
BRANCH   6  14
ATOM     14  O   UNL     1      30.125  22.131   9.422  1.00  0.00    -0.504 OA
ATOM     15  H   UNL     1      30.847  22.834   9.368  1.00  0.00     0.293 HD
ENDBRANCH   6  14
TORSDOF 4
ENDMDL
MODEL 3
REMARK VINA RESULT:    -3.402      1.185      2.119
REMARK INTER + INTRA:          -4.123
REMARK INTER:                  -4.001
REMARK INTRA:                  -0.123
REMARK UNBOUND:                -0.125
REMARK SMILES O=C([O-])C=Cc1ccc(O)c(O)c1
REMARK SMILES IDX 6 1 13 2 7 3 11 4 8 5 9 6 5 7 4 8 2 9 1 10 3 11 12 12 10 14
REMARK H PARENT 12 13 10 15
REMARK Flexibility Score: inf
ROOT
ATOM      1  C   UNL     1      26.004  20.245  13.915  1.00  0.00    -0.022 A 
ATOM      2  C   UNL     1      26.596  20.283  15.193  1.00  0.00     0.058 A 
ATOM      3  C   UNL     1      26.777  20.605  12.802  1.00  0.00     0.012 A 
ATOM      4  C   UNL     1      27.939  20.649  15.355  1.00  0.00     0.157 A 
ATOM      5  C   UNL     1      28.116  20.968  12.954  1.00  0.00     0.051 A 
ATOM      6  C   UNL     1      28.710  20.990  14.219  1.00  0.00     0.157 A 
ENDROOT
BRANCH   1   7
ATOM      7  C   UNL     1      24.583  19.875  13.704  1.00  0.00     0.010 C 
ATOM      8  C   UNL     1      23.553  20.528  14.261  1.00  0.00     0.025 C 
BRANCH   8   9
ATOM      9  C   UNL     1      22.158  20.118  14.034  1.00  0.00     0.064 C 
ATOM     10  O   UNL     1      21.412  19.880  15.018  1.00  0.00    -0.545 OA
ATOM     11  O   UNL     1      21.649  19.989  12.746  1.00  0.00    -0.545 OA
ENDBRANCH   8   9
ENDBRANCH   1   7
BRANCH   4  12
ATOM     12  O   UNL     1      28.458  20.664  16.651  1.00  0.00    -0.504 OA
ATOM     13  H   UNL     1      28.434  19.874  17.278  1.00  0.00     0.293 HD
ENDBRANCH   4  12
BRANCH   6  14
ATOM     14  O   UNL     1      30.055  21.355  14.302  1.00  0.00    -0.504 OA
ATOM     15  H   UNL     1      30.461  22.135  13.805  1.00  0.00     0.293 HD
ENDBRANCH   6  14
TORSDOF 4
ENDMDL
MODEL 4
REMARK VINA RESULT:    -3.145      3.347      5.213
REMARK INTER + INTRA:          -3.821
REMARK INTER:                  -3.688
REMARK INTRA:                  -0.134
REMARK UNBOUND:                -0.125
REMARK SMILES O=C([O-])C=Cc1ccc(O)c(O)c1
REMARK SMILES IDX 6 1 13 2 7 3 11 4 8 5 9 6 5 7 4 8 2 9 1 10 3 11 12 12 10 14
REMARK H PARENT 12 13 10 15
REMARK Flexibility Score: inf
ROOT
ATOM      1  C   UNL     1      28.312  20.578  12.893  1.00  0.00    -0.022 A 
ATOM      2  C   UNL     1      27.724  20.252  11.655  1.00  0.00     0.058 A 
ATOM      3  C   UNL     1      29.504  21.315  12.902  1.00  0.00     0.012 A 
ATOM      4  C   UNL     1      28.302  20.674  10.450  1.00  0.00     0.157 A 
ATOM      5  C   UNL     1      30.084  21.742  11.707  1.00  0.00     0.051 A 
ATOM      6  C   UNL     1      29.494  21.434  10.477  1.00  0.00     0.157 A 
ENDROOT
BRANCH   1   7
ATOM      7  C   UNL     1      27.737  20.139  14.189  1.00  0.00     0.010 C 
ATOM      8  C   UNL     1      27.310  20.984  15.139  1.00  0.00     0.025 C 
BRANCH   8   9
ATOM      9  C   UNL     1      26.759  20.503  16.416  1.00  0.00     0.064 C 
ATOM     10  O   UNL     1      25.571  20.091  16.463  1.00  0.00    -0.545 OA
ATOM     11  O   UNL     1      27.530  20.496  17.573  1.00  0.00    -0.545 OA
ENDBRANCH   8   9
ENDBRANCH   1   7
BRANCH   4  12
ATOM     12  O   UNL     1      27.665  20.314   9.261  1.00  0.00    -0.504 OA
ATOM     13  H   UNL     1      26.863  19.703   9.212  1.00  0.00     0.293 HD
ENDBRANCH   4  12
BRANCH   6  14
ATOM     14  O   UNL     1      30.121  21.897   9.318  1.00  0.00    -0.504 OA
ATOM     15  H   UNL     1      30.277  21.331   8.496  1.00  0.00     0.293 HD
ENDBRANCH   6  14
TORSDOF 4
ENDMDL
MODEL 5
REMARK VINA RESULT:    -3.127     14.466     15.669
REMARK INTER + INTRA:          -3.800
REMARK INTER:                  -3.652
REMARK INTRA:                  -0.148
REMARK UNBOUND:                -0.125
REMARK SMILES O=C([O-])C=Cc1ccc(O)c(O)c1
REMARK SMILES IDX 6 1 13 2 7 3 11 4 8 5 9 6 5 7 4 8 2 9 1 10 3 11 12 12 10 14
REMARK H PARENT 12 13 10 15
REMARK Flexibility Score: inf
ROOT
ATOM      1  C   UNL     1      10.906  21.791  19.111  1.00  0.00    -0.022 A 
ATOM      2  C   UNL     1      11.567  20.986  20.060  1.00  0.00     0.058 A 
ATOM      3  C   UNL     1      10.049  22.804  19.563  1.00  0.00     0.012 A 
ATOM      4  C   UNL     1      11.395  21.204  21.434  1.00  0.00     0.157 A 
ATOM      5  C   UNL     1       9.875  23.030  20.929  1.00  0.00     0.051 A 
ATOM      6  C   UNL     1      10.542  22.243  21.874  1.00  0.00     0.157 A 
ENDROOT
BRANCH   1   7
ATOM      7  C   UNL     1      11.052  21.584  17.649  1.00  0.00     0.010 C 
ATOM      8  C   UNL     1      10.753  22.514  16.731  1.00  0.00     0.025 C 
BRANCH   8   9
ATOM      9  C   UNL     1      10.902  22.261  15.289  1.00  0.00     0.064 C 
ATOM     10  O   UNL     1       9.878  22.176  14.564  1.00  0.00    -0.545 OA
ATOM     11  O   UNL     1      12.159  22.114  14.713  1.00  0.00    -0.545 OA
ENDBRANCH   8   9
ENDBRANCH   1   7
BRANCH   4  12
ATOM     12  O   UNL     1      12.081  20.368  22.317  1.00  0.00    -0.504 OA
ATOM     13  H   UNL     1      12.120  19.363  22.227  1.00  0.00     0.293 HD
ENDBRANCH   4  12
BRANCH   6  14
ATOM     14  O   UNL     1      10.330  22.524  23.225  1.00  0.00    -0.504 OA
ATOM     15  H   UNL     1      10.822  22.070  23.980  1.00  0.00     0.293 HD
ENDBRANCH   6  14
TORSDOF 4
ENDMDL
MODEL 6
REMARK VINA RESULT:    -3.015      2.529      5.758
REMARK INTER + INTRA:          -3.669
REMARK INTER:                  -3.537
REMARK INTRA:                  -0.131
REMARK UNBOUND:                -0.125
REMARK SMILES O=C([O-])C=Cc1ccc(O)c(O)c1
REMARK SMILES IDX 6 1 13 2 7 3 11 4 8 5 9 6 5 7 4 8 2 9 1 10 3 11 12 12 10 14
REMARK H PARENT 12 13 10 15
REMARK Flexibility Score: inf
ROOT
ATOM      1  C   UNL     1      26.926  20.151  13.555  1.00  0.00    -0.022 A 
ATOM      2  C   UNL     1      27.097  20.246  14.951  1.00  0.00     0.058 A 
ATOM      3  C   UNL     1      25.636  19.951  13.044  1.00  0.00     0.012 A 
ATOM      4  C   UNL     1      25.998  20.168  15.817  1.00  0.00     0.157 A 
ATOM      5  C   UNL     1      24.537  19.876  13.900  1.00  0.00     0.051 A 
ATOM      6  C   UNL     1      24.701  19.987  15.284  1.00  0.00     0.157 A 
ENDROOT
BRANCH   1   7
ATOM      7  C   UNL     1      28.065  20.216  12.606  1.00  0.00     0.010 C 
ATOM      8  C   UNL     1      28.483  21.347  12.021  1.00  0.00     0.025 C 
BRANCH   8   9
ATOM      9  C   UNL     1      29.611  21.363  11.075  1.00  0.00     0.064 C 
ATOM     10  O   UNL     1      30.120  20.277  10.697  1.00  0.00    -0.545 OA
ATOM     11  O   UNL     1      30.123  22.562  10.590  1.00  0.00    -0.545 OA
ENDBRANCH   8   9
ENDBRANCH   1   7
BRANCH   4  12
ATOM     12  O   UNL     1      26.242  20.270  17.188  1.00  0.00    -0.504 OA
ATOM     13  H   UNL     1      25.764  20.915  17.801  1.00  0.00     0.293 HD
ENDBRANCH   4  12
BRANCH   6  14
ATOM     14  O   UNL     1      23.560  19.909  16.085  1.00  0.00    -0.504 OA
ATOM     15  H   UNL     1      23.421  20.452  16.926  1.00  0.00     0.293 HD
ENDBRANCH   6  14
TORSDOF 4
ENDMDL
MODEL 7
REMARK VINA RESULT:    -2.833      1.140      5.988
REMARK INTER + INTRA:          -3.454
REMARK INTER:                  -3.304
REMARK INTRA:                  -0.150
REMARK UNBOUND:                -0.125
REMARK SMILES O=C([O-])C=Cc1ccc(O)c(O)c1
REMARK SMILES IDX 6 1 13 2 7 3 11 4 8 5 9 6 5 7 4 8 2 9 1 10 3 11 12 12 10 14
REMARK H PARENT 12 13 10 15
REMARK Flexibility Score: inf
ROOT
ATOM      1  C   UNL     1      25.129  20.239  14.928  1.00  0.00    -0.022 A 
ATOM      2  C   UNL     1      24.050  20.604  15.758  1.00  0.00     0.058 A 
ATOM      3  C   UNL     1      24.867  19.875  13.600  1.00  0.00     0.012 A 
ATOM      4  C   UNL     1      22.738  20.628  15.264  1.00  0.00     0.157 A 
ATOM      5  C   UNL     1      23.565  19.900  13.100  1.00  0.00     0.051 A 
ATOM      6  C   UNL     1      22.494  20.277  13.916  1.00  0.00     0.157 A 
ENDROOT
BRANCH   1   7
ATOM      7  C   UNL     1      26.529  20.190  15.416  1.00  0.00     0.010 C 
ATOM      8  C   UNL     1      27.598  20.401  14.636  1.00  0.00     0.025 C 
BRANCH   8   9
ATOM      9  C   UNL     1      28.971  20.330  15.160  1.00  0.00     0.064 C 
ATOM     10  O   UNL     1      29.158  20.226  16.400  1.00  0.00    -0.545 OA
ATOM     11  O   UNL     1      30.069  20.374  14.307  1.00  0.00    -0.545 OA
ENDBRANCH   8   9
ENDBRANCH   1   7
BRANCH   4  12
ATOM     12  O   UNL     1      21.719  20.998  16.143  1.00  0.00    -0.504 OA
ATOM     13  H   UNL     1      21.502  20.505  16.997  1.00  0.00     0.293 HD
ENDBRANCH   4  12
BRANCH   6  14
ATOM     14  O   UNL     1      21.216  20.286  13.354  1.00  0.00    -0.504 OA
ATOM     15  H   UNL     1      21.032  20.427  12.371  1.00  0.00     0.293 HD
ENDBRANCH   6  14
TORSDOF 4
ENDMDL
MODEL 8
REMARK VINA RESULT:    -2.625     12.112     14.646
REMARK INTER + INTRA:          -3.211
REMARK INTER:                  -3.075
REMARK INTRA:                  -0.136
REMARK UNBOUND:                -0.125
REMARK SMILES O=C([O-])C=Cc1ccc(O)c(O)c1
REMARK SMILES IDX 6 1 13 2 7 3 11 4 8 5 9 6 5 7 4 8 2 9 1 10 3 11 12 12 10 14
REMARK H PARENT 12 13 10 15
REMARK Flexibility Score: inf
ROOT
ATOM      1  C   UNL     1      12.002  20.529  19.474  1.00  0.00    -0.022 A 
ATOM      2  C   UNL     1      11.418  21.195  18.379  1.00  0.00     0.058 A 
ATOM      3  C   UNL     1      13.229  19.875  19.290  1.00  0.00     0.012 A 
ATOM      4  C   UNL     1      12.056  21.230  17.132  1.00  0.00     0.157 A 
ATOM      5  C   UNL     1      13.873  19.907  18.052  1.00  0.00     0.051 A 
ATOM      6  C   UNL     1      13.303  20.582  16.969  1.00  0.00     0.157 A 
ENDROOT
BRANCH   1   7
ATOM      7  C   UNL     1      11.353  20.459  20.806  1.00  0.00     0.010 C 
ATOM      8  C   UNL     1      11.928  20.888  21.939  1.00  0.00     0.025 C 
BRANCH   8   9
ATOM      9  C   UNL     1      11.250  20.788  23.241  1.00  0.00     0.064 C 
ATOM     10  O   UNL     1      10.270  21.536  23.491  1.00  0.00    -0.545 OA
ATOM     11  O   UNL     1      11.675  19.878  24.203  1.00  0.00    -0.545 OA
ENDBRANCH   8   9
ENDBRANCH   1   7
BRANCH   4  12
ATOM     12  O   UNL     1      11.417  21.908  16.092  1.00  0.00    -0.504 OA
ATOM     13  H   UNL     1      11.781  21.973  15.153  1.00  0.00     0.293 HD
ENDBRANCH   4  12
BRANCH   6  14
ATOM     14  O   UNL     1      14.000  20.582  15.759  1.00  0.00    -0.504 OA
ATOM     15  H   UNL     1      13.822  21.228  15.004  1.00  0.00     0.293 HD
ENDBRANCH   6  14
TORSDOF 4
ENDMDL
MODEL 9
REMARK VINA RESULT:    -2.319      1.554      2.191
REMARK INTER + INTRA:          -2.850
REMARK INTER:                  -2.714
REMARK INTRA:                  -0.136
REMARK UNBOUND:                -0.125
REMARK SMILES O=C([O-])C=Cc1ccc(O)c(O)c1
REMARK SMILES IDX 6 1 13 2 7 3 11 4 8 5 9 6 5 7 4 8 2 9 1 10 3 11 12 12 10 14
REMARK H PARENT 12 13 10 15
REMARK Flexibility Score: inf
ROOT
ATOM      1  C   UNL     1      25.944  20.091  13.593  1.00  0.00    -0.022 A 
ATOM      2  C   UNL     1      26.520  20.308  12.326  1.00  0.00     0.058 A 
ATOM      3  C   UNL     1      26.780  20.042  14.717  1.00  0.00     0.012 A 
ATOM      4  C   UNL     1      27.902  20.496  12.187  1.00  0.00     0.157 A 
ATOM      5  C   UNL     1      28.156  20.233  14.587  1.00  0.00     0.051 A 
ATOM      6  C   UNL     1      28.730  20.464  13.333  1.00  0.00     0.157 A 
ENDROOT
BRANCH   1   7
ATOM      7  C   UNL     1      24.488  19.875  13.781  1.00  0.00     0.010 C 
ATOM      8  C   UNL     1      23.701  20.686  14.502  1.00  0.00     0.025 C 
BRANCH   8   9
ATOM      9  C   UNL     1      22.262  20.426  14.672  1.00  0.00     0.064 C 
ATOM     10  O   UNL     1      21.615  19.883  13.740  1.00  0.00    -0.545 OA
ATOM     11  O   UNL     1      21.605  20.770  15.848  1.00  0.00    -0.545 OA
ENDBRANCH   8   9
ENDBRANCH   1   7
BRANCH   4  12
ATOM     12  O   UNL     1      28.404  20.705  10.900  1.00  0.00    -0.504 OA
ATOM     13  H   UNL     1      28.136  21.477  10.308  1.00  0.00     0.293 HD
ENDBRANCH   4  12
BRANCH   6  14
ATOM     14  O   UNL     1      30.112  20.653  13.271  1.00  0.00    -0.504 OA
ATOM     15  H   UNL     1      30.563  21.335  12.680  1.00  0.00     0.293 HD
ENDBRANCH   6  14
TORSDOF 4
ENDMDL
