MODEL 1
REMARK VINA RESULT:    -4.015      0.000      0.000
REMARK INTER + INTRA:         -13.844
REMARK INTER:                 -10.587
REMARK INTRA:                  -3.257
REMARK UNBOUND:                -3.257
REMARK SMILES CCCCCCCCCCCCCCCCCCCCCCCCCCCCCC(=O)[O-]
REMARK SMILES IDX 16 1 17 2 18 3 19 4 20 5 21 6 22 7 23 8 24 9 25 10 26 11
REMARK SMILES IDX 27 12 28 13 29 14 30 15 31 16 32 17 15 18 14 19 13 20 12 21
REMARK SMILES IDX 11 22 10 23 9 24 8 25 7 26 6 27 5 28 4 29 3 30 2 31 1 32
REMARK H PARENT
REMARK Flexibility Score: inf
ROOT
ATOM      1  C   UNL     1       4.604  13.129  -9.064  1.00  0.00     0.000 C 
ENDROOT
BRANCH   1   2
ATOM      2  C   UNL     1       5.390  13.856  -7.955  1.00  0.00     0.000 C 
BRANCH   2   3
ATOM      3  C   UNL     1       6.584  13.074  -7.381  1.00  0.00     0.000 C 
BRANCH   3   4
ATOM      4  C   UNL     1       6.580  13.016  -5.844  1.00  0.00     0.000 C 
BRANCH   4   5
ATOM      5  C   UNL     1       7.673  12.079  -5.288  1.00  0.00     0.000 C 
BRANCH   5   6
ATOM      6  C   UNL     1       9.098  12.452  -5.734  1.00  0.00     0.000 C 
BRANCH   6   7
ATOM      7  C   UNL     1      10.142  11.402  -5.326  1.00  0.00     0.000 C 
BRANCH   7   8
ATOM      8  C   UNL     1       9.615   9.959  -5.423  1.00  0.00     0.000 C 
BRANCH   8   9
ATOM      9  C   UNL     1      10.591   8.863  -4.948  1.00  0.00     0.000 C 
BRANCH   9  10
ATOM     10  C   UNL     1      11.935   8.817  -5.696  1.00  0.00     0.000 C 
BRANCH  10  11
ATOM     11  C   UNL     1      11.776   8.454  -7.183  1.00  0.00     0.000 C 
BRANCH  11  12
ATOM     12  C   UNL     1      12.271   9.567  -8.119  1.00  0.00     0.000 C 
BRANCH  12  13
ATOM     13  C   UNL     1      11.371   9.743  -9.352  1.00  0.00     0.006 C 
BRANCH  13  14
ATOM     14  C   UNL     1      10.384  10.897  -9.151  1.00  0.00     0.053 C 
BRANCH  14  15
ATOM     15  C   UNL     1       8.976  10.401  -9.238  1.00  0.00     0.041 C 
ATOM     16  O   UNL     1       8.660   9.295  -8.725  1.00  0.00    -0.550 OA
ATOM     17  O   UNL     1       8.000  11.182  -9.845  1.00  0.00    -0.550 OA
ENDBRANCH  14  15
ENDBRANCH  13  14
ENDBRANCH  12  13
ENDBRANCH  11  12
ENDBRANCH  10  11
ENDBRANCH   9  10
ENDBRANCH   8   9
ENDBRANCH   7   8
ENDBRANCH   6   7
ENDBRANCH   5   6
ENDBRANCH   4   5
ENDBRANCH   3   4
ENDBRANCH   2   3
ENDBRANCH   1   2
BRANCH   1  18
ATOM     18  C   UNL     1       3.354  12.365  -8.585  1.00  0.00     0.000 C 
BRANCH  18  19
ATOM     19  C   UNL     1       2.194  12.307  -9.600  1.00  0.00     0.000 C 
BRANCH  19  20
ATOM     20  C   UNL     1       2.446  11.408 -10.822  1.00  0.00     0.000 C 
BRANCH  20  21
ATOM     21  C   UNL     1       1.223  10.551 -11.197  1.00  0.00     0.000 C 
BRANCH  21  22
ATOM     22  C   UNL     1       1.536   9.046 -11.215  1.00  0.00     0.000 C 
BRANCH  22  23
ATOM     23  C   UNL     1       2.519   8.634 -10.104  1.00  0.00     0.000 C 
BRANCH  23  24
ATOM     24  C   UNL     1       1.896   7.654  -9.097  1.00  0.00    -0.000 C 
BRANCH  24  25
ATOM     25  C   UNL     1       1.020   8.359  -8.050  1.00  0.00    -0.000 C 
BRANCH  25  26
ATOM     26  C   UNL     1      -0.467   8.081  -8.304  1.00  0.00    -0.000 C 
BRANCH  26  27
ATOM     27  C   UNL     1      -0.662   6.752  -9.049  1.00  0.00    -0.000 C 
BRANCH  27  28
ATOM     28  C   UNL     1      -1.721   6.842 -10.158  1.00  0.00    -0.000 C 
BRANCH  28  29
ATOM     29  C   UNL     1      -1.892   8.267 -10.705  1.00  0.00    -0.000 C 
BRANCH  29  30
ATOM     30  C   UNL     1      -3.341   8.748 -10.532  1.00  0.00    -0.000 C 
BRANCH  30  31
ATOM     31  C   UNL     1      -3.727   9.830 -11.552  1.00  0.00    -0.003 C 
ATOM     32  C   UNL     1      -2.968  11.140 -11.339  1.00  0.00     0.004 C 
ENDBRANCH  30  31
ENDBRANCH  29  30
ENDBRANCH  28  29
ENDBRANCH  27  28
ENDBRANCH  26  27
ENDBRANCH  25  26
ENDBRANCH  24  25
ENDBRANCH  23  24
ENDBRANCH  22  23
ENDBRANCH  21  22
ENDBRANCH  20  21
ENDBRANCH  19  20
ENDBRANCH  18  19
ENDBRANCH   1  18
TORSDOF 28
ENDMDL
MODEL 2
REMARK VINA RESULT:    -3.906      1.075      2.137
REMARK INTER + INTRA:         -13.556
REMARK INTER:                 -10.635
REMARK INTRA:                  -2.922
REMARK UNBOUND:                -3.257
REMARK SMILES CCCCCCCCCCCCCCCCCCCCCCCCCCCCCC(=O)[O-]
REMARK SMILES IDX 16 1 17 2 18 3 19 4 20 5 21 6 22 7 23 8 24 9 25 10 26 11
REMARK SMILES IDX 27 12 28 13 29 14 30 15 31 16 32 17 15 18 14 19 13 20 12 21
REMARK SMILES IDX 11 22 10 23 9 24 8 25 7 26 6 27 5 28 4 29 3 30 2 31 1 32
REMARK H PARENT
REMARK Flexibility Score: inf
ROOT
ATOM      1  C   UNL     1       7.042  12.985  -6.836  1.00  0.00     0.000 C 
ENDROOT
BRANCH   1   2
ATOM      2  C   UNL     1       6.819  12.612  -5.357  1.00  0.00     0.000 C 
BRANCH   2   3
ATOM      3  C   UNL     1       7.787  13.277  -4.363  1.00  0.00     0.000 C 
BRANCH   3   4
ATOM      4  C   UNL     1       9.185  13.519  -4.959  1.00  0.00     0.000 C 
BRANCH   4   5
ATOM      5  C   UNL     1      10.315  13.121  -3.988  1.00  0.00     0.000 C 
BRANCH   5   6
ATOM      6  C   UNL     1      11.222  11.995  -4.516  1.00  0.00     0.000 C 
BRANCH   6   7
ATOM      7  C   UNL     1      10.602  11.241  -5.703  1.00  0.00     0.000 C 
BRANCH   7   8
ATOM      8  C   UNL     1      10.086   9.840  -5.323  1.00  0.00     0.000 C 
BRANCH   8   9
ATOM      9  C   UNL     1      11.016   8.668  -5.697  1.00  0.00     0.000 C 
BRANCH   9  10
ATOM     10  C   UNL     1      11.931   8.921  -6.909  1.00  0.00     0.000 C 
BRANCH  10  11
ATOM     11  C   UNL     1      11.842   7.805  -7.965  1.00  0.00     0.000 C 
BRANCH  11  12
ATOM     12  C   UNL     1      11.830   8.351  -9.401  1.00  0.00     0.000 C 
BRANCH  12  13
ATOM     13  C   UNL     1      11.438   9.836  -9.463  1.00  0.00     0.006 C 
BRANCH  13  14
ATOM     14  C   UNL     1      10.203  10.041 -10.346  1.00  0.00     0.053 C 
BRANCH  14  15
ATOM     15  C   UNL     1       8.994  10.294  -9.502  1.00  0.00     0.041 C 
ATOM     16  O   UNL     1       8.218  11.248  -9.778  1.00  0.00    -0.550 OA
ATOM     17  O   UNL     1       8.696   9.449  -8.441  1.00  0.00    -0.550 OA
ENDBRANCH  14  15
ENDBRANCH  13  14
ENDBRANCH  12  13
ENDBRANCH  11  12
ENDBRANCH  10  11
ENDBRANCH   9  10
ENDBRANCH   8   9
ENDBRANCH   7   8
ENDBRANCH   6   7
ENDBRANCH   5   6
ENDBRANCH   4   5
ENDBRANCH   3   4
ENDBRANCH   2   3
ENDBRANCH   1   2
BRANCH   1  18
ATOM     18  C   UNL     1       5.948  13.874  -7.458  1.00  0.00     0.000 C 
BRANCH  18  19
ATOM     19  C   UNL     1       5.368  13.362  -8.792  1.00  0.00     0.000 C 
BRANCH  19  20
ATOM     20  C   UNL     1       3.889  12.942  -8.738  1.00  0.00     0.000 C 
BRANCH  20  21
ATOM     21  C   UNL     1       3.438  12.175  -9.994  1.00  0.00     0.000 C 
BRANCH  21  22
ATOM     22  C   UNL     1       2.013  11.614  -9.868  1.00  0.00     0.000 C 
BRANCH  22  23
ATOM     23  C   UNL     1       1.967  10.293  -9.079  1.00  0.00     0.000 C 
BRANCH  23  24
ATOM     24  C   UNL     1       2.461   9.094  -9.904  1.00  0.00    -0.000 C 
BRANCH  24  25
ATOM     25  C   UNL     1       1.968   7.749  -9.349  1.00  0.00    -0.000 C 
BRANCH  25  26
ATOM     26  C   UNL     1       0.920   7.962  -8.250  1.00  0.00    -0.000 C 
BRANCH  26  27
ATOM     27  C   UNL     1      -0.408   7.281  -8.613  1.00  0.00    -0.000 C 
BRANCH  27  28
ATOM     28  C   UNL     1      -0.557   7.036 -10.123  1.00  0.00    -0.000 C 
BRANCH  28  29
ATOM     29  C   UNL     1      -2.013   7.134 -10.601  1.00  0.00    -0.000 C 
BRANCH  29  30
ATOM     30  C   UNL     1      -2.672   8.422 -10.084  1.00  0.00    -0.000 C 
BRANCH  30  31
ATOM     31  C   UNL     1      -2.575   9.578 -11.092  1.00  0.00    -0.003 C 
ATOM     32  C   UNL     1      -1.161  10.152 -11.197  1.00  0.00     0.004 C 
ENDBRANCH  30  31
ENDBRANCH  29  30
ENDBRANCH  28  29
ENDBRANCH  27  28
ENDBRANCH  26  27
ENDBRANCH  25  26
ENDBRANCH  24  25
ENDBRANCH  23  24
ENDBRANCH  22  23
ENDBRANCH  21  22
ENDBRANCH  20  21
ENDBRANCH  19  20
ENDBRANCH  18  19
ENDBRANCH   1  18
TORSDOF 28
ENDMDL
MODEL 3
REMARK VINA RESULT:    -3.835      2.790     11.205
REMARK INTER + INTRA:         -13.369
REMARK INTER:                 -10.151
REMARK INTRA:                  -3.218
REMARK UNBOUND:                -3.257
REMARK SMILES CCCCCCCCCCCCCCCCCCCCCCCCCCCCCC(=O)[O-]
REMARK SMILES IDX 16 1 17 2 18 3 19 4 20 5 21 6 22 7 23 8 24 9 25 10 26 11
REMARK SMILES IDX 27 12 28 13 29 14 30 15 31 16 32 17 15 18 14 19 13 20 12 21
REMARK SMILES IDX 11 22 10 23 9 24 8 25 7 26 6 27 5 28 4 29 3 30 2 31 1 32
REMARK H PARENT
REMARK Flexibility Score: inf
ROOT
ATOM      1  C   UNL     1       1.417  10.688 -10.427  1.00  0.00     0.000 C 
ENDROOT
BRANCH   1   2
ATOM      2  C   UNL     1       1.520   9.573 -11.486  1.00  0.00     0.000 C 
BRANCH   2   3
ATOM      3  C   UNL     1       2.250   8.300 -11.025  1.00  0.00     0.000 C 
BRANCH   3   4
ATOM      4  C   UNL     1       2.585   8.312  -9.523  1.00  0.00     0.000 C 
BRANCH   4   5
ATOM      5  C   UNL     1       1.667   7.375  -8.710  1.00  0.00     0.000 C 
BRANCH   5   6
ATOM      6  C   UNL     1       0.570   8.110  -7.920  1.00  0.00     0.000 C 
BRANCH   6   7
ATOM      7  C   UNL     1      -0.842   7.806  -8.441  1.00  0.00     0.000 C 
BRANCH   7   8
ATOM      8  C   UNL     1      -0.859   6.729  -9.541  1.00  0.00     0.000 C 
BRANCH   8   9
ATOM      9  C   UNL     1      -1.304   7.213 -10.936  1.00  0.00     0.000 C 
BRANCH   9  10
ATOM     10  C   UNL     1      -2.620   6.602 -11.451  1.00  0.00     0.000 C 
BRANCH  10  11
ATOM     11  C   UNL     1      -3.662   7.668 -11.830  1.00  0.00     0.000 C 
BRANCH  11  12
ATOM     12  C   UNL     1      -3.734   8.813 -10.807  1.00  0.00     0.000 C 
BRANCH  12  13
ATOM     13  C   UNL     1      -3.635  10.197 -11.466  1.00  0.00     0.006 C 
BRANCH  13  14
ATOM     14  C   UNL     1      -2.192  10.712 -11.445  1.00  0.00     0.053 C 
BRANCH  14  15
ATOM     15  C   UNL     1      -2.162  12.194 -11.646  1.00  0.00     0.041 C 
ATOM     16  O   UNL     1      -3.195  12.883 -11.432  1.00  0.00    -0.550 OA
ATOM     17  O   UNL     1      -0.982  12.821 -12.022  1.00  0.00    -0.550 OA
ENDBRANCH  14  15
ENDBRANCH  13  14
ENDBRANCH  12  13
ENDBRANCH  11  12
ENDBRANCH  10  11
ENDBRANCH   9  10
ENDBRANCH   8   9
ENDBRANCH   7   8
ENDBRANCH   6   7
ENDBRANCH   5   6
ENDBRANCH   4   5
ENDBRANCH   3   4
ENDBRANCH   2   3
ENDBRANCH   1   2
BRANCH   1  18
ATOM     18  C   UNL     1       2.417  11.848 -10.600  1.00  0.00     0.000 C 
BRANCH  18  19
ATOM     19  C   UNL     1       3.187  12.245  -9.324  1.00  0.00     0.000 C 
BRANCH  19  20
ATOM     20  C   UNL     1       4.507  12.996  -9.571  1.00  0.00     0.000 C 
BRANCH  20  21
ATOM     21  C   UNL     1       4.924  13.880  -8.382  1.00  0.00     0.000 C 
BRANCH  21  22
ATOM     22  C   UNL     1       6.359  13.600  -7.908  1.00  0.00     0.000 C 
BRANCH  22  23
ATOM     23  C   UNL     1       6.403  12.906  -6.535  1.00  0.00     0.000 C 
BRANCH  23  24
ATOM     24  C   UNL     1       6.899  13.838  -5.417  1.00  0.00    -0.000 C 
BRANCH  24  25
ATOM     25  C   UNL     1       7.744  13.103  -4.365  1.00  0.00    -0.000 C 
BRANCH  25  26
ATOM     26  C   UNL     1       9.169  13.667  -4.317  1.00  0.00    -0.000 C 
BRANCH  26  27
ATOM     27  C   UNL     1      10.200  12.598  -4.709  1.00  0.00    -0.000 C 
BRANCH  27  28
ATOM     28  C   UNL     1       9.992  12.066  -6.136  1.00  0.00    -0.000 C 
BRANCH  28  29
ATOM     29  C   UNL     1       9.684  10.562  -6.172  1.00  0.00    -0.000 C 
BRANCH  29  30
ATOM     30  C   UNL     1      10.531   9.857  -7.243  1.00  0.00    -0.000 C 
BRANCH  30  31
ATOM     31  C   UNL     1      11.319   8.665  -6.680  1.00  0.00    -0.003 C 
ATOM     32  C   UNL     1      11.667   8.833  -5.201  1.00  0.00     0.004 C 
ENDBRANCH  30  31
ENDBRANCH  29  30
ENDBRANCH  28  29
ENDBRANCH  27  28
ENDBRANCH  26  27
ENDBRANCH  25  26
ENDBRANCH  24  25
ENDBRANCH  23  24
ENDBRANCH  22  23
ENDBRANCH  21  22
ENDBRANCH  20  21
ENDBRANCH  19  20
ENDBRANCH  18  19
ENDBRANCH   1  18
TORSDOF 28
ENDMDL
MODEL 4
REMARK VINA RESULT:    -3.802      3.466     10.982
REMARK INTER + INTRA:         -13.281
REMARK INTER:                 -10.240
REMARK INTRA:                  -3.041
REMARK UNBOUND:                -3.257
REMARK SMILES CCCCCCCCCCCCCCCCCCCCCCCCCCCCCC(=O)[O-]
REMARK SMILES IDX 16 1 17 2 18 3 19 4 20 5 21 6 22 7 23 8 24 9 25 10 26 11
REMARK SMILES IDX 27 12 28 13 29 14 30 15 31 16 32 17 15 18 14 19 13 20 12 21
REMARK SMILES IDX 11 22 10 23 9 24 8 25 7 26 6 27 5 28 4 29 3 30 2 31 1 32
REMARK H PARENT
REMARK Flexibility Score: inf
ROOT
ATOM      1  C   UNL     1       3.495  12.813 -10.626  1.00  0.00     0.000 C 
ENDROOT
BRANCH   1   2
ATOM      2  C   UNL     1       3.231  11.943 -11.871  1.00  0.00     0.000 C 
BRANCH   2   3
ATOM      3  C   UNL     1       2.187  10.829 -11.679  1.00  0.00     0.000 C 
BRANCH   3   4
ATOM      4  C   UNL     1       2.818   9.429 -11.575  1.00  0.00     0.000 C 
BRANCH   4   5
ATOM      5  C   UNL     1       2.711   8.842 -10.151  1.00  0.00     0.000 C 
BRANCH   5   6
ATOM      6  C   UNL     1       1.848   9.683  -9.195  1.00  0.00     0.000 C 
BRANCH   6   7
ATOM      7  C   UNL     1       1.051   8.823  -8.202  1.00  0.00     0.000 C 
BRANCH   7   8
ATOM      8  C   UNL     1       1.150   7.315  -8.498  1.00  0.00     0.000 C 
BRANCH   8   9
ATOM      9  C   UNL     1      -0.119   6.671  -9.092  1.00  0.00     0.000 C 
BRANCH   9  10
ATOM     10  C   UNL     1      -0.355   6.951 -10.587  1.00  0.00     0.000 C 
BRANCH  10  11
ATOM     11  C   UNL     1      -1.451   8.005 -10.829  1.00  0.00     0.000 C 
BRANCH  11  12
ATOM     12  C   UNL     1      -2.863   7.455 -10.580  1.00  0.00     0.000 C 
BRANCH  12  13
ATOM     13  C   UNL     1      -3.941   8.227 -11.357  1.00  0.00     0.006 C 
BRANCH  13  14
ATOM     14  C   UNL     1      -3.634   9.728 -11.375  1.00  0.00     0.053 C 
BRANCH  14  15
ATOM     15  C   UNL     1      -4.704  10.489 -10.658  1.00  0.00     0.041 C 
ATOM     16  O   UNL     1      -4.458  11.627 -10.177  1.00  0.00    -0.550 OA
ATOM     17  O   UNL     1      -5.987   9.963 -10.563  1.00  0.00    -0.550 OA
ENDBRANCH  14  15
ENDBRANCH  13  14
ENDBRANCH  12  13
ENDBRANCH  11  12
ENDBRANCH  10  11
ENDBRANCH   9  10
ENDBRANCH   8   9
ENDBRANCH   7   8
ENDBRANCH   6   7
ENDBRANCH   5   6
ENDBRANCH   4   5
ENDBRANCH   3   4
ENDBRANCH   2   3
ENDBRANCH   1   2
BRANCH   1  18
ATOM     18  C   UNL     1       4.903  12.670 -10.015  1.00  0.00     0.000 C 
BRANCH  18  19
ATOM     19  C   UNL     1       5.105  13.383  -8.663  1.00  0.00     0.000 C 
BRANCH  19  20
ATOM     20  C   UNL     1       6.525  13.277  -8.080  1.00  0.00     0.000 C 
BRANCH  20  21
ATOM     21  C   UNL     1       6.540  13.248  -6.541  1.00  0.00     0.000 C 
BRANCH  21  22
ATOM     22  C   UNL     1       7.904  12.831  -5.969  1.00  0.00     0.000 C 
BRANCH  22  23
ATOM     23  C   UNL     1       7.824  11.543  -5.131  1.00  0.00     0.000 C 
BRANCH  23  24
ATOM     24  C   UNL     1       8.715  10.420  -5.686  1.00  0.00    -0.000 C 
BRANCH  24  25
ATOM     25  C   UNL     1      10.203  10.632  -5.367  1.00  0.00    -0.000 C 
BRANCH  25  26
ATOM     26  C   UNL     1      10.870   9.311  -4.962  1.00  0.00    -0.000 C 
BRANCH  26  27
ATOM     27  C   UNL     1      11.427   8.575  -6.190  1.00  0.00    -0.000 C 
BRANCH  27  28
ATOM     28  C   UNL     1      12.335   9.464  -7.054  1.00  0.00    -0.000 C 
BRANCH  28  29
ATOM     29  C   UNL     1      11.965   9.421  -8.544  1.00  0.00    -0.000 C 
BRANCH  29  30
ATOM     30  C   UNL     1      10.494   9.021  -8.730  1.00  0.00    -0.000 C 
BRANCH  30  31
ATOM     31  C   UNL     1       9.737   9.979  -9.663  1.00  0.00    -0.003 C 
ATOM     32  C   UNL     1       9.568  11.376  -9.065  1.00  0.00     0.004 C 
ENDBRANCH  30  31
ENDBRANCH  29  30
ENDBRANCH  28  29
ENDBRANCH  27  28
ENDBRANCH  26  27
ENDBRANCH  25  26
ENDBRANCH  24  25
ENDBRANCH  23  24
ENDBRANCH  22  23
ENDBRANCH  21  22
ENDBRANCH  20  21
ENDBRANCH  19  20
ENDBRANCH  18  19
ENDBRANCH   1  18
TORSDOF 28
ENDMDL
MODEL 5
REMARK VINA RESULT:    -3.757      1.579      4.052
REMARK INTER + INTRA:         -13.164
REMARK INTER:                 -10.212
REMARK INTRA:                  -2.952
REMARK UNBOUND:                -3.257
REMARK SMILES CCCCCCCCCCCCCCCCCCCCCCCCCCCCCC(=O)[O-]
REMARK SMILES IDX 16 1 17 2 18 3 19 4 20 5 21 6 22 7 23 8 24 9 25 10 26 11
REMARK SMILES IDX 27 12 28 13 29 14 30 15 31 16 32 17 15 18 14 19 13 20 12 21
REMARK SMILES IDX 11 22 10 23 9 24 8 25 7 26 6 27 5 28 4 29 3 30 2 31 1 32
REMARK H PARENT
REMARK Flexibility Score: inf
ROOT
ATOM      1  C   UNL     1       2.601  11.401  -9.281  1.00  0.00     0.000 C 
ENDROOT
BRANCH   1   2
ATOM      2  C   UNL     1       3.313  12.582  -8.590  1.00  0.00     0.000 C 
BRANCH   2   3
ATOM      3  C   UNL     1       4.284  13.372  -9.484  1.00  0.00     0.000 C 
BRANCH   3   4
ATOM      4  C   UNL     1       5.510  13.899  -8.719  1.00  0.00     0.000 C 
BRANCH   4   5
ATOM      5  C   UNL     1       5.843  13.039  -7.481  1.00  0.00     0.000 C 
BRANCH   5   6
ATOM      6  C   UNL     1       7.139  13.457  -6.765  1.00  0.00     0.000 C 
BRANCH   6   7
ATOM      7  C   UNL     1       8.156  12.310  -6.657  1.00  0.00     0.000 C 
BRANCH   7   8
ATOM      8  C   UNL     1       9.143  12.267  -7.838  1.00  0.00     0.000 C 
BRANCH   8   9
ATOM      9  C   UNL     1       8.736  11.348  -9.008  1.00  0.00     0.000 C 
BRANCH   9  10
ATOM     10  C   UNL     1       9.230   9.894  -8.899  1.00  0.00     0.000 C 
BRANCH  10  11
ATOM     11  C   UNL     1      10.763   9.792  -8.815  1.00  0.00     0.000 C 
BRANCH  11  12
ATOM     12  C   UNL     1      11.239   9.123  -7.517  1.00  0.00     0.000 C 
BRANCH  12  13
ATOM     13  C   UNL     1      12.107  10.055  -6.658  1.00  0.00     0.006 C 
BRANCH  13  14
ATOM     14  C   UNL     1      11.554  10.163  -5.234  1.00  0.00     0.053 C 
BRANCH  14  15
ATOM     15  C   UNL     1      10.549   9.084  -4.980  1.00  0.00     0.041 C 
ATOM     16  O   UNL     1      10.925   7.949  -4.583  1.00  0.00    -0.550 OA
ATOM     17  O   UNL     1       9.194   9.345  -5.136  1.00  0.00    -0.550 OA
ENDBRANCH  14  15
ENDBRANCH  13  14
ENDBRANCH  12  13
ENDBRANCH  11  12
ENDBRANCH  10  11
ENDBRANCH   9  10
ENDBRANCH   8   9
ENDBRANCH   7   8
ENDBRANCH   6   7
ENDBRANCH   5   6
ENDBRANCH   4   5
ENDBRANCH   3   4
ENDBRANCH   2   3
ENDBRANCH   1   2
BRANCH   1  18
ATOM     18  C   UNL     1       2.222  11.639 -10.756  1.00  0.00     0.000 C 
BRANCH  18  19
ATOM     19  C   UNL     1       0.825  12.252 -10.982  1.00  0.00     0.000 C 
BRANCH  19  20
ATOM     20  C   UNL     1      -0.142  11.379 -11.800  1.00  0.00     0.000 C 
BRANCH  20  21
ATOM     21  C   UNL     1      -1.577  11.935 -11.821  1.00  0.00     0.000 C 
BRANCH  21  22
ATOM     22  C   UNL     1      -2.638  10.832 -11.968  1.00  0.00     0.000 C 
BRANCH  22  23
ATOM     23  C   UNL     1      -3.579  10.753 -10.753  1.00  0.00     0.000 C 
BRANCH  23  24
ATOM     24  C   UNL     1      -3.871   9.305 -10.325  1.00  0.00    -0.000 C 
BRANCH  24  25
ATOM     25  C   UNL     1      -4.247   8.401 -11.509  1.00  0.00    -0.000 C 
BRANCH  25  26
ATOM     26  C   UNL     1      -3.314   7.187 -11.588  1.00  0.00    -0.000 C 
BRANCH  26  27
ATOM     27  C   UNL     1      -2.247   7.236 -10.484  1.00  0.00    -0.000 C 
BRANCH  27  28
ATOM     28  C   UNL     1      -0.821   7.372 -11.040  1.00  0.00    -0.000 C 
BRANCH  28  29
ATOM     29  C   UNL     1       0.069   8.280 -10.179  1.00  0.00    -0.000 C 
BRANCH  29  30
ATOM     30  C   UNL     1       1.493   7.712 -10.077  1.00  0.00    -0.000 C 
BRANCH  30  31
ATOM     31  C   UNL     1       1.974   7.584  -8.624  1.00  0.00    -0.003 C 
ATOM     32  C   UNL     1       0.921   8.036  -7.612  1.00  0.00     0.004 C 
ENDBRANCH  30  31
ENDBRANCH  29  30
ENDBRANCH  28  29
ENDBRANCH  27  28
ENDBRANCH  26  27
ENDBRANCH  25  26
ENDBRANCH  24  25
ENDBRANCH  23  24
ENDBRANCH  22  23
ENDBRANCH  21  22
ENDBRANCH  20  21
ENDBRANCH  19  20
ENDBRANCH  18  19
ENDBRANCH   1  18
TORSDOF 28
ENDMDL
MODEL 6
REMARK VINA RESULT:    -3.744      3.713     11.180
REMARK INTER + INTRA:         -13.130
REMARK INTER:                 -10.102
REMARK INTRA:                  -3.027
REMARK UNBOUND:                -3.257
REMARK SMILES CCCCCCCCCCCCCCCCCCCCCCCCCCCCCC(=O)[O-]
REMARK SMILES IDX 16 1 17 2 18 3 19 4 20 5 21 6 22 7 23 8 24 9 25 10 26 11
REMARK SMILES IDX 27 12 28 13 29 14 30 15 31 16 32 17 15 18 14 19 13 20 12 21
REMARK SMILES IDX 11 22 10 23 9 24 8 25 7 26 6 27 5 28 4 29 3 30 2 31 1 32
REMARK H PARENT
REMARK Flexibility Score: inf
ROOT
ATOM      1  C   UNL     1       1.716  12.364 -10.263  1.00  0.00     0.000 C 
ENDROOT
BRANCH   1   2
ATOM      2  C   UNL     1       1.357  11.534 -11.512  1.00  0.00     0.000 C 
BRANCH   2   3
ATOM      3  C   UNL     1       0.801  10.129 -11.224  1.00  0.00     0.000 C 
BRANCH   3   4
ATOM      4  C   UNL     1       1.867   9.026 -11.344  1.00  0.00     0.000 C 
BRANCH   4   5
ATOM      5  C   UNL     1       2.333   8.506  -9.968  1.00  0.00     0.000 C 
BRANCH   5   6
ATOM      6  C   UNL     1       1.417   8.924  -8.803  1.00  0.00     0.000 C 
BRANCH   6   7
ATOM      7  C   UNL     1       0.891   7.725  -8.001  1.00  0.00     0.000 C 
BRANCH   7   8
ATOM      8  C   UNL     1       0.112   6.717  -8.867  1.00  0.00     0.000 C 
BRANCH   8   9
ATOM      9  C   UNL     1      -1.322   7.140  -9.248  1.00  0.00     0.000 C 
BRANCH   9  10
ATOM     10  C   UNL     1      -1.522   7.506 -10.730  1.00  0.00     0.000 C 
BRANCH  10  11
ATOM     11  C   UNL     1      -2.755   6.824 -11.349  1.00  0.00     0.000 C 
BRANCH  11  12
ATOM     12  C   UNL     1      -3.828   7.832 -11.789  1.00  0.00     0.000 C 
BRANCH  12  13
ATOM     13  C   UNL     1      -4.084   8.917 -10.732  1.00  0.00     0.006 C 
BRANCH  13  14
ATOM     14  C   UNL     1      -4.051  10.314 -11.360  1.00  0.00     0.053 C 
BRANCH  14  15
ATOM     15  C   UNL     1      -5.236  11.113 -10.920  1.00  0.00     0.041 C 
ATOM     16  O   UNL     1      -5.133  12.357 -10.748  1.00  0.00    -0.550 OA
ATOM     17  O   UNL     1      -6.467  10.494 -10.748  1.00  0.00    -0.550 OA
ENDBRANCH  14  15
ENDBRANCH  13  14
ENDBRANCH  12  13
ENDBRANCH  11  12
ENDBRANCH  10  11
ENDBRANCH   9  10
ENDBRANCH   8   9
ENDBRANCH   7   8
ENDBRANCH   6   7
ENDBRANCH   5   6
ENDBRANCH   4   5
ENDBRANCH   3   4
ENDBRANCH   2   3
ENDBRANCH   1   2
BRANCH   1  18
ATOM     18  C   UNL     1       3.138  12.138  -9.714  1.00  0.00     0.000 C 
BRANCH  18  19
ATOM     19  C   UNL     1       4.275  12.708 -10.586  1.00  0.00     0.000 C 
BRANCH  19  20
ATOM     20  C   UNL     1       5.069  11.659 -11.383  1.00  0.00     0.000 C 
BRANCH  20  21
ATOM     21  C   UNL     1       6.589  11.762 -11.158  1.00  0.00     0.000 C 
BRANCH  21  22
ATOM     22  C   UNL     1       7.366  10.612 -11.820  1.00  0.00     0.000 C 
BRANCH  22  23
ATOM     23  C   UNL     1       8.816  10.512 -11.314  1.00  0.00     0.000 C 
BRANCH  23  24
ATOM     24  C   UNL     1       8.930  10.745  -9.798  1.00  0.00    -0.000 C 
BRANCH  24  25
ATOM     25  C   UNL     1       9.383   9.488  -9.038  1.00  0.00    -0.000 C 
BRANCH  25  26
ATOM     26  C   UNL     1      10.913   9.384  -9.017  1.00  0.00    -0.000 C 
BRANCH  26  27
ATOM     27  C   UNL     1      11.390   8.475  -7.875  1.00  0.00    -0.000 C 
BRANCH  27  28
ATOM     28  C   UNL     1      11.794   9.262  -6.618  1.00  0.00    -0.000 C 
BRANCH  28  29
ATOM     29  C   UNL     1      10.970   8.873  -5.381  1.00  0.00    -0.000 C 
BRANCH  29  30
ATOM     30  C   UNL     1       9.649   9.657  -5.337  1.00  0.00    -0.000 C 
BRANCH  30  31
ATOM     31  C   UNL     1       9.822  11.125  -5.756  1.00  0.00    -0.003 C 
ATOM     32  C   UNL     1       8.514  11.914  -5.692  1.00  0.00     0.004 C 
ENDBRANCH  30  31
ENDBRANCH  29  30
ENDBRANCH  28  29
ENDBRANCH  27  28
ENDBRANCH  26  27
ENDBRANCH  25  26
ENDBRANCH  24  25
ENDBRANCH  23  24
ENDBRANCH  22  23
ENDBRANCH  21  22
ENDBRANCH  20  21
ENDBRANCH  19  20
ENDBRANCH  18  19
ENDBRANCH   1  18
TORSDOF 28
ENDMDL
MODEL 7
REMARK VINA RESULT:    -3.711      3.604     10.986
REMARK INTER + INTRA:         -13.043
REMARK INTER:                  -9.312
REMARK INTRA:                  -3.731
REMARK UNBOUND:                -3.257
REMARK SMILES CCCCCCCCCCCCCCCCCCCCCCCCCCCCCC(=O)[O-]
REMARK SMILES IDX 16 1 17 2 18 3 19 4 20 5 21 6 22 7 23 8 24 9 25 10 26 11
REMARK SMILES IDX 27 12 28 13 29 14 30 15 31 16 32 17 15 18 14 19 13 20 12 21
REMARK SMILES IDX 11 22 10 23 9 24 8 25 7 26 6 27 5 28 4 29 3 30 2 31 1 32
REMARK H PARENT
REMARK Flexibility Score: inf
ROOT
ATOM      1  C   UNL     1       1.999  12.805 -10.969  1.00  0.00     0.000 C 
ENDROOT
BRANCH   1   2
ATOM      2  C   UNL     1       1.830  11.552 -11.851  1.00  0.00     0.000 C 
BRANCH   2   3
ATOM      3  C   UNL     1       1.002  10.418 -11.223  1.00  0.00     0.000 C 
BRANCH   3   4
ATOM      4  C   UNL     1       1.587   9.023 -11.503  1.00  0.00     0.000 C 
BRANCH   4   5
ATOM      5  C   UNL     1       2.276   8.415 -10.263  1.00  0.00     0.000 C 
BRANCH   5   6
ATOM      6  C   UNL     1       1.668   8.874  -8.926  1.00  0.00     0.000 C 
BRANCH   6   7
ATOM      7  C   UNL     1       1.125   7.707  -8.087  1.00  0.00     0.000 C 
BRANCH   7   8
ATOM      8  C   UNL     1      -0.048   6.974  -8.764  1.00  0.00     0.000 C 
BRANCH   8   9
ATOM      9  C   UNL     1      -1.387   7.739  -8.778  1.00  0.00     0.000 C 
BRANCH   9  10
ATOM     10  C   UNL     1      -1.826   8.263 -10.158  1.00  0.00     0.000 C 
BRANCH  10  11
ATOM     11  C   UNL     1      -2.524   7.187 -11.008  1.00  0.00     0.000 C 
BRANCH  11  12
ATOM     12  C   UNL     1      -3.747   7.732 -11.762  1.00  0.00     0.000 C 
BRANCH  12  13
ATOM     13  C   UNL     1      -4.557   8.732 -10.923  1.00  0.00     0.006 C 
BRANCH  13  14
ATOM     14  C   UNL     1      -4.795  10.031 -11.697  1.00  0.00     0.053 C 
BRANCH  14  15
ATOM     15  C   UNL     1      -5.318  11.096 -10.785  1.00  0.00     0.041 C 
ATOM     16  O   UNL     1      -6.522  11.458 -10.859  1.00  0.00    -0.550 OA
ATOM     17  O   UNL     1      -4.488  11.654  -9.821  1.00  0.00    -0.550 OA
ENDBRANCH  14  15
ENDBRANCH  13  14
ENDBRANCH  12  13
ENDBRANCH  11  12
ENDBRANCH  10  11
ENDBRANCH   9  10
ENDBRANCH   8   9
ENDBRANCH   7   8
ENDBRANCH   6   7
ENDBRANCH   5   6
ENDBRANCH   4   5
ENDBRANCH   3   4
ENDBRANCH   2   3
ENDBRANCH   1   2
BRANCH   1  18
ATOM     18  C   UNL     1       1.951  12.546  -9.450  1.00  0.00     0.000 C 
BRANCH  18  19
ATOM     19  C   UNL     1       3.322  12.322  -8.780  1.00  0.00     0.000 C 
BRANCH  19  20
ATOM     20  C   UNL     1       4.269  13.534  -8.822  1.00  0.00     0.000 C 
BRANCH  20  21
ATOM     21  C   UNL     1       5.479  13.380  -7.882  1.00  0.00     0.000 C 
BRANCH  21  22
ATOM     22  C   UNL     1       6.821  13.575  -8.606  1.00  0.00     0.000 C 
BRANCH  22  23
ATOM     23  C   UNL     1       6.976  12.645  -9.823  1.00  0.00     0.000 C 
BRANCH  23  24
ATOM     24  C   UNL     1       8.417  12.140 -10.002  1.00  0.00    -0.000 C 
BRANCH  24  25
ATOM     25  C   UNL     1       9.399  12.792  -9.016  1.00  0.00    -0.000 C 
BRANCH  25  26
ATOM     26  C   UNL     1      10.125  11.729  -8.183  1.00  0.00    -0.000 C 
BRANCH  26  27
ATOM     27  C   UNL     1       9.205  10.534  -7.889  1.00  0.00    -0.000 C 
BRANCH  27  28
ATOM     28  C   UNL     1       9.163  10.169  -6.397  1.00  0.00    -0.000 C 
BRANCH  28  29
ATOM     29  C   UNL     1       9.164  11.402  -5.482  1.00  0.00    -0.000 C 
BRANCH  29  30
ATOM     30  C   UNL     1       7.728  11.848  -5.166  1.00  0.00    -0.000 C 
BRANCH  30  31
ATOM     31  C   UNL     1       7.620  13.363  -4.932  1.00  0.00    -0.003 C 
ATOM     32  C   UNL     1       8.849  14.125  -5.427  1.00  0.00     0.004 C 
ENDBRANCH  30  31
ENDBRANCH  29  30
ENDBRANCH  28  29
ENDBRANCH  27  28
ENDBRANCH  26  27
ENDBRANCH  25  26
ENDBRANCH  24  25
ENDBRANCH  23  24
ENDBRANCH  22  23
ENDBRANCH  21  22
ENDBRANCH  20  21
ENDBRANCH  19  20
ENDBRANCH  18  19
ENDBRANCH   1  18
TORSDOF 28
ENDMDL
MODEL 8
REMARK VINA RESULT:    -3.645      3.736     11.264
REMARK INTER + INTRA:         -12.870
REMARK INTER:                 -10.027
REMARK INTRA:                  -2.843
REMARK UNBOUND:                -3.257
REMARK SMILES CCCCCCCCCCCCCCCCCCCCCCCCCCCCCC(=O)[O-]
REMARK SMILES IDX 16 1 17 2 18 3 19 4 20 5 21 6 22 7 23 8 24 9 25 10 26 11
REMARK SMILES IDX 27 12 28 13 29 14 30 15 31 16 32 17 15 18 14 19 13 20 12 21
REMARK SMILES IDX 11 22 10 23 9 24 8 25 7 26 6 27 5 28 4 29 3 30 2 31 1 32
REMARK H PARENT
REMARK Flexibility Score: inf
ROOT
ATOM      1  C   UNL     1       6.142  10.929 -11.988  1.00  0.00     0.000 C 
ENDROOT
BRANCH   1   2
ATOM      2  C   UNL     1       4.606  10.868 -11.879  1.00  0.00     0.000 C 
BRANCH   2   3
ATOM      3  C   UNL     1       4.010   9.449 -11.845  1.00  0.00     0.000 C 
BRANCH   3   4
ATOM      4  C   UNL     1       2.492   9.431 -12.092  1.00  0.00     0.000 C 
BRANCH   4   5
ATOM      5  C   UNL     1       1.684   9.692 -10.803  1.00  0.00     0.000 C 
BRANCH   5   6
ATOM      6  C   UNL     1       2.180   8.892  -9.586  1.00  0.00     0.000 C 
BRANCH   6   7
ATOM      7  C   UNL     1       1.065   8.605  -8.569  1.00  0.00     0.000 C 
BRANCH   7   8
ATOM      8  C   UNL     1       0.682   7.115  -8.499  1.00  0.00     0.000 C 
BRANCH   8   9
ATOM      9  C   UNL     1      -0.669   6.747  -9.146  1.00  0.00     0.000 C 
BRANCH   9  10
ATOM     10  C   UNL     1      -0.678   6.751 -10.685  1.00  0.00     0.000 C 
BRANCH  10  11
ATOM     11  C   UNL     1      -2.101   6.792 -11.270  1.00  0.00     0.000 C 
BRANCH  11  12
ATOM     12  C   UNL     1      -3.010   7.794 -10.542  1.00  0.00     0.000 C 
BRANCH  12  13
ATOM     13  C   UNL     1      -3.944   8.546 -11.502  1.00  0.00     0.006 C 
BRANCH  13  14
ATOM     14  C   UNL     1      -3.808  10.062 -11.326  1.00  0.00     0.053 C 
BRANCH  14  15
ATOM     15  C   UNL     1      -5.023  10.622 -10.657  1.00  0.00     0.041 C 
ATOM     16  O   UNL     1      -6.106   9.979 -10.670  1.00  0.00    -0.550 OA
ATOM     17  O   UNL     1      -4.948  11.832  -9.979  1.00  0.00    -0.550 OA
ENDBRANCH  14  15
ENDBRANCH  13  14
ENDBRANCH  12  13
ENDBRANCH  11  12
ENDBRANCH  10  11
ENDBRANCH   9  10
ENDBRANCH   8   9
ENDBRANCH   7   8
ENDBRANCH   6   7
ENDBRANCH   5   6
ENDBRANCH   4   5
ENDBRANCH   3   4
ENDBRANCH   2   3
ENDBRANCH   1   2
BRANCH   1  18
ATOM     18  C   UNL     1       6.798  12.149 -11.312  1.00  0.00     0.000 C 
BRANCH  18  19
ATOM     19  C   UNL     1       8.095  11.848 -10.533  1.00  0.00     0.000 C 
BRANCH  19  20
ATOM     20  C   UNL     1       8.620  10.409 -10.681  1.00  0.00     0.000 C 
BRANCH  20  21
ATOM     21  C   UNL     1       9.067   9.795  -9.342  1.00  0.00     0.000 C 
BRANCH  21  22
ATOM     22  C   UNL     1      10.596   9.763  -9.184  1.00  0.00     0.000 C 
BRANCH  22  23
ATOM     23  C   UNL     1      11.118   8.376  -8.770  1.00  0.00     0.000 C 
BRANCH  23  24
ATOM     24  C   UNL     1      12.136   8.447  -7.620  1.00  0.00    -0.000 C 
BRANCH  24  25
ATOM     25  C   UNL     1      11.466   8.456  -6.237  1.00  0.00    -0.000 C 
BRANCH  25  26
ATOM     26  C   UNL     1      11.952   9.648  -5.402  1.00  0.00    -0.000 C 
BRANCH  26  27
ATOM     27  C   UNL     1      10.770  10.495  -4.906  1.00  0.00    -0.000 C 
BRANCH  27  28
ATOM     28  C   UNL     1       9.458  10.168  -5.636  1.00  0.00    -0.000 C 
BRANCH  28  29
ATOM     29  C   UNL     1       8.339  11.175  -5.329  1.00  0.00    -0.000 C 
BRANCH  29  30
ATOM     30  C   UNL     1       8.775  12.603  -5.690  1.00  0.00    -0.000 C 
BRANCH  30  31
ATOM     31  C   UNL     1       8.958  12.797  -7.203  1.00  0.00    -0.003 C 
ATOM     32  C   UNL     1      10.327  13.376  -7.563  1.00  0.00     0.004 C 
ENDBRANCH  30  31
ENDBRANCH  29  30
ENDBRANCH  28  29
ENDBRANCH  27  28
ENDBRANCH  26  27
ENDBRANCH  25  26
ENDBRANCH  24  25
ENDBRANCH  23  24
ENDBRANCH  22  23
ENDBRANCH  21  22
ENDBRANCH  20  21
ENDBRANCH  19  20
ENDBRANCH  18  19
ENDBRANCH   1  18
TORSDOF 28
ENDMDL
MODEL 9
REMARK VINA RESULT:    -3.643      3.410     10.653
REMARK INTER + INTRA:         -12.863
REMARK INTER:                  -9.627
REMARK INTRA:                  -3.237
REMARK UNBOUND:                -3.257
REMARK SMILES CCCCCCCCCCCCCCCCCCCCCCCCCCCCCC(=O)[O-]
REMARK SMILES IDX 16 1 17 2 18 3 19 4 20 5 21 6 22 7 23 8 24 9 25 10 26 11
REMARK SMILES IDX 27 12 28 13 29 14 30 15 31 16 32 17 15 18 14 19 13 20 12 21
REMARK SMILES IDX 11 22 10 23 9 24 8 25 7 26 6 27 5 28 4 29 3 30 2 31 1 32
REMARK H PARENT
REMARK Flexibility Score: inf
ROOT
ATOM      1  C   UNL     1       6.641  13.515  -6.257  1.00  0.00     0.000 C 
ENDROOT
BRANCH   1   2
ATOM      2  C   UNL     1       6.568  13.551  -7.796  1.00  0.00     0.000 C 
BRANCH   2   3
ATOM      3  C   UNL     1       5.205  13.969  -8.375  1.00  0.00     0.000 C 
BRANCH   3   4
ATOM      4  C   UNL     1       4.457  12.804  -9.046  1.00  0.00     0.000 C 
BRANCH   4   5
ATOM      5  C   UNL     1       2.930  12.886  -8.835  1.00  0.00     0.000 C 
BRANCH   5   6
ATOM      6  C   UNL     1       2.259  11.520  -8.609  1.00  0.00     0.000 C 
BRANCH   6   7
ATOM      7  C   UNL     1       2.237  10.652  -9.876  1.00  0.00     0.000 C 
BRANCH   7   8
ATOM      8  C   UNL     1       1.973   9.164  -9.581  1.00  0.00     0.000 C 
BRANCH   8   9
ATOM      9  C   UNL     1       1.128   8.877  -8.322  1.00  0.00     0.000 C 
BRANCH   9  10
ATOM     10  C   UNL     1       0.879   7.387  -8.028  1.00  0.00     0.000 C 
BRANCH  10  11
ATOM     11  C   UNL     1       0.102   6.681  -9.154  1.00  0.00     0.000 C 
BRANCH  11  12
ATOM     12  C   UNL     1      -1.392   7.039  -9.153  1.00  0.00     0.000 C 
BRANCH  12  13
ATOM     13  C   UNL     1      -1.887   7.504 -10.531  1.00  0.00     0.006 C 
BRANCH  13  14
ATOM     14  C   UNL     1      -2.380   8.953 -10.476  1.00  0.00     0.053 C 
BRANCH  14  15
ATOM     15  C   UNL     1      -3.820   9.031 -10.876  1.00  0.00     0.041 C 
ATOM     16  O   UNL     1      -4.319   8.144 -11.619  1.00  0.00    -0.550 OA
ATOM     17  O   UNL     1      -4.623  10.054 -10.389  1.00  0.00    -0.550 OA
ENDBRANCH  14  15
ENDBRANCH  13  14
ENDBRANCH  12  13
ENDBRANCH  11  12
ENDBRANCH  10  11
ENDBRANCH   9  10
ENDBRANCH   8   9
ENDBRANCH   7   8
ENDBRANCH   6   7
ENDBRANCH   5   6
ENDBRANCH   4   5
ENDBRANCH   3   4
ENDBRANCH   2   3
ENDBRANCH   1   2
BRANCH   1  18
ATOM     18  C   UNL     1       7.489  12.370  -5.669  1.00  0.00     0.000 C 
BRANCH  18  19
ATOM     19  C   UNL     1       8.456  11.695  -6.663  1.00  0.00     0.000 C 
BRANCH  19  20
ATOM     20  C   UNL     1       9.936  12.076  -6.488  1.00  0.00     0.000 C 
BRANCH  20  21
ATOM     21  C   UNL     1      10.384  12.078  -5.015  1.00  0.00     0.000 C 
BRANCH  21  22
ATOM     22  C   UNL     1      11.240  10.854  -4.653  1.00  0.00     0.000 C 
BRANCH  22  23
ATOM     23  C   UNL     1      10.597   9.531  -5.106  1.00  0.00     0.000 C 
BRANCH  23  24
ATOM     24  C   UNL     1      11.631   8.522  -5.634  1.00  0.00    -0.000 C 
BRANCH  24  25
ATOM     25  C   UNL     1      11.646   8.437  -7.168  1.00  0.00    -0.000 C 
BRANCH  25  26
ATOM     26  C   UNL     1      12.716   9.363  -7.758  1.00  0.00    -0.000 C 
BRANCH  26  27
ATOM     27  C   UNL     1      12.103  10.345  -8.768  1.00  0.00    -0.000 C 
BRANCH  27  28
ATOM     28  C   UNL     1      12.109   9.801 -10.205  1.00  0.00    -0.000 C 
BRANCH  28  29
ATOM     29  C   UNL     1      10.712   9.786 -10.842  1.00  0.00    -0.000 C 
BRANCH  29  30
ATOM     30  C   UNL     1       9.634  10.132  -9.804  1.00  0.00    -0.000 C 
BRANCH  30  31
ATOM     31  C   UNL     1       8.681  11.234 -10.290  1.00  0.00    -0.003 C 
ATOM     32  C   UNL     1       9.302  12.629 -10.214  1.00  0.00     0.004 C 
ENDBRANCH  30  31
ENDBRANCH  29  30
ENDBRANCH  28  29
ENDBRANCH  27  28
ENDBRANCH  26  27
ENDBRANCH  25  26
ENDBRANCH  24  25
ENDBRANCH  23  24
ENDBRANCH  22  23
ENDBRANCH  21  22
ENDBRANCH  20  21
ENDBRANCH  19  20
ENDBRANCH  18  19
ENDBRANCH   1  18
TORSDOF 28
ENDMDL
