MODEL 1
REMARK VINA RESULT:    -5.036      0.000      0.000
REMARK INTER + INTRA:         -11.165
REMARK INTER:                  -9.157
REMARK INTRA:                  -2.008
REMARK UNBOUND:                -2.008
REMARK SMILES CCCCCCCCCCCCCCCC(=O)[O-]
REMARK SMILES IDX 9 1 10 2 11 3 12 4 13 5 14 6 15 7 16 8 17 9 18 10 8 11 7 12
REMARK SMILES IDX 6 13 5 14 4 15 3 16 2 17 1 18
REMARK H PARENT
REMARK Flexibility Score: inf
ROOT
ATOM      1  C   UNL     1     159.840 157.129 149.149  1.00  0.00     0.000 C 
ENDROOT
BRANCH   1   2
ATOM      2  C   UNL     1     158.548 157.869 148.774  1.00  0.00     0.000 C 
BRANCH   2   3
ATOM      3  C   UNL     1     158.572 159.359 149.164  1.00  0.00     0.000 C 
BRANCH   3   4
ATOM      4  C   UNL     1     158.653 160.344 147.985  1.00  0.00     0.000 C 
BRANCH   4   5
ATOM      5  C   UNL     1     160.099 160.713 147.610  1.00  0.00     0.000 C 
BRANCH   5   6
ATOM      6  C   UNL     1     160.657 161.869 148.462  1.00  0.00     0.006 C 
BRANCH   6   7
ATOM      7  C   UNL     1     161.724 161.445 149.486  1.00  0.00     0.053 C 
BRANCH   7   8
ATOM      8  C   UNL     1     162.680 162.556 149.794  1.00  0.00     0.041 C 
ATOM      9  O   UNL     1     162.358 163.752 149.570  1.00  0.00    -0.550 OA
ATOM     10  O   UNL     1     163.942 162.266 150.300  1.00  0.00    -0.550 OA
ENDBRANCH   7   8
ENDBRANCH   6   7
ENDBRANCH   5   6
ENDBRANCH   4   5
ENDBRANCH   3   4
ENDBRANCH   2   3
ENDBRANCH   1   2
BRANCH   1  11
ATOM     11  C   UNL     1     160.641 157.921 150.195  1.00  0.00     0.000 C 
BRANCH  11  12
ATOM     12  C   UNL     1     160.705 157.212 151.557  1.00  0.00    -0.000 C 
BRANCH  12  13
ATOM     13  C   UNL     1     160.770 158.199 152.735  1.00  0.00    -0.000 C 
BRANCH  13  14
ATOM     14  C   UNL     1     160.155 159.566 152.393  1.00  0.00    -0.000 C 
BRANCH  14  15
ATOM     15  C   UNL     1     159.313 160.143 153.543  1.00  0.00    -0.000 C 
BRANCH  15  16
ATOM     16  C   UNL     1     158.548 161.418 153.142  1.00  0.00    -0.000 C 
BRANCH  16  17
ATOM     17  C   UNL     1     158.922 161.983 151.760  1.00  0.00    -0.003 C 
ATOM     18  C   UNL     1     158.092 163.206 151.369  1.00  0.00     0.004 C 
ENDBRANCH  16  17
ENDBRANCH  15  16
ENDBRANCH  14  15
ENDBRANCH  13  14
ENDBRANCH  12  13
ENDBRANCH  11  12
ENDBRANCH   1  11
TORSDOF 14
ENDMDL
MODEL 2
REMARK VINA RESULT:    -4.995      1.391      3.909
REMARK INTER + INTRA:         -11.090
REMARK INTER:                  -9.288
REMARK INTRA:                  -1.802
REMARK UNBOUND:                -2.008
REMARK SMILES CCCCCCCCCCCCCCCC(=O)[O-]
REMARK SMILES IDX 9 1 10 2 11 3 12 4 13 5 14 6 15 7 16 8 17 9 18 10 8 11 7 12
REMARK SMILES IDX 6 13 5 14 4 15 3 16 2 17 1 18
REMARK H PARENT
REMARK Flexibility Score: inf
ROOT
ATOM      1  C   UNL     1     159.022 161.455 152.419  1.00  0.00     0.000 C 
ENDROOT
BRANCH   1   2
ATOM      2  C   UNL     1     158.855 162.564 151.371  1.00  0.00     0.000 C 
BRANCH   2   3
ATOM      3  C   UNL     1     159.238 162.112 149.949  1.00  0.00     0.000 C 
BRANCH   3   4
ATOM      4  C   UNL     1     160.519 162.749 149.382  1.00  0.00     0.000 C 
BRANCH   4   5
ATOM      5  C   UNL     1     161.683 161.751 149.261  1.00  0.00     0.000 C 
BRANCH   5   6
ATOM      6  C   UNL     1     162.908 162.162 150.099  1.00  0.00     0.006 C 
BRANCH   6   7
ATOM      7  C   UNL     1     163.377 163.609 149.873  1.00  0.00     0.053 C 
BRANCH   7   8
ATOM      8  C   UNL     1     164.869 163.730 149.917  1.00  0.00     0.041 C 
ATOM      9  O   UNL     1     165.595 162.796 149.486  1.00  0.00    -0.550 OA
ATOM     10  O   UNL     1     165.458 164.864 150.464  1.00  0.00    -0.550 OA
ENDBRANCH   7   8
ENDBRANCH   6   7
ENDBRANCH   5   6
ENDBRANCH   4   5
ENDBRANCH   3   4
ENDBRANCH   2   3
ENDBRANCH   1   2
BRANCH   1  11
ATOM     11  C   UNL     1     159.123 160.077 151.747  1.00  0.00     0.000 C 
BRANCH  11  12
ATOM     12  C   UNL     1     160.517 159.444 151.893  1.00  0.00    -0.000 C 
BRANCH  12  13
ATOM     13  C   UNL     1     160.487 157.912 151.757  1.00  0.00    -0.000 C 
BRANCH  13  14
ATOM     14  C   UNL     1     160.652 157.447 150.301  1.00  0.00    -0.000 C 
BRANCH  14  15
ATOM     15  C   UNL     1     159.346 156.898 149.701  1.00  0.00    -0.000 C 
BRANCH  15  16
ATOM     16  C   UNL     1     159.079 157.419 148.277  1.00  0.00    -0.000 C 
BRANCH  16  17
ATOM     17  C   UNL     1     158.967 158.950 148.162  1.00  0.00    -0.003 C 
ATOM     18  C   UNL     1     159.725 159.516 146.962  1.00  0.00     0.004 C 
ENDBRANCH  16  17
ENDBRANCH  15  16
ENDBRANCH  14  15
ENDBRANCH  13  14
ENDBRANCH  12  13
ENDBRANCH  11  12
ENDBRANCH   1  11
TORSDOF 14
ENDMDL
MODEL 3
REMARK VINA RESULT:    -4.972      2.856      4.522
REMARK INTER + INTRA:         -11.049
REMARK INTER:                  -8.791
REMARK INTRA:                  -2.258
REMARK UNBOUND:                -2.008
REMARK SMILES CCCCCCCCCCCCCCCC(=O)[O-]
REMARK SMILES IDX 9 1 10 2 11 3 12 4 13 5 14 6 15 7 16 8 17 9 18 10 8 11 7 12
REMARK SMILES IDX 6 13 5 14 4 15 3 16 2 17 1 18
REMARK H PARENT
REMARK Flexibility Score: inf
ROOT
ATOM      1  C   UNL     1     159.001 157.653 148.410  1.00  0.00     0.000 C 
ENDROOT
BRANCH   1   2
ATOM      2  C   UNL     1     157.889 158.026 149.403  1.00  0.00     0.000 C 
BRANCH   2   3
ATOM      3  C   UNL     1     158.423 158.715 150.673  1.00  0.00     0.000 C 
BRANCH   3   4
ATOM      4  C   UNL     1     159.637 158.034 151.328  1.00  0.00     0.000 C 
BRANCH   4   5
ATOM      5  C   UNL     1     160.545 159.022 152.080  1.00  0.00     0.000 C 
BRANCH   5   6
ATOM      6  C   UNL     1     160.035 159.335 153.500  1.00  0.00     0.006 C 
BRANCH   6   7
ATOM      7  C   UNL     1     159.397 160.726 153.654  1.00  0.00     0.053 C 
BRANCH   7   8
ATOM      8  C   UNL     1     157.960 160.643 154.065  1.00  0.00     0.041 C 
ATOM      9  O   UNL     1     157.296 159.595 153.848  1.00  0.00    -0.550 OA
ATOM     10  O   UNL     1     157.343 161.737 154.661  1.00  0.00    -0.550 OA
ENDBRANCH   7   8
ENDBRANCH   6   7
ENDBRANCH   5   6
ENDBRANCH   4   5
ENDBRANCH   3   4
ENDBRANCH   2   3
ENDBRANCH   1   2
BRANCH   1  11
ATOM     11  C   UNL     1     159.503 158.895 147.659  1.00  0.00     0.000 C 
BRANCH  11  12
ATOM     12  C   UNL     1     160.966 159.236 147.985  1.00  0.00    -0.000 C 
BRANCH  12  13
ATOM     13  C   UNL     1     161.105 160.543 148.785  1.00  0.00    -0.000 C 
BRANCH  13  14
ATOM     14  C   UNL     1     159.897 161.477 148.601  1.00  0.00    -0.000 C 
BRANCH  14  15
ATOM     15  C   UNL     1     159.736 162.474 149.761  1.00  0.00    -0.000 C 
BRANCH  15  16
ATOM     16  C   UNL     1     158.337 162.422 150.402  1.00  0.00    -0.000 C 
BRANCH  16  17
ATOM     17  C   UNL     1     158.117 163.425 151.550  1.00  0.00    -0.003 C 
ATOM     18  C   UNL     1     156.688 163.965 151.606  1.00  0.00     0.004 C 
ENDBRANCH  16  17
ENDBRANCH  15  16
ENDBRANCH  14  15
ENDBRANCH  13  14
ENDBRANCH  12  13
ENDBRANCH  11  12
ENDBRANCH   1  11
TORSDOF 14
ENDMDL
MODEL 4
REMARK VINA RESULT:    -4.953      4.436      6.239
REMARK INTER + INTRA:         -11.015
REMARK INTER:                  -9.119
REMARK INTRA:                  -1.896
REMARK UNBOUND:                -2.008
REMARK SMILES CCCCCCCCCCCCCCCC(=O)[O-]
REMARK SMILES IDX 9 1 10 2 11 3 12 4 13 5 14 6 15 7 16 8 17 9 18 10 8 11 7 12
REMARK SMILES IDX 6 13 5 14 4 15 3 16 2 17 1 18
REMARK H PARENT
REMARK Flexibility Score: inf
ROOT
ATOM      1  C   UNL     1     160.598 157.772 151.496  1.00  0.00     0.000 C 
ENDROOT
BRANCH   1   2
ATOM      2  C   UNL     1     160.543 158.166 150.012  1.00  0.00     0.000 C 
BRANCH   2   3
ATOM      3  C   UNL     1     159.583 157.284 149.191  1.00  0.00     0.000 C 
BRANCH   3   4
ATOM      4  C   UNL     1     158.180 157.874 148.966  1.00  0.00     0.000 C 
BRANCH   4   5
ATOM      5  C   UNL     1     157.147 157.369 149.988  1.00  0.00     0.000 C 
BRANCH   5   6
ATOM      6  C   UNL     1     156.729 155.908 149.737  1.00  0.00     0.006 C 
BRANCH   6   7
ATOM      7  C   UNL     1     155.453 155.476 150.479  1.00  0.00     0.053 C 
BRANCH   7   8
ATOM      8  C   UNL     1     154.251 155.489 149.586  1.00  0.00     0.041 C 
ATOM      9  O   UNL     1     153.630 156.564 149.373  1.00  0.00    -0.550 OA
ATOM     10  O   UNL     1     153.797 154.307 149.014  1.00  0.00    -0.550 OA
ENDBRANCH   7   8
ENDBRANCH   6   7
ENDBRANCH   5   6
ENDBRANCH   4   5
ENDBRANCH   3   4
ENDBRANCH   2   3
ENDBRANCH   1   2
BRANCH   1  11
ATOM     11  C   UNL     1     160.380 158.999 152.395  1.00  0.00     0.000 C 
BRANCH  11  12
ATOM     12  C   UNL     1     159.079 159.751 152.070  1.00  0.00    -0.000 C 
BRANCH  12  13
ATOM     13  C   UNL     1     159.095 161.204 152.575  1.00  0.00    -0.000 C 
BRANCH  13  14
ATOM     14  C   UNL     1     158.828 162.220 151.452  1.00  0.00    -0.000 C 
BRANCH  14  15
ATOM     15  C   UNL     1     158.916 161.594 150.050  1.00  0.00    -0.000 C 
BRANCH  15  16
ATOM     16  C   UNL     1     159.890 162.342 149.122  1.00  0.00    -0.000 C 
BRANCH  16  17
ATOM     17  C   UNL     1     161.229 161.622 148.880  1.00  0.00    -0.003 C 
ATOM     18  C   UNL     1     162.248 161.864 149.993  1.00  0.00     0.004 C 
ENDBRANCH  16  17
ENDBRANCH  15  16
ENDBRANCH  14  15
ENDBRANCH  13  14
ENDBRANCH  12  13
ENDBRANCH  11  12
ENDBRANCH   1  11
TORSDOF 14
ENDMDL
MODEL 5
REMARK VINA RESULT:    -4.890      2.791      5.015
REMARK INTER + INTRA:         -10.900
REMARK INTER:                  -9.070
REMARK INTRA:                  -1.830
REMARK UNBOUND:                -2.008
REMARK SMILES CCCCCCCCCCCCCCCC(=O)[O-]
REMARK SMILES IDX 9 1 10 2 11 3 12 4 13 5 14 6 15 7 16 8 17 9 18 10 8 11 7 12
REMARK SMILES IDX 6 13 5 14 4 15 3 16 2 17 1 18
REMARK H PARENT
REMARK Flexibility Score: inf
ROOT
ATOM      1  C   UNL     1     158.412 157.878 148.856  1.00  0.00     0.000 C 
ENDROOT
BRANCH   1   2
ATOM      2  C   UNL     1     158.994 157.048 150.010  1.00  0.00     0.000 C 
BRANCH   2   3
ATOM      3  C   UNL     1     160.379 157.542 150.469  1.00  0.00     0.000 C 
BRANCH   3   4
ATOM      4  C   UNL     1     160.381 158.385 151.756  1.00  0.00     0.000 C 
BRANCH   4   5
ATOM      5  C   UNL     1     160.532 159.892 151.484  1.00  0.00     0.000 C 
BRANCH   5   6
ATOM      6  C   UNL     1     159.260 160.689 151.828  1.00  0.00     0.006 C 
BRANCH   6   7
ATOM      7  C   UNL     1     159.197 161.190 153.281  1.00  0.00     0.053 C 
BRANCH   7   8
ATOM      8  C   UNL     1     157.875 160.899 153.920  1.00  0.00     0.041 C 
ATOM      9  O   UNL     1     157.382 159.742 153.860  1.00  0.00    -0.550 OA
ATOM     10  O   UNL     1     157.170 161.915 154.554  1.00  0.00    -0.550 OA
ENDBRANCH   7   8
ENDBRANCH   6   7
ENDBRANCH   5   6
ENDBRANCH   4   5
ENDBRANCH   3   4
ENDBRANCH   2   3
ENDBRANCH   1   2
BRANCH   1  11
ATOM     11  C   UNL     1     159.437 158.031 147.722  1.00  0.00     0.000 C 
BRANCH  11  12
ATOM     12  C   UNL     1     159.331 159.386 147.004  1.00  0.00    -0.000 C 
BRANCH  12  13
ATOM     13  C   UNL     1     159.220 160.567 147.984  1.00  0.00    -0.000 C 
BRANCH  13  14
ATOM     14  C   UNL     1     160.520 161.383 148.072  1.00  0.00    -0.000 C 
BRANCH  14  15
ATOM     15  C   UNL     1     160.367 162.655 148.924  1.00  0.00    -0.000 C 
BRANCH  15  16
ATOM     16  C   UNL     1     161.716 163.325 149.244  1.00  0.00    -0.000 C 
BRANCH  16  17
ATOM     17  C   UNL     1     162.711 162.433 150.009  1.00  0.00    -0.003 C 
ATOM     18  C   UNL     1     164.108 163.046 150.109  1.00  0.00     0.004 C 
ENDBRANCH  16  17
ENDBRANCH  15  16
ENDBRANCH  14  15
ENDBRANCH  13  14
ENDBRANCH  12  13
ENDBRANCH  11  12
ENDBRANCH   1  11
TORSDOF 14
ENDMDL
MODEL 6
REMARK VINA RESULT:    -4.867      2.292      4.892
REMARK INTER + INTRA:         -10.858
REMARK INTER:                  -9.059
REMARK INTRA:                  -1.800
REMARK UNBOUND:                -2.008
REMARK SMILES CCCCCCCCCCCCCCCC(=O)[O-]
REMARK SMILES IDX 9 1 10 2 11 3 12 4 13 5 14 6 15 7 16 8 17 9 18 10 8 11 7 12
REMARK SMILES IDX 6 13 5 14 4 15 3 16 2 17 1 18
REMARK H PARENT
REMARK Flexibility Score: inf
ROOT
ATOM      1  C   UNL     1     159.716 158.990 147.549  1.00  0.00     0.000 C 
ENDROOT
BRANCH   1   2
ATOM      2  C   UNL     1     158.980 157.723 148.013  1.00  0.00     0.000 C 
BRANCH   2   3
ATOM      3  C   UNL     1     159.036 157.519 149.538  1.00  0.00     0.000 C 
BRANCH   3   4
ATOM      4  C   UNL     1     160.445 157.566 150.155  1.00  0.00     0.000 C 
BRANCH   4   5
ATOM      5  C   UNL     1     160.461 158.172 151.568  1.00  0.00     0.000 C 
BRANCH   5   6
ATOM      6  C   UNL     1     159.381 159.254 151.764  1.00  0.00     0.006 C 
BRANCH   6   7
ATOM      7  C   UNL     1     159.721 160.305 152.833  1.00  0.00     0.053 C 
BRANCH   7   8
ATOM      8  C   UNL     1     158.747 161.442 152.834  1.00  0.00     0.041 C 
ATOM      9  O   UNL     1     157.872 161.528 153.734  1.00  0.00    -0.550 OA
ATOM     10  O   UNL     1     158.787 162.391 151.819  1.00  0.00    -0.550 OA
ENDBRANCH   7   8
ENDBRANCH   6   7
ENDBRANCH   5   6
ENDBRANCH   4   5
ENDBRANCH   3   4
ENDBRANCH   2   3
ENDBRANCH   1   2
BRANCH   1  11
ATOM     11  C   UNL     1     158.887 160.247 147.856  1.00  0.00     0.000 C 
BRANCH  11  12
ATOM     12  C   UNL     1     159.693 161.322 148.603  1.00  0.00    -0.000 C 
BRANCH  12  13
ATOM     13  C   UNL     1     161.162 160.918 148.817  1.00  0.00    -0.000 C 
BRANCH  13  14
ATOM     14  C   UNL     1     161.792 161.610 150.037  1.00  0.00    -0.000 C 
BRANCH  14  15
ATOM     15  C   UNL     1     162.622 162.847 149.655  1.00  0.00    -0.000 C 
BRANCH  15  16
ATOM     16  C   UNL     1     164.004 162.871 150.333  1.00  0.00    -0.000 C 
BRANCH  16  17
ATOM     17  C   UNL     1     164.630 164.270 150.471  1.00  0.00    -0.003 C 
ATOM     18  C   UNL     1     165.427 164.692 149.236  1.00  0.00     0.004 C 
ENDBRANCH  16  17
ENDBRANCH  15  16
ENDBRANCH  14  15
ENDBRANCH  13  14
ENDBRANCH  12  13
ENDBRANCH  11  12
ENDBRANCH   1  11
TORSDOF 14
ENDMDL
MODEL 7
REMARK VINA RESULT:    -4.854      2.216      4.136
REMARK INTER + INTRA:         -10.835
REMARK INTER:                  -8.693
REMARK INTRA:                  -2.142
REMARK UNBOUND:                -2.008
REMARK SMILES CCCCCCCCCCCCCCCC(=O)[O-]
REMARK SMILES IDX 9 1 10 2 11 3 12 4 13 5 14 6 15 7 16 8 17 9 18 10 8 11 7 12
REMARK SMILES IDX 6 13 5 14 4 15 3 16 2 17 1 18
REMARK H PARENT
REMARK Flexibility Score: inf
ROOT
ATOM      1  C   UNL     1     160.706 159.342 147.672  1.00  0.00     0.000 C 
ENDROOT
BRANCH   1   2
ATOM      2  C   UNL     1     159.473 158.450 147.880  1.00  0.00     0.000 C 
BRANCH   2   3
ATOM      3  C   UNL     1     158.475 159.029 148.900  1.00  0.00     0.000 C 
BRANCH   3   4
ATOM      4  C   UNL     1     158.355 158.244 150.218  1.00  0.00     0.000 C 
BRANCH   4   5
ATOM      5  C   UNL     1     159.677 157.583 150.644  1.00  0.00     0.000 C 
BRANCH   5   6
ATOM      6  C   UNL     1     160.411 158.375 151.742  1.00  0.00     0.006 C 
BRANCH   6   7
ATOM      7  C   UNL     1     161.101 157.500 152.803  1.00  0.00     0.053 C 
BRANCH   7   8
ATOM      8  C   UNL     1     161.819 158.321 153.829  1.00  0.00     0.041 C 
ATOM      9  O   UNL     1     162.381 157.764 154.808  1.00  0.00    -0.550 OA
ATOM     10  O   UNL     1     161.839 159.707 153.720  1.00  0.00    -0.550 OA
ENDBRANCH   7   8
ENDBRANCH   6   7
ENDBRANCH   5   6
ENDBRANCH   4   5
ENDBRANCH   3   4
ENDBRANCH   2   3
ENDBRANCH   1   2
BRANCH   1  11
ATOM     11  C   UNL     1     160.389 160.804 148.027  1.00  0.00     0.000 C 
BRANCH  11  12
ATOM     12  C   UNL     1     161.356 161.384 149.072  1.00  0.00    -0.000 C 
BRANCH  12  13
ATOM     13  C   UNL     1     160.650 161.762 150.385  1.00  0.00    -0.000 C 
BRANCH  13  14
ATOM     14  C   UNL     1     159.260 162.374 150.152  1.00  0.00    -0.000 C 
BRANCH  14  15
ATOM     15  C   UNL     1     158.406 162.415 151.431  1.00  0.00    -0.000 C 
BRANCH  15  16
ATOM     16  C   UNL     1     159.033 161.621 152.592  1.00  0.00    -0.000 C 
BRANCH  16  17
ATOM     17  C   UNL     1     158.042 160.748 153.383  1.00  0.00    -0.003 C 
ATOM     18  C   UNL     1     157.345 161.507 154.512  1.00  0.00     0.004 C 
ENDBRANCH  16  17
ENDBRANCH  15  16
ENDBRANCH  14  15
ENDBRANCH  13  14
ENDBRANCH  12  13
ENDBRANCH  11  12
ENDBRANCH   1  11
TORSDOF 14
ENDMDL
MODEL 8
REMARK VINA RESULT:    -4.851      2.719      5.305
REMARK INTER + INTRA:         -10.829
REMARK INTER:                  -9.218
REMARK INTRA:                  -1.611
REMARK UNBOUND:                -2.008
REMARK SMILES CCCCCCCCCCCCCCCC(=O)[O-]
REMARK SMILES IDX 9 1 10 2 11 3 12 4 13 5 14 6 15 7 16 8 17 9 18 10 8 11 7 12
REMARK SMILES IDX 6 13 5 14 4 15 3 16 2 17 1 18
REMARK H PARENT
REMARK Flexibility Score: inf
ROOT
ATOM      1  C   UNL     1     160.659 161.621 148.324  1.00  0.00     0.000 C 
ENDROOT
BRANCH   1   2
ATOM      2  C   UNL     1     160.021 162.655 149.264  1.00  0.00     0.000 C 
BRANCH   2   3
ATOM      3  C   UNL     1     158.801 162.104 150.026  1.00  0.00     0.000 C 
BRANCH   3   4
ATOM      4  C   UNL     1     158.656 162.600 151.475  1.00  0.00     0.000 C 
BRANCH   4   5
ATOM      5  C   UNL     1     158.827 161.476 152.512  1.00  0.00     0.000 C 
BRANCH   5   6
ATOM      6  C   UNL     1     159.183 160.123 151.869  1.00  0.00     0.006 C 
BRANCH   6   7
ATOM      7  C   UNL     1     160.658 159.716 152.020  1.00  0.00     0.053 C 
BRANCH   7   8
ATOM      8  C   UNL     1     160.807 158.314 152.526  1.00  0.00     0.041 C 
ATOM      9  O   UNL     1     160.445 157.341 151.814  1.00  0.00    -0.550 OA
ATOM     10  O   UNL     1     161.315 158.085 153.799  1.00  0.00    -0.550 OA
ENDBRANCH   7   8
ENDBRANCH   6   7
ENDBRANCH   5   6
ENDBRANCH   4   5
ENDBRANCH   3   4
ENDBRANCH   2   3
ENDBRANCH   1   2
BRANCH   1  11
ATOM     11  C   UNL     1     159.586 160.720 147.693  1.00  0.00     0.000 C 
BRANCH  11  12
ATOM     12  C   UNL     1     160.126 159.334 147.305  1.00  0.00    -0.000 C 
BRANCH  12  13
ATOM     13  C   UNL     1     159.906 158.284 148.408  1.00  0.00    -0.000 C 
BRANCH  13  14
ATOM     14  C   UNL     1     158.471 158.300 148.959  1.00  0.00    -0.000 C 
BRANCH  14  15
ATOM     15  C   UNL     1     157.946 156.893 149.292  1.00  0.00    -0.000 C 
BRANCH  15  16
ATOM     16  C   UNL     1     156.574 156.918 149.991  1.00  0.00    -0.000 C 
BRANCH  16  17
ATOM     17  C   UNL     1     155.837 155.567 150.009  1.00  0.00    -0.003 C 
ATOM     18  C   UNL     1     154.335 155.702 149.758  1.00  0.00     0.004 C 
ENDBRANCH  16  17
ENDBRANCH  15  16
ENDBRANCH  14  15
ENDBRANCH  13  14
ENDBRANCH  12  13
ENDBRANCH  11  12
ENDBRANCH   1  11
TORSDOF 14
ENDMDL
MODEL 9
REMARK VINA RESULT:    -4.835      3.521      5.810
REMARK INTER + INTRA:         -10.800
REMARK INTER:                  -8.918
REMARK INTRA:                  -1.882
REMARK UNBOUND:                -2.008
REMARK SMILES CCCCCCCCCCCCCCCC(=O)[O-]
REMARK SMILES IDX 9 1 10 2 11 3 12 4 13 5 14 6 15 7 16 8 17 9 18 10 8 11 7 12
REMARK SMILES IDX 6 13 5 14 4 15 3 16 2 17 1 18
REMARK H PARENT
REMARK Flexibility Score: inf
ROOT
ATOM      1  C   UNL     1     159.768 160.133 153.303  1.00  0.00     0.000 C 
ENDROOT
BRANCH   1   2
ATOM      2  C   UNL     1     160.615 158.910 152.922  1.00  0.00     0.000 C 
BRANCH   2   3
ATOM      3  C   UNL     1     160.749 158.721 151.399  1.00  0.00     0.000 C 
BRANCH   3   4
ATOM      4  C   UNL     1     160.343 157.333 150.873  1.00  0.00     0.000 C 
BRANCH   4   5
ATOM      5  C   UNL     1     160.061 157.325 149.361  1.00  0.00     0.000 C 
BRANCH   5   6
ATOM      6  C   UNL     1     158.663 156.777 149.019  1.00  0.00     0.006 C 
BRANCH   6   7
ATOM      7  C   UNL     1     157.501 157.560 149.653  1.00  0.00     0.053 C 
BRANCH   7   8
ATOM      8  C   UNL     1     156.384 156.660 150.084  1.00  0.00     0.041 C 
ATOM      9  O   UNL     1     155.446 157.108 150.794  1.00  0.00    -0.550 OA
ATOM     10  O   UNL     1     156.397 155.317 149.727  1.00  0.00    -0.550 OA
ENDBRANCH   7   8
ENDBRANCH   6   7
ENDBRANCH   5   6
ENDBRANCH   4   5
ENDBRANCH   3   4
ENDBRANCH   2   3
ENDBRANCH   1   2
BRANCH   1  11
ATOM     11  C   UNL     1     158.821 160.521 152.157  1.00  0.00     0.000 C 
BRANCH  11  12
ATOM     12  C   UNL     1     158.846 162.027 151.849  1.00  0.00    -0.000 C 
BRANCH  12  13
ATOM     13  C   UNL     1     158.580 162.332 150.365  1.00  0.00    -0.000 C 
BRANCH  13  14
ATOM     14  C   UNL     1     158.934 161.149 149.449  1.00  0.00    -0.000 C 
BRANCH  14  15
ATOM     15  C   UNL     1     160.096 161.467 148.491  1.00  0.00    -0.000 C 
BRANCH  15  16
ATOM     16  C   UNL     1     161.081 162.498 149.070  1.00  0.00    -0.000 C 
BRANCH  16  17
ATOM     17  C   UNL     1     162.157 161.909 150.000  1.00  0.00    -0.003 C 
ATOM     18  C   UNL     1     163.446 162.730 150.018  1.00  0.00     0.004 C 
ENDBRANCH  16  17
ENDBRANCH  15  16
ENDBRANCH  14  15
ENDBRANCH  13  14
ENDBRANCH  12  13
ENDBRANCH  11  12
ENDBRANCH   1  11
TORSDOF 14
ENDMDL
