MODEL 1
REMARK VINA RESULT:    -4.884      0.000      0.000
REMARK INTER + INTRA:         -10.341
REMARK INTER:                  -8.880
REMARK INTRA:                  -1.461
REMARK UNBOUND:                -1.461
REMARK SMILES CCCCCCCCCCCCCCCC(=O)[O-]
REMARK SMILES IDX 9 1 10 2 11 3 12 4 13 5 14 6 15 7 16 8 17 9 18 10 8 11 7 12
REMARK SMILES IDX 6 13 5 14 4 15 3 16 2 17 1 18
REMARK H PARENT
REMARK Flexibility Score: inf
ROOT
ATOM      1  C   UNL     1       4.735  10.848   5.812  1.00  0.00     0.000 C 
ENDROOT
BRANCH   1   2
ATOM      2  C   UNL     1       5.471  10.024   6.883  1.00  0.00     0.000 C 
BRANCH   2   3
ATOM      3  C   UNL     1       4.512   9.317   7.858  1.00  0.00     0.000 C 
BRANCH   3   4
ATOM      4  C   UNL     1       4.333  10.009   9.226  1.00  0.00     0.000 C 
BRANCH   4   5
ATOM      5  C   UNL     1       4.651  11.514   9.244  1.00  0.00     0.000 C 
BRANCH   5   6
ATOM      6  C   UNL     1       3.391  12.391   9.184  1.00  0.00     0.006 C 
BRANCH   6   7
ATOM      7  C   UNL     1       2.194  11.593   8.660  1.00  0.00     0.053 C 
BRANCH   7   8
ATOM      8  C   UNL     1       1.015  11.760   9.566  1.00  0.00     0.041 C 
ATOM      9  O   UNL     1       1.002  11.211  10.698  1.00  0.00    -0.550 OA
ATOM     10  O   UNL     1      -0.050  12.564   9.179  1.00  0.00    -0.550 OA
ENDBRANCH   7   8
ENDBRANCH   6   7
ENDBRANCH   5   6
ENDBRANCH   4   5
ENDBRANCH   3   4
ENDBRANCH   2   3
ENDBRANCH   1   2
BRANCH   1  11
ATOM     11  C   UNL     1       5.648  11.257   4.642  1.00  0.00     0.000 C 
BRANCH  11  12
ATOM     12  C   UNL     1       6.487  12.528   4.880  1.00  0.00    -0.000 C 
BRANCH  12  13
ATOM     13  C   UNL     1       7.842  12.569   4.145  1.00  0.00    -0.000 C 
BRANCH  13  14
ATOM     14  C   UNL     1       8.935  11.641   4.721  1.00  0.00    -0.000 C 
BRANCH  14  15
ATOM     15  C   UNL     1      10.125  12.372   5.374  1.00  0.00    -0.000 C 
BRANCH  15  16
ATOM     16  C   UNL     1      10.029  12.461   6.914  1.00  0.00    -0.000 C 
BRANCH  16  17
ATOM     17  C   UNL     1       8.926  11.571   7.510  1.00  0.00    -0.003 C 
ATOM     18  C   UNL     1       7.939  12.351   8.375  1.00  0.00     0.004 C 
ENDBRANCH  16  17
ENDBRANCH  15  16
ENDBRANCH  14  15
ENDBRANCH  13  14
ENDBRANCH  12  13
ENDBRANCH  11  12
ENDBRANCH   1  11
TORSDOF 14
ENDMDL
MODEL 2
REMARK VINA RESULT:    -4.747      1.009      2.237
REMARK INTER + INTRA:         -10.093
REMARK INTER:                  -8.201
REMARK INTRA:                  -1.891
REMARK UNBOUND:                -1.461
REMARK SMILES CCCCCCCCCCCCCCCC(=O)[O-]
REMARK SMILES IDX 9 1 10 2 11 3 12 4 13 5 14 6 15 7 16 8 17 9 18 10 8 11 7 12
REMARK SMILES IDX 6 13 5 14 4 15 3 16 2 17 1 18
REMARK H PARENT
REMARK Flexibility Score: inf
ROOT
ATOM      1  C   UNL     1       5.896  10.999   6.041  1.00  0.00     0.000 C 
ENDROOT
BRANCH   1   2
ATOM      2  C   UNL     1       4.470  10.514   5.729  1.00  0.00     0.000 C 
BRANCH   2   3
ATOM      3  C   UNL     1       3.634  10.258   6.996  1.00  0.00     0.000 C 
BRANCH   3   4
ATOM      4  C   UNL     1       4.442  10.113   8.302  1.00  0.00     0.000 C 
BRANCH   4   5
ATOM      5  C   UNL     1       3.994  11.030   9.454  1.00  0.00     0.000 C 
BRANCH   5   6
ATOM      6  C   UNL     1       3.619  12.442   8.980  1.00  0.00     0.006 C 
BRANCH   6   7
ATOM      7  C   UNL     1       2.284  12.886   9.586  1.00  0.00     0.053 C 
BRANCH   7   8
ATOM      8  C   UNL     1       1.322  11.742   9.627  1.00  0.00     0.041 C 
ATOM      9  O   UNL     1       1.052  11.179  10.721  1.00  0.00    -0.550 OA
ATOM     10  O   UNL     1       0.683  11.327   8.464  1.00  0.00    -0.550 OA
ENDBRANCH   7   8
ENDBRANCH   6   7
ENDBRANCH   5   6
ENDBRANCH   4   5
ENDBRANCH   3   4
ENDBRANCH   2   3
ENDBRANCH   1   2
BRANCH   1  11
ATOM     11  C   UNL     1       6.022  12.533   6.026  1.00  0.00     0.000 C 
BRANCH  11  12
ATOM     12  C   UNL     1       6.950  13.124   7.105  1.00  0.00    -0.000 C 
BRANCH  12  13
ATOM     13  C   UNL     1       7.482  12.113   8.141  1.00  0.00    -0.000 C 
BRANCH  13  14
ATOM     14  C   UNL     1       8.765  11.358   7.728  1.00  0.00    -0.000 C 
BRANCH  14  15
ATOM     15  C   UNL     1       9.779  12.197   6.926  1.00  0.00    -0.000 C 
BRANCH  15  16
ATOM     16  C   UNL     1      10.044  11.656   5.503  1.00  0.00    -0.000 C 
BRANCH  16  17
ATOM     17  C   UNL     1       9.806  12.698   4.398  1.00  0.00    -0.003 C 
ATOM     18  C   UNL     1       8.713  12.280   3.416  1.00  0.00     0.004 C 
ENDBRANCH  16  17
ENDBRANCH  15  16
ENDBRANCH  14  15
ENDBRANCH  13  14
ENDBRANCH  12  13
ENDBRANCH  11  12
ENDBRANCH   1  11
TORSDOF 14
ENDMDL
MODEL 3
REMARK VINA RESULT:    -4.664      3.669      7.182
REMARK INTER + INTRA:          -9.942
REMARK INTER:                  -8.521
REMARK INTRA:                  -1.421
REMARK UNBOUND:                -1.461
REMARK SMILES CCCCCCCCCCCCCCCC(=O)[O-]
REMARK SMILES IDX 9 1 10 2 11 3 12 4 13 5 14 6 15 7 16 8 17 9 18 10 8 11 7 12
REMARK SMILES IDX 6 13 5 14 4 15 3 16 2 17 1 18
REMARK H PARENT
REMARK Flexibility Score: inf
ROOT
ATOM      1  C   UNL     1       4.694  10.785   5.996  1.00  0.00     0.000 C 
ENDROOT
BRANCH   1   2
ATOM      2  C   UNL     1       6.070  10.478   6.613  1.00  0.00     0.000 C 
BRANCH   2   3
ATOM      3  C   UNL     1       6.728  11.714   7.251  1.00  0.00     0.000 C 
BRANCH   3   4
ATOM      4  C   UNL     1       8.003  11.432   8.074  1.00  0.00     0.000 C 
BRANCH   4   5
ATOM      5  C   UNL     1       9.295  12.047   7.509  1.00  0.00     0.000 C 
BRANCH   5   6
ATOM      6  C   UNL     1       9.053  12.892   6.249  1.00  0.00     0.006 C 
BRANCH   6   7
ATOM      7  C   UNL     1       9.781  12.296   5.042  1.00  0.00     0.053 C 
BRANCH   7   8
ATOM      8  C   UNL     1       8.982  12.500   3.794  1.00  0.00     0.041 C 
ATOM      9  O   UNL     1       9.546  12.882   2.735  1.00  0.00    -0.550 OA
ATOM     10  O   UNL     1       7.621  12.221   3.786  1.00  0.00    -0.550 OA
ENDBRANCH   7   8
ENDBRANCH   6   7
ENDBRANCH   5   6
ENDBRANCH   4   5
ENDBRANCH   3   4
ENDBRANCH   2   3
ENDBRANCH   1   2
BRANCH   1  11
ATOM     11  C   UNL     1       3.533  10.142   6.776  1.00  0.00     0.000 C 
BRANCH  11  12
ATOM     12  C   UNL     1       3.927   9.492   8.117  1.00  0.00    -0.000 C 
BRANCH  12  13
ATOM     13  C   UNL     1       3.472  10.255   9.377  1.00  0.00    -0.000 C 
BRANCH  13  14
ATOM     14  C   UNL     1       3.945  11.723   9.467  1.00  0.00    -0.000 C 
BRANCH  14  15
ATOM     15  C   UNL     1       2.831  12.773   9.289  1.00  0.00    -0.000 C 
BRANCH  15  16
ATOM     16  C   UNL     1       1.480  12.357   9.912  1.00  0.00    -0.000 C 
BRANCH  16  17
ATOM     17  C   UNL     1       0.377  12.108   8.871  1.00  0.00    -0.003 C 
ATOM     18  C   UNL     1      -0.761  13.123   8.958  1.00  0.00     0.004 C 
ENDBRANCH  16  17
ENDBRANCH  15  16
ENDBRANCH  14  15
ENDBRANCH  13  14
ENDBRANCH  12  13
ENDBRANCH  11  12
ENDBRANCH   1  11
TORSDOF 14
ENDMDL
MODEL 4
REMARK VINA RESULT:    -4.652      1.047      2.951
REMARK INTER + INTRA:          -9.919
REMARK INTER:                  -8.436
REMARK INTRA:                  -1.483
REMARK UNBOUND:                -1.461
REMARK SMILES CCCCCCCCCCCCCCCC(=O)[O-]
REMARK SMILES IDX 9 1 10 2 11 3 12 4 13 5 14 6 15 7 16 8 17 9 18 10 8 11 7 12
REMARK SMILES IDX 6 13 5 14 4 15 3 16 2 17 1 18
REMARK H PARENT
REMARK Flexibility Score: inf
ROOT
ATOM      1  C   UNL     1       7.325  10.951   8.196  1.00  0.00     0.000 C 
ENDROOT
BRANCH   1   2
ATOM      2  C   UNL     1       7.044  12.359   8.748  1.00  0.00     0.000 C 
BRANCH   2   3
ATOM      3  C   UNL     1       5.695  12.930   8.274  1.00  0.00     0.000 C 
BRANCH   3   4
ATOM      4  C   UNL     1       4.460  12.450   9.064  1.00  0.00     0.000 C 
BRANCH   4   5
ATOM      5  C   UNL     1       4.504  10.980   9.515  1.00  0.00     0.000 C 
BRANCH   5   6
ATOM      6  C   UNL     1       3.180  10.240   9.269  1.00  0.00     0.006 C 
BRANCH   6   7
ATOM      7  C   UNL     1       2.091  10.734  10.224  1.00  0.00     0.053 C 
BRANCH   7   8
ATOM      8  C   UNL     1       1.125  11.620   9.505  1.00  0.00     0.041 C 
ATOM      9  O   UNL     1       0.751  12.705  10.023  1.00  0.00    -0.550 OA
ATOM     10  O   UNL     1       0.672  11.272   8.238  1.00  0.00    -0.550 OA
ENDBRANCH   7   8
ENDBRANCH   6   7
ENDBRANCH   5   6
ENDBRANCH   4   5
ENDBRANCH   3   4
ENDBRANCH   2   3
ENDBRANCH   1   2
BRANCH   1  11
ATOM     11  C   UNL     1       8.523  10.917   7.229  1.00  0.00     0.000 C 
BRANCH  11  12
ATOM     12  C   UNL     1       9.402  12.183   7.232  1.00  0.00    -0.000 C 
BRANCH  12  13
ATOM     13  C   UNL     1       9.814  12.701   5.838  1.00  0.00    -0.000 C 
BRANCH  13  14
ATOM     14  C   UNL     1       9.045  12.084   4.650  1.00  0.00    -0.000 C 
BRANCH  14  15
ATOM     15  C   UNL     1       7.908  12.962   4.090  1.00  0.00    -0.000 C 
BRANCH  15  16
ATOM     16  C   UNL     1       6.534  12.686   4.740  1.00  0.00    -0.000 C 
BRANCH  16  17
ATOM     17  C   UNL     1       6.006  11.267   4.474  1.00  0.00    -0.003 C 
ATOM     18  C   UNL     1       4.884  10.863   5.429  1.00  0.00     0.004 C 
ENDBRANCH  16  17
ENDBRANCH  15  16
ENDBRANCH  14  15
ENDBRANCH  13  14
ENDBRANCH  12  13
ENDBRANCH  11  12
ENDBRANCH   1  11
TORSDOF 14
ENDMDL
MODEL 5
REMARK VINA RESULT:    -4.509      1.164      2.432
REMARK INTER + INTRA:          -9.660
REMARK INTER:                  -8.570
REMARK INTRA:                  -1.090
REMARK UNBOUND:                -1.461
REMARK SMILES CCCCCCCCCCCCCCCC(=O)[O-]
REMARK SMILES IDX 9 1 10 2 11 3 12 4 13 5 14 6 15 7 16 8 17 9 18 10 8 11 7 12
REMARK SMILES IDX 6 13 5 14 4 15 3 16 2 17 1 18
REMARK H PARENT
REMARK Flexibility Score: inf
ROOT
ATOM      1  C   UNL     1       5.921  10.181   6.964  1.00  0.00     0.000 C 
ENDROOT
BRANCH   1   2
ATOM      2  C   UNL     1       4.413  10.277   7.257  1.00  0.00     0.000 C 
BRANCH   2   3
ATOM      3  C   UNL     1       4.029   9.670   8.619  1.00  0.00     0.000 C 
BRANCH   3   4
ATOM      4  C   UNL     1       3.356  10.643   9.609  1.00  0.00     0.000 C 
BRANCH   4   5
ATOM      5  C   UNL     1       3.805  12.110   9.491  1.00  0.00     0.000 C 
BRANCH   5   6
ATOM      6  C   UNL     1       2.644  13.064   9.170  1.00  0.00     0.006 C 
BRANCH   6   7
ATOM      7  C   UNL     1       1.391  12.689   9.964  1.00  0.00     0.053 C 
BRANCH   7   8
ATOM      8  C   UNL     1       0.269  12.338   9.040  1.00  0.00     0.041 C 
ATOM      9  O   UNL     1       0.341  11.311   8.315  1.00  0.00    -0.550 OA
ATOM     10  O   UNL     1      -0.880  13.120   9.012  1.00  0.00    -0.550 OA
ENDBRANCH   7   8
ENDBRANCH   6   7
ENDBRANCH   5   6
ENDBRANCH   4   5
ENDBRANCH   3   4
ENDBRANCH   2   3
ENDBRANCH   1   2
BRANCH   1  11
ATOM     11  C   UNL     1       6.789  10.713   8.119  1.00  0.00     0.000 C 
BRANCH  11  12
ATOM     12  C   UNL     1       8.064  11.462   7.687  1.00  0.00    -0.000 C 
BRANCH  12  13
ATOM     13  C   UNL     1       8.799  10.864   6.471  1.00  0.00    -0.000 C 
BRANCH  13  14
ATOM     14  C   UNL     1      10.006  11.682   5.960  1.00  0.00    -0.000 C 
BRANCH  14  15
ATOM     15  C   UNL     1       9.688  12.655   4.808  1.00  0.00    -0.000 C 
BRANCH  15  16
ATOM     16  C   UNL     1       8.494  12.211   3.934  1.00  0.00    -0.000 C 
BRANCH  16  17
ATOM     17  C   UNL     1       7.178  12.921   4.291  1.00  0.00    -0.003 C 
ATOM     18  C   UNL     1       5.967  11.992   4.223  1.00  0.00     0.004 C 
ENDBRANCH  16  17
ENDBRANCH  15  16
ENDBRANCH  14  15
ENDBRANCH  13  14
ENDBRANCH  12  13
ENDBRANCH  11  12
ENDBRANCH   1  11
TORSDOF 14
ENDMDL
MODEL 6
REMARK VINA RESULT:    -4.475      2.654      6.660
REMARK INTER + INTRA:          -9.599
REMARK INTER:                  -8.320
REMARK INTRA:                  -1.278
REMARK UNBOUND:                -1.461
REMARK SMILES CCCCCCCCCCCCCCCC(=O)[O-]
REMARK SMILES IDX 9 1 10 2 11 3 12 4 13 5 14 6 15 7 16 8 17 9 18 10 8 11 7 12
REMARK SMILES IDX 6 13 5 14 4 15 3 16 2 17 1 18
REMARK H PARENT
REMARK Flexibility Score: inf
ROOT
ATOM      1  C   UNL     1       7.236  12.585   7.926  1.00  0.00     0.000 C 
ENDROOT
BRANCH   1   2
ATOM      2  C   UNL     1       8.487  11.713   8.127  1.00  0.00     0.000 C 
BRANCH   2   3
ATOM      3  C   UNL     1       9.366  11.625   6.866  1.00  0.00     0.000 C 
BRANCH   3   4
ATOM      4  C   UNL     1       9.674  12.973   6.181  1.00  0.00     0.000 C 
BRANCH   4   5
ATOM      5  C   UNL     1       9.114  13.125   4.756  1.00  0.00     0.000 C 
BRANCH   5   6
ATOM      6  C   UNL     1       8.346  11.882   4.281  1.00  0.00     0.006 C 
BRANCH   6   7
ATOM      7  C   UNL     1       6.836  12.134   4.295  1.00  0.00     0.053 C 
BRANCH   7   8
ATOM      8  C   UNL     1       6.116  10.972   4.903  1.00  0.00     0.041 C 
ATOM      9  O   UNL     1       6.747  10.117   5.577  1.00  0.00    -0.550 OA
ATOM     10  O   UNL     1       4.738  10.860   4.766  1.00  0.00    -0.550 OA
ENDBRANCH   7   8
ENDBRANCH   6   7
ENDBRANCH   5   6
ENDBRANCH   4   5
ENDBRANCH   3   4
ENDBRANCH   2   3
ENDBRANCH   1   2
BRANCH   1  11
ATOM     11  C   UNL     1       6.456  12.821   9.232  1.00  0.00     0.000 C 
BRANCH  11  12
ATOM     12  C   UNL     1       4.965  12.436   9.182  1.00  0.00    -0.000 C 
BRANCH  12  13
ATOM     13  C   UNL     1       4.588  11.400   8.103  1.00  0.00    -0.000 C 
BRANCH  13  14
ATOM     14  C   UNL     1       3.341  10.544   8.416  1.00  0.00    -0.000 C 
BRANCH  14  15
ATOM     15  C   UNL     1       2.886  10.577   9.888  1.00  0.00    -0.000 C 
BRANCH  15  16
ATOM     16  C   UNL     1       1.458  11.132  10.084  1.00  0.00    -0.000 C 
BRANCH  16  17
ATOM     17  C   UNL     1       1.320  12.614   9.696  1.00  0.00    -0.003 C 
ATOM     18  C   UNL     1      -0.034  12.937   9.068  1.00  0.00     0.004 C 
ENDBRANCH  16  17
ENDBRANCH  15  16
ENDBRANCH  14  15
ENDBRANCH  13  14
ENDBRANCH  12  13
ENDBRANCH  11  12
ENDBRANCH   1  11
TORSDOF 14
ENDMDL
MODEL 7
REMARK VINA RESULT:    -4.454      1.826      5.587
REMARK INTER + INTRA:          -9.560
REMARK INTER:                  -8.336
REMARK INTRA:                  -1.224
REMARK UNBOUND:                -1.461
REMARK SMILES CCCCCCCCCCCCCCCC(=O)[O-]
REMARK SMILES IDX 9 1 10 2 11 3 12 4 13 5 14 6 15 7 16 8 17 9 18 10 8 11 7 12
REMARK SMILES IDX 6 13 5 14 4 15 3 16 2 17 1 18
REMARK H PARENT
REMARK Flexibility Score: inf
ROOT
ATOM      1  C   UNL     1       8.491  10.909   7.481  1.00  0.00     0.000 C 
ENDROOT
BRANCH   1   2
ATOM      2  C   UNL     1       8.625  10.857   5.949  1.00  0.00     0.000 C 
BRANCH   2   3
ATOM      3  C   UNL     1       8.181  12.162   5.265  1.00  0.00     0.000 C 
BRANCH   3   4
ATOM      4  C   UNL     1       6.938  12.043   4.358  1.00  0.00     0.000 C 
BRANCH   4   5
ATOM      5  C   UNL     1       5.590  11.994   5.099  1.00  0.00     0.000 C 
BRANCH   5   6
ATOM      6  C   UNL     1       5.066  10.562   5.289  1.00  0.00     0.006 C 
BRANCH   6   7
ATOM      7  C   UNL     1       5.240  10.105   6.740  1.00  0.00     0.053 C 
BRANCH   7   8
ATOM      8  C   UNL     1       3.936   9.632   7.300  1.00  0.00     0.041 C 
ATOM      9  O   UNL     1       2.854  10.136   6.900  1.00  0.00    -0.550 OA
ATOM     10  O   UNL     1       3.912   8.599   8.230  1.00  0.00    -0.550 OA
ENDBRANCH   7   8
ENDBRANCH   6   7
ENDBRANCH   5   6
ENDBRANCH   4   5
ENDBRANCH   3   4
ENDBRANCH   2   3
ENDBRANCH   1   2
BRANCH   1  11
ATOM     11  C   UNL     1       8.811  12.298   8.062  1.00  0.00     0.000 C 
BRANCH  11  12
ATOM     12  C   UNL     1       7.597  13.074   8.609  1.00  0.00    -0.000 C 
BRANCH  12  13
ATOM     13  C   UNL     1       6.312  12.241   8.794  1.00  0.00    -0.000 C 
BRANCH  13  14
ATOM     14  C   UNL     1       4.998  13.050   8.823  1.00  0.00    -0.000 C 
BRANCH  14  15
ATOM     15  C   UNL     1       3.786  12.296   9.404  1.00  0.00    -0.000 C 
BRANCH  15  16
ATOM     16  C   UNL     1       2.482  13.125   9.407  1.00  0.00    -0.000 C 
BRANCH  16  17
ATOM     17  C   UNL     1       1.226  12.288   9.697  1.00  0.00    -0.003 C 
ATOM     18  C   UNL     1      -0.059  12.963   9.221  1.00  0.00     0.004 C 
ENDBRANCH  16  17
ENDBRANCH  15  16
ENDBRANCH  14  15
ENDBRANCH  13  14
ENDBRANCH  12  13
ENDBRANCH  11  12
ENDBRANCH   1  11
TORSDOF 14
ENDMDL
MODEL 8
REMARK VINA RESULT:    -4.293      2.325      6.107
REMARK INTER + INTRA:          -9.267
REMARK INTER:                  -7.810
REMARK INTRA:                  -1.458
REMARK UNBOUND:                -1.461
REMARK SMILES CCCCCCCCCCCCCCCC(=O)[O-]
REMARK SMILES IDX 9 1 10 2 11 3 12 4 13 5 14 6 15 7 16 8 17 9 18 10 8 11 7 12
REMARK SMILES IDX 6 13 5 14 4 15 3 16 2 17 1 18
REMARK H PARENT
REMARK Flexibility Score: inf
ROOT
ATOM      1  C   UNL     1       6.463  11.219   4.194  1.00  0.00     0.000 C 
ENDROOT
BRANCH   1   2
ATOM      2  C   UNL     1       7.213  12.552   4.030  1.00  0.00     0.000 C 
BRANCH   2   3
ATOM      3  C   UNL     1       8.727  12.366   3.821  1.00  0.00     0.000 C 
BRANCH   3   4
ATOM      4  C   UNL     1       9.610  12.735   5.032  1.00  0.00     0.000 C 
BRANCH   4   5
ATOM      5  C   UNL     1       9.935  11.570   5.983  1.00  0.00     0.000 C 
BRANCH   5   6
ATOM      6  C   UNL     1       8.748  11.182   6.878  1.00  0.00     0.006 C 
BRANCH   6   7
ATOM      7  C   UNL     1       8.729  12.023   8.157  1.00  0.00     0.053 C 
BRANCH   7   8
ATOM      8  C   UNL     1       7.385  12.648   8.354  1.00  0.00     0.041 C 
ATOM      9  O   UNL     1       6.757  13.124   7.372  1.00  0.00    -0.550 OA
ATOM     10  O   UNL     1       6.803  12.662   9.616  1.00  0.00    -0.550 OA
ENDBRANCH   7   8
ENDBRANCH   6   7
ENDBRANCH   5   6
ENDBRANCH   4   5
ENDBRANCH   3   4
ENDBRANCH   2   3
ENDBRANCH   1   2
BRANCH   1  11
ATOM     11  C   UNL     1       5.270  11.321   5.162  1.00  0.00     0.000 C 
BRANCH  11  12
ATOM     12  C   UNL     1       5.167  10.181   6.194  1.00  0.00    -0.000 C 
BRANCH  12  13
ATOM     13  C   UNL     1       4.051  10.345   7.246  1.00  0.00    -0.000 C 
BRANCH  13  14
ATOM     14  C   UNL     1       4.479  10.091   8.708  1.00  0.00    -0.000 C 
BRANCH  14  15
ATOM     15  C   UNL     1       3.739  10.945   9.757  1.00  0.00    -0.000 C 
BRANCH  15  16
ATOM     16  C   UNL     1       3.264  12.313   9.219  1.00  0.00    -0.000 C 
BRANCH  16  17
ATOM     17  C   UNL     1       1.746  12.524   9.340  1.00  0.00    -0.003 C 
ATOM     18  C   UNL     1       1.088  11.545  10.309  1.00  0.00     0.004 C 
ENDBRANCH  16  17
ENDBRANCH  15  16
ENDBRANCH  14  15
ENDBRANCH  13  14
ENDBRANCH  12  13
ENDBRANCH  11  12
ENDBRANCH   1  11
TORSDOF 14
ENDMDL
