MODEL 1
REMARK VINA RESULT:    -4.177      0.000      0.000
REMARK INTER + INTRA:          -8.705
REMARK INTER:                  -7.595
REMARK INTRA:                  -1.109
REMARK UNBOUND:                -1.109
REMARK SMILES CCCCCCCCCCCCCCCC(=O)[O-]
REMARK SMILES IDX 9 1 10 2 11 3 12 4 13 5 14 6 15 7 16 8 17 9 18 10 8 11 7 12
REMARK SMILES IDX 6 13 5 14 4 15 3 16 2 17 1 18
REMARK H PARENT
REMARK Flexibility Score: inf
ROOT
ATOM      1  C   UNL     1      22.382   6.439 -12.459  1.00  0.00     0.000 C 
ENDROOT
BRANCH   1   2
ATOM      2  C   UNL     1      21.813   7.027 -11.155  1.00  0.00     0.000 C 
BRANCH   2   3
ATOM      3  C   UNL     1      21.726   5.989 -10.026  1.00  0.00     0.000 C 
BRANCH   3   4
ATOM      4  C   UNL     1      20.333   5.934  -9.380  1.00  0.00     0.000 C 
BRANCH   4   5
ATOM      5  C   UNL     1      19.386   6.948 -10.033  1.00  0.00     0.000 C 
BRANCH   5   6
ATOM      6  C   UNL     1      18.205   6.239 -10.715  1.00  0.00     0.006 C 
BRANCH   6   7
ATOM      7  C   UNL     1      18.299   4.712 -10.596  1.00  0.00     0.053 C 
BRANCH   7   8
ATOM      8  C   UNL     1      16.953   4.062 -10.706  1.00  0.00     0.041 C 
ATOM      9  O   UNL     1      16.858   2.870 -11.100  1.00  0.00    -0.550 OA
ATOM     10  O   UNL     1      15.810   4.760 -10.340  1.00  0.00    -0.550 OA
ENDBRANCH   7   8
ENDBRANCH   6   7
ENDBRANCH   5   6
ENDBRANCH   4   5
ENDBRANCH   3   4
ENDBRANCH   2   3
ENDBRANCH   1   2
BRANCH   1  11
ATOM     11  C   UNL     1      21.852   5.026 -12.747  1.00  0.00     0.000 C 
BRANCH  11  12
ATOM     12  C   UNL     1      20.497   5.042 -13.474  1.00  0.00    -0.000 C 
BRANCH  12  13
ATOM     13  C   UNL     1      19.648   3.798 -13.167  1.00  0.00    -0.000 C 
BRANCH  13  14
ATOM     14  C   UNL     1      19.680   2.765 -14.308  1.00  0.00    -0.000 C 
BRANCH  14  15
ATOM     15  C   UNL     1      18.633   1.650 -14.114  1.00  0.00    -0.000 C 
BRANCH  15  16
ATOM     16  C   UNL     1      18.282   0.887 -15.407  1.00  0.00    -0.000 C 
BRANCH  16  17
ATOM     17  C   UNL     1      17.131  -0.125 -15.251  1.00  0.00    -0.003 C 
ATOM     18  C   UNL     1      17.064  -1.128 -16.403  1.00  0.00     0.004 C 
ENDBRANCH  16  17
ENDBRANCH  15  16
ENDBRANCH  14  15
ENDBRANCH  13  14
ENDBRANCH  12  13
ENDBRANCH  11  12
ENDBRANCH   1  11
TORSDOF 14
ENDMDL
MODEL 2
REMARK VINA RESULT:    -3.812      3.181      5.406
REMARK INTER + INTRA:          -8.042
REMARK INTER:                  -7.361
REMARK INTRA:                  -0.681
REMARK UNBOUND:                -1.109
REMARK SMILES CCCCCCCCCCCCCCCC(=O)[O-]
REMARK SMILES IDX 9 1 10 2 11 3 12 4 13 5 14 6 15 7 16 8 17 9 18 10 8 11 7 12
REMARK SMILES IDX 6 13 5 14 4 15 3 16 2 17 1 18
REMARK H PARENT
REMARK Flexibility Score: inf
ROOT
ATOM      1  C   UNL     1      21.827   7.010 -11.892  1.00  0.00     0.000 C 
ENDROOT
BRANCH   1   2
ATOM      2  C   UNL     1      21.901   7.123 -10.359  1.00  0.00     0.000 C 
BRANCH   2   3
ATOM      3  C   UNL     1      21.521   5.815  -9.650  1.00  0.00     0.000 C 
BRANCH   3   4
ATOM      4  C   UNL     1      20.047   5.785  -9.216  1.00  0.00     0.000 C 
BRANCH   4   5
ATOM      5  C   UNL     1      19.254   6.910  -9.891  1.00  0.00     0.000 C 
BRANCH   5   6
ATOM      6  C   UNL     1      18.133   6.340 -10.773  1.00  0.00     0.006 C 
BRANCH   6   7
ATOM      7  C   UNL     1      18.249   4.820 -10.950  1.00  0.00     0.053 C 
BRANCH   7   8
ATOM      8  C   UNL     1      16.933   4.133 -10.746  1.00  0.00     0.041 C 
ATOM      9  O   UNL     1      16.793   2.926 -11.072  1.00  0.00    -0.550 OA
ATOM     10  O   UNL     1      15.874   4.816 -10.163  1.00  0.00    -0.550 OA
ENDBRANCH   7   8
ENDBRANCH   6   7
ENDBRANCH   5   6
ENDBRANCH   4   5
ENDBRANCH   3   4
ENDBRANCH   2   3
ENDBRANCH   1   2
BRANCH   1  11
ATOM     11  C   UNL     1      21.393   5.612 -12.359  1.00  0.00     0.000 C 
BRANCH  11  12
ATOM     12  C   UNL     1      22.268   5.075 -13.504  1.00  0.00    -0.000 C 
BRANCH  12  13
ATOM     13  C   UNL     1      23.714   4.798 -13.062  1.00  0.00    -0.000 C 
BRANCH  13  14
ATOM     14  C   UNL     1      24.748   5.256 -14.106  1.00  0.00    -0.000 C 
BRANCH  14  15
ATOM     15  C   UNL     1      25.878   4.226 -14.298  1.00  0.00    -0.000 C 
BRANCH  15  16
ATOM     16  C   UNL     1      27.169   4.815 -14.901  1.00  0.00    -0.000 C 
BRANCH  16  17
ATOM     17  C   UNL     1      28.392   3.882 -14.810  1.00  0.00    -0.003 C 
ATOM     18  C   UNL     1      29.242   3.895 -16.080  1.00  0.00     0.004 C 
ENDBRANCH  16  17
ENDBRANCH  15  16
ENDBRANCH  14  15
ENDBRANCH  13  14
ENDBRANCH  12  13
ENDBRANCH  11  12
ENDBRANCH   1  11
TORSDOF 14
ENDMDL
MODEL 3
REMARK VINA RESULT:    -3.729      5.319      7.725
REMARK INTER + INTRA:          -7.891
REMARK INTER:                  -7.722
REMARK INTRA:                  -0.169
REMARK UNBOUND:                -1.109
REMARK SMILES CCCCCCCCCCCCCCCC(=O)[O-]
REMARK SMILES IDX 9 1 10 2 11 3 12 4 13 5 14 6 15 7 16 8 17 9 18 10 8 11 7 12
REMARK SMILES IDX 6 13 5 14 4 15 3 16 2 17 1 18
REMARK H PARENT
REMARK Flexibility Score: inf
ROOT
ATOM      1  C   UNL     1      21.205   6.878 -11.872  1.00  0.00     0.000 C 
ENDROOT
BRANCH   1   2
ATOM      2  C   UNL     1      21.890   5.717 -12.615  1.00  0.00     0.000 C 
BRANCH   2   3
ATOM      3  C   UNL     1      23.292   6.086 -13.124  1.00  0.00     0.000 C 
BRANCH   3   4
ATOM      4  C   UNL     1      24.190   4.856 -13.328  1.00  0.00     0.000 C 
BRANCH   4   5
ATOM      5  C   UNL     1      25.201   5.096 -14.456  1.00  0.00     0.000 C 
BRANCH   5   6
ATOM      6  C   UNL     1      26.396   4.138 -14.337  1.00  0.00     0.006 C 
BRANCH   6   7
ATOM      7  C   UNL     1      27.664   4.709 -14.985  1.00  0.00     0.053 C 
BRANCH   7   8
ATOM      8  C   UNL     1      28.753   3.683 -15.075  1.00  0.00     0.041 C 
ATOM      9  O   UNL     1      29.464   3.606 -16.110  1.00  0.00    -0.550 OA
ATOM     10  O   UNL     1      29.005   2.838 -14.002  1.00  0.00    -0.550 OA
ENDBRANCH   7   8
ENDBRANCH   6   7
ENDBRANCH   5   6
ENDBRANCH   4   5
ENDBRANCH   3   4
ENDBRANCH   2   3
ENDBRANCH   1   2
BRANCH   1  11
ATOM     11  C   UNL     1      21.810   7.125 -10.481  1.00  0.00     0.000 C 
BRANCH  11  12
ATOM     12  C   UNL     1      21.617   5.929  -9.533  1.00  0.00    -0.000 C 
BRANCH  12  13
ATOM     13  C   UNL     1      20.135   5.599  -9.293  1.00  0.00    -0.000 C 
BRANCH  13  14
ATOM     14  C   UNL     1      19.191   6.673  -9.861  1.00  0.00    -0.000 C 
BRANCH  14  15
ATOM     15  C   UNL     1      18.157   6.083 -10.841  1.00  0.00    -0.000 C 
BRANCH  15  16
ATOM     16  C   UNL     1      18.388   4.596 -11.174  1.00  0.00    -0.000 C 
BRANCH  16  17
ATOM     17  C   UNL     1      17.197   3.679 -10.833  1.00  0.00    -0.003 C 
ATOM     18  C   UNL     1      15.881   4.445 -10.698  1.00  0.00     0.004 C 
ENDBRANCH  16  17
ENDBRANCH  15  16
ENDBRANCH  14  15
ENDBRANCH  13  14
ENDBRANCH  12  13
ENDBRANCH  11  12
ENDBRANCH   1  11
TORSDOF 14
ENDMDL
MODEL 4
REMARK VINA RESULT:    -3.619      2.583      5.596
REMARK INTER + INTRA:          -7.691
REMARK INTER:                  -6.550
REMARK INTRA:                  -1.141
REMARK UNBOUND:                -1.109
REMARK SMILES CCCCCCCCCCCCCCCC(=O)[O-]
REMARK SMILES IDX 9 1 10 2 11 3 12 4 13 5 14 6 15 7 16 8 17 9 18 10 8 11 7 12
REMARK SMILES IDX 6 13 5 14 4 15 3 16 2 17 1 18
REMARK H PARENT
REMARK Flexibility Score: inf
ROOT
ATOM      1  C   UNL     1      21.332   6.440 -12.277  1.00  0.00     0.000 C 
ENDROOT
BRANCH   1   2
ATOM      2  C   UNL     1      21.447   5.168 -13.137  1.00  0.00     0.000 C 
BRANCH   2   3
ATOM      3  C   UNL     1      20.079   4.545 -13.456  1.00  0.00     0.000 C 
BRANCH   3   4
ATOM      4  C   UNL     1      20.195   3.113 -14.000  1.00  0.00     0.000 C 
BRANCH   4   5
ATOM      5  C   UNL     1      18.905   2.324 -13.744  1.00  0.00     0.000 C 
BRANCH   5   6
ATOM      6  C   UNL     1      18.469   1.558 -15.003  1.00  0.00     0.006 C 
BRANCH   6   7
ATOM      7  C   UNL     1      17.742   0.251 -14.665  1.00  0.00     0.053 C 
BRANCH   7   8
ATOM      8  C   UNL     1      17.297  -0.474 -15.899  1.00  0.00     0.041 C 
ATOM      9  O   UNL     1      16.907  -1.669 -15.823  1.00  0.00    -0.550 OA
ATOM     10  O   UNL     1      17.281   0.180 -17.124  1.00  0.00    -0.550 OA
ENDBRANCH   7   8
ENDBRANCH   6   7
ENDBRANCH   5   6
ENDBRANCH   4   5
ENDBRANCH   3   4
ENDBRANCH   2   3
ENDBRANCH   1   2
BRANCH   1  11
ATOM     11  C   UNL     1      22.238   6.395 -11.036  1.00  0.00     0.000 C 
BRANCH  11  12
ATOM     12  C   UNL     1      21.473   6.697  -9.737  1.00  0.00    -0.000 C 
BRANCH  12  13
ATOM     13  C   UNL     1      20.176   5.881  -9.611  1.00  0.00    -0.000 C 
BRANCH  13  14
ATOM     14  C   UNL     1      18.922   6.711  -9.939  1.00  0.00    -0.000 C 
BRANCH  14  15
ATOM     15  C   UNL     1      17.912   5.925 -10.799  1.00  0.00    -0.000 C 
BRANCH  15  16
ATOM     16  C   UNL     1      18.158   4.403 -10.822  1.00  0.00    -0.000 C 
BRANCH  16  17
ATOM     17  C   UNL     1      16.877   3.554 -10.706  1.00  0.00    -0.003 C 
ATOM     18  C   UNL     1      15.602   4.395 -10.774  1.00  0.00     0.004 C 
ENDBRANCH  16  17
ENDBRANCH  15  16
ENDBRANCH  14  15
ENDBRANCH  13  14
ENDBRANCH  12  13
ENDBRANCH  11  12
ENDBRANCH   1  11
TORSDOF 14
ENDMDL
MODEL 5
REMARK VINA RESULT:    -3.200      3.022      5.686
REMARK INTER + INTRA:          -6.928
REMARK INTER:                  -6.008
REMARK INTRA:                  -0.919
REMARK UNBOUND:                -1.109
REMARK SMILES CCCCCCCCCCCCCCCC(=O)[O-]
REMARK SMILES IDX 9 1 10 2 11 3 12 4 13 5 14 6 15 7 16 8 17 9 18 10 8 11 7 12
REMARK SMILES IDX 6 13 5 14 4 15 3 16 2 17 1 18
REMARK H PARENT
REMARK Flexibility Score: inf
ROOT
ATOM      1  C   UNL     1      21.477   6.782  -9.584  1.00  0.00     0.000 C 
ENDROOT
BRANCH   1   2
ATOM      2  C   UNL     1      20.257   5.846  -9.509  1.00  0.00     0.000 C 
BRANCH   2   3
ATOM      3  C   UNL     1      18.927   6.593  -9.689  1.00  0.00     0.000 C 
BRANCH   3   4
ATOM      4  C   UNL     1      18.176   6.163 -10.959  1.00  0.00     0.000 C 
BRANCH   4   5
ATOM      5  C   UNL     1      17.337   4.906 -10.701  1.00  0.00     0.000 C 
BRANCH   5   6
ATOM      6  C   UNL     1      17.893   3.704 -11.480  1.00  0.00     0.006 C 
BRANCH   6   7
ATOM      7  C   UNL     1      19.104   4.081 -12.342  1.00  0.00     0.053 C 
BRANCH   7   8
ATOM      8  C   UNL     1      19.318   3.106 -13.459  1.00  0.00     0.041 C 
ATOM      9  O   UNL     1      20.113   3.382 -14.395  1.00  0.00    -0.550 OA
ATOM     10  O   UNL     1      18.666   1.880 -13.448  1.00  0.00    -0.550 OA
ENDBRANCH   7   8
ENDBRANCH   6   7
ENDBRANCH   5   6
ENDBRANCH   4   5
ENDBRANCH   3   4
ENDBRANCH   2   3
ENDBRANCH   1   2
BRANCH   1  11
ATOM     11  C   UNL     1      21.869   7.124 -11.029  1.00  0.00     0.000 C 
BRANCH  11  12
ATOM     12  C   UNL     1      22.063   5.872 -11.900  1.00  0.00    -0.000 C 
BRANCH  12  13
ATOM     13  C   UNL     1      22.974   6.128 -13.110  1.00  0.00    -0.000 C 
BRANCH  13  14
ATOM     14  C   UNL     1      23.807   4.893 -13.495  1.00  0.00    -0.000 C 
BRANCH  14  15
ATOM     15  C   UNL     1      25.098   5.271 -14.249  1.00  0.00    -0.000 C 
BRANCH  15  16
ATOM     16  C   UNL     1      26.179   4.173 -14.232  1.00  0.00    -0.000 C 
BRANCH  16  17
ATOM     17  C   UNL     1      27.454   4.529 -15.022  1.00  0.00    -0.003 C 
ATOM     18  C   UNL     1      28.633   3.617 -14.684  1.00  0.00     0.004 C 
ENDBRANCH  16  17
ENDBRANCH  15  16
ENDBRANCH  14  15
ENDBRANCH  13  14
ENDBRANCH  12  13
ENDBRANCH  11  12
ENDBRANCH   1  11
TORSDOF 14
ENDMDL
MODEL 6
REMARK VINA RESULT:    -3.075      4.930      7.193
REMARK INTER + INTRA:          -6.700
REMARK INTER:                  -5.609
REMARK INTRA:                  -1.092
REMARK UNBOUND:                -1.109
REMARK SMILES CCCCCCCCCCCCCCCC(=O)[O-]
REMARK SMILES IDX 9 1 10 2 11 3 12 4 13 5 14 6 15 7 16 8 17 9 18 10 8 11 7 12
REMARK SMILES IDX 6 13 5 14 4 15 3 16 2 17 1 18
REMARK H PARENT
REMARK Flexibility Score: inf
ROOT
ATOM      1  C   UNL     1      21.927   5.797 -11.129  1.00  0.00     0.000 C 
ENDROOT
BRANCH   1   2
ATOM      2  C   UNL     1      22.037   6.889 -12.209  1.00  0.00     0.000 C 
BRANCH   2   3
ATOM      3  C   UNL     1      23.365   6.827 -12.979  1.00  0.00     0.000 C 
BRANCH   3   4
ATOM      4  C   UNL     1      23.809   5.387 -13.278  1.00  0.00     0.000 C 
BRANCH   4   5
ATOM      5  C   UNL     1      24.768   5.346 -14.473  1.00  0.00     0.000 C 
BRANCH   5   6
ATOM      6  C   UNL     1      26.005   4.491 -14.157  1.00  0.00     0.006 C 
BRANCH   6   7
ATOM      7  C   UNL     1      27.228   4.911 -14.982  1.00  0.00     0.053 C 
BRANCH   7   8
ATOM      8  C   UNL     1      28.323   3.890 -14.916  1.00  0.00     0.041 C 
ATOM      9  O   UNL     1      29.128   3.764 -15.875  1.00  0.00    -0.550 OA
ATOM     10  O   UNL     1      28.474   3.104 -13.782  1.00  0.00    -0.550 OA
ENDBRANCH   7   8
ENDBRANCH   6   7
ENDBRANCH   5   6
ENDBRANCH   4   5
ENDBRANCH   3   4
ENDBRANCH   2   3
ENDBRANCH   1   2
BRANCH   1  11
ATOM     11  C   UNL     1      21.604   6.371  -9.742  1.00  0.00     0.000 C 
BRANCH  11  12
ATOM     12  C   UNL     1      20.151   6.099  -9.315  1.00  0.00    -0.000 C 
BRANCH  12  13
ATOM     13  C   UNL     1      19.139   6.970 -10.075  1.00  0.00    -0.000 C 
BRANCH  13  14
ATOM     14  C   UNL     1      18.281   6.156 -11.060  1.00  0.00    -0.000 C 
BRANCH  14  15
ATOM     15  C   UNL     1      18.207   4.665 -10.674  1.00  0.00    -0.000 C 
BRANCH  15  16
ATOM     16  C   UNL     1      18.096   3.710 -11.879  1.00  0.00    -0.000 C 
BRANCH  16  17
ATOM     17  C   UNL     1      19.303   3.758 -12.837  1.00  0.00    -0.003 C 
ATOM     18  C   UNL     1      19.301   2.612 -13.848  1.00  0.00     0.004 C 
ENDBRANCH  16  17
ENDBRANCH  15  16
ENDBRANCH  14  15
ENDBRANCH  13  14
ENDBRANCH  12  13
ENDBRANCH  11  12
ENDBRANCH   1  11
TORSDOF 14
ENDMDL
MODEL 7
REMARK VINA RESULT:    -2.978      2.342      5.225
REMARK INTER + INTRA:          -6.525
REMARK INTER:                  -5.569
REMARK INTRA:                  -0.957
REMARK UNBOUND:                -1.109
REMARK SMILES CCCCCCCCCCCCCCCC(=O)[O-]
REMARK SMILES IDX 9 1 10 2 11 3 12 4 13 5 14 6 15 7 16 8 17 9 18 10 8 11 7 12
REMARK SMILES IDX 6 13 5 14 4 15 3 16 2 17 1 18
REMARK H PARENT
REMARK Flexibility Score: inf
ROOT
ATOM      1  C   UNL     1      19.993   5.188  -9.382  1.00  0.00     0.000 C 
ENDROOT
BRANCH   1   2
ATOM      2  C   UNL     1      19.019   6.332  -9.719  1.00  0.00     0.000 C 
BRANCH   2   3
ATOM      3  C   UNL     1      18.187   6.048 -10.979  1.00  0.00     0.000 C 
BRANCH   3   4
ATOM      4  C   UNL     1      16.933   5.212 -10.684  1.00  0.00     0.000 C 
BRANCH   4   5
ATOM      5  C   UNL     1      17.224   3.714 -10.837  1.00  0.00     0.000 C 
BRANCH   5   6
ATOM      6  C   UNL     1      18.358   3.475 -11.846  1.00  0.00     0.006 C 
BRANCH   6   7
ATOM      7  C   UNL     1      18.159   2.181 -12.646  1.00  0.00     0.053 C 
BRANCH   7   8
ATOM      8  C   UNL     1      18.878   2.223 -13.960  1.00  0.00     0.041 C 
ATOM      9  O   UNL     1      18.667   1.332 -14.824  1.00  0.00    -0.550 OA
ATOM     10  O   UNL     1      19.754   3.263 -14.243  1.00  0.00    -0.550 OA
ENDBRANCH   7   8
ENDBRANCH   6   7
ENDBRANCH   5   6
ENDBRANCH   4   5
ENDBRANCH   3   4
ENDBRANCH   2   3
ENDBRANCH   1   2
BRANCH   1  11
ATOM     11  C   UNL     1      21.453   5.660  -9.316  1.00  0.00     0.000 C 
BRANCH  11  12
ATOM     12  C   UNL     1      21.636   7.090  -9.851  1.00  0.00    -0.000 C 
BRANCH  12  13
ATOM     13  C   UNL     1      22.352   7.125 -11.211  1.00  0.00    -0.000 C 
BRANCH  13  14
ATOM     14  C   UNL     1      21.405   6.816 -12.385  1.00  0.00    -0.000 C 
BRANCH  14  15
ATOM     15  C   UNL     1      21.490   5.342 -12.829  1.00  0.00    -0.000 C 
BRANCH  15  16
ATOM     16  C   UNL     1      22.926   4.785 -12.886  1.00  0.00    -0.000 C 
BRANCH  16  17
ATOM     17  C   UNL     1      23.905   5.647 -13.708  1.00  0.00    -0.003 C 
ATOM     18  C   UNL     1      25.167   4.885 -14.112  1.00  0.00     0.004 C 
ENDBRANCH  16  17
ENDBRANCH  15  16
ENDBRANCH  14  15
ENDBRANCH  13  14
ENDBRANCH  12  13
ENDBRANCH  11  12
ENDBRANCH   1  11
TORSDOF 14
ENDMDL
MODEL 8
REMARK VINA RESULT:    -2.966      3.480      5.835
REMARK INTER + INTRA:          -6.503
REMARK INTER:                  -5.600
REMARK INTRA:                  -0.903
REMARK UNBOUND:                -1.109
REMARK SMILES CCCCCCCCCCCCCCCC(=O)[O-]
REMARK SMILES IDX 9 1 10 2 11 3 12 4 13 5 14 6 15 7 16 8 17 9 18 10 8 11 7 12
REMARK SMILES IDX 6 13 5 14 4 15 3 16 2 17 1 18
REMARK H PARENT
REMARK Flexibility Score: inf
ROOT
ATOM      1  C   UNL     1      21.468   4.792 -13.009  1.00  0.00     0.000 C 
ENDROOT
BRANCH   1   2
ATOM      2  C   UNL     1      20.132   5.335 -13.549  1.00  0.00     0.000 C 
BRANCH   2   3
ATOM      3  C   UNL     1      19.870   6.789 -13.127  1.00  0.00     0.000 C 
BRANCH   3   4
ATOM      4  C   UNL     1      18.672   6.922 -12.176  1.00  0.00     0.000 C 
BRANCH   4   5
ATOM      5  C   UNL     1      19.067   6.553 -10.741  1.00  0.00     0.000 C 
BRANCH   5   6
ATOM      6  C   UNL     1      18.497   5.181 -10.348  1.00  0.00     0.006 C 
BRANCH   6   7
ATOM      7  C   UNL     1      16.970   5.207 -10.205  1.00  0.00     0.053 C 
BRANCH   7   8
ATOM      8  C   UNL     1      16.327   4.034 -10.879  1.00  0.00     0.041 C 
ATOM      9  O   UNL     1      17.003   3.002 -11.132  1.00  0.00    -0.550 OA
ATOM     10  O   UNL     1      14.975   4.066 -11.196  1.00  0.00    -0.550 OA
ENDBRANCH   7   8
ENDBRANCH   6   7
ENDBRANCH   5   6
ENDBRANCH   4   5
ENDBRANCH   3   4
ENDBRANCH   2   3
ENDBRANCH   1   2
BRANCH   1  11
ATOM     11  C   UNL     1      22.294   5.871 -12.291  1.00  0.00     0.000 C 
BRANCH  11  12
ATOM     12  C   UNL     1      23.593   6.214 -13.039  1.00  0.00    -0.000 C 
BRANCH  12  13
ATOM     13  C   UNL     1      24.125   5.037 -13.872  1.00  0.00    -0.000 C 
BRANCH  13  14
ATOM     14  C   UNL     1      25.485   5.341 -14.523  1.00  0.00    -0.000 C 
BRANCH  14  15
ATOM     15  C   UNL     1      26.455   4.146 -14.431  1.00  0.00    -0.000 C 
BRANCH  15  16
ATOM     16  C   UNL     1      27.880   4.454 -14.934  1.00  0.00    -0.000 C 
BRANCH  16  17
ATOM     17  C   UNL     1      28.806   3.224 -15.000  1.00  0.00    -0.003 C 
ATOM     18  C   UNL     1      29.238   2.734 -13.618  1.00  0.00     0.004 C 
ENDBRANCH  16  17
ENDBRANCH  15  16
ENDBRANCH  14  15
ENDBRANCH  13  14
ENDBRANCH  12  13
ENDBRANCH  11  12
ENDBRANCH   1  11
TORSDOF 14
ENDMDL
MODEL 9
REMARK VINA RESULT:    -2.664      2.676      6.559
REMARK INTER + INTRA:          -5.955
REMARK INTER:                  -5.105
REMARK INTRA:                  -0.850
REMARK UNBOUND:                -1.109
REMARK SMILES CCCCCCCCCCCCCCCC(=O)[O-]
REMARK SMILES IDX 9 1 10 2 11 3 12 4 13 5 14 6 15 7 16 8 17 9 18 10 8 11 7 12
REMARK SMILES IDX 6 13 5 14 4 15 3 16 2 17 1 18
REMARK H PARENT
REMARK Flexibility Score: inf
ROOT
ATOM      1  C   UNL     1      17.023   4.188 -11.152  1.00  0.00     0.000 C 
ENDROOT
BRANCH   1   2
ATOM      2  C   UNL     1      18.323   3.463 -11.545  1.00  0.00     0.000 C 
BRANCH   2   3
ATOM      3  C   UNL     1      19.007   4.096 -12.766  1.00  0.00     0.000 C 
BRANCH   3   4
ATOM      4  C   UNL     1      19.487   3.049 -13.783  1.00  0.00     0.000 C 
BRANCH   4   5
ATOM      5  C   UNL     1      18.651   1.767 -13.686  1.00  0.00     0.000 C 
BRANCH   5   6
ATOM      6  C   UNL     1      18.364   1.190 -15.081  1.00  0.00     0.006 C 
BRANCH   6   7
ATOM      7  C   UNL     1      17.435  -0.030 -15.024  1.00  0.00     0.053 C 
BRANCH   7   8
ATOM      8  C   UNL     1      17.121  -0.554 -16.392  1.00  0.00     0.041 C 
ATOM      9  O   UNL     1      17.165   0.214 -17.389  1.00  0.00    -0.550 OA
ATOM     10  O   UNL     1      16.814  -1.897 -16.570  1.00  0.00    -0.550 OA
ENDBRANCH   7   8
ENDBRANCH   6   7
ENDBRANCH   5   6
ENDBRANCH   4   5
ENDBRANCH   3   4
ENDBRANCH   2   3
ENDBRANCH   1   2
BRANCH   1  11
ATOM     11  C   UNL     1      17.281   5.435 -10.293  1.00  0.00     0.000 C 
BRANCH  11  12
ATOM     12  C   UNL     1      18.247   6.425 -10.966  1.00  0.00    -0.000 C 
BRANCH  12  13
ATOM     13  C   UNL     1      19.320   6.953 -10.000  1.00  0.00    -0.000 C 
BRANCH  13  14
ATOM     14  C   UNL     1      20.579   6.070  -9.975  1.00  0.00    -0.000 C 
BRANCH  14  15
ATOM     15  C   UNL     1      21.793   6.767 -10.622  1.00  0.00    -0.000 C 
BRANCH  15  16
ATOM     16  C   UNL     1      21.888   6.572 -12.149  1.00  0.00    -0.000 C 
BRANCH  16  17
ATOM     17  C   UNL     1      22.432   5.195 -12.577  1.00  0.00    -0.003 C 
ATOM     18  C   UNL     1      23.760   5.291 -13.328  1.00  0.00     0.004 C 
ENDBRANCH  16  17
ENDBRANCH  15  16
ENDBRANCH  14  15
ENDBRANCH  13  14
ENDBRANCH  12  13
ENDBRANCH  11  12
ENDBRANCH   1  11
TORSDOF 14
ENDMDL
