MODEL 1
REMARK VINA RESULT:    -2.850      0.000      0.000
REMARK INTER + INTRA:          -8.718
REMARK INTER:                  -5.515
REMARK INTRA:                  -3.203
REMARK UNBOUND:                -3.203
REMARK SMILES CCCCCCCCCCCCCCCCCC(=O)[O-]
REMARK SMILES IDX 10 1 11 2 12 3 13 4 14 5 15 6 16 7 17 8 18 9 19 10 20 11
REMARK SMILES IDX 9 12 8 13 7 14 6 15 5 16 4 17 3 18 2 19 1 20
REMARK H PARENT
REMARK Flexibility Score: inf
ROOT
ATOM      1  C   UNL     1      -5.231  -5.077   7.510  1.00  0.00     0.000 C 
ENDROOT
BRANCH   1   2
ATOM      2  C   UNL     1      -4.513  -4.996   8.867  1.00  0.00     0.000 C 
BRANCH   2   3
ATOM      3  C   UNL     1      -4.891  -6.152   9.809  1.00  0.00     0.000 C 
BRANCH   3   4
ATOM      4  C   UNL     1      -5.983  -7.066   9.224  1.00  0.00     0.000 C 
BRANCH   4   5
ATOM      5  C   UNL     1      -5.573  -8.540   9.059  1.00  0.00     0.000 C 
BRANCH   5   6
ATOM      6  C   UNL     1      -4.805  -8.806   7.756  1.00  0.00     0.000 C 
BRANCH   6   7
ATOM      7  C   UNL     1      -3.317  -9.050   8.036  1.00  0.00     0.006 C 
BRANCH   7   8
ATOM      8  C   UNL     1      -2.466  -7.868   7.559  1.00  0.00     0.053 C 
BRANCH   8   9
ATOM      9  C   UNL     1      -2.425  -7.825   6.064  1.00  0.00     0.041 C 
ATOM     10  O   UNL     1      -1.851  -8.741   5.419  1.00  0.00    -0.550 OA
ATOM     11  O   UNL     1      -2.970  -6.743   5.386  1.00  0.00    -0.550 OA
ENDBRANCH   8   9
ENDBRANCH   7   8
ENDBRANCH   6   7
ENDBRANCH   5   6
ENDBRANCH   4   5
ENDBRANCH   3   4
ENDBRANCH   2   3
ENDBRANCH   1   2
BRANCH   1  12
ATOM     12  C   UNL     1      -5.888  -3.745   7.111  1.00  0.00     0.000 C 
BRANCH  12  13
ATOM     13  C   UNL     1      -6.246  -2.877   8.327  1.00  0.00    -0.000 C 
BRANCH  13  14
ATOM     14  C   UNL     1      -7.731  -2.980   8.714  1.00  0.00    -0.000 C 
BRANCH  14  15
ATOM     15  C   UNL     1      -7.920  -3.898   9.927  1.00  0.00    -0.000 C 
BRANCH  15  16
ATOM     16  C   UNL     1      -8.901  -5.036   9.610  1.00  0.00    -0.000 C 
BRANCH  16  17
ATOM     17  C   UNL     1      -9.426  -4.979   8.166  1.00  0.00    -0.000 C 
BRANCH  17  18
ATOM     18  C   UNL     1      -9.063  -6.236   7.356  1.00  0.00    -0.000 C 
BRANCH  18  19
ATOM     19  C   UNL     1      -8.614  -5.903   5.924  1.00  0.00    -0.003 C 
ATOM     20  C   UNL     1      -9.128  -4.545   5.445  1.00  0.00     0.004 C 
ENDBRANCH  18  19
ENDBRANCH  17  18
ENDBRANCH  16  17
ENDBRANCH  15  16
ENDBRANCH  14  15
ENDBRANCH  13  14
ENDBRANCH  12  13
ENDBRANCH   1  12
TORSDOF 16
ENDMDL
MODEL 2
REMARK VINA RESULT:    -2.742     19.647     21.989
REMARK INTER + INTRA:          -8.509
REMARK INTER:                  -6.560
REMARK INTRA:                  -1.949
REMARK UNBOUND:                -3.203
REMARK SMILES CCCCCCCCCCCCCCCCCC(=O)[O-]
REMARK SMILES IDX 10 1 11 2 12 3 13 4 14 5 15 6 16 7 17 8 18 9 19 10 20 11
REMARK SMILES IDX 9 12 8 13 7 14 6 15 5 16 4 17 3 18 2 19 1 20
REMARK H PARENT
REMARK Flexibility Score: inf
ROOT
ATOM      1  C   UNL     1       4.421   3.352  -6.867  1.00  0.00     0.000 C 
ENDROOT
BRANCH   1   2
ATOM      2  C   UNL     1       5.286   4.359  -6.092  1.00  0.00     0.000 C 
BRANCH   2   3
ATOM      3  C   UNL     1       6.504   4.840  -6.898  1.00  0.00     0.000 C 
BRANCH   3   4
ATOM      4  C   UNL     1       6.498   6.361  -7.140  1.00  0.00     0.000 C 
BRANCH   4   5
ATOM      5  C   UNL     1       7.008   7.206  -5.959  1.00  0.00     0.000 C 
BRANCH   5   6
ATOM      6  C   UNL     1       6.262   8.540  -5.811  1.00  0.00     0.000 C 
BRANCH   6   7
ATOM      7  C   UNL     1       5.713   8.706  -4.389  1.00  0.00     0.006 C 
BRANCH   7   8
ATOM      8  C   UNL     1       6.041   7.484  -3.525  1.00  0.00     0.053 C 
BRANCH   8   9
ATOM      9  C   UNL     1       6.122   7.871  -2.082  1.00  0.00     0.041 C 
ATOM     10  O   UNL     1       6.650   7.091  -1.246  1.00  0.00    -0.550 OA
ATOM     11  O   UNL     1       5.561   9.066  -1.652  1.00  0.00    -0.550 OA
ENDBRANCH   8   9
ENDBRANCH   7   8
ENDBRANCH   6   7
ENDBRANCH   5   6
ENDBRANCH   4   5
ENDBRANCH   3   4
ENDBRANCH   2   3
ENDBRANCH   1   2
BRANCH   1  12
ATOM     12  C   UNL     1       4.255   3.734  -8.348  1.00  0.00     0.000 C 
BRANCH  12  13
ATOM     13  C   UNL     1       4.579   2.569  -9.296  1.00  0.00    -0.000 C 
BRANCH  13  14
ATOM     14  C   UNL     1       5.487   1.511  -8.648  1.00  0.00    -0.000 C 
BRANCH  14  15
ATOM     15  C   UNL     1       6.945   1.700  -9.081  1.00  0.00    -0.000 C 
BRANCH  15  16
ATOM     16  C   UNL     1       7.899   1.541  -7.888  1.00  0.00    -0.000 C 
BRANCH  16  17
ATOM     17  C   UNL     1       7.185   1.041  -6.622  1.00  0.00    -0.000 C 
BRANCH  17  18
ATOM     18  C   UNL     1       7.921  -0.133  -5.952  1.00  0.00    -0.000 C 
BRANCH  18  19
ATOM     19  C   UNL     1       6.979  -1.296  -5.606  1.00  0.00    -0.003 C 
ATOM     20  C   UNL     1       5.961  -1.581  -6.711  1.00  0.00     0.004 C 
ENDBRANCH  18  19
ENDBRANCH  17  18
ENDBRANCH  16  17
ENDBRANCH  15  16
ENDBRANCH  14  15
ENDBRANCH  13  14
ENDBRANCH  12  13
ENDBRANCH   1  12
TORSDOF 16
ENDMDL
MODEL 3
REMARK VINA RESULT:    -2.728      1.449      3.210
REMARK INTER + INTRA:          -8.482
REMARK INTER:                  -6.134
REMARK INTRA:                  -2.348
REMARK UNBOUND:                -3.203
REMARK SMILES CCCCCCCCCCCCCCCCCC(=O)[O-]
REMARK SMILES IDX 10 1 11 2 12 3 13 4 14 5 15 6 16 7 17 8 18 9 19 10 20 11
REMARK SMILES IDX 9 12 8 13 7 14 6 15 5 16 4 17 3 18 2 19 1 20
REMARK H PARENT
REMARK Flexibility Score: inf
ROOT
ATOM      1  C   UNL     1      -7.036  -4.130   6.652  1.00  0.00     0.000 C 
ENDROOT
BRANCH   1   2
ATOM      2  C   UNL     1      -5.848  -3.950   7.612  1.00  0.00     0.000 C 
BRANCH   2   3
ATOM      3  C   UNL     1      -4.814  -5.083   7.495  1.00  0.00     0.000 C 
BRANCH   3   4
ATOM      4  C   UNL     1      -4.341  -5.603   8.865  1.00  0.00     0.000 C 
BRANCH   4   5
ATOM      5  C   UNL     1      -3.311  -6.746   8.802  1.00  0.00     0.000 C 
BRANCH   5   6
ATOM      6  C   UNL     1      -3.960  -8.138   8.802  1.00  0.00     0.000 C 
BRANCH   6   7
ATOM      7  C   UNL     1      -3.295  -9.053   7.767  1.00  0.00     0.006 C 
BRANCH   7   8
ATOM      8  C   UNL     1      -3.797  -8.742   6.353  1.00  0.00     0.053 C 
BRANCH   8   9
ATOM      9  C   UNL     1      -2.707  -8.122   5.537  1.00  0.00     0.041 C 
ATOM     10  O   UNL     1      -2.775  -6.908   5.209  1.00  0.00    -0.550 OA
ATOM     11  O   UNL     1      -1.647  -8.898   5.089  1.00  0.00    -0.550 OA
ENDBRANCH   8   9
ENDBRANCH   7   8
ENDBRANCH   6   7
ENDBRANCH   5   6
ENDBRANCH   4   5
ENDBRANCH   3   4
ENDBRANCH   2   3
ENDBRANCH   1   2
BRANCH   1  12
ATOM     12  C   UNL     1      -8.390  -4.117   7.382  1.00  0.00     0.000 C 
BRANCH  12  13
ATOM     13  C   UNL     1      -9.581  -4.049   6.412  1.00  0.00    -0.000 C 
BRANCH  13  14
ATOM     14  C   UNL     1      -9.202  -4.455   4.979  1.00  0.00    -0.000 C 
BRANCH  14  15
ATOM     15  C   UNL     1     -10.023  -5.665   4.517  1.00  0.00    -0.000 C 
BRANCH  15  16
ATOM     16  C   UNL     1      -9.115  -6.752   3.923  1.00  0.00    -0.000 C 
BRANCH  16  17
ATOM     17  C   UNL     1      -8.932  -7.951   4.868  1.00  0.00    -0.000 C 
BRANCH  17  18
ATOM     18  C   UNL     1      -9.733  -7.802   6.174  1.00  0.00    -0.000 C 
BRANCH  18  19
ATOM     19  C   UNL     1      -8.834  -7.807   7.420  1.00  0.00    -0.003 C 
ATOM     20  C   UNL     1      -7.345  -7.768   7.072  1.00  0.00     0.004 C 
ENDBRANCH  18  19
ENDBRANCH  17  18
ENDBRANCH  16  17
ENDBRANCH  15  16
ENDBRANCH  14  15
ENDBRANCH  13  14
ENDBRANCH  12  13
ENDBRANCH   1  12
TORSDOF 16
ENDMDL
MODEL 4
REMARK VINA RESULT:    -2.726     19.302     21.726
REMARK INTER + INTRA:          -8.478
REMARK INTER:                  -7.014
REMARK INTRA:                  -1.464
REMARK UNBOUND:                -3.203
REMARK SMILES CCCCCCCCCCCCCCCCCC(=O)[O-]
REMARK SMILES IDX 10 1 11 2 12 3 13 4 14 5 15 6 16 7 17 8 18 9 19 10 20 11
REMARK SMILES IDX 9 12 8 13 7 14 6 15 5 16 4 17 3 18 2 19 1 20
REMARK H PARENT
REMARK Flexibility Score: inf
ROOT
ATOM      1  C   UNL     1       8.443   6.371  -4.479  1.00  0.00     0.000 C 
ENDROOT
BRANCH   1   2
ATOM      2  C   UNL     1       7.975   7.242  -3.300  1.00  0.00     0.000 C 
BRANCH   2   3
ATOM      3  C   UNL     1       6.493   7.022  -2.952  1.00  0.00     0.000 C 
BRANCH   3   4
ATOM      4  C   UNL     1       5.606   8.222  -3.330  1.00  0.00     0.000 C 
BRANCH   4   5
ATOM      5  C   UNL     1       5.925   9.526  -2.577  1.00  0.00     0.000 C 
BRANCH   5   6
ATOM      6  C   UNL     1       5.208   9.627  -1.223  1.00  0.00     0.000 C 
BRANCH   6   7
ATOM      7  C   UNL     1       6.180  10.061  -0.119  1.00  0.00     0.006 C 
BRANCH   7   8
ATOM      8  C   UNL     1       6.281   8.994   0.976  1.00  0.00     0.053 C 
BRANCH   8   9
ATOM      9  C   UNL     1       7.254   7.930   0.579  1.00  0.00     0.041 C 
ATOM     10  O   UNL     1       6.984   6.716   0.782  1.00  0.00    -0.550 OA
ATOM     11  O   UNL     1       8.485   8.280   0.041  1.00  0.00    -0.550 OA
ENDBRANCH   8   9
ENDBRANCH   7   8
ENDBRANCH   6   7
ENDBRANCH   5   6
ENDBRANCH   4   5
ENDBRANCH   3   4
ENDBRANCH   2   3
ENDBRANCH   1   2
BRANCH   1  12
ATOM     12  C   UNL     1       7.965   6.912  -5.837  1.00  0.00     0.000 C 
BRANCH  12  13
ATOM     13  C   UNL     1       7.386   5.810  -6.738  1.00  0.00    -0.000 C 
BRANCH  13  14
ATOM     14  C   UNL     1       6.027   5.289  -6.241  1.00  0.00    -0.000 C 
BRANCH  14  15
ATOM     15  C   UNL     1       5.471   4.219  -7.188  1.00  0.00    -0.000 C 
BRANCH  15  16
ATOM     16  C   UNL     1       5.810   2.809  -6.685  1.00  0.00    -0.000 C 
BRANCH  16  17
ATOM     17  C   UNL     1       7.017   2.195  -7.412  1.00  0.00    -0.000 C 
BRANCH  17  18
ATOM     18  C   UNL     1       7.479   0.872  -6.779  1.00  0.00    -0.000 C 
BRANCH  18  19
ATOM     19  C   UNL     1       6.406   0.246  -5.874  1.00  0.00    -0.003 C 
ATOM     20  C   UNL     1       6.916  -0.978  -5.113  1.00  0.00     0.004 C 
ENDBRANCH  18  19
ENDBRANCH  17  18
ENDBRANCH  16  17
ENDBRANCH  15  16
ENDBRANCH  14  15
ENDBRANCH  13  14
ENDBRANCH  12  13
ENDBRANCH   1  12
TORSDOF 16
ENDMDL
MODEL 5
REMARK VINA RESULT:    -2.721     19.559     21.605
REMARK INTER + INTRA:          -8.469
REMARK INTER:                  -6.159
REMARK INTRA:                  -2.310
REMARK UNBOUND:                -3.203
REMARK SMILES CCCCCCCCCCCCCCCCCC(=O)[O-]
REMARK SMILES IDX 10 1 11 2 12 3 13 4 14 5 15 6 16 7 17 8 18 9 19 10 20 11
REMARK SMILES IDX 9 12 8 13 7 14 6 15 5 16 4 17 3 18 2 19 1 20
REMARK H PARENT
REMARK Flexibility Score: inf
ROOT
ATOM      1  C   UNL     1       6.792   5.748  -7.194  1.00  0.00     0.000 C 
ENDROOT
BRANCH   1   2
ATOM      2  C   UNL     1       5.974   5.355  -5.952  1.00  0.00     0.000 C 
BRANCH   2   3
ATOM      3  C   UNL     1       5.107   4.106  -6.182  1.00  0.00     0.000 C 
BRANCH   3   4
ATOM      4  C   UNL     1       4.960   3.747  -7.673  1.00  0.00     0.000 C 
BRANCH   4   5
ATOM      5  C   UNL     1       5.269   2.280  -8.018  1.00  0.00     0.000 C 
BRANCH   5   6
ATOM      6  C   UNL     1       6.775   1.983  -8.078  1.00  0.00     0.000 C 
BRANCH   6   7
ATOM      7  C   UNL     1       7.228   1.194  -6.843  1.00  0.00     0.006 C 
BRANCH   7   8
ATOM      8  C   UNL     1       6.051   0.456  -6.199  1.00  0.00     0.053 C 
BRANCH   8   9
ATOM      9  C   UNL     1       6.156  -1.015  -6.452  1.00  0.00     0.041 C 
ATOM     10  O   UNL     1       6.984  -1.711  -5.807  1.00  0.00    -0.550 OA
ATOM     11  O   UNL     1       5.381  -1.606  -7.440  1.00  0.00    -0.550 OA
ENDBRANCH   8   9
ENDBRANCH   7   8
ENDBRANCH   6   7
ENDBRANCH   5   6
ENDBRANCH   4   5
ENDBRANCH   3   4
ENDBRANCH   2   3
ENDBRANCH   1   2
BRANCH   1  12
ATOM     12  C   UNL     1       7.098   7.254  -7.246  1.00  0.00     0.000 C 
BRANCH  12  13
ATOM     13  C   UNL     1       6.226   8.066  -6.275  1.00  0.00    -0.000 C 
BRANCH  13  14
ATOM     14  C   UNL     1       6.934   9.328  -5.756  1.00  0.00    -0.000 C 
BRANCH  14  15
ATOM     15  C   UNL     1       6.199   9.908  -4.541  1.00  0.00    -0.000 C 
BRANCH  15  16
ATOM     16  C   UNL     1       5.292   8.853  -3.890  1.00  0.00    -0.000 C 
BRANCH  16  17
ATOM     17  C   UNL     1       5.836   8.357  -2.541  1.00  0.00    -0.000 C 
BRANCH  17  18
ATOM     18  C   UNL     1       6.646   7.055  -2.672  1.00  0.00    -0.000 C 
BRANCH  18  19
ATOM     19  C   UNL     1       8.160   7.309  -2.746  1.00  0.00    -0.003 C 
ATOM     20  C   UNL     1       8.821   6.592  -3.923  1.00  0.00     0.004 C 
ENDBRANCH  18  19
ENDBRANCH  17  18
ENDBRANCH  16  17
ENDBRANCH  15  16
ENDBRANCH  14  15
ENDBRANCH  13  14
ENDBRANCH  12  13
ENDBRANCH   1  12
TORSDOF 16
ENDMDL
MODEL 6
REMARK VINA RESULT:    -2.705     19.507     22.097
REMARK INTER + INTRA:          -8.438
REMARK INTER:                  -5.277
REMARK INTRA:                  -3.161
REMARK UNBOUND:                -3.203
REMARK SMILES CCCCCCCCCCCCCCCCCC(=O)[O-]
REMARK SMILES IDX 10 1 11 2 12 3 13 4 14 5 15 6 16 7 17 8 18 9 19 10 20 11
REMARK SMILES IDX 9 12 8 13 7 14 6 15 5 16 4 17 3 18 2 19 1 20
REMARK H PARENT
REMARK Flexibility Score: inf
ROOT
ATOM      1  C   UNL     1       7.093  -0.475  -5.614  1.00  0.00     0.000 C 
ENDROOT
BRANCH   1   2
ATOM      2  C   UNL     1       8.354  -0.314  -6.479  1.00  0.00     0.000 C 
BRANCH   2   3
ATOM      3  C   UNL     1       8.890   1.128  -6.485  1.00  0.00     0.000 C 
BRANCH   3   4
ATOM      4  C   UNL     1       9.355   1.588  -7.879  1.00  0.00     0.000 C 
BRANCH   4   5
ATOM      5  C   UNL     1       9.196   3.095  -8.149  1.00  0.00     0.000 C 
BRANCH   5   6
ATOM      6  C   UNL     1       9.205   3.938  -6.865  1.00  0.00     0.000 C 
BRANCH   6   7
ATOM      7  C   UNL     1       8.582   5.318  -7.112  1.00  0.00     0.006 C 
BRANCH   7   8
ATOM      8  C   UNL     1       8.169   5.979  -5.793  1.00  0.00     0.053 C 
BRANCH   8   9
ATOM      9  C   UNL     1       6.687   6.177  -5.750  1.00  0.00     0.041 C 
ATOM     10  O   UNL     1       6.056   6.003  -4.674  1.00  0.00    -0.550 OA
ATOM     11  O   UNL     1       5.995   6.496  -6.910  1.00  0.00    -0.550 OA
ENDBRANCH   8   9
ENDBRANCH   7   8
ENDBRANCH   6   7
ENDBRANCH   5   6
ENDBRANCH   4   5
ENDBRANCH   3   4
ENDBRANCH   2   3
ENDBRANCH   1   2
BRANCH   1  12
ATOM     12  C   UNL     1       5.849  -0.828  -6.446  1.00  0.00     0.000 C 
BRANCH  12  13
ATOM     13  C   UNL     1       6.207  -1.380  -7.835  1.00  0.00    -0.000 C 
BRANCH  13  14
ATOM     14  C   UNL     1       5.446  -0.672  -8.969  1.00  0.00    -0.000 C 
BRANCH  14  15
ATOM     15  C   UNL     1       6.415   0.056  -9.908  1.00  0.00    -0.000 C 
BRANCH  15  16
ATOM     16  C   UNL     1       6.271   1.579  -9.776  1.00  0.00    -0.000 C 
BRANCH  16  17
ATOM     17  C   UNL     1       4.976   1.991  -9.059  1.00  0.00    -0.000 C 
BRANCH  17  18
ATOM     18  C   UNL     1       5.164   3.226  -8.160  1.00  0.00    -0.000 C 
BRANCH  18  19
ATOM     19  C   UNL     1       5.670   2.860  -6.756  1.00  0.00    -0.003 C 
ATOM     20  C   UNL     1       4.536   2.716  -5.740  1.00  0.00     0.004 C 
ENDBRANCH  18  19
ENDBRANCH  17  18
ENDBRANCH  16  17
ENDBRANCH  15  16
ENDBRANCH  14  15
ENDBRANCH  13  14
ENDBRANCH  12  13
ENDBRANCH   1  12
TORSDOF 16
ENDMDL
MODEL 7
REMARK VINA RESULT:    -2.689      2.105      6.146
REMARK INTER + INTRA:          -8.407
REMARK INTER:                  -5.619
REMARK INTRA:                  -2.788
REMARK UNBOUND:                -3.203
REMARK SMILES CCCCCCCCCCCCCCCCCC(=O)[O-]
REMARK SMILES IDX 10 1 11 2 12 3 13 4 14 5 15 6 16 7 17 8 18 9 19 10 20 11
REMARK SMILES IDX 9 12 8 13 7 14 6 15 5 16 4 17 3 18 2 19 1 20
REMARK H PARENT
REMARK Flexibility Score: inf
ROOT
ATOM      1  C   UNL     1      -4.479  -5.186   8.882  1.00  0.00     0.000 C 
ENDROOT
BRANCH   1   2
ATOM      2  C   UNL     1      -4.837  -5.109   7.388  1.00  0.00     0.000 C 
BRANCH   2   3
ATOM      3  C   UNL     1      -5.760  -3.923   7.059  1.00  0.00     0.000 C 
BRANCH   3   4
ATOM      4  C   UNL     1      -6.111  -3.078   8.297  1.00  0.00     0.000 C 
BRANCH   4   5
ATOM      5  C   UNL     1      -7.607  -3.050   8.657  1.00  0.00     0.000 C 
BRANCH   5   6
ATOM      6  C   UNL     1      -8.363  -4.298   8.177  1.00  0.00     0.000 C 
BRANCH   6   7
ATOM      7  C   UNL     1      -9.424  -3.928   7.134  1.00  0.00     0.006 C 
BRANCH   7   8
ATOM      8  C   UNL     1      -9.855  -5.157   6.327  1.00  0.00     0.053 C 
BRANCH   8   9
ATOM      9  C   UNL     1      -8.727  -5.643   5.473  1.00  0.00     0.041 C 
ATOM     10  O   UNL     1      -8.187  -6.756   5.709  1.00  0.00    -0.550 OA
ATOM     11  O   UNL     1      -8.233  -4.840   4.454  1.00  0.00    -0.550 OA
ENDBRANCH   8   9
ENDBRANCH   7   8
ENDBRANCH   6   7
ENDBRANCH   5   6
ENDBRANCH   4   5
ENDBRANCH   3   4
ENDBRANCH   2   3
ENDBRANCH   1   2
BRANCH   1  12
ATOM     12  C   UNL     1      -4.915  -6.513   9.525  1.00  0.00     0.000 C 
BRANCH  12  13
ATOM     13  C   UNL     1      -6.106  -7.157   8.797  1.00  0.00    -0.000 C 
BRANCH  13  14
ATOM     14  C   UNL     1      -5.851  -8.627   8.427  1.00  0.00    -0.000 C 
BRANCH  14  15
ATOM     15  C   UNL     1      -5.540  -8.770   6.932  1.00  0.00    -0.000 C 
BRANCH  15  16
ATOM     16  C   UNL     1      -4.179  -9.446   6.715  1.00  0.00    -0.000 C 
BRANCH  16  17
ATOM     17  C   UNL     1      -3.164  -8.523   6.022  1.00  0.00    -0.000 C 
BRANCH  17  18
ATOM     18  C   UNL     1      -2.269  -7.771   7.024  1.00  0.00    -0.000 C 
BRANCH  18  19
ATOM     19  C   UNL     1      -2.009  -8.581   8.304  1.00  0.00    -0.003 C 
ATOM     20  C   UNL     1      -1.414  -7.733   9.428  1.00  0.00     0.004 C 
ENDBRANCH  18  19
ENDBRANCH  17  18
ENDBRANCH  16  17
ENDBRANCH  15  16
ENDBRANCH  14  15
ENDBRANCH  13  14
ENDBRANCH  12  13
ENDBRANCH   1  12
TORSDOF 16
ENDMDL
MODEL 8
REMARK VINA RESULT:    -2.634     19.321     21.176
REMARK INTER + INTRA:          -8.300
REMARK INTER:                  -6.865
REMARK INTRA:                  -1.434
REMARK UNBOUND:                -3.203
REMARK SMILES CCCCCCCCCCCCCCCCCC(=O)[O-]
REMARK SMILES IDX 10 1 11 2 12 3 13 4 14 5 15 6 16 7 17 8 18 9 19 10 20 11
REMARK SMILES IDX 9 12 8 13 7 14 6 15 5 16 4 17 3 18 2 19 1 20
REMARK H PARENT
REMARK Flexibility Score: inf
ROOT
ATOM      1  C   UNL     1       8.535   6.391  -5.374  1.00  0.00     0.000 C 
ENDROOT
BRANCH   1   2
ATOM      2  C   UNL     1       7.981   6.578  -6.796  1.00  0.00     0.000 C 
BRANCH   2   3
ATOM      3  C   UNL     1       7.037   5.441  -7.220  1.00  0.00     0.000 C 
BRANCH   3   4
ATOM      4  C   UNL     1       5.979   5.112  -6.151  1.00  0.00     0.000 C 
BRANCH   4   5
ATOM      5  C   UNL     1       5.207   3.802  -6.386  1.00  0.00     0.000 C 
BRANCH   5   6
ATOM      6  C   UNL     1       6.040   2.738  -7.116  1.00  0.00     0.000 C 
BRANCH   6   7
ATOM      7  C   UNL     1       5.653   1.327  -6.655  1.00  0.00     0.006 C 
BRANCH   7   8
ATOM      8  C   UNL     1       6.886   0.422  -6.559  1.00  0.00     0.053 C 
BRANCH   8   9
ATOM      9  C   UNL     1       6.491  -0.951  -6.114  1.00  0.00     0.041 C 
ATOM     10  O   UNL     1       5.668  -1.623  -6.789  1.00  0.00    -0.550 OA
ATOM     11  O   UNL     1       6.987  -1.464  -4.923  1.00  0.00    -0.550 OA
ENDBRANCH   8   9
ENDBRANCH   7   8
ENDBRANCH   6   7
ENDBRANCH   5   6
ENDBRANCH   4   5
ENDBRANCH   3   4
ENDBRANCH   2   3
ENDBRANCH   1   2
BRANCH   1  12
ATOM     12  C   UNL     1       8.369   7.649  -4.505  1.00  0.00     0.000 C 
BRANCH  12  13
ATOM     13  C   UNL     1       7.922   7.320  -3.072  1.00  0.00    -0.000 C 
BRANCH  13  14
ATOM     14  C   UNL     1       6.401   7.129  -2.954  1.00  0.00    -0.000 C 
BRANCH  14  15
ATOM     15  C   UNL     1       5.675   8.479  -2.973  1.00  0.00    -0.000 C 
BRANCH  15  16
ATOM     16  C   UNL     1       6.202   9.403  -1.865  1.00  0.00    -0.000 C 
BRANCH  16  17
ATOM     17  C   UNL     1       5.189   9.596  -0.725  1.00  0.00    -0.000 C 
BRANCH  17  18
ATOM     18  C   UNL     1       5.811   9.366   0.664  1.00  0.00    -0.000 C 
BRANCH  18  19
ATOM     19  C   UNL     1       7.216   8.747   0.584  1.00  0.00    -0.003 C 
ATOM     20  C   UNL     1       7.203   7.229   0.768  1.00  0.00     0.004 C 
ENDBRANCH  18  19
ENDBRANCH  17  18
ENDBRANCH  16  17
ENDBRANCH  15  16
ENDBRANCH  14  15
ENDBRANCH  13  14
ENDBRANCH  12  13
ENDBRANCH   1  12
TORSDOF 16
ENDMDL
MODEL 9
REMARK VINA RESULT:    -2.596     19.850     21.945
REMARK INTER + INTRA:          -8.228
REMARK INTER:                  -5.782
REMARK INTRA:                  -2.446
REMARK UNBOUND:                -3.203
REMARK SMILES CCCCCCCCCCCCCCCCCC(=O)[O-]
REMARK SMILES IDX 10 1 11 2 12 3 13 4 14 5 15 6 16 7 17 8 18 9 19 10 20 11
REMARK SMILES IDX 9 12 8 13 7 14 6 15 5 16 4 17 3 18 2 19 1 20
REMARK H PARENT
REMARK Flexibility Score: inf
ROOT
ATOM      1  C   UNL     1       9.495   2.062  -6.423  1.00  0.00     0.000 C 
ENDROOT
BRANCH   1   2
ATOM      2  C   UNL     1       8.837   2.240  -7.803  1.00  0.00     0.000 C 
BRANCH   2   3
ATOM      3  C   UNL     1       8.445   3.699  -8.090  1.00  0.00     0.000 C 
BRANCH   3   4
ATOM      4  C   UNL     1       8.177   4.509  -6.809  1.00  0.00     0.000 C 
BRANCH   4   5
ATOM      5  C   UNL     1       7.416   5.830  -7.026  1.00  0.00     0.000 C 
BRANCH   5   6
ATOM      6  C   UNL     1       6.402   6.127  -5.912  1.00  0.00     0.000 C 
BRANCH   6   7
ATOM      7  C   UNL     1       7.087   6.788  -4.709  1.00  0.00     0.006 C 
BRANCH   7   8
ATOM      8  C   UNL     1       6.065   7.160  -3.629  1.00  0.00     0.053 C 
BRANCH   8   9
ATOM      9  C   UNL     1       6.761   7.650  -2.399  1.00  0.00     0.041 C 
ATOM     10  O   UNL     1       8.001   7.474  -2.260  1.00  0.00    -0.550 OA
ATOM     11  O   UNL     1       6.032   8.246  -1.379  1.00  0.00    -0.550 OA
ENDBRANCH   8   9
ENDBRANCH   7   8
ENDBRANCH   6   7
ENDBRANCH   5   6
ENDBRANCH   4   5
ENDBRANCH   3   4
ENDBRANCH   2   3
ENDBRANCH   1   2
BRANCH   1  12
ATOM     12  C   UNL     1       9.725   0.585  -6.066  1.00  0.00     0.000 C 
BRANCH  12  13
ATOM     13  C   UNL     1       8.705  -0.349  -6.737  1.00  0.00    -0.000 C 
BRANCH  13  14
ATOM     14  C   UNL     1       7.582  -0.785  -5.782  1.00  0.00    -0.000 C 
BRANCH  14  15
ATOM     15  C   UNL     1       6.260  -0.966  -6.537  1.00  0.00    -0.000 C 
BRANCH  15  16
ATOM     16  C   UNL     1       5.756   0.373  -7.095  1.00  0.00    -0.000 C 
BRANCH  16  17
ATOM     17  C   UNL     1       5.590   1.443  -6.004  1.00  0.00    -0.000 C 
BRANCH  17  18
ATOM     18  C   UNL     1       4.931   2.729  -6.533  1.00  0.00    -0.000 C 
BRANCH  18  19
ATOM     19  C   UNL     1       4.855   2.763  -8.068  1.00  0.00    -0.003 C 
ATOM     20  C   UNL     1       4.510   4.151  -8.610  1.00  0.00     0.004 C 
ENDBRANCH  18  19
ENDBRANCH  17  18
ENDBRANCH  16  17
ENDBRANCH  15  16
ENDBRANCH  14  15
ENDBRANCH  13  14
ENDBRANCH  12  13
ENDBRANCH   1  12
TORSDOF 16
ENDMDL
