MODEL 1
REMARK VINA RESULT:    -6.049      0.000      0.000
REMARK INTER + INTRA:          -7.532
REMARK INTER:                  -7.287
REMARK INTRA:                  -0.245
REMARK UNBOUND:                -0.245
REMARK SMILES O=c1c(O)c(-c2ccc(O)c(O)c2)oc2cc(O)cc(O)c12
REMARK SMILES IDX 5 1 3 2 2 3 1 4 22 5 20 6 19 7 17 8 16 9 15 10 14 11 6 12
REMARK SMILES IDX 7 13 8 14 9 15 13 16 11 17 10 18 12 20 4 22 21 24 18 26
REMARK H PARENT 10 19 12 21 4 23 21 25 18 27
REMARK Flexibility Score: inf
ROOT
ATOM      1  C   UNL     1       6.633  72.133  37.416  1.00  0.00     0.180 A 
ATOM      2  C   UNL     1       7.823  72.648  36.873  1.00  0.00     0.208 A 
ATOM      3  C   UNL     1       8.075  74.026  36.969  1.00  0.00     0.238 A 
ATOM      4  O   UNL     1       9.175  74.468  36.548  1.00  0.00    -0.285 OA
ATOM      5  C   UNL     1       7.111  74.880  37.557  1.00  0.00     0.111 A 
ATOM      6  C   UNL     1       7.241  76.297  37.668  1.00  0.00     0.134 A 
ATOM      7  C   UNL     1       6.270  77.029  38.364  1.00  0.00     0.093 A 
ATOM      8  C   UNL     1       5.144  76.404  38.897  1.00  0.00     0.123 A 
ATOM      9  C   UNL     1       4.978  75.027  38.748  1.00  0.00     0.094 A 
ATOM     10  C   UNL     1       5.948  74.265  38.092  1.00  0.00     0.146 A 
ATOM     11  O   UNL     1       5.762  72.955  37.991  1.00  0.00    -0.452 OA
ENDROOT
BRANCH   1  12
ATOM     12  C   UNL     1       6.303  70.690  37.367  1.00  0.00     0.025 A 
ATOM     13  C   UNL     1       5.880  70.121  36.155  1.00  0.00     0.016 A 
ATOM     14  C   UNL     1       5.543  68.767  36.090  1.00  0.00     0.051 A 
ATOM     15  C   UNL     1       5.611  67.966  37.238  1.00  0.00     0.157 A 
ATOM     16  C   UNL     1       6.349  69.889  38.521  1.00  0.00     0.062 A 
ATOM     17  C   UNL     1       6.009  68.530  38.457  1.00  0.00     0.158 A 
BRANCH  15  18
ATOM     18  O   UNL     1       5.277  66.614  37.176  1.00  0.00    -0.504 OA
ATOM     19  H   UNL     1       4.858  66.135  37.964  1.00  0.00     0.293 HD
ENDBRANCH  15  18
BRANCH  17  20
ATOM     20  O   UNL     1       6.060  67.734  39.599  1.00  0.00    -0.504 OA
ATOM     21  H   UNL     1       5.217  67.396  40.048  1.00  0.00     0.293 HD
ENDBRANCH  17  20
ENDBRANCH   1  12
BRANCH   2  22
ATOM     22  O   UNL     1       8.727  71.799  36.229  1.00  0.00    -0.502 OA
ATOM     23  H   UNL     1       9.717  72.002  36.172  1.00  0.00     0.293 HD
ENDBRANCH   2  22
BRANCH   6  24
ATOM     24  O   UNL     1       8.282  77.036  37.095  1.00  0.00    -0.507 OA
ATOM     25  H   UNL     1       8.703  77.855  37.506  1.00  0.00     0.293 HD
ENDBRANCH   6  24
BRANCH   8  26
ATOM     26  O   UNL     1       4.190  77.165  39.569  1.00  0.00    -0.508 OA
ATOM     27  H   UNL     1       3.253  77.286  39.200  1.00  0.00     0.293 HD
ENDBRANCH   8  26
TORSDOF 6
ENDMDL
MODEL 2
REMARK VINA RESULT:    -5.907      2.255      4.065
REMARK INTER + INTRA:          -7.360
REMARK INTER:                  -7.135
REMARK INTRA:                  -0.226
REMARK UNBOUND:                -0.245
REMARK SMILES O=c1c(O)c(-c2ccc(O)c(O)c2)oc2cc(O)cc(O)c12
REMARK SMILES IDX 5 1 3 2 2 3 1 4 22 5 20 6 19 7 17 8 16 9 15 10 14 11 6 12
REMARK SMILES IDX 7 13 8 14 9 15 13 16 11 17 10 18 12 20 4 22 21 24 18 26
REMARK H PARENT 10 19 12 21 4 23 21 25 18 27
REMARK Flexibility Score: inf
ROOT
ATOM      1  C   UNL     1       5.905  74.840  37.912  1.00  0.00     0.180 A 
ATOM      2  C   UNL     1       5.289  75.909  38.586  1.00  0.00     0.208 A 
ATOM      3  C   UNL     1       5.922  77.163  38.597  1.00  0.00     0.238 A 
ATOM      4  O   UNL     1       5.329  78.132  39.137  1.00  0.00    -0.285 OA
ATOM      5  C   UNL     1       7.188  77.319  37.983  1.00  0.00     0.111 A 
ATOM      6  C   UNL     1       7.942  78.532  37.972  1.00  0.00     0.134 A 
ATOM      7  C   UNL     1       9.136  78.597  37.243  1.00  0.00     0.093 A 
ATOM      8  C   UNL     1       9.635  77.479  36.578  1.00  0.00     0.123 A 
ATOM      9  C   UNL     1       8.935  76.273  36.627  1.00  0.00     0.094 A 
ATOM     10  C   UNL     1       7.722  76.186  37.314  1.00  0.00     0.146 A 
ATOM     11  O   UNL     1       7.079  75.026  37.317  1.00  0.00    -0.452 OA
ENDROOT
BRANCH   1  12
ATOM     12  C   UNL     1       5.293  73.494  37.843  1.00  0.00     0.025 A 
ATOM     13  C   UNL     1       4.147  73.297  37.057  1.00  0.00     0.016 A 
ATOM     14  C   UNL     1       3.540  72.041  36.993  1.00  0.00     0.051 A 
ATOM     15  C   UNL     1       4.061  70.967  37.726  1.00  0.00     0.157 A 
ATOM     16  C   UNL     1       5.801  72.419  38.594  1.00  0.00     0.062 A 
ATOM     17  C   UNL     1       5.191  71.158  38.532  1.00  0.00     0.158 A 
BRANCH  15  18
ATOM     18  O   UNL     1       3.460  69.711  37.664  1.00  0.00    -0.504 OA
ATOM     19  H   UNL     1       2.768  69.489  36.958  1.00  0.00     0.293 HD
ENDBRANCH  15  18
BRANCH  17  20
ATOM     20  O   UNL     1       5.698  70.091  39.271  1.00  0.00    -0.504 OA
ATOM     21  H   UNL     1       6.384  69.455  38.882  1.00  0.00     0.293 HD
ENDBRANCH  17  20
ENDBRANCH   1  12
BRANCH   2  22
ATOM     22  O   UNL     1       4.075  75.715  39.250  1.00  0.00    -0.502 OA
ATOM     23  H   UNL     1       4.026  75.466  40.231  1.00  0.00     0.293 HD
ENDBRANCH   2  22
BRANCH   6  24
ATOM     24  O   UNL     1       7.580  79.685  38.676  1.00  0.00    -0.507 OA
ATOM     25  H   UNL     1       7.538  80.613  38.282  1.00  0.00     0.293 HD
ENDBRANCH   6  24
BRANCH   8  26
ATOM     26  O   UNL     1      10.834  77.576  35.876  1.00  0.00    -0.508 OA
ATOM     27  H   UNL     1      11.344  76.751  35.579  1.00  0.00     0.293 HD
ENDBRANCH   8  26
TORSDOF 6
ENDMDL
MODEL 3
REMARK VINA RESULT:    -5.863      1.281      2.861
REMARK INTER + INTRA:          -7.308
REMARK INTER:                  -6.997
REMARK INTRA:                  -0.311
REMARK UNBOUND:                -0.245
REMARK SMILES O=c1c(O)c(-c2ccc(O)c(O)c2)oc2cc(O)cc(O)c12
REMARK SMILES IDX 5 1 3 2 2 3 1 4 22 5 20 6 19 7 17 8 16 9 15 10 14 11 6 12
REMARK SMILES IDX 7 13 8 14 9 15 13 16 11 17 10 18 12 20 4 22 21 24 18 26
REMARK H PARENT 10 19 12 21 4 23 21 25 18 27
REMARK Flexibility Score: inf
ROOT
ATOM      1  C   UNL     1       6.191  72.254  37.333  1.00  0.00     0.180 A 
ATOM      2  C   UNL     1       5.116  73.085  37.693  1.00  0.00     0.208 A 
ATOM      3  C   UNL     1       5.313  74.475  37.729  1.00  0.00     0.238 A 
ATOM      4  O   UNL     1       4.328  75.217  37.979  1.00  0.00    -0.285 OA
ATOM      5  C   UNL     1       6.595  75.013  37.460  1.00  0.00     0.111 A 
ATOM      6  C   UNL     1       6.920  76.402  37.511  1.00  0.00     0.134 A 
ATOM      7  C   UNL     1       8.196  76.828  37.121  1.00  0.00     0.093 A 
ATOM      8  C   UNL     1       9.177  75.912  36.744  1.00  0.00     0.123 A 
ATOM      9  C   UNL     1       8.887  74.548  36.742  1.00  0.00     0.094 A 
ATOM     10  C   UNL     1       7.612  74.095  37.089  1.00  0.00     0.146 A 
ATOM     11  O   UNL     1       7.373  72.790  37.053  1.00  0.00    -0.452 OA
ENDROOT
BRANCH   1  12
ATOM     12  C   UNL     1       6.057  70.781  37.258  1.00  0.00     0.025 A 
ATOM     13  C   UNL     1       5.755  70.178  36.027  1.00  0.00     0.016 A 
ATOM     14  C   UNL     1       5.603  68.792  35.936  1.00  0.00     0.051 A 
ATOM     15  C   UNL     1       5.737  67.991  37.077  1.00  0.00     0.157 A 
ATOM     16  C   UNL     1       6.169  69.975  38.405  1.00  0.00     0.062 A 
ATOM     17  C   UNL     1       6.015  68.585  38.315  1.00  0.00     0.158 A 
BRANCH  15  18
ATOM     18  O   UNL     1       5.588  66.608  36.991  1.00  0.00    -0.504 OA
ATOM     19  H   UNL     1       5.952  65.989  37.706  1.00  0.00     0.293 HD
ENDBRANCH  15  18
BRANCH  17  20
ATOM     20  O   UNL     1       6.132  67.786  39.451  1.00  0.00    -0.504 OA
ATOM     21  H   UNL     1       6.306  66.790  39.383  1.00  0.00     0.293 HD
ENDBRANCH  17  20
ENDBRANCH   1  12
BRANCH   2  22
ATOM     22  O   UNL     1       3.879  72.529  38.030  1.00  0.00    -0.502 OA
ATOM     23  H   UNL     1       3.671  72.189  38.962  1.00  0.00     0.293 HD
ENDBRANCH   2  22
BRANCH   6  24
ATOM     24  O   UNL     1       6.044  77.396  37.958  1.00  0.00    -0.507 OA
ATOM     25  H   UNL     1       6.178  78.387  37.826  1.00  0.00     0.293 HD
ENDBRANCH   6  24
BRANCH   8  26
ATOM     26  O   UNL     1      10.440  76.371  36.378  1.00  0.00    -0.508 OA
ATOM     27  H   UNL     1      11.062  76.805  37.052  1.00  0.00     0.293 HD
ENDBRANCH   8  26
TORSDOF 6
ENDMDL
MODEL 4
REMARK VINA RESULT:    -5.768      1.620      2.239
REMARK INTER + INTRA:          -7.194
REMARK INTER:                  -7.032
REMARK INTRA:                  -0.162
REMARK UNBOUND:                -0.245
REMARK SMILES O=c1c(O)c(-c2ccc(O)c(O)c2)oc2cc(O)cc(O)c12
REMARK SMILES IDX 5 1 3 2 2 3 1 4 22 5 20 6 19 7 17 8 16 9 15 10 14 11 6 12
REMARK SMILES IDX 7 13 8 14 9 15 13 16 11 17 10 18 12 20 4 22 21 24 18 26
REMARK H PARENT 10 19 12 21 4 23 21 25 18 27
REMARK Flexibility Score: inf
ROOT
ATOM      1  C   UNL     1       6.234  74.194  37.931  1.00  0.00     0.180 A 
ATOM      2  C   UNL     1       7.331  74.669  37.191  1.00  0.00     0.208 A 
ATOM      3  C   UNL     1       7.659  76.033  37.259  1.00  0.00     0.238 A 
ATOM      4  O   UNL     1       8.686  76.436  36.654  1.00  0.00    -0.285 OA
ATOM      5  C   UNL     1       6.854  76.915  38.020  1.00  0.00     0.111 A 
ATOM      6  C   UNL     1       7.067  78.323  38.124  1.00  0.00     0.134 A 
ATOM      7  C   UNL     1       6.269  79.080  38.992  1.00  0.00     0.093 A 
ATOM      8  C   UNL     1       5.229  78.493  39.709  1.00  0.00     0.123 A 
ATOM      9  C   UNL     1       4.976  77.128  39.574  1.00  0.00     0.094 A 
ATOM     10  C   UNL     1       5.778  76.339  38.745  1.00  0.00     0.146 A 
ATOM     11  O   UNL     1       5.517  75.041  38.663  1.00  0.00    -0.452 OA
ENDROOT
BRANCH   1  12
ATOM     12  C   UNL     1       5.835  72.769  37.923  1.00  0.00     0.025 A 
ATOM     13  C   UNL     1       4.551  72.415  37.478  1.00  0.00     0.016 A 
ATOM     14  C   UNL     1       4.145  71.078  37.481  1.00  0.00     0.051 A 
ATOM     15  C   UNL     1       5.011  70.078  37.943  1.00  0.00     0.157 A 
ATOM     16  C   UNL     1       6.693  71.765  38.405  1.00  0.00     0.062 A 
ATOM     17  C   UNL     1       6.286  70.423  38.410  1.00  0.00     0.158 A 
BRANCH  15  18
ATOM     18  O   UNL     1       4.610  68.743  37.946  1.00  0.00    -0.504 OA
ATOM     19  H   UNL     1       4.117  68.339  38.733  1.00  0.00     0.293 HD
ENDBRANCH  15  18
BRANCH  17  20
ATOM     20  O   UNL     1       7.139  69.427  38.883  1.00  0.00    -0.504 OA
ATOM     21  H   UNL     1       6.923  68.445  38.763  1.00  0.00     0.293 HD
ENDBRANCH  17  20
ENDBRANCH   1  12
BRANCH   2  22
ATOM     22  O   UNL     1       8.066  73.796  36.385  1.00  0.00    -0.502 OA
ATOM     23  H   UNL     1       8.661  73.072  36.770  1.00  0.00     0.293 HD
ENDBRANCH   2  22
BRANCH   6  24
ATOM     24  O   UNL     1       8.022  79.028  37.385  1.00  0.00    -0.507 OA
ATOM     25  H   UNL     1       8.767  79.581  37.781  1.00  0.00     0.293 HD
ENDBRANCH   6  24
BRANCH   8  26
ATOM     26  O   UNL     1       4.445  79.281  40.550  1.00  0.00    -0.508 OA
ATOM     27  H   UNL     1       3.561  78.947  40.917  1.00  0.00     0.293 HD
ENDBRANCH   8  26
TORSDOF 6
ENDMDL
MODEL 5
REMARK VINA RESULT:    -5.648      2.043      7.304
REMARK INTER + INTRA:          -7.049
REMARK INTER:                  -6.898
REMARK INTRA:                  -0.151
REMARK UNBOUND:                -0.245
REMARK SMILES O=c1c(O)c(-c2ccc(O)c(O)c2)oc2cc(O)cc(O)c12
REMARK SMILES IDX 5 1 3 2 2 3 1 4 22 5 20 6 19 7 17 8 16 9 15 10 14 11 6 12
REMARK SMILES IDX 7 13 8 14 9 15 13 16 11 17 10 18 12 20 4 22 21 24 18 26
REMARK H PARENT 10 19 12 21 4 23 21 25 18 27
REMARK Flexibility Score: inf
ROOT
ATOM      1  C   UNL     1       6.873  75.001  37.828  1.00  0.00     0.180 A 
ATOM      2  C   UNL     1       5.499  75.131  37.562  1.00  0.00     0.208 A 
ATOM      3  C   UNL     1       4.684  73.989  37.611  1.00  0.00     0.238 A 
ATOM      4  O   UNL     1       3.445  74.125  37.445  1.00  0.00    -0.285 OA
ATOM      5  C   UNL     1       5.261  72.722  37.870  1.00  0.00     0.111 A 
ATOM      6  C   UNL     1       4.538  71.491  37.900  1.00  0.00     0.134 A 
ATOM      7  C   UNL     1       5.197  70.311  38.272  1.00  0.00     0.093 A 
ATOM      8  C   UNL     1       6.561  70.307  38.553  1.00  0.00     0.123 A 
ATOM      9  C   UNL     1       7.290  71.495  38.475  1.00  0.00     0.094 A 
ATOM     10  C   UNL     1       6.654  72.693  38.143  1.00  0.00     0.146 A 
ATOM     11  O   UNL     1       7.380  73.803  38.101  1.00  0.00    -0.452 OA
ENDROOT
BRANCH   1  12
ATOM     12  C   UNL     1       7.793  76.160  37.811  1.00  0.00     0.025 A 
ATOM     13  C   UNL     1       7.616  77.195  38.742  1.00  0.00     0.016 A 
ATOM     14  C   UNL     1       8.459  78.310  38.732  1.00  0.00     0.051 A 
ATOM     15  C   UNL     1       9.481  78.411  37.779  1.00  0.00     0.157 A 
ATOM     16  C   UNL     1       8.807  76.276  36.844  1.00  0.00     0.062 A 
ATOM     17  C   UNL     1       9.653  77.395  36.830  1.00  0.00     0.158 A 
BRANCH  15  18
ATOM     18  O   UNL     1      10.325  79.521  37.766  1.00  0.00    -0.504 OA
ATOM     19  H   UNL     1      11.110  79.598  38.403  1.00  0.00     0.293 HD
ENDBRANCH  15  18
BRANCH  17  20
ATOM     20  O   UNL     1      10.661  77.508  35.875  1.00  0.00    -0.504 OA
ATOM     21  H   UNL     1      10.967  76.709  35.332  1.00  0.00     0.293 HD
ENDBRANCH  17  20
ENDBRANCH   1  12
BRANCH   2  22
ATOM     22  O   UNL     1       4.962  76.379  37.232  1.00  0.00    -0.502 OA
ATOM     23  H   UNL     1       5.369  76.975  36.522  1.00  0.00     0.293 HD
ENDBRANCH   2  22
BRANCH   6  24
ATOM     24  O   UNL     1       3.190  71.365  37.550  1.00  0.00    -0.507 OA
ATOM     25  H   UNL     1       2.473  72.042  37.761  1.00  0.00     0.293 HD
ENDBRANCH   6  24
BRANCH   8  26
ATOM     26  O   UNL     1       7.186  69.112  38.904  1.00  0.00    -0.508 OA
ATOM     27  H   UNL     1       7.615  68.985  39.814  1.00  0.00     0.293 HD
ENDBRANCH   8  26
TORSDOF 6
ENDMDL
MODEL 6
REMARK VINA RESULT:    -5.616      2.190      3.923
REMARK INTER + INTRA:          -7.010
REMARK INTER:                  -6.712
REMARK INTRA:                  -0.298
REMARK UNBOUND:                -0.245
REMARK SMILES O=c1c(O)c(-c2ccc(O)c(O)c2)oc2cc(O)cc(O)c12
REMARK SMILES IDX 5 1 3 2 2 3 1 4 22 5 20 6 19 7 17 8 16 9 15 10 14 11 6 12
REMARK SMILES IDX 7 13 8 14 9 15 13 16 11 17 10 18 12 20 4 22 21 24 18 26
REMARK H PARENT 10 19 12 21 4 23 21 25 18 27
REMARK Flexibility Score: inf
ROOT
ATOM      1  C   UNL     1       5.645  70.291  37.943  1.00  0.00     0.180 A 
ATOM      2  C   UNL     1       4.717  71.299  37.630  1.00  0.00     0.208 A 
ATOM      3  C   UNL     1       5.190  72.562  37.239  1.00  0.00     0.238 A 
ATOM      4  O   UNL     1       4.355  73.436  36.889  1.00  0.00    -0.285 OA
ATOM      5  C   UNL     1       6.582  72.819  37.220  1.00  0.00     0.111 A 
ATOM      6  C   UNL     1       7.172  74.075  36.883  1.00  0.00     0.134 A 
ATOM      7  C   UNL     1       8.566  74.182  36.795  1.00  0.00     0.093 A 
ATOM      8  C   UNL     1       9.391  73.099  37.092  1.00  0.00     0.123 A 
ATOM      9  C   UNL     1       8.828  71.882  37.476  1.00  0.00     0.094 A 
ATOM     10  C   UNL     1       7.440  71.733  37.536  1.00  0.00     0.146 A 
ATOM     11  O   UNL     1       6.946  70.552  37.884  1.00  0.00    -0.452 OA
ENDROOT
BRANCH   1  12
ATOM     12  C   UNL     1       5.224  68.930  38.349  1.00  0.00     0.025 A 
ATOM     13  C   UNL     1       4.843  68.695  39.679  1.00  0.00     0.016 A 
ATOM     14  C   UNL     1       4.462  67.415  40.090  1.00  0.00     0.051 A 
ATOM     15  C   UNL     1       4.471  66.350  39.180  1.00  0.00     0.157 A 
ATOM     16  C   UNL     1       5.252  67.854  37.444  1.00  0.00     0.062 A 
ATOM     17  C   UNL     1       4.872  66.569  37.856  1.00  0.00     0.158 A 
BRANCH  15  18
ATOM     18  O   UNL     1       4.090  65.071  39.585  1.00  0.00    -0.504 OA
ATOM     19  H   UNL     1       4.705  64.485  40.137  1.00  0.00     0.293 HD
ENDBRANCH  15  18
BRANCH  17  20
ATOM     20  O   UNL     1       4.895  65.504  36.957  1.00  0.00    -0.504 OA
ATOM     21  H   UNL     1       5.458  65.532  36.116  1.00  0.00     0.293 HD
ENDBRANCH  17  20
ENDBRANCH   1  12
BRANCH   2  22
ATOM     22  O   UNL     1       3.346  71.048  37.730  1.00  0.00    -0.502 OA
ATOM     23  H   UNL     1       2.913  70.723  38.586  1.00  0.00     0.293 HD
ENDBRANCH   2  22
BRANCH   6  24
ATOM     24  O   UNL     1       6.443  75.246  36.653  1.00  0.00    -0.507 OA
ATOM     25  H   UNL     1       6.555  75.848  35.851  1.00  0.00     0.293 HD
ENDBRANCH   6  24
BRANCH   8  26
ATOM     26  O   UNL     1      10.774  73.248  37.010  1.00  0.00    -0.508 OA
ATOM     27  H   UNL     1      11.317  73.603  37.790  1.00  0.00     0.293 HD
ENDBRANCH   8  26
TORSDOF 6
ENDMDL
MODEL 7
REMARK VINA RESULT:    -5.574      2.658      4.865
REMARK INTER + INTRA:          -6.960
REMARK INTER:                  -6.671
REMARK INTRA:                  -0.288
REMARK UNBOUND:                -0.245
REMARK SMILES O=c1c(O)c(-c2ccc(O)c(O)c2)oc2cc(O)cc(O)c12
REMARK SMILES IDX 5 1 3 2 2 3 1 4 22 5 20 6 19 7 17 8 16 9 15 10 14 11 6 12
REMARK SMILES IDX 7 13 8 14 9 15 13 16 11 17 10 18 12 20 4 22 21 24 18 26
REMARK H PARENT 10 19 12 21 4 23 21 25 18 27
REMARK Flexibility Score: inf
ROOT
ATOM      1  C   UNL     1       4.540  68.819  38.093  1.00  0.00     0.180 A 
ATOM      2  C   UNL     1       3.760  69.785  37.435  1.00  0.00     0.208 A 
ATOM      3  C   UNL     1       4.288  71.072  37.245  1.00  0.00     0.238 A 
ATOM      4  O   UNL     1       3.614  71.909  36.590  1.00  0.00    -0.285 OA
ATOM      5  C   UNL     1       5.566  71.394  37.762  1.00  0.00     0.111 A 
ATOM      6  C   UNL     1       6.182  72.678  37.666  1.00  0.00     0.134 A 
ATOM      7  C   UNL     1       7.496  72.851  38.123  1.00  0.00     0.093 A 
ATOM      8  C   UNL     1       8.191  71.805  38.726  1.00  0.00     0.123 A 
ATOM      9  C   UNL     1       7.580  70.560  38.875  1.00  0.00     0.094 A 
ATOM     10  C   UNL     1       6.285  70.347  38.396  1.00  0.00     0.146 A 
ATOM     11  O   UNL     1       5.750  69.140  38.538  1.00  0.00    -0.452 OA
ENDROOT
BRANCH   1  12
ATOM     12  C   UNL     1       4.058  67.437  38.318  1.00  0.00     0.025 A 
ATOM     13  C   UNL     1       3.178  67.179  39.380  1.00  0.00     0.016 A 
ATOM     14  C   UNL     1       2.726  65.879  39.625  1.00  0.00     0.051 A 
ATOM     15  C   UNL     1       3.161  64.818  38.821  1.00  0.00     0.157 A 
ATOM     16  C   UNL     1       4.509  66.366  37.526  1.00  0.00     0.062 A 
ATOM     17  C   UNL     1       4.058  65.061  37.773  1.00  0.00     0.158 A 
BRANCH  15  18
ATOM     18  O   UNL     1       2.712  63.520  39.060  1.00  0.00    -0.504 OA
ATOM     19  H   UNL     1       2.319  63.252  39.955  1.00  0.00     0.293 HD
ENDBRANCH  15  18
BRANCH  17  20
ATOM     20  O   UNL     1       4.500  64.000  36.984  1.00  0.00    -0.504 OA
ATOM     21  H   UNL     1       4.446  64.033  35.973  1.00  0.00     0.293 HD
ENDBRANCH  17  20
ENDBRANCH   1  12
BRANCH   2  22
ATOM     22  O   UNL     1       2.470  69.471  37.000  1.00  0.00    -0.502 OA
ATOM     23  H   UNL     1       1.711  69.278  37.643  1.00  0.00     0.293 HD
ENDBRANCH   2  22
BRANCH   6  24
ATOM     24  O   UNL     1       5.546  73.817  37.161  1.00  0.00    -0.507 OA
ATOM     25  H   UNL     1       5.337  73.977  36.187  1.00  0.00     0.293 HD
ENDBRANCH   6  24
BRANCH   8  26
ATOM     26  O   UNL     1       9.490  72.018  39.184  1.00  0.00    -0.508 OA
ATOM     27  H   UNL     1      10.235  71.358  38.992  1.00  0.00     0.293 HD
ENDBRANCH   8  26
TORSDOF 6
ENDMDL
MODEL 8
REMARK VINA RESULT:    -5.550      1.975      3.933
REMARK INTER + INTRA:          -6.930
REMARK INTER:                  -6.616
REMARK INTRA:                  -0.314
REMARK UNBOUND:                -0.245
REMARK SMILES O=c1c(O)c(-c2ccc(O)c(O)c2)oc2cc(O)cc(O)c12
REMARK SMILES IDX 5 1 3 2 2 3 1 4 22 5 20 6 19 7 17 8 16 9 15 10 14 11 6 12
REMARK SMILES IDX 7 13 8 14 9 15 13 16 11 17 10 18 12 20 4 22 21 24 18 26
REMARK H PARENT 10 19 12 21 4 23 21 25 18 27
REMARK Flexibility Score: inf
ROOT
ATOM      1  C   UNL     1       6.458  74.851  37.965  1.00  0.00     0.180 A 
ATOM      2  C   UNL     1       5.436  75.501  38.679  1.00  0.00     0.208 A 
ATOM      3  C   UNL     1       5.586  76.860  38.997  1.00  0.00     0.238 A 
ATOM      4  O   UNL     1       4.636  77.454  39.570  1.00  0.00    -0.285 OA
ATOM      5  C   UNL     1       6.779  77.539  38.648  1.00  0.00     0.111 A 
ATOM      6  C   UNL     1       7.058  78.904  38.959  1.00  0.00     0.134 A 
ATOM      7  C   UNL     1       8.228  79.500  38.469  1.00  0.00     0.093 A 
ATOM      8  C   UNL     1       9.156  78.764  37.735  1.00  0.00     0.123 A 
ATOM      9  C   UNL     1       8.921  77.415  37.471  1.00  0.00     0.094 A 
ATOM     10  C   UNL     1       7.746  76.803  37.914  1.00  0.00     0.146 A 
ATOM     11  O   UNL     1       7.551  75.523  37.622  1.00  0.00    -0.452 OA
ENDROOT
BRANCH   1  12
ATOM     12  C   UNL     1       6.366  73.424  37.580  1.00  0.00     0.025 A 
ATOM     13  C   UNL     1       5.671  73.069  36.413  1.00  0.00     0.016 A 
ATOM     14  C   UNL     1       5.553  71.727  36.041  1.00  0.00     0.051 A 
ATOM     15  C   UNL     1       6.115  70.722  36.838  1.00  0.00     0.157 A 
ATOM     16  C   UNL     1       6.910  72.411  38.388  1.00  0.00     0.062 A 
ATOM     17  C   UNL     1       6.790  71.064  38.017  1.00  0.00     0.158 A 
BRANCH  15  18
ATOM     18  O   UNL     1       6.001  69.382  36.470  1.00  0.00    -0.504 OA
ATOM     19  H   UNL     1       6.630  68.962  35.796  1.00  0.00     0.293 HD
ENDBRANCH  15  18
BRANCH  17  20
ATOM     20  O   UNL     1       7.335  70.059  38.815  1.00  0.00    -0.504 OA
ATOM     21  H   UNL     1       7.030  69.919  39.771  1.00  0.00     0.293 HD
ENDBRANCH  17  20
ENDBRANCH   1  12
BRANCH   2  22
ATOM     22  O   UNL     1       4.300  74.794  39.082  1.00  0.00    -0.502 OA
ATOM     23  H   UNL     1       3.906  74.882  40.011  1.00  0.00     0.293 HD
ENDBRANCH   2  22
BRANCH   6  24
ATOM     24  O   UNL     1       6.241  79.708  39.760  1.00  0.00    -0.507 OA
ATOM     25  H   UNL     1       6.334  79.813  40.759  1.00  0.00     0.293 HD
ENDBRANCH   6  24
BRANCH   8  26
ATOM     26  O   UNL     1      10.317  79.385  37.278  1.00  0.00    -0.508 OA
ATOM     27  H   UNL     1      10.455  79.595  36.296  1.00  0.00     0.293 HD
ENDBRANCH   8  26
TORSDOF 6
ENDMDL
MODEL 9
REMARK VINA RESULT:    -5.461      5.501      8.495
REMARK INTER + INTRA:          -6.824
REMARK INTER:                  -6.584
REMARK INTRA:                  -0.240
REMARK UNBOUND:                -0.245
REMARK SMILES O=c1c(O)c(-c2ccc(O)c(O)c2)oc2cc(O)cc(O)c12
REMARK SMILES IDX 5 1 3 2 2 3 1 4 22 5 20 6 19 7 17 8 16 9 15 10 14 11 6 12
REMARK SMILES IDX 7 13 8 14 9 15 13 16 11 17 10 18 12 20 4 22 21 24 18 26
REMARK H PARENT 10 19 12 21 4 23 21 25 18 27
REMARK Flexibility Score: inf
ROOT
ATOM      1  C   UNL     1       8.599  79.766  39.794  1.00  0.00     0.180 A 
ATOM      2  C   UNL     1       9.901  80.119  39.397  1.00  0.00     0.208 A 
ATOM      3  C   UNL     1      10.635  81.015  40.192  1.00  0.00     0.238 A 
ATOM      4  O   UNL     1      11.825  81.268  39.871  1.00  0.00    -0.285 OA
ATOM      5  C   UNL     1      10.040  81.590  41.340  1.00  0.00     0.111 A 
ATOM      6  C   UNL     1      10.674  82.543  42.193  1.00  0.00     0.134 A 
ATOM      7  C   UNL     1      10.026  82.964  43.362  1.00  0.00     0.093 A 
ATOM      8  C   UNL     1       8.745  82.515  43.676  1.00  0.00     0.123 A 
ATOM      9  C   UNL     1       8.092  81.626  42.821  1.00  0.00     0.094 A 
ATOM     10  C   UNL     1       8.727  81.159  41.668  1.00  0.00     0.146 A 
ATOM     11  O   UNL     1       8.079  80.297  40.895  1.00  0.00    -0.452 OA
ENDROOT
BRANCH   1  12
ATOM     12  C   UNL     1       7.769  78.817  39.017  1.00  0.00     0.025 A 
ATOM     13  C   UNL     1       7.191  79.235  37.809  1.00  0.00     0.016 A 
ATOM     14  C   UNL     1       6.387  78.364  37.070  1.00  0.00     0.051 A 
ATOM     15  C   UNL     1       6.138  77.067  37.536  1.00  0.00     0.157 A 
ATOM     16  C   UNL     1       7.500  77.521  39.493  1.00  0.00     0.062 A 
ATOM     17  C   UNL     1       6.691  76.646  38.753  1.00  0.00     0.158 A 
BRANCH  15  18
ATOM     18  O   UNL     1       5.338  76.194  36.801  1.00  0.00    -0.504 OA
ATOM     19  H   UNL     1       4.340  76.342  36.705  1.00  0.00     0.293 HD
ENDBRANCH  15  18
BRANCH  17  20
ATOM     20  O   UNL     1       6.428  75.360  39.221  1.00  0.00    -0.504 OA
ATOM     21  H   UNL     1       6.130  74.620  38.597  1.00  0.00     0.293 HD
ENDBRANCH  17  20
ENDBRANCH   1  12
BRANCH   2  22
ATOM     22  O   UNL     1      10.443  79.599  38.219  1.00  0.00    -0.502 OA
ATOM     23  H   UNL     1      11.200  80.053  37.722  1.00  0.00     0.293 HD
ENDBRANCH   2  22
BRANCH   6  24
ATOM     24  O   UNL     1      11.918  83.125  41.930  1.00  0.00    -0.507 OA
ATOM     25  H   UNL     1      12.248  83.990  42.329  1.00  0.00     0.293 HD
ENDBRANCH   6  24
BRANCH   8  26
ATOM     26  O   UNL     1       8.124  82.968  44.838  1.00  0.00    -0.508 OA
ATOM     27  H   UNL     1       8.636  83.071  45.707  1.00  0.00     0.293 HD
ENDBRANCH   8  26
TORSDOF 6
ENDMDL
