MODEL 1
REMARK VINA RESULT:    18.463      0.000      0.000
REMARK INTER + INTRA:          20.099
REMARK INTER:                  20.082
REMARK INTRA:                   0.017
REMARK UNBOUND:                 0.017
REMARK SMILES CC1(C)CC[C@]2(C(=O)[O-])CC[C@@]3(C)C(=CC[C@H]4[C@@]5(C)CC[C@@H](O)C(C)(C)[C@@H]5CC[C@]43C)[C@@H]2C1
REMARK SMILES IDX 6 1 5 2 10 3 32 4 4 5 11 6 14 7 33 8 2 9 12 10 15 11 1 12
REMARK SMILES IDX 3 13 13 14 30 15 16 16 17 17 29 18 31 19 18 20 28 21 27 22
REMARK SMILES IDX 20 23 19 24 24 25 21 26 22 27 25 28 26 29 7 30 8 31 9 32
REMARK SMILES IDX 23 33
REMARK H PARENT 23 34
REMARK Flexibility Score: inf
ROOT
ATOM      1  C   UNL     1       7.474 -54.185 578.004  1.00  0.00     0.017 C 
ATOM      2  C   UNL     1       7.562 -53.073 579.088  1.00  0.00     0.014 C 
ATOM      3  C   UNL     1       8.863 -54.450 577.392  1.00  0.00     0.014 C 
ATOM      4  C   UNL     1       6.512 -53.771 576.849  1.00  0.00     0.028 C 
ATOM      5  C   UNL     1       7.845 -51.673 578.531  1.00  0.00     0.007 C 
ATOM      6  C   UNL     1       8.876 -55.636 576.418  1.00  0.00     0.013 C 
ATOM      7  C   UNL     1       6.560 -54.730 575.651  1.00  0.00    -0.064 C 
ATOM      8  C   UNL     1       6.779 -52.325 576.335  1.00  0.00     0.015 C 
ATOM      9  C   UNL     1       6.831 -51.249 577.446  1.00  0.00    -0.035 C 
ATOM     10  C   UNL     1       7.637 -55.805 575.434  1.00  0.00    -0.006 C 
ATOM     11  C   UNL     1       5.568 -54.610 574.755  1.00  0.00    -0.027 C 
ATOM     12  C   UNL     1       7.308 -49.918 576.824  1.00  0.00     0.011 C 
ATOM     13  C   UNL     1       5.427 -51.012 578.052  1.00  0.00     0.011 C 
ATOM     14  C   UNL     1       6.952 -57.163 575.792  1.00  0.00     0.017 C 
ATOM     15  C   UNL     1       8.097 -55.823 573.889  1.00  0.00    -0.020 C 
ATOM     16  C   UNL     1       5.596 -55.168 573.367  1.00  0.00     0.032 C 
ATOM     17  C   UNL     1       6.837 -56.017 572.922  1.00  0.00     0.006 C 
ATOM     18  C   UNL     1       8.794 -54.472 573.519  1.00  0.00     0.008 C 
ATOM     19  C   UNL     1       9.111 -57.008 573.696  1.00  0.00     0.012 C 
ATOM     20  C   UNL     1       7.150 -55.840 571.355  1.00  0.00    -0.025 C 
ATOM     21  C   UNL     1       9.112 -54.294 572.023  1.00  0.00     0.005 C 
ATOM     22  C   UNL     1       7.850 -54.443 571.139  1.00  0.00     0.003 C 
ATOM     23  C   UNL     1       5.829 -55.891 570.505  1.00  0.00     0.010 C 
ATOM     24  C   UNL     1       8.019 -57.048 570.858  1.00  0.00     0.012 C 
ATOM     25  C   UNL     1       8.029 -53.980 569.637  1.00  0.00    -0.006 C 
ATOM     26  C   UNL     1       6.015 -55.482 569.032  1.00  0.00     0.033 C 
ATOM     27  C   UNL     1       6.656 -54.094 568.893  1.00  0.00     0.120 C 
ATOM     28  C   UNL     1       9.118 -54.774 568.869  1.00  0.00     0.014 C 
ATOM     29  C   UNL     1       8.470 -52.488 569.590  1.00  0.00     0.014 C 
ENDROOT
BRANCH   1  30
ATOM     30  C   UNL     1       6.972 -55.423 578.735  1.00  0.00     0.048 C 
ATOM     31  O   UNL     1       7.776 -56.317 579.115  1.00  0.00    -0.550 OA
ATOM     32  O   UNL     1       5.608 -55.644 578.884  1.00  0.00    -0.550 OA
ENDBRANCH   1  30
BRANCH  27  33
ATOM     33  O   UNL     1       5.743 -53.139 569.384  1.00  0.00    -0.393 OA
ATOM     34  H   UNL     1       5.006 -53.062 568.724  1.00  0.00     0.210 HD
ENDBRANCH  27  33
TORSDOF 2
ENDMDL
MODEL 2
REMARK VINA RESULT:    19.280      2.152      8.408
REMARK INTER + INTRA:          20.987
REMARK INTER:                  20.456
REMARK INTRA:                   0.531
REMARK UNBOUND:                 0.017
REMARK SMILES CC1(C)CC[C@]2(C(=O)[O-])CC[C@@]3(C)C(=CC[C@H]4[C@@]5(C)CC[C@@H](O)C(C)(C)[C@@H]5CC[C@]43C)[C@@H]2C1
REMARK SMILES IDX 6 1 5 2 10 3 32 4 4 5 11 6 14 7 33 8 2 9 12 10 15 11 1 12
REMARK SMILES IDX 3 13 13 14 30 15 16 16 17 17 29 18 31 19 18 20 28 21 27 22
REMARK SMILES IDX 20 23 19 24 24 25 21 26 22 27 25 28 26 29 7 30 8 31 9 32
REMARK SMILES IDX 23 33
REMARK H PARENT 23 34
REMARK Flexibility Score: inf
ROOT
ATOM      1  C   UNL     1       7.797 -54.724 567.335  1.00  0.00     0.017 C 
ATOM      2  C   UNL     1       8.038 -55.695 566.144  1.00  0.00     0.014 C 
ATOM      3  C   UNL     1       9.125 -54.413 568.053  1.00  0.00     0.014 C 
ATOM      4  C   UNL     1       6.821 -55.345 568.380  1.00  0.00     0.028 C 
ATOM      5  C   UNL     1       8.419 -57.120 566.562  1.00  0.00     0.007 C 
ATOM      6  C   UNL     1       8.983 -53.348 569.148  1.00  0.00     0.013 C 
ATOM      7  C   UNL     1       6.724 -54.527 569.676  1.00  0.00    -0.064 C 
ATOM      8  C   UNL     1       7.192 -56.812 568.749  1.00  0.00     0.015 C 
ATOM      9  C   UNL     1       7.396 -57.748 567.534  1.00  0.00    -0.035 C 
ATOM     10  C   UNL     1       7.687 -53.396 570.071  1.00  0.00    -0.006 C 
ATOM     11  C   UNL     1       5.705 -54.831 570.494  1.00  0.00    -0.027 C 
ATOM     12  C   UNL     1       7.960 -59.095 568.035  1.00  0.00     0.011 C 
ATOM     13  C   UNL     1       6.050 -58.032 566.824  1.00  0.00     0.011 C 
ATOM     14  C   UNL     1       6.901 -52.069 569.822  1.00  0.00     0.017 C 
ATOM     15  C   UNL     1       8.068 -53.514 571.633  1.00  0.00    -0.020 C 
ATOM     16  C   UNL     1       5.614 -54.432 571.933  1.00  0.00     0.032 C 
ATOM     17  C   UNL     1       6.750 -53.538 572.539  1.00  0.00     0.006 C 
ATOM     18  C   UNL     1       8.865 -54.834 571.894  1.00  0.00     0.008 C 
ATOM     19  C   UNL     1       8.961 -52.278 572.012  1.00  0.00     0.012 C 
ATOM     20  C   UNL     1       7.001 -53.863 574.094  1.00  0.00    -0.025 C 
ATOM     21  C   UNL     1       9.125 -55.153 573.378  1.00  0.00     0.005 C 
ATOM     22  C   UNL     1       7.812 -55.212 574.198  1.00  0.00     0.003 C 
ATOM     23  C   UNL     1       5.640 -54.020 574.866  1.00  0.00     0.010 C 
ATOM     24  C   UNL     1       7.731 -52.650 574.769  1.00  0.00     0.012 C 
ATOM     25  C   UNL     1       7.959 -55.825 575.649  1.00  0.00    -0.006 C 
ATOM     26  C   UNL     1       5.791 -54.576 576.294  1.00  0.00     0.033 C 
ATOM     27  C   UNL     1       6.547 -55.912 576.320  1.00  0.00     0.120 C 
ATOM     28  C   UNL     1       8.933 -55.034 576.561  1.00  0.00     0.014 C 
ATOM     29  C   UNL     1       8.530 -57.269 575.560  1.00  0.00     0.014 C 
ENDROOT
BRANCH   1  30
ATOM     30  C   UNL     1       7.222 -53.457 566.714  1.00  0.00     0.048 C 
ATOM     31  O   UNL     1       6.196 -53.506 565.983  1.00  0.00    -0.550 OA
ATOM     32  O   UNL     1       7.892 -52.247 566.844  1.00  0.00    -0.550 OA
ENDBRANCH   1  30
BRANCH  27  33
ATOM     33  O   UNL     1       5.749 -56.878 575.675  1.00  0.00    -0.393 OA
ATOM     34  H   UNL     1       5.434 -57.516 576.368  1.00  0.00     0.210 HD
ENDBRANCH  27  33
TORSDOF 2
ENDMDL
MODEL 3
REMARK VINA RESULT:    19.444      1.707      8.048
REMARK INTER + INTRA:          21.166
REMARK INTER:                  21.332
REMARK INTRA:                  -0.166
REMARK UNBOUND:                 0.017
REMARK SMILES CC1(C)CC[C@]2(C(=O)[O-])CC[C@@]3(C)C(=CC[C@H]4[C@@]5(C)CC[C@@H](O)C(C)(C)[C@@H]5CC[C@]43C)[C@@H]2C1
REMARK SMILES IDX 6 1 5 2 10 3 32 4 4 5 11 6 14 7 33 8 2 9 12 10 15 11 1 12
REMARK SMILES IDX 3 13 13 14 30 15 16 16 17 17 29 18 31 19 18 20 28 21 27 22
REMARK SMILES IDX 20 23 19 24 24 25 21 26 22 27 25 28 26 29 7 30 8 31 9 32
REMARK SMILES IDX 23 33
REMARK H PARENT 23 34
REMARK Flexibility Score: inf
ROOT
ATOM      1  C   UNL     1       7.931 -55.635 568.556  1.00  0.00     0.017 C 
ATOM      2  C   UNL     1       8.433 -56.740 567.582  1.00  0.00     0.014 C 
ATOM      3  C   UNL     1       9.125 -54.882 569.175  1.00  0.00     0.014 C 
ATOM      4  C   UNL     1       7.095 -56.248 569.720  1.00  0.00     0.028 C 
ATOM      5  C   UNL     1       9.124 -57.920 568.272  1.00  0.00     0.007 C 
ATOM      6  C   UNL     1       8.700 -53.684 570.034  1.00  0.00     0.013 C 
ATOM      7  C   UNL     1       6.766 -55.234 570.825  1.00  0.00    -0.064 C 
ATOM      8  C   UNL     1       7.789 -57.482 570.372  1.00  0.00     0.015 C 
ATOM      9  C   UNL     1       8.247 -58.566 569.367  1.00  0.00    -0.035 C 
ATOM     10  C   UNL     1       7.423 -53.852 570.969  1.00  0.00    -0.006 C 
ATOM     11  C   UNL     1       5.821 -55.601 571.704  1.00  0.00    -0.027 C 
ATOM     12  C   UNL     1       9.095 -59.613 570.122  1.00  0.00     0.011 C 
ATOM     13  C   UNL     1       7.029 -59.297 568.752  1.00  0.00     0.011 C 
ATOM     14  C   UNL     1       6.354 -52.827 570.469  1.00  0.00     0.017 C 
ATOM     15  C   UNL     1       7.769 -53.562 572.516  1.00  0.00    -0.020 C 
ATOM     16  C   UNL     1       5.592 -54.956 573.034  1.00  0.00     0.032 C 
ATOM     17  C   UNL     1       6.465 -53.715 573.429  1.00  0.00     0.006 C 
ATOM     18  C   UNL     1       8.845 -54.576 573.026  1.00  0.00     0.008 C 
ATOM     19  C   UNL     1       8.333 -52.099 572.623  1.00  0.00     0.012 C 
ATOM     20  C   UNL     1       6.734 -53.654 575.013  1.00  0.00    -0.025 C 
ATOM     21  C   UNL     1       9.125 -54.520 574.539  1.00  0.00     0.005 C 
ATOM     22  C   UNL     1       7.837 -54.723 575.374  1.00  0.00     0.003 C 
ATOM     23  C   UNL     1       5.424 -53.972 575.823  1.00  0.00     0.010 C 
ATOM     24  C   UNL     1       7.136 -52.193 575.418  1.00  0.00     0.012 C 
ATOM     25  C   UNL     1       8.076 -54.982 576.917  1.00  0.00    -0.006 C 
ATOM     26  C   UNL     1       5.655 -54.179 577.331  1.00  0.00     0.033 C 
ATOM     27  C   UNL     1       6.703 -55.265 577.614  1.00  0.00     0.120 C 
ATOM     28  C   UNL     1       8.806 -53.816 577.635  1.00  0.00     0.014 C 
ATOM     29  C   UNL     1       8.973 -56.237 577.113  1.00  0.00     0.014 C 
ENDROOT
BRANCH   1  30
ATOM     30  C   UNL     1       7.095 -54.692 567.701  1.00  0.00     0.048 C 
ATOM     31  O   UNL     1       5.841 -54.816 567.642  1.00  0.00    -0.550 OA
ATOM     32  O   UNL     1       7.713 -53.758 566.878  1.00  0.00    -0.550 OA
ENDBRANCH   1  30
BRANCH  27  33
ATOM     33  O   UNL     1       6.176 -56.501 577.191  1.00  0.00    -0.393 OA
ATOM     34  H   UNL     1       5.320 -56.643 577.673  1.00  0.00     0.210 HD
ENDBRANCH  27  33
TORSDOF 2
ENDMDL
