MODEL 1
REMARK VINA RESULT:    -6.702      0.000      0.000
REMARK INTER + INTRA:          -9.160
REMARK INTER:                  -8.660
REMARK INTRA:                  -0.499
REMARK UNBOUND:                -0.499
REMARK SMILES COc1cc(-c2[o+]c3cc(O)cc(O)c3cc2O)cc(OC)c1O
REMARK SMILES IDX 6 1 7 2 8 3 9 4 10 5 12 6 13 7 15 8 16 9 17 10 5 11 3 12
REMARK SMILES IDX 4 13 23 14 20 15 19 16 2 17 1 18 24 19 21 21 22 22 18 23
REMARK SMILES IDX 11 25 14 27
REMARK H PARENT 24 20 18 24 11 26 14 28
REMARK Flexibility Score: inf
ROOT
ATOM      1  C   UNL     1     -22.080  11.836 -34.824  1.00  0.00     0.402 A 
ATOM      2  O   UNL     1     -21.030  12.097 -34.049  1.00  0.00    -0.202 OA
ATOM      3  C   UNL     1     -19.773  11.902 -34.433  1.00  0.00     0.368 A 
ATOM      4  C   UNL     1     -18.737  12.205 -33.545  1.00  0.00     0.162 A 
ATOM      5  C   UNL     1     -17.405  12.006 -33.921  1.00  0.00     0.128 A 
ATOM      6  C   UNL     1     -17.109  11.502 -35.189  1.00  0.00     0.093 A 
ATOM      7  C   UNL     1     -18.129  11.190 -36.097  1.00  0.00     0.136 A 
ATOM      8  C   UNL     1     -19.482  11.393 -35.722  1.00  0.00     0.125 A 
ATOM      9  C   UNL     1     -20.568  11.122 -36.569  1.00  0.00     0.078 A 
ATOM     10  C   UNL     1     -21.875  11.351 -36.130  1.00  0.00     0.223 A 
ENDROOT
BRANCH   1  11
ATOM     11  C   UNL     1     -23.434  12.087 -34.280  1.00  0.00     0.091 A 
ATOM     12  C   UNL     1     -25.311  11.457 -32.852  1.00  0.00     0.165 A 
ATOM     13  C   UNL     1     -24.032  11.195 -33.375  1.00  0.00     0.069 A 
ATOM     14  C   UNL     1     -25.985  12.626 -33.227  1.00  0.00     0.200 A 
ATOM     15  C   UNL     1     -25.389  13.540 -34.115  1.00  0.00     0.165 A 
ATOM     16  C   UNL     1     -24.109  13.265 -34.631  1.00  0.00     0.069 A 
BRANCH  12  17
ATOM     17  O   UNL     1     -25.943  10.581 -31.954  1.00  0.00    -0.493 OA
ATOM     18  C   UNL     1     -25.321  10.015 -30.806  1.00  0.00     0.278 C 
ENDBRANCH  12  17
BRANCH  14  19
ATOM     19  O   UNL     1     -27.256  12.871 -32.702  1.00  0.00    -0.502 OA
ATOM     20  H   UNL     1     -27.472  13.707 -32.173  1.00  0.00     0.293 HD
ENDBRANCH  14  19
BRANCH  15  21
ATOM     21  O   UNL     1     -26.091  14.706 -34.460  1.00  0.00    -0.493 OA
ATOM     22  C   UNL     1     -25.580  16.029 -34.329  1.00  0.00     0.278 C 
ENDBRANCH  15  21
ENDBRANCH   1  11
BRANCH  10  23
ATOM     23  O   UNL     1     -22.952  11.128 -36.989  1.00  0.00    -0.500 OA
ATOM     24  H   UNL     1     -23.857  10.831 -36.642  1.00  0.00     0.294 HD
ENDBRANCH  10  23
BRANCH   5  25
ATOM     25  O   UNL     1     -16.368  12.307 -33.042  1.00  0.00    -0.507 OA
ATOM     26  H   UNL     1     -15.647  12.978 -33.281  1.00  0.00     0.293 HD
ENDBRANCH   5  25
BRANCH   7  27
ATOM     27  O   UNL     1     -17.749  10.687 -37.345  1.00  0.00    -0.507 OA
ATOM     28  H   UNL     1     -17.170  11.182 -38.007  1.00  0.00     0.293 HD
ENDBRANCH   7  27
TORSDOF 7
ENDMDL
MODEL 2
REMARK VINA RESULT:    -6.686      0.307      2.629
REMARK INTER + INTRA:          -9.140
REMARK INTER:                  -8.640
REMARK INTRA:                  -0.500
REMARK UNBOUND:                -0.499
REMARK SMILES COc1cc(-c2[o+]c3cc(O)cc(O)c3cc2O)cc(OC)c1O
REMARK SMILES IDX 6 1 7 2 8 3 9 4 10 5 12 6 13 7 15 8 16 9 17 10 5 11 3 12
REMARK SMILES IDX 4 13 23 14 20 15 19 16 2 17 1 18 24 19 21 21 22 22 18 23
REMARK SMILES IDX 11 25 14 27
REMARK H PARENT 24 20 18 24 11 26 14 28
REMARK Flexibility Score: inf
ROOT
ATOM      1  C   UNL     1     -21.981  11.773 -34.927  1.00  0.00     0.402 A 
ATOM      2  O   UNL     1     -20.889  12.023 -34.209  1.00  0.00    -0.202 OA
ATOM      3  C   UNL     1     -19.656  11.847 -34.672  1.00  0.00     0.368 A 
ATOM      4  C   UNL     1     -18.570  12.135 -33.840  1.00  0.00     0.162 A 
ATOM      5  C   UNL     1     -17.262  11.957 -34.300  1.00  0.00     0.128 A 
ATOM      6  C   UNL     1     -17.039  11.488 -35.597  1.00  0.00     0.093 A 
ATOM      7  C   UNL     1     -18.110  11.192 -36.450  1.00  0.00     0.136 A 
ATOM      8  C   UNL     1     -19.439  11.374 -35.989  1.00  0.00     0.125 A 
ATOM      9  C   UNL     1     -20.573  11.117 -36.777  1.00  0.00     0.078 A 
ATOM     10  C   UNL     1     -21.852  11.325 -36.255  1.00  0.00     0.223 A 
ENDROOT
BRANCH   1  11
ATOM     11  C   UNL     1     -23.302  12.000 -34.296  1.00  0.00     0.091 A 
ATOM     12  C   UNL     1     -25.325  13.334 -33.999  1.00  0.00     0.165 A 
ATOM     13  C   UNL     1     -24.063  13.142 -34.591  1.00  0.00     0.069 A 
ATOM     14  C   UNL     1     -25.830  12.367 -33.120  1.00  0.00     0.200 A 
ATOM     15  C   UNL     1     -25.089  11.206 -32.833  1.00  0.00     0.165 A 
ATOM     16  C   UNL     1     -23.828  11.028 -33.433  1.00  0.00     0.069 A 
BRANCH  12  17
ATOM     17  O   UNL     1     -26.108  14.469 -34.262  1.00  0.00    -0.493 OA
ATOM     18  C   UNL     1     -25.669  15.812 -34.085  1.00  0.00     0.278 C 
ENDBRANCH  12  17
BRANCH  14  19
ATOM     19  O   UNL     1     -27.082  12.573 -32.537  1.00  0.00    -0.502 OA
ATOM     20  H   UNL     1     -27.438  11.983 -31.795  1.00  0.00     0.293 HD
ENDBRANCH  14  19
BRANCH  15  21
ATOM     21  O   UNL     1     -25.632  10.255 -31.955  1.00  0.00    -0.493 OA
ATOM     22  C   UNL     1     -25.251  10.100 -30.592  1.00  0.00     0.278 C 
ENDBRANCH  15  21
ENDBRANCH   1  11
BRANCH  10  23
ATOM     23  O   UNL     1     -22.977  11.116 -37.054  1.00  0.00    -0.500 OA
ATOM     24  H   UNL     1     -23.022  10.355 -37.721  1.00  0.00     0.294 HD
ENDBRANCH  10  23
BRANCH   5  25
ATOM     25  O   UNL     1     -16.176  12.242 -33.476  1.00  0.00    -0.507 OA
ATOM     26  H   UNL     1     -16.173  11.989 -32.495  1.00  0.00     0.293 HD
ENDBRANCH   5  25
BRANCH   7  27
ATOM     27  O   UNL     1     -17.802  10.725 -37.731  1.00  0.00    -0.507 OA
ATOM     28  H   UNL     1     -16.865  10.560 -38.069  1.00  0.00     0.293 HD
ENDBRANCH   7  27
TORSDOF 7
ENDMDL
MODEL 3
REMARK VINA RESULT:    -6.617      5.843      8.896
REMARK INTER + INTRA:          -9.050
REMARK INTER:                  -8.583
REMARK INTRA:                  -0.467
REMARK UNBOUND:                -0.499
REMARK SMILES COc1cc(-c2[o+]c3cc(O)cc(O)c3cc2O)cc(OC)c1O
REMARK SMILES IDX 6 1 7 2 8 3 9 4 10 5 12 6 13 7 15 8 16 9 17 10 5 11 3 12
REMARK SMILES IDX 4 13 23 14 20 15 19 16 2 17 1 18 24 19 21 21 22 22 18 23
REMARK SMILES IDX 11 25 14 27
REMARK H PARENT 24 20 18 24 11 26 14 28
REMARK Flexibility Score: inf
ROOT
ATOM      1  C   UNL     1     -23.259  16.017 -39.177  1.00  0.00     0.402 A 
ATOM      2  O   UNL     1     -23.417  16.766 -40.265  1.00  0.00    -0.202 OA
ATOM      3  C   UNL     1     -23.403  18.095 -40.245  1.00  0.00     0.368 A 
ATOM      4  C   UNL     1     -23.581  18.794 -41.442  1.00  0.00     0.162 A 
ATOM      5  C   UNL     1     -23.574  20.193 -41.449  1.00  0.00     0.128 A 
ATOM      6  C   UNL     1     -23.390  20.893 -40.255  1.00  0.00     0.093 A 
ATOM      7  C   UNL     1     -23.211  20.215 -39.042  1.00  0.00     0.136 A 
ATOM      8  C   UNL     1     -23.214  18.796 -39.029  1.00  0.00     0.125 A 
ATOM      9  C   UNL     1     -23.029  18.033 -37.865  1.00  0.00     0.078 A 
ATOM     10  C   UNL     1     -23.040  16.638 -37.932  1.00  0.00     0.223 A 
ENDROOT
BRANCH   1  11
ATOM     11  C   UNL     1     -23.303  14.545 -39.326  1.00  0.00     0.091 A 
ATOM     12  C   UNL     1     -24.536  12.474 -39.719  1.00  0.00     0.165 A 
ATOM     13  C   UNL     1     -24.513  13.872 -39.560  1.00  0.00     0.069 A 
ATOM     14  C   UNL     1     -23.337  11.752 -39.658  1.00  0.00     0.200 A 
ATOM     15  C   UNL     1     -22.114  12.415 -39.449  1.00  0.00     0.165 A 
ATOM     16  C   UNL     1     -22.107  13.814 -39.290  1.00  0.00     0.069 A 
BRANCH  12  17
ATOM     17  O   UNL     1     -25.729  11.768 -39.942  1.00  0.00    -0.493 OA
ATOM     18  C   UNL     1     -26.913  11.918 -39.167  1.00  0.00     0.278 C 
ENDBRANCH  12  17
BRANCH  14  19
ATOM     19  O   UNL     1     -23.376  10.365 -39.815  1.00  0.00    -0.502 OA
ATOM     20  H   UNL     1     -23.573   9.737 -39.045  1.00  0.00     0.293 HD
ENDBRANCH  14  19
BRANCH  15  21
ATOM     21  O   UNL     1     -20.932  11.659 -39.404  1.00  0.00    -0.493 OA
ATOM     22  C   UNL     1     -20.058  11.456 -40.510  1.00  0.00     0.278 C 
ENDBRANCH  15  21
ENDBRANCH   1  11
BRANCH  10  23
ATOM     23  O   UNL     1     -22.807  15.879 -36.784  1.00  0.00    -0.500 OA
ATOM     24  H   UNL     1     -21.950  15.354 -36.659  1.00  0.00     0.294 HD
ENDBRANCH  10  23
BRANCH   5  25
ATOM     25  O   UNL     1     -23.749  20.896 -42.638  1.00  0.00    -0.507 OA
ATOM     26  H   UNL     1     -24.331  20.537 -43.386  1.00  0.00     0.293 HD
ENDBRANCH   5  25
BRANCH   7  27
ATOM     27  O   UNL     1     -23.037  20.990 -37.891  1.00  0.00    -0.507 OA
ATOM     28  H   UNL     1     -22.819  21.975 -37.894  1.00  0.00     0.293 HD
ENDBRANCH   7  27
TORSDOF 7
ENDMDL
MODEL 4
REMARK VINA RESULT:    -6.567      5.206      8.285
REMARK INTER + INTRA:          -8.986
REMARK INTER:                  -8.470
REMARK INTRA:                  -0.516
REMARK UNBOUND:                -0.499
REMARK SMILES COc1cc(-c2[o+]c3cc(O)cc(O)c3cc2O)cc(OC)c1O
REMARK SMILES IDX 6 1 7 2 8 3 9 4 10 5 12 6 13 7 15 8 16 9 17 10 5 11 3 12
REMARK SMILES IDX 4 13 23 14 20 15 19 16 2 17 1 18 24 19 21 21 22 22 18 23
REMARK SMILES IDX 11 25 14 27
REMARK H PARENT 24 20 18 24 11 26 14 28
REMARK Flexibility Score: inf
ROOT
ATOM      1  C   UNL     1     -23.355  14.539 -39.150  1.00  0.00     0.402 A 
ATOM      2  O   UNL     1     -22.722  15.356 -39.988  1.00  0.00    -0.202 OA
ATOM      3  C   UNL     1     -23.230  16.512 -40.402  1.00  0.00     0.368 A 
ATOM      4  C   UNL     1     -22.490  17.301 -41.287  1.00  0.00     0.162 A 
ATOM      5  C   UNL     1     -23.001  18.521 -41.741  1.00  0.00     0.128 A 
ATOM      6  C   UNL     1     -24.258  18.952 -41.310  1.00  0.00     0.093 A 
ATOM      7  C   UNL     1     -25.020  18.179 -40.424  1.00  0.00     0.136 A 
ATOM      8  C   UNL     1     -24.504  16.942 -39.958  1.00  0.00     0.125 A 
ATOM      9  C   UNL     1     -25.190  16.108 -39.060  1.00  0.00     0.078 A 
ATOM     10  C   UNL     1     -24.615  14.905 -38.641  1.00  0.00     0.223 A 
ENDROOT
BRANCH   1  11
ATOM     11  C   UNL     1     -22.689  13.272 -38.769  1.00  0.00     0.091 A 
ATOM     12  C   UNL     1     -21.333  11.954 -37.224  1.00  0.00     0.165 A 
ATOM     13  C   UNL     1     -21.944  13.169 -37.583  1.00  0.00     0.069 A 
ATOM     14  C   UNL     1     -21.484  10.834 -38.052  1.00  0.00     0.200 A 
ATOM     15  C   UNL     1     -22.247  10.916 -39.231  1.00  0.00     0.165 A 
ATOM     16  C   UNL     1     -22.852  12.138 -39.578  1.00  0.00     0.069 A 
BRANCH  12  17
ATOM     17  O   UNL     1     -20.572  11.819 -36.052  1.00  0.00    -0.493 OA
ATOM     18  C   UNL     1     -21.079  11.998 -34.734  1.00  0.00     0.278 C 
ENDBRANCH  12  17
BRANCH  14  19
ATOM     19  O   UNL     1     -20.869   9.635 -37.685  1.00  0.00    -0.502 OA
ATOM     20  H   UNL     1     -20.490   8.989 -38.366  1.00  0.00     0.293 HD
ENDBRANCH  14  19
BRANCH  15  21
ATOM     21  O   UNL     1     -22.384   9.769 -40.031  1.00  0.00    -0.493 OA
ATOM     22  C   UNL     1     -23.400   9.581 -41.010  1.00  0.00     0.278 C 
ENDBRANCH  15  21
ENDBRANCH   1  11
BRANCH  10  23
ATOM     23  O   UNL     1     -25.274  14.100 -37.711  1.00  0.00    -0.500 OA
ATOM     24  H   UNL     1     -24.935  13.997 -36.762  1.00  0.00     0.294 HD
ENDBRANCH  10  23
BRANCH   5  25
ATOM     25  O   UNL     1     -22.268  19.313 -42.621  1.00  0.00    -0.507 OA
ATOM     26  H   UNL     1     -22.197  20.316 -42.498  1.00  0.00     0.293 HD
ENDBRANCH   5  25
BRANCH   7  27
ATOM     27  O   UNL     1     -26.268  18.679 -40.043  1.00  0.00    -0.507 OA
ATOM     28  H   UNL     1     -27.036  18.110 -39.719  1.00  0.00     0.293 HD
ENDBRANCH   7  27
TORSDOF 7
ENDMDL
MODEL 5
REMARK VINA RESULT:    -6.567      5.172      8.318
REMARK INTER + INTRA:          -8.986
REMARK INTER:                  -8.459
REMARK INTRA:                  -0.527
REMARK UNBOUND:                -0.499
REMARK SMILES COc1cc(-c2[o+]c3cc(O)cc(O)c3cc2O)cc(OC)c1O
REMARK SMILES IDX 6 1 7 2 8 3 9 4 10 5 12 6 13 7 15 8 16 9 17 10 5 11 3 12
REMARK SMILES IDX 4 13 23 14 20 15 19 16 2 17 1 18 24 19 21 21 22 22 18 23
REMARK SMILES IDX 11 25 14 27
REMARK H PARENT 24 20 18 24 11 26 14 28
REMARK Flexibility Score: inf
ROOT
ATOM      1  C   UNL     1     -23.434  14.465 -39.142  1.00  0.00     0.402 A 
ATOM      2  O   UNL     1     -22.779  15.297 -39.948  1.00  0.00    -0.202 OA
ATOM      3  C   UNL     1     -23.274  16.462 -40.351  1.00  0.00     0.368 A 
ATOM      4  C   UNL     1     -22.511  17.267 -41.202  1.00  0.00     0.162 A 
ATOM      5  C   UNL     1     -23.008  18.497 -41.644  1.00  0.00     0.128 A 
ATOM      6  C   UNL     1     -24.274  18.923 -41.235  1.00  0.00     0.093 A 
ATOM      7  C   UNL     1     -25.059  18.134 -40.384  1.00  0.00     0.136 A 
ATOM      8  C   UNL     1     -24.558  16.887 -39.930  1.00  0.00     0.125 A 
ATOM      9  C   UNL     1     -25.267  16.037 -39.065  1.00  0.00     0.078 A 
ATOM     10  C   UNL     1     -24.705  14.825 -38.656  1.00  0.00     0.223 A 
ENDROOT
BRANCH   1  11
ATOM     11  C   UNL     1     -22.780  13.190 -38.770  1.00  0.00     0.091 A 
ATOM     12  C   UNL     1     -22.266  10.845 -39.216  1.00  0.00     0.165 A 
ATOM     13  C   UNL     1     -22.908  12.044 -39.572  1.00  0.00     0.069 A 
ATOM     14  C   UNL     1     -21.478  10.800 -38.057  1.00  0.00     0.200 A 
ATOM     15  C   UNL     1     -21.321  11.946 -37.257  1.00  0.00     0.165 A 
ATOM     16  C   UNL     1     -21.971  13.139 -37.626  1.00  0.00     0.069 A 
BRANCH  12  17
ATOM     17  O   UNL     1     -22.382   9.678 -39.988  1.00  0.00    -0.493 OA
ATOM     18  C   UNL     1     -23.351   9.481 -41.012  1.00  0.00     0.278 C 
ENDBRANCH  12  17
BRANCH  14  19
ATOM     19  O   UNL     1     -20.849   9.602 -37.715  1.00  0.00    -0.502 OA
ATOM     20  H   UNL     1     -20.198   9.532 -36.942  1.00  0.00     0.293 HD
ENDBRANCH  14  19
BRANCH  15  21
ATOM     21  O   UNL     1     -20.516  11.866 -36.109  1.00  0.00    -0.493 OA
ATOM     22  C   UNL     1     -20.967  12.124 -34.784  1.00  0.00     0.278 C 
ENDBRANCH  15  21
ENDBRANCH   1  11
BRANCH  10  23
ATOM     23  O   UNL     1     -25.388  14.003 -37.759  1.00  0.00    -0.500 OA
ATOM     24  H   UNL     1     -25.351  14.161 -36.759  1.00  0.00     0.294 HD
ENDBRANCH  10  23
BRANCH   5  25
ATOM     25  O   UNL     1     -22.253  19.304 -42.491  1.00  0.00    -0.507 OA
ATOM     26  H   UNL     1     -21.325  19.620 -42.234  1.00  0.00     0.293 HD
ENDBRANCH   5  25
BRANCH   7  27
ATOM     27  O   UNL     1     -26.315  18.630 -40.024  1.00  0.00    -0.507 OA
ATOM     28  H   UNL     1     -26.792  19.379 -40.503  1.00  0.00     0.293 HD
ENDBRANCH   7  27
TORSDOF 7
ENDMDL
MODEL 6
REMARK VINA RESULT:    -6.547      5.781      8.862
REMARK INTER + INTRA:          -8.960
REMARK INTER:                  -8.524
REMARK INTRA:                  -0.436
REMARK UNBOUND:                -0.499
REMARK SMILES COc1cc(-c2[o+]c3cc(O)cc(O)c3cc2O)cc(OC)c1O
REMARK SMILES IDX 6 1 7 2 8 3 9 4 10 5 12 6 13 7 15 8 16 9 17 10 5 11 3 12
REMARK SMILES IDX 4 13 23 14 20 15 19 16 2 17 1 18 24 19 21 21 22 22 18 23
REMARK SMILES IDX 11 25 14 27
REMARK H PARENT 24 20 18 24 11 26 14 28
REMARK Flexibility Score: inf
ROOT
ATOM      1  C   UNL     1     -23.310  15.899 -39.219  1.00  0.00     0.402 A 
ATOM      2  O   UNL     1     -23.430  16.661 -40.303  1.00  0.00    -0.202 OA
ATOM      3  C   UNL     1     -23.461  17.989 -40.262  1.00  0.00     0.368 A 
ATOM      4  C   UNL     1     -23.593  18.702 -41.457  1.00  0.00     0.162 A 
ATOM      5  C   UNL     1     -23.632  20.100 -41.444  1.00  0.00     0.128 A 
ATOM      6  C   UNL     1     -23.539  20.786 -40.230  1.00  0.00     0.093 A 
ATOM      7  C   UNL     1     -23.406  20.094 -39.020  1.00  0.00     0.136 A 
ATOM      8  C   UNL     1     -23.364  18.676 -39.028  1.00  0.00     0.125 A 
ATOM      9  C   UNL     1     -23.220  17.900 -37.867  1.00  0.00     0.078 A 
ATOM     10  C   UNL     1     -23.181  16.506 -37.955  1.00  0.00     0.223 A 
ENDROOT
BRANCH   1  11
ATOM     11  C   UNL     1     -23.296  14.429 -39.393  1.00  0.00     0.091 A 
ATOM     12  C   UNL     1     -22.111  12.295 -39.432  1.00  0.00     0.165 A 
ATOM     13  C   UNL     1     -22.105  13.693 -39.283  1.00  0.00     0.069 A 
ATOM     14  C   UNL     1     -23.321  11.630 -39.675  1.00  0.00     0.200 A 
ATOM     15  C   UNL     1     -24.525  12.352 -39.763  1.00  0.00     0.165 A 
ATOM     16  C   UNL     1     -24.504  13.751 -39.613  1.00  0.00     0.069 A 
BRANCH  12  17
ATOM     17  O   UNL     1     -20.937  11.530 -39.340  1.00  0.00    -0.493 OA
ATOM     18  C   UNL     1     -20.093  11.211 -40.441  1.00  0.00     0.278 C 
ENDBRANCH  12  17
BRANCH  14  19
ATOM     19  O   UNL     1     -23.310  10.242 -39.823  1.00  0.00    -0.502 OA
ATOM     20  H   UNL     1     -22.753   9.776 -40.529  1.00  0.00     0.293 HD
ENDBRANCH  14  19
BRANCH  15  21
ATOM     21  O   UNL     1     -25.719  11.650 -39.998  1.00  0.00    -0.493 OA
ATOM     22  C   UNL     1     -26.944  11.884 -39.311  1.00  0.00     0.278 C 
ENDBRANCH  15  21
ENDBRANCH   1  11
BRANCH  10  23
ATOM     23  O   UNL     1     -22.989  15.736 -36.807  1.00  0.00    -0.500 OA
ATOM     24  H   UNL     1     -22.372  16.038 -36.062  1.00  0.00     0.294 HD
ENDBRANCH  10  23
BRANCH   5  25
ATOM     25  O   UNL     1     -23.763  20.817 -42.630  1.00  0.00    -0.507 OA
ATOM     26  H   UNL     1     -23.028  20.827 -43.328  1.00  0.00     0.293 HD
ENDBRANCH   5  25
BRANCH   7  27
ATOM     27  O   UNL     1     -23.323  20.854 -37.849  1.00  0.00    -0.507 OA
ATOM     28  H   UNL     1     -22.460  21.093 -37.385  1.00  0.00     0.293 HD
ENDBRANCH   7  27
TORSDOF 7
ENDMDL
MODEL 7
REMARK VINA RESULT:    -6.455      3.794      6.154
REMARK INTER + INTRA:          -8.841
REMARK INTER:                  -8.315
REMARK INTRA:                  -0.526
REMARK UNBOUND:                -0.499
REMARK SMILES COc1cc(-c2[o+]c3cc(O)cc(O)c3cc2O)cc(OC)c1O
REMARK SMILES IDX 6 1 7 2 8 3 9 4 10 5 12 6 13 7 15 8 16 9 17 10 5 11 3 12
REMARK SMILES IDX 4 13 23 14 20 15 19 16 2 17 1 18 24 19 21 21 22 22 18 23
REMARK SMILES IDX 11 25 14 27
REMARK H PARENT 24 20 18 24 11 26 14 28
REMARK Flexibility Score: inf
ROOT
ATOM      1  C   UNL     1     -23.271  13.949 -37.813  1.00  0.00     0.402 A 
ATOM      2  O   UNL     1     -23.841  13.004 -38.558  1.00  0.00    -0.202 OA
ATOM      3  C   UNL     1     -23.150  12.101 -39.245  1.00  0.00     0.368 A 
ATOM      4  C   UNL     1     -23.840  11.150 -40.002  1.00  0.00     0.162 A 
ATOM      5  C   UNL     1     -23.138  10.189 -40.737  1.00  0.00     0.128 A 
ATOM      6  C   UNL     1     -21.741  10.181 -40.715  1.00  0.00     0.093 A 
ATOM      7  C   UNL     1     -21.027  11.124 -39.965  1.00  0.00     0.136 A 
ATOM      8  C   UNL     1     -21.734  12.099 -39.215  1.00  0.00     0.125 A 
ATOM      9  C   UNL     1     -21.104  13.074 -38.425  1.00  0.00     0.078 A 
ATOM     10  C   UNL     1     -21.868  13.999 -37.709  1.00  0.00     0.223 A 
ENDROOT
BRANCH   1  11
ATOM     11  C   UNL     1     -24.149  14.905 -37.101  1.00  0.00     0.091 A 
ATOM     12  C   UNL     1     -25.417  16.990 -37.026  1.00  0.00     0.165 A 
ATOM     13  C   UNL     1     -24.567  16.100 -37.707  1.00  0.00     0.069 A 
ATOM     14  C   UNL     1     -25.861  16.671 -35.736  1.00  0.00     0.200 A 
ATOM     15  C   UNL     1     -25.469  15.466 -35.124  1.00  0.00     0.165 A 
ATOM     16  C   UNL     1     -24.618  14.585 -35.819  1.00  0.00     0.069 A 
BRANCH  12  17
ATOM     17  O   UNL     1     -25.845  18.199 -37.598  1.00  0.00    -0.493 OA
ATOM     18  C   UNL     1     -25.652  18.561 -38.961  1.00  0.00     0.278 C 
ENDBRANCH  12  17
BRANCH  14  19
ATOM     19  O   UNL     1     -26.701  17.565 -35.070  1.00  0.00    -0.502 OA
ATOM     20  H   UNL     1     -27.526  17.262 -34.566  1.00  0.00     0.293 HD
ENDBRANCH  14  19
BRANCH  15  21
ATOM     21  O   UNL     1     -25.942  15.175 -33.834  1.00  0.00    -0.493 OA
ATOM     22  C   UNL     1     -26.305  13.876 -33.378  1.00  0.00     0.278 C 
ENDBRANCH  15  21
ENDBRANCH   1  11
BRANCH  10  23
ATOM     23  O   UNL     1     -21.244  14.936 -36.886  1.00  0.00    -0.500 OA
ATOM     24  H   UNL     1     -20.674  14.655 -36.096  1.00  0.00     0.294 HD
ENDBRANCH  10  23
BRANCH   5  25
ATOM     25  O   UNL     1     -23.819   9.238 -41.492  1.00  0.00    -0.507 OA
ATOM     26  H   UNL     1     -23.521   8.992 -42.429  1.00  0.00     0.293 HD
ENDBRANCH   5  25
BRANCH   7  27
ATOM     27  O   UNL     1     -19.631  11.050 -39.999  1.00  0.00    -0.507 OA
ATOM     28  H   UNL     1     -19.099  10.218 -39.790  1.00  0.00     0.293 HD
ENDBRANCH   7  27
TORSDOF 7
ENDMDL
MODEL 8
REMARK VINA RESULT:    -6.442      3.745      5.042
REMARK INTER + INTRA:          -8.825
REMARK INTER:                  -8.288
REMARK INTRA:                  -0.536
REMARK UNBOUND:                -0.499
REMARK SMILES COc1cc(-c2[o+]c3cc(O)cc(O)c3cc2O)cc(OC)c1O
REMARK SMILES IDX 6 1 7 2 8 3 9 4 10 5 12 6 13 7 15 8 16 9 17 10 5 11 3 12
REMARK SMILES IDX 4 13 23 14 20 15 19 16 2 17 1 18 24 19 21 21 22 22 18 23
REMARK SMILES IDX 11 25 14 27
REMARK H PARENT 24 20 18 24 11 26 14 28
REMARK Flexibility Score: inf
ROOT
ATOM      1  C   UNL     1     -21.930  13.289 -37.652  1.00  0.00     0.402 A 
ATOM      2  O   UNL     1     -20.627  13.393 -37.400  1.00  0.00    -0.202 OA
ATOM      3  C   UNL     1     -19.846  12.346 -37.155  1.00  0.00     0.368 A 
ATOM      4  C   UNL     1     -18.488  12.558 -36.899  1.00  0.00     0.162 A 
ATOM      5  C   UNL     1     -17.643  11.475 -36.635  1.00  0.00     0.128 A 
ATOM      6  C   UNL     1     -18.158  10.177 -36.626  1.00  0.00     0.093 A 
ATOM      7  C   UNL     1     -19.515   9.939 -36.879  1.00  0.00     0.136 A 
ATOM      8  C   UNL     1     -20.376  11.034 -37.151  1.00  0.00     0.125 A 
ATOM      9  C   UNL     1     -21.745  10.890 -37.428  1.00  0.00     0.078 A 
ATOM     10  C   UNL     1     -22.530  12.016 -37.691  1.00  0.00     0.223 A 
ENDROOT
BRANCH   1  11
ATOM     11  C   UNL     1     -22.697  14.530 -37.901  1.00  0.00     0.091 A 
ATOM     12  C   UNL     1     -23.972  16.450 -37.095  1.00  0.00     0.165 A 
ATOM     13  C   UNL     1     -23.262  15.262 -36.844  1.00  0.00     0.069 A 
ATOM     14  C   UNL     1     -24.102  16.913 -38.411  1.00  0.00     0.200 A 
ATOM     15  C   UNL     1     -23.522  16.202 -39.478  1.00  0.00     0.165 A 
ATOM     16  C   UNL     1     -22.815  15.015 -39.211  1.00  0.00     0.069 A 
BRANCH  12  17
ATOM     17  O   UNL     1     -24.558  17.201 -36.063  1.00  0.00    -0.493 OA
ATOM     18  C   UNL     1     -25.829  16.923 -35.484  1.00  0.00     0.278 C 
ENDBRANCH  12  17
BRANCH  14  19
ATOM     19  O   UNL     1     -24.813  18.092 -38.644  1.00  0.00    -0.502 OA
ATOM     20  H   UNL     1     -24.595  18.712 -39.415  1.00  0.00     0.293 HD
ENDBRANCH  14  19
BRANCH  15  21
ATOM     21  O   UNL     1     -23.666  16.702 -40.782  1.00  0.00    -0.493 OA
ATOM     22  C   UNL     1     -22.705  17.514 -41.449  1.00  0.00     0.278 C 
ENDBRANCH  15  21
ENDBRANCH   1  11
BRANCH  10  23
ATOM     23  O   UNL     1     -23.879  11.869 -38.015  1.00  0.00    -0.500 OA
ATOM     24  H   UNL     1     -24.440  12.655 -38.324  1.00  0.00     0.294 HD
ENDBRANCH  10  23
BRANCH   5  25
ATOM     25  O   UNL     1     -16.289  11.679 -36.380  1.00  0.00    -0.507 OA
ATOM     26  H   UNL     1     -15.654  10.902 -36.238  1.00  0.00     0.293 HD
ENDBRANCH   5  25
BRANCH   7  27
ATOM     27  O   UNL     1     -19.953   8.611 -36.849  1.00  0.00    -0.507 OA
ATOM     28  H   UNL     1     -20.819   8.287 -37.252  1.00  0.00     0.293 HD
ENDBRANCH   7  27
TORSDOF 7
ENDMDL
MODEL 9
REMARK VINA RESULT:    -6.414      3.739      5.343
REMARK INTER + INTRA:          -8.788
REMARK INTER:                  -8.250
REMARK INTRA:                  -0.538
REMARK UNBOUND:                -0.499
REMARK SMILES COc1cc(-c2[o+]c3cc(O)cc(O)c3cc2O)cc(OC)c1O
REMARK SMILES IDX 6 1 7 2 8 3 9 4 10 5 12 6 13 7 15 8 16 9 17 10 5 11 3 12
REMARK SMILES IDX 4 13 23 14 20 15 19 16 2 17 1 18 24 19 21 21 22 22 18 23
REMARK SMILES IDX 11 25 14 27
REMARK H PARENT 24 20 18 24 11 26 14 28
REMARK Flexibility Score: inf
ROOT
ATOM      1  C   UNL     1     -21.873  13.251 -37.676  1.00  0.00     0.402 A 
ATOM      2  O   UNL     1     -20.574  13.318 -37.396  1.00  0.00    -0.202 OA
ATOM      3  C   UNL     1     -19.825  12.248 -37.152  1.00  0.00     0.368 A 
ATOM      4  C   UNL     1     -18.468  12.420 -36.863  1.00  0.00     0.162 A 
ATOM      5  C   UNL     1     -17.656  11.311 -36.600  1.00  0.00     0.128 A 
ATOM      6  C   UNL     1     -18.205  10.027 -36.624  1.00  0.00     0.093 A 
ATOM      7  C   UNL     1     -19.562   9.828 -36.910  1.00  0.00     0.136 A 
ATOM      8  C   UNL     1     -20.389  10.949 -37.181  1.00  0.00     0.125 A 
ATOM      9  C   UNL     1     -21.755  10.845 -37.489  1.00  0.00     0.078 A 
ATOM     10  C   UNL     1     -22.505  11.995 -37.750  1.00  0.00     0.223 A 
ENDROOT
BRANCH   1  11
ATOM     11  C   UNL     1     -22.603  14.516 -37.920  1.00  0.00     0.091 A 
ATOM     12  C   UNL     1     -23.477  16.218 -39.438  1.00  0.00     0.165 A 
ATOM     13  C   UNL     1     -22.764  15.025 -39.219  1.00  0.00     0.069 A 
ATOM     14  C   UNL     1     -24.043  16.894 -38.349  1.00  0.00     0.200 A 
ATOM     15  C   UNL     1     -23.910  16.384 -37.045  1.00  0.00     0.165 A 
ATOM     16  C   UNL     1     -23.194  15.189 -36.842  1.00  0.00     0.069 A 
BRANCH  12  17
ATOM     17  O   UNL     1     -23.647  16.760 -40.722  1.00  0.00    -0.493 OA
ATOM     18  C   UNL     1     -22.633  17.443 -41.451  1.00  0.00     0.278 C 
ENDBRANCH  12  17
BRANCH  14  19
ATOM     19  O   UNL     1     -24.745  18.078 -38.582  1.00  0.00    -0.502 OA
ATOM     20  H   UNL     1     -24.734  18.853 -37.929  1.00  0.00     0.293 HD
ENDBRANCH  14  19
BRANCH  15  21
ATOM     21  O   UNL     1     -24.501  17.084 -35.980  1.00  0.00    -0.493 OA
ATOM     22  C   UNL     1     -25.788  16.804 -35.442  1.00  0.00     0.278 C 
ENDBRANCH  15  21
ENDBRANCH   1  11
BRANCH  10  23
ATOM     23  O   UNL     1     -23.850  11.889 -38.105  1.00  0.00    -0.500 OA
ATOM     24  H   UNL     1     -24.166  12.066 -39.052  1.00  0.00     0.294 HD
ENDBRANCH  10  23
BRANCH   5  25
ATOM     25  O   UNL     1     -16.304  11.475 -36.313  1.00  0.00    -0.507 OA
ATOM     26  H   UNL     1     -15.677  10.682 -36.241  1.00  0.00     0.293 HD
ENDBRANCH   5  25
BRANCH   7  27
ATOM     27  O   UNL     1     -20.034   8.512 -36.911  1.00  0.00    -0.507 OA
ATOM     28  H   UNL     1     -21.007   8.255 -36.982  1.00  0.00     0.293 HD
ENDBRANCH   7  27
TORSDOF 7
ENDMDL
