MODEL 1
REMARK VINA RESULT:    -3.257      0.000      0.000
REMARK INTER + INTRA:          -7.259
REMARK INTER:                  -5.923
REMARK INTRA:                  -1.336
REMARK UNBOUND:                -1.336
REMARK SMILES CCCCCCCCCCCCCCCC(=O)[O-]
REMARK SMILES IDX 9 1 10 2 11 3 12 4 13 5 14 6 15 7 16 8 17 9 18 10 8 11 7 12
REMARK SMILES IDX 6 13 5 14 4 15 3 16 2 17 1 18
REMARK H PARENT
REMARK Flexibility Score: inf
ROOT
ATOM      1  C   UNL     1      15.441  17.384   8.822  1.00  0.00     0.000 C 
ENDROOT
BRANCH   1   2
ATOM      2  C   UNL     1      16.815  16.983   8.260  1.00  0.00     0.000 C 
BRANCH   2   3
ATOM      3  C   UNL     1      16.715  15.884   7.188  1.00  0.00     0.000 C 
BRANCH   3   4
ATOM      4  C   UNL     1      16.396  14.503   7.782  1.00  0.00     0.000 C 
BRANCH   4   5
ATOM      5  C   UNL     1      15.041  13.954   7.312  1.00  0.00     0.000 C 
BRANCH   5   6
ATOM      6  C   UNL     1      14.416  13.046   8.380  1.00  0.00     0.006 C 
BRANCH   6   7
ATOM      7  C   UNL     1      14.855  13.467   9.785  1.00  0.00     0.053 C 
BRANCH   7   8
ATOM      8  C   UNL     1      14.323  12.514  10.808  1.00  0.00     0.041 C 
ATOM      9  O   UNL     1      13.492  12.906  11.668  1.00  0.00    -0.550 OA
ATOM     10  O   UNL     1      14.780  11.202  10.839  1.00  0.00    -0.550 OA
ENDBRANCH   7   8
ENDBRANCH   6   7
ENDBRANCH   5   6
ENDBRANCH   4   5
ENDBRANCH   3   4
ENDBRANCH   2   3
ENDBRANCH   1   2
BRANCH   1  11
ATOM     11  C   UNL     1      15.516  18.616   9.741  1.00  0.00     0.000 C 
BRANCH  11  12
ATOM     12  C   UNL     1      16.524  19.665   9.243  1.00  0.00    -0.000 C 
BRANCH  12  13
ATOM     13  C   UNL     1      16.725  20.812  10.250  1.00  0.00    -0.000 C 
BRANCH  13  14
ATOM     14  C   UNL     1      16.885  20.309  11.694  1.00  0.00    -0.000 C 
BRANCH  14  15
ATOM     15  C   UNL     1      15.808  20.862  12.639  1.00  0.00    -0.000 C 
BRANCH  15  16
ATOM     16  C   UNL     1      14.854  21.808  11.893  1.00  0.00    -0.000 C 
BRANCH  16  17
ATOM     17  C   UNL     1      13.421  21.259  11.811  1.00  0.00    -0.003 C 
ATOM     18  C   UNL     1      13.277  19.881  12.456  1.00  0.00     0.004 C 
ENDBRANCH  16  17
ENDBRANCH  15  16
ENDBRANCH  14  15
ENDBRANCH  13  14
ENDBRANCH  12  13
ENDBRANCH  11  12
ENDBRANCH   1  11
TORSDOF 14
ENDMDL
MODEL 2
REMARK VINA RESULT:    -3.086      2.250      3.450
REMARK INTER + INTRA:          -6.949
REMARK INTER:                  -5.390
REMARK INTRA:                  -1.559
REMARK UNBOUND:                -1.336
REMARK SMILES CCCCCCCCCCCCCCCC(=O)[O-]
REMARK SMILES IDX 9 1 10 2 11 3 12 4 13 5 14 6 15 7 16 8 17 9 18 10 8 11 7 12
REMARK SMILES IDX 6 13 5 14 4 15 3 16 2 17 1 18
REMARK H PARENT
REMARK Flexibility Score: inf
ROOT
ATOM      1  C   UNL     1      16.133  16.525  11.820  1.00  0.00     0.000 C 
ENDROOT
BRANCH   1   2
ATOM      2  C   UNL     1      16.531  15.411  12.802  1.00  0.00     0.000 C 
BRANCH   2   3
ATOM      3  C   UNL     1      15.361  14.465  13.125  1.00  0.00     0.000 C 
BRANCH   3   4
ATOM      4  C   UNL     1      15.407  13.166  12.305  1.00  0.00     0.000 C 
BRANCH   4   5
ATOM      5  C   UNL     1      14.281  13.082  11.263  1.00  0.00     0.000 C 
BRANCH   5   6
ATOM      6  C   UNL     1      14.835  12.693   9.886  1.00  0.00     0.006 C 
BRANCH   6   7
ATOM      7  C   UNL     1      14.482  13.748   8.833  1.00  0.00     0.053 C 
BRANCH   7   8
ATOM      8  C   UNL     1      14.469  13.140   7.467  1.00  0.00     0.041 C 
ATOM      9  O   UNL     1      13.400  12.676   6.990  1.00  0.00    -0.550 OA
ATOM     10  O   UNL     1      15.647  13.047   6.736  1.00  0.00    -0.550 OA
ENDBRANCH   7   8
ENDBRANCH   6   7
ENDBRANCH   5   6
ENDBRANCH   4   5
ENDBRANCH   3   4
ENDBRANCH   2   3
ENDBRANCH   1   2
BRANCH   1  11
ATOM     11  C   UNL     1      17.070  16.601  10.601  1.00  0.00     0.000 C 
BRANCH  11  12
ATOM     12  C   UNL     1      16.319  16.917   9.297  1.00  0.00    -0.000 C 
BRANCH  12  13
ATOM     13  C   UNL     1      15.694  18.324   9.305  1.00  0.00    -0.000 C 
BRANCH  13  14
ATOM     14  C   UNL     1      16.741  19.435   9.126  1.00  0.00    -0.000 C 
BRANCH  14  15
ATOM     15  C   UNL     1      16.465  20.660  10.012  1.00  0.00    -0.000 C 
BRANCH  15  16
ATOM     16  C   UNL     1      15.938  20.233  11.390  1.00  0.00    -0.000 C 
BRANCH  16  17
ATOM     17  C   UNL     1      14.600  20.901  11.744  1.00  0.00    -0.003 C 
ATOM     18  C   UNL     1      13.473  19.892  11.964  1.00  0.00     0.004 C 
ENDBRANCH  16  17
ENDBRANCH  15  16
ENDBRANCH  14  15
ENDBRANCH  13  14
ENDBRANCH  12  13
ENDBRANCH  11  12
ENDBRANCH   1  11
TORSDOF 14
ENDMDL
MODEL 3
REMARK VINA RESULT:    -3.019      1.158      1.552
REMARK INTER + INTRA:          -6.826
REMARK INTER:                  -5.733
REMARK INTRA:                  -1.092
REMARK UNBOUND:                -1.336
REMARK SMILES CCCCCCCCCCCCCCCC(=O)[O-]
REMARK SMILES IDX 9 1 10 2 11 3 12 4 13 5 14 6 15 7 16 8 17 9 18 10 8 11 7 12
REMARK SMILES IDX 6 13 5 14 4 15 3 16 2 17 1 18
REMARK H PARENT
REMARK Flexibility Score: inf
ROOT
ATOM      1  C   UNL     1      15.225  16.981   8.202  1.00  0.00     0.000 C 
ENDROOT
BRANCH   1   2
ATOM      2  C   UNL     1      16.404  16.385   7.415  1.00  0.00     0.000 C 
BRANCH   2   3
ATOM      3  C   UNL     1      16.498  14.856   7.564  1.00  0.00     0.000 C 
BRANCH   3   4
ATOM      4  C   UNL     1      15.208  14.236   8.124  1.00  0.00     0.000 C 
BRANCH   4   5
ATOM      5  C   UNL     1      15.461  13.352   9.355  1.00  0.00     0.000 C 
BRANCH   5   6
ATOM      6  C   UNL     1      14.198  12.570   9.738  1.00  0.00     0.006 C 
BRANCH   6   7
ATOM      7  C   UNL     1      14.402  11.803  11.048  1.00  0.00     0.053 C 
BRANCH   7   8
ATOM      8  C   UNL     1      14.039  12.660  12.219  1.00  0.00     0.041 C 
ATOM      9  O   UNL     1      12.841  12.740  12.599  1.00  0.00    -0.550 OA
ATOM     10  O   UNL     1      15.017  13.406  12.865  1.00  0.00    -0.550 OA
ENDBRANCH   7   8
ENDBRANCH   6   7
ENDBRANCH   5   6
ENDBRANCH   4   5
ENDBRANCH   3   4
ENDBRANCH   2   3
ENDBRANCH   1   2
BRANCH   1  11
ATOM     11  C   UNL     1      15.681  17.764   9.446  1.00  0.00     0.000 C 
BRANCH  11  12
ATOM     12  C   UNL     1      16.351  19.102   9.091  1.00  0.00    -0.000 C 
BRANCH  12  13
ATOM     13  C   UNL     1      16.182  20.157  10.198  1.00  0.00    -0.000 C 
BRANCH  13  14
ATOM     14  C   UNL     1      16.534  19.612  11.592  1.00  0.00    -0.000 C 
BRANCH  14  15
ATOM     15  C   UNL     1      15.496  19.991  12.659  1.00  0.00    -0.000 C 
BRANCH  15  16
ATOM     16  C   UNL     1      14.073  19.651  12.188  1.00  0.00    -0.000 C 
BRANCH  16  17
ATOM     17  C   UNL     1      13.052  20.737  12.558  1.00  0.00    -0.003 C 
ATOM     18  C   UNL     1      13.265  22.039  11.786  1.00  0.00     0.004 C 
ENDBRANCH  16  17
ENDBRANCH  15  16
ENDBRANCH  14  15
ENDBRANCH  13  14
ENDBRANCH  12  13
ENDBRANCH  11  12
ENDBRANCH   1  11
TORSDOF 14
ENDMDL
MODEL 4
REMARK VINA RESULT:    -3.014      3.065      6.749
REMARK INTER + INTRA:          -6.817
REMARK INTER:                  -5.055
REMARK INTRA:                  -1.762
REMARK UNBOUND:                -1.336
REMARK SMILES CCCCCCCCCCCCCCCC(=O)[O-]
REMARK SMILES IDX 9 1 10 2 11 3 12 4 13 5 14 6 15 7 16 8 17 9 18 10 8 11 7 12
REMARK SMILES IDX 6 13 5 14 4 15 3 16 2 17 1 18
REMARK H PARENT
REMARK Flexibility Score: inf
ROOT
ATOM      1  C   UNL     1      17.125  14.784   7.102  1.00  0.00     0.000 C 
ENDROOT
BRANCH   1   2
ATOM      2  C   UNL     1      16.869  15.860   8.170  1.00  0.00     0.000 C 
BRANCH   2   3
ATOM      3  C   UNL     1      15.500  16.543   8.002  1.00  0.00     0.000 C 
BRANCH   3   4
ATOM      4  C   UNL     1      15.257  17.647   9.043  1.00  0.00     0.000 C 
BRANCH   4   5
ATOM      5  C   UNL     1      16.392  18.681   9.087  1.00  0.00     0.000 C 
BRANCH   5   6
ATOM      6  C   UNL     1      16.207  19.650  10.261  1.00  0.00     0.006 C 
BRANCH   6   7
ATOM      7  C   UNL     1      14.938  19.319  11.053  1.00  0.00     0.053 C 
BRANCH   7   8
ATOM      8  C   UNL     1      14.523  20.486  11.890  1.00  0.00     0.041 C 
ATOM      9  O   UNL     1      14.061  20.305  13.048  1.00  0.00    -0.550 OA
ATOM     10  O   UNL     1      14.605  21.775  11.376  1.00  0.00    -0.550 OA
ENDBRANCH   7   8
ENDBRANCH   6   7
ENDBRANCH   5   6
ENDBRANCH   4   5
ENDBRANCH   3   4
ENDBRANCH   2   3
ENDBRANCH   1   2
BRANCH   1  11
ATOM     11  C   UNL     1      16.569  13.406   7.506  1.00  0.00     0.000 C 
BRANCH  11  12
ATOM     12  C   UNL     1      15.096  13.222   7.105  1.00  0.00    -0.000 C 
BRANCH  12  13
ATOM     13  C   UNL     1      14.171  13.057   8.324  1.00  0.00    -0.000 C 
BRANCH  13  14
ATOM     14  C   UNL     1      14.936  12.658   9.596  1.00  0.00    -0.000 C 
BRANCH  14  15
ATOM     15  C   UNL     1      14.104  12.844  10.874  1.00  0.00    -0.000 C 
BRANCH  15  16
ATOM     16  C   UNL     1      14.938  13.507  11.981  1.00  0.00    -0.000 C 
BRANCH  16  17
ATOM     17  C   UNL     1      16.205  14.188  11.439  1.00  0.00    -0.003 C 
ATOM     18  C   UNL     1      16.349  15.634  11.912  1.00  0.00     0.004 C 
ENDBRANCH  16  17
ENDBRANCH  15  16
ENDBRANCH  14  15
ENDBRANCH  13  14
ENDBRANCH  12  13
ENDBRANCH  11  12
ENDBRANCH   1  11
TORSDOF 14
ENDMDL
MODEL 5
REMARK VINA RESULT:    -2.966      3.075      6.717
REMARK INTER + INTRA:          -6.730
REMARK INTER:                  -4.953
REMARK INTRA:                  -1.777
REMARK UNBOUND:                -1.336
REMARK SMILES CCCCCCCCCCCCCCCC(=O)[O-]
REMARK SMILES IDX 9 1 10 2 11 3 12 4 13 5 14 6 15 7 16 8 17 9 18 10 8 11 7 12
REMARK SMILES IDX 6 13 5 14 4 15 3 16 2 17 1 18
REMARK H PARENT
REMARK Flexibility Score: inf
ROOT
ATOM      1  C   UNL     1      15.286  15.125   8.601  1.00  0.00     0.000 C 
ENDROOT
BRANCH   1   2
ATOM      2  C   UNL     1      15.364  16.555   8.041  1.00  0.00     0.000 C 
BRANCH   2   3
ATOM      3  C   UNL     1      16.788  17.135   8.102  1.00  0.00     0.000 C 
BRANCH   3   4
ATOM      4  C   UNL     1      16.890  18.357   9.029  1.00  0.00     0.000 C 
BRANCH   4   5
ATOM      5  C   UNL     1      15.551  18.714   9.690  1.00  0.00     0.000 C 
BRANCH   5   6
ATOM      6  C   UNL     1      15.768  19.279  11.100  1.00  0.00     0.006 C 
BRANCH   6   7
ATOM      7  C   UNL     1      15.261  20.721  11.199  1.00  0.00     0.053 C 
BRANCH   7   8
ATOM      8  C   UNL     1      13.832  20.745  11.640  1.00  0.00     0.041 C 
ATOM      9  O   UNL     1      13.249  19.675  11.961  1.00  0.00    -0.550 OA
ATOM     10  O   UNL     1      13.129  21.943  11.656  1.00  0.00    -0.550 OA
ENDBRANCH   7   8
ENDBRANCH   6   7
ENDBRANCH   5   6
ENDBRANCH   4   5
ENDBRANCH   3   4
ENDBRANCH   2   3
ENDBRANCH   1   2
BRANCH   1  11
ATOM     11  C   UNL     1      16.655  14.421   8.614  1.00  0.00     0.000 C 
BRANCH  11  12
ATOM     12  C   UNL     1      17.052  13.926  10.015  1.00  0.00    -0.000 C 
BRANCH  12  13
ATOM     13  C   UNL     1      16.793  14.980  11.106  1.00  0.00    -0.000 C 
BRANCH  13  14
ATOM     14  C   UNL     1      15.817  14.485  12.186  1.00  0.00    -0.000 C 
BRANCH  14  15
ATOM     15  C   UNL     1      15.991  12.993  12.507  1.00  0.00    -0.000 C 
BRANCH  15  16
ATOM     16  C   UNL     1      14.630  12.283  12.574  1.00  0.00    -0.000 C 
BRANCH  16  17
ATOM     17  C   UNL     1      13.701  12.675  11.415  1.00  0.00    -0.003 C 
ATOM     18  C   UNL     1      14.006  11.911  10.126  1.00  0.00     0.004 C 
ENDBRANCH  16  17
ENDBRANCH  15  16
ENDBRANCH  14  15
ENDBRANCH  13  14
ENDBRANCH  12  13
ENDBRANCH  11  12
ENDBRANCH   1  11
TORSDOF 14
ENDMDL
MODEL 6
REMARK VINA RESULT:    -2.889      2.841      7.206
REMARK INTER + INTRA:          -6.590
REMARK INTER:                  -5.507
REMARK INTRA:                  -1.083
REMARK UNBOUND:                -1.336
REMARK SMILES CCCCCCCCCCCCCCCC(=O)[O-]
REMARK SMILES IDX 9 1 10 2 11 3 12 4 13 5 14 6 15 7 16 8 17 9 18 10 8 11 7 12
REMARK SMILES IDX 6 13 5 14 4 15 3 16 2 17 1 18
REMARK H PARENT
REMARK Flexibility Score: inf
ROOT
ATOM      1  C   UNL     1      16.976  15.743   7.505  1.00  0.00     0.000 C 
ENDROOT
BRANCH   1   2
ATOM      2  C   UNL     1      17.124  15.963   9.019  1.00  0.00     0.000 C 
BRANCH   2   3
ATOM      3  C   UNL     1      15.913  16.691   9.629  1.00  0.00     0.000 C 
BRANCH   3   4
ATOM      4  C   UNL     1      15.884  18.187   9.278  1.00  0.00     0.000 C 
BRANCH   4   5
ATOM      5  C   UNL     1      16.502  19.066  10.376  1.00  0.00     0.000 C 
BRANCH   5   6
ATOM      6  C   UNL     1      15.896  20.475  10.358  1.00  0.00     0.006 C 
BRANCH   6   7
ATOM      7  C   UNL     1      15.332  20.849  11.732  1.00  0.00     0.053 C 
BRANCH   7   8
ATOM      8  C   UNL     1      13.839  20.771  11.723  1.00  0.00     0.041 C 
ATOM      9  O   UNL     1      13.151  21.809  11.536  1.00  0.00    -0.550 OA
ATOM     10  O   UNL     1      13.204  19.559  11.966  1.00  0.00    -0.550 OA
ENDBRANCH   7   8
ENDBRANCH   6   7
ENDBRANCH   5   6
ENDBRANCH   4   5
ENDBRANCH   3   4
ENDBRANCH   2   3
ENDBRANCH   1   2
BRANCH   1  11
ATOM     11  C   UNL     1      15.624  15.111   7.128  1.00  0.00     0.000 C 
BRANCH  11  12
ATOM     12  C   UNL     1      15.555  13.614   7.472  1.00  0.00    -0.000 C 
BRANCH  12  13
ATOM     13  C   UNL     1      14.131  13.160   7.837  1.00  0.00    -0.000 C 
BRANCH  13  14
ATOM     14  C   UNL     1      14.078  12.396   9.170  1.00  0.00    -0.000 C 
BRANCH  14  15
ATOM     15  C   UNL     1      14.804  13.132  10.307  1.00  0.00    -0.000 C 
BRANCH  15  16
ATOM     16  C   UNL     1      14.052  12.964  11.637  1.00  0.00    -0.000 C 
BRANCH  16  17
ATOM     17  C   UNL     1      14.767  12.007  12.603  1.00  0.00    -0.003 C 
ATOM     18  C   UNL     1      15.889  11.215  11.931  1.00  0.00     0.004 C 
ENDBRANCH  16  17
ENDBRANCH  15  16
ENDBRANCH  14  15
ENDBRANCH  13  14
ENDBRANCH  12  13
ENDBRANCH  11  12
ENDBRANCH   1  11
TORSDOF 14
ENDMDL
MODEL 7
REMARK VINA RESULT:    -2.843      2.973      6.779
REMARK INTER + INTRA:          -6.506
REMARK INTER:                  -4.966
REMARK INTRA:                  -1.540
REMARK UNBOUND:                -1.336
REMARK SMILES CCCCCCCCCCCCCCCC(=O)[O-]
REMARK SMILES IDX 9 1 10 2 11 3 12 4 13 5 14 6 15 7 16 8 17 9 18 10 8 11 7 12
REMARK SMILES IDX 6 13 5 14 4 15 3 16 2 17 1 18
REMARK H PARENT
REMARK Flexibility Score: inf
ROOT
ATOM      1  C   UNL     1      15.512  14.219   7.578  1.00  0.00     0.000 C 
ENDROOT
BRANCH   1   2
ATOM      2  C   UNL     1      15.641  15.677   7.108  1.00  0.00     0.000 C 
BRANCH   2   3
ATOM      3  C   UNL     1      17.039  16.261   7.377  1.00  0.00     0.000 C 
BRANCH   3   4
ATOM      4  C   UNL     1      16.997  17.509   8.274  1.00  0.00     0.000 C 
BRANCH   4   5
ATOM      5  C   UNL     1      15.637  17.699   8.962  1.00  0.00     0.000 C 
BRANCH   5   6
ATOM      6  C   UNL     1      15.808  18.326  10.351  1.00  0.00     0.006 C 
BRANCH   6   7
ATOM      7  C   UNL     1      15.598  19.843  10.300  1.00  0.00     0.053 C 
BRANCH   7   8
ATOM      8  C   UNL     1      14.544  20.258  11.277  1.00  0.00     0.041 C 
ATOM      9  O   UNL     1      14.275  21.478  11.439  1.00  0.00    -0.550 OA
ATOM     10  O   UNL     1      13.888  19.301  12.041  1.00  0.00    -0.550 OA
ENDBRANCH   7   8
ENDBRANCH   6   7
ENDBRANCH   5   6
ENDBRANCH   4   5
ENDBRANCH   3   4
ENDBRANCH   2   3
ENDBRANCH   1   2
BRANCH   1  11
ATOM     11  C   UNL     1      16.850  13.634   8.064  1.00  0.00     0.000 C 
BRANCH  11  12
ATOM     12  C   UNL     1      16.882  13.417   9.586  1.00  0.00    -0.000 C 
BRANCH  12  13
ATOM     13  C   UNL     1      15.597  13.908  10.277  1.00  0.00    -0.000 C 
BRANCH  13  14
ATOM     14  C   UNL     1      15.800  14.182  11.776  1.00  0.00    -0.000 C 
BRANCH  14  15
ATOM     15  C   UNL     1      14.652  13.640  12.641  1.00  0.00    -0.000 C 
BRANCH  15  16
ATOM     16  C   UNL     1      14.502  12.122  12.466  1.00  0.00    -0.000 C 
BRANCH  16  17
ATOM     17  C   UNL     1      15.735  11.345  12.951  1.00  0.00    -0.003 C 
ATOM     18  C   UNL     1      16.388  10.517  11.844  1.00  0.00     0.004 C 
ENDBRANCH  16  17
ENDBRANCH  15  16
ENDBRANCH  14  15
ENDBRANCH  13  14
ENDBRANCH  12  13
ENDBRANCH  11  12
ENDBRANCH   1  11
TORSDOF 14
ENDMDL
MODEL 8
REMARK VINA RESULT:    -2.701      3.394      6.543
REMARK INTER + INTRA:          -6.247
REMARK INTER:                  -4.916
REMARK INTRA:                  -1.331
REMARK UNBOUND:                -1.336
REMARK SMILES CCCCCCCCCCCCCCCC(=O)[O-]
REMARK SMILES IDX 9 1 10 2 11 3 12 4 13 5 14 6 15 7 16 8 17 9 18 10 8 11 7 12
REMARK SMILES IDX 6 13 5 14 4 15 3 16 2 17 1 18
REMARK H PARENT
REMARK Flexibility Score: inf
ROOT
ATOM      1  C   UNL     1      13.798  12.801   8.189  1.00  0.00     0.000 C 
ENDROOT
BRANCH   1   2
ATOM      2  C   UNL     1      14.682  13.119   6.972  1.00  0.00     0.000 C 
BRANCH   2   3
ATOM      3  C   UNL     1      15.296  14.528   7.043  1.00  0.00     0.000 C 
BRANCH   3   4
ATOM      4  C   UNL     1      16.743  14.517   7.561  1.00  0.00     0.000 C 
BRANCH   4   5
ATOM      5  C   UNL     1      17.046  15.692   8.502  1.00  0.00     0.000 C 
BRANCH   5   6
ATOM      6  C   UNL     1      16.473  17.003   7.947  1.00  0.00     0.006 C 
BRANCH   6   7
ATOM      7  C   UNL     1      15.662  17.745   9.013  1.00  0.00     0.053 C 
BRANCH   7   8
ATOM      8  C   UNL     1      16.340  19.023   9.391  1.00  0.00     0.041 C 
ATOM      9  O   UNL     1      16.381  19.387  10.596  1.00  0.00    -0.550 OA
ATOM     10  O   UNL     1      16.888  19.837   8.407  1.00  0.00    -0.550 OA
ENDBRANCH   7   8
ENDBRANCH   6   7
ENDBRANCH   5   6
ENDBRANCH   4   5
ENDBRANCH   3   4
ENDBRANCH   2   3
ENDBRANCH   1   2
BRANCH   1  11
ATOM     11  C   UNL     1      14.531  13.017   9.525  1.00  0.00     0.000 C 
BRANCH  11  12
ATOM     12  C   UNL     1      14.071  12.036  10.617  1.00  0.00    -0.000 C 
BRANCH  12  13
ATOM     13  C   UNL     1      15.238  11.228  11.211  1.00  0.00    -0.000 C 
BRANCH  13  14
ATOM     14  C   UNL     1      15.575  11.648  12.651  1.00  0.00    -0.000 C 
BRANCH  14  15
ATOM     15  C   UNL     1      16.928  12.367  12.760  1.00  0.00    -0.000 C 
BRANCH  15  16
ATOM     16  C   UNL     1      16.735  13.847  13.124  1.00  0.00    -0.000 C 
BRANCH  16  17
ATOM     17  C   UNL     1      16.535  14.739  11.889  1.00  0.00    -0.003 C 
ATOM     18  C   UNL     1      16.400  16.220  12.242  1.00  0.00     0.004 C 
ENDBRANCH  16  17
ENDBRANCH  15  16
ENDBRANCH  14  15
ENDBRANCH  13  14
ENDBRANCH  12  13
ENDBRANCH  11  12
ENDBRANCH   1  11
TORSDOF 14
ENDMDL
MODEL 9
REMARK VINA RESULT:    -2.562      1.787      4.129
REMARK INTER + INTRA:          -5.995
REMARK INTER:                  -4.540
REMARK INTRA:                  -1.455
REMARK UNBOUND:                -1.336
REMARK SMILES CCCCCCCCCCCCCCCC(=O)[O-]
REMARK SMILES IDX 9 1 10 2 11 3 12 4 13 5 14 6 15 7 16 8 17 9 18 10 8 11 7 12
REMARK SMILES IDX 6 13 5 14 4 15 3 16 2 17 1 18
REMARK H PARENT
REMARK Flexibility Score: inf
ROOT
ATOM      1  C   UNL     1      15.167  13.836   9.184  1.00  0.00     0.000 C 
ENDROOT
BRANCH   1   2
ATOM      2  C   UNL     1      16.466  13.990   9.993  1.00  0.00     0.000 C 
BRANCH   2   3
ATOM      3  C   UNL     1      16.329  15.011  11.137  1.00  0.00     0.000 C 
BRANCH   3   4
ATOM      4  C   UNL     1      16.314  14.348  12.523  1.00  0.00     0.000 C 
BRANCH   4   5
ATOM      5  C   UNL     1      14.899  14.232  13.110  1.00  0.00     0.000 C 
BRANCH   5   6
ATOM      6  C   UNL     1      14.319  12.832  12.871  1.00  0.00     0.006 C 
BRANCH   6   7
ATOM      7  C   UNL     1      15.374  11.750  13.117  1.00  0.00     0.053 C 
BRANCH   7   8
ATOM      8  C   UNL     1      15.626  10.970  11.866  1.00  0.00     0.041 C 
ATOM      9  O   UNL     1      14.797  11.006  10.918  1.00  0.00    -0.550 OA
ATOM     10  O   UNL     1      16.756  10.168  11.761  1.00  0.00    -0.550 OA
ENDBRANCH   7   8
ENDBRANCH   6   7
ENDBRANCH   5   6
ENDBRANCH   4   5
ENDBRANCH   3   4
ENDBRANCH   2   3
ENDBRANCH   1   2
BRANCH   1  11
ATOM     11  C   UNL     1      15.251  14.504   7.800  1.00  0.00     0.000 C 
BRANCH  11  12
ATOM     12  C   UNL     1      16.652  15.058   7.495  1.00  0.00    -0.000 C 
BRANCH  12  13
ATOM     13  C   UNL     1      16.712  16.593   7.595  1.00  0.00    -0.000 C 
BRANCH  13  14
ATOM     14  C   UNL     1      15.403  17.201   8.125  1.00  0.00    -0.000 C 
BRANCH  14  15
ATOM     15  C   UNL     1      15.613  18.069   9.375  1.00  0.00    -0.000 C 
BRANCH  15  16
ATOM     16  C   UNL     1      16.443  19.319   9.043  1.00  0.00    -0.000 C 
BRANCH  16  17
ATOM     17  C   UNL     1      16.903  20.074  10.299  1.00  0.00    -0.003 C 
ATOM     18  C   UNL     1      16.606  19.312  11.591  1.00  0.00     0.004 C 
ENDBRANCH  16  17
ENDBRANCH  15  16
ENDBRANCH  14  15
ENDBRANCH  13  14
ENDBRANCH  12  13
ENDBRANCH  11  12
ENDBRANCH   1  11
TORSDOF 14
ENDMDL
