MODEL 1
REMARK VINA RESULT:    -5.053      0.000      0.000
REMARK INTER + INTRA:          -9.496
REMARK INTER:                  -8.007
REMARK INTRA:                  -1.489
REMARK UNBOUND:                -1.489
REMARK SMILES CCCCCCCCCCCC(=O)[O-]
REMARK SMILES IDX 7 1 8 2 9 3 10 4 11 5 12 6 13 7 14 8 6 9 5 10 4 11 3 12 2 13
REMARK SMILES IDX 1 14
REMARK H PARENT
REMARK Flexibility Score: inf
ROOT
ATOM      1  C   UNL     1     -27.862  -0.022  -7.562  1.00  0.00     0.000 C 
ENDROOT
BRANCH   1   2
ATOM      2  C   UNL     1     -28.324   0.045  -9.026  1.00  0.00     0.000 C 
BRANCH   2   3
ATOM      3  C   UNL     1     -29.819  -0.264  -9.194  1.00  0.00     0.000 C 
BRANCH   3   4
ATOM      4  C   UNL     1     -30.664   0.569  -8.219  1.00  0.00     0.006 C 
BRANCH   4   5
ATOM      5  C   UNL     1     -32.028   0.950  -8.811  1.00  0.00     0.053 C 
BRANCH   5   6
ATOM      6  C   UNL     1     -31.883   1.819 -10.023  1.00  0.00     0.041 C 
ATOM      7  O   UNL     1     -32.451   1.505 -11.101  1.00  0.00    -0.550 OA
ATOM      8  O   UNL     1     -31.147   2.995  -9.950  1.00  0.00    -0.550 OA
ENDBRANCH   5   6
ENDBRANCH   4   5
ENDBRANCH   3   4
ENDBRANCH   2   3
ENDBRANCH   1   2
BRANCH   1   9
ATOM      9  C   UNL     1     -27.085  -1.311  -7.245  1.00  0.00     0.000 C 
BRANCH   9  10
ATOM     10  C   UNL     1     -27.957  -2.370  -6.550  1.00  0.00    -0.000 C 
BRANCH  10  11
ATOM     11  C   UNL     1     -28.937  -1.753  -5.536  1.00  0.00    -0.000 C 
BRANCH  11  12
ATOM     12  C   UNL     1     -30.399  -2.137  -5.821  1.00  0.00    -0.000 C 
BRANCH  12  13
ATOM     13  C   UNL     1     -30.529  -3.191  -6.930  1.00  0.00    -0.003 C 
ATOM     14  C   UNL     1     -31.801  -2.974  -7.746  1.00  0.00     0.004 C 
ENDBRANCH  12  13
ENDBRANCH  11  12
ENDBRANCH  10  11
ENDBRANCH   9  10
ENDBRANCH   1   9
TORSDOF 10
ENDMDL
MODEL 2
REMARK VINA RESULT:    -5.037     15.420     17.200
REMARK INTER + INTRA:          -9.471
REMARK INTER:                  -8.522
REMARK INTRA:                  -0.949
REMARK UNBOUND:                -1.489
REMARK SMILES CCCCCCCCCCCC(=O)[O-]
REMARK SMILES IDX 7 1 8 2 9 3 10 4 11 5 12 6 13 7 14 8 6 9 5 10 4 11 3 12 2 13
REMARK SMILES IDX 1 14
REMARK H PARENT
REMARK Flexibility Score: inf
ROOT
ATOM      1  C   UNL     1     -13.673   2.575 -15.167  1.00  0.00     0.000 C 
ENDROOT
BRANCH   1   2
ATOM      2  C   UNL     1     -13.244   3.328 -16.437  1.00  0.00     0.000 C 
BRANCH   2   3
ATOM      3  C   UNL     1     -14.396   3.517 -17.434  1.00  0.00     0.000 C 
BRANCH   3   4
ATOM      4  C   UNL     1     -14.036   2.930 -18.808  1.00  0.00     0.006 C 
BRANCH   4   5
ATOM      5  C   UNL     1     -13.809   1.414 -18.752  1.00  0.00     0.053 C 
BRANCH   5   6
ATOM      6  C   UNL     1     -15.066   0.678 -18.400  1.00  0.00     0.041 C 
ATOM      7  O   UNL     1     -15.105  -0.059 -17.380  1.00  0.00    -0.550 OA
ATOM      8  O   UNL     1     -16.204   0.834 -19.181  1.00  0.00    -0.550 OA
ENDBRANCH   5   6
ENDBRANCH   4   5
ENDBRANCH   3   4
ENDBRANCH   2   3
ENDBRANCH   1   2
BRANCH   1   9
ATOM      9  C   UNL     1     -15.198   2.567 -14.972  1.00  0.00     0.000 C 
BRANCH   9  10
ATOM     10  C   UNL     1     -15.681   1.360 -14.150  1.00  0.00    -0.000 C 
BRANCH  10  11
ATOM     11  C   UNL     1     -14.958   1.241 -12.797  1.00  0.00    -0.000 C 
BRANCH  11  12
ATOM     12  C   UNL     1     -15.570   2.151 -11.719  1.00  0.00    -0.000 C 
BRANCH  12  13
ATOM     13  C   UNL     1     -17.084   1.945 -11.560  1.00  0.00    -0.003 C 
ATOM     14  C   UNL     1     -17.385   0.829 -10.563  1.00  0.00     0.004 C 
ENDBRANCH  12  13
ENDBRANCH  11  12
ENDBRANCH  10  11
ENDBRANCH   9  10
ENDBRANCH   1   9
TORSDOF 10
ENDMDL
MODEL 3
REMARK VINA RESULT:    -5.003     15.973     18.094
REMARK INTER + INTRA:          -9.417
REMARK INTER:                  -8.222
REMARK INTRA:                  -1.195
REMARK UNBOUND:                -1.489
REMARK SMILES CCCCCCCCCCCC(=O)[O-]
REMARK SMILES IDX 7 1 8 2 9 3 10 4 11 5 12 6 13 7 14 8 6 9 5 10 4 11 3 12 2 13
REMARK SMILES IDX 1 14
REMARK H PARENT
REMARK Flexibility Score: inf
ROOT
ATOM      1  C   UNL     1     -17.740   0.084 -19.143  1.00  0.00     0.000 C 
ENDROOT
BRANCH   1   2
ATOM      2  C   UNL     1     -17.956   0.782 -17.790  1.00  0.00     0.000 C 
BRANCH   2   3
ATOM      3  C   UNL     1     -16.991   0.285 -16.704  1.00  0.00     0.000 C 
BRANCH   3   4
ATOM      4  C   UNL     1     -16.365   1.465 -15.945  1.00  0.00     0.006 C 
BRANCH   4   5
ATOM      5  C   UNL     1     -15.602   1.013 -14.693  1.00  0.00     0.053 C 
BRANCH   5   6
ATOM      6  C   UNL     1     -14.712   2.096 -14.165  1.00  0.00     0.041 C 
ATOM      7  O   UNL     1     -13.727   2.495 -14.841  1.00  0.00    -0.550 OA
ATOM      8  O   UNL     1     -14.990   2.689 -12.939  1.00  0.00    -0.550 OA
ENDBRANCH   5   6
ENDBRANCH   4   5
ENDBRANCH   3   4
ENDBRANCH   2   3
ENDBRANCH   1   2
BRANCH   1   9
ATOM      9  C   UNL     1     -16.370  -0.610 -19.237  1.00  0.00     0.000 C 
BRANCH   9  10
ATOM     10  C   UNL     1     -15.340   0.223 -20.019  1.00  0.00    -0.000 C 
BRANCH  10  11
ATOM     11  C   UNL     1     -13.924   0.116 -19.427  1.00  0.00    -0.000 C 
BRANCH  11  12
ATOM     12  C   UNL     1     -13.662   1.162 -18.332  1.00  0.00    -0.000 C 
BRANCH  12  13
ATOM     13  C   UNL     1     -14.024   2.588 -18.776  1.00  0.00    -0.003 C 
ATOM     14  C   UNL     1     -13.083   3.613 -18.147  1.00  0.00     0.004 C 
ENDBRANCH  12  13
ENDBRANCH  11  12
ENDBRANCH  10  11
ENDBRANCH   9  10
ENDBRANCH   1   9
TORSDOF 10
ENDMDL
MODEL 4
REMARK VINA RESULT:    -4.987     14.795     16.546
REMARK INTER + INTRA:          -9.391
REMARK INTER:                  -8.368
REMARK INTRA:                  -1.023
REMARK UNBOUND:                -1.489
REMARK SMILES CCCCCCCCCCCC(=O)[O-]
REMARK SMILES IDX 7 1 8 2 9 3 10 4 11 5 12 6 13 7 14 8 6 9 5 10 4 11 3 12 2 13
REMARK SMILES IDX 1 14
REMARK H PARENT
REMARK Flexibility Score: inf
ROOT
ATOM      1  C   UNL     1     -14.916   1.567 -13.045  1.00  0.00     0.000 C 
ENDROOT
BRANCH   1   2
ATOM      2  C   UNL     1     -15.451   2.749 -13.869  1.00  0.00     0.000 C 
BRANCH   2   3
ATOM      3  C   UNL     1     -15.123   2.629 -15.365  1.00  0.00     0.000 C 
BRANCH   3   4
ATOM      4  C   UNL     1     -13.605   2.639 -15.597  1.00  0.00     0.006 C 
BRANCH   4   5
ATOM      5  C   UNL     1     -13.213   3.431 -16.851  1.00  0.00     0.053 C 
BRANCH   5   6
ATOM      6  C   UNL     1     -13.600   2.709 -18.106  1.00  0.00     0.041 C 
ATOM      7  O   UNL     1     -13.953   3.355 -19.127  1.00  0.00    -0.550 OA
ATOM      8  O   UNL     1     -13.539   1.322 -18.157  1.00  0.00    -0.550 OA
ENDBRANCH   5   6
ENDBRANCH   4   5
ENDBRANCH   3   4
ENDBRANCH   2   3
ENDBRANCH   1   2
BRANCH   1   9
ATOM      9  C   UNL     1     -15.527   1.504 -11.635  1.00  0.00     0.000 C 
BRANCH   9  10
ATOM     10  C   UNL     1     -17.065   1.453 -11.661  1.00  0.00    -0.000 C 
BRANCH  10  11
ATOM     11  C   UNL     1     -17.603   0.048 -11.982  1.00  0.00    -0.000 C 
BRANCH  11  12
ATOM     12  C   UNL     1     -18.299  -0.018 -13.351  1.00  0.00    -0.000 C 
BRANCH  12  13
ATOM     13  C   UNL     1     -17.451  -0.734 -14.413  1.00  0.00    -0.003 C 
ATOM     14  C   UNL     1     -17.612  -0.074 -15.780  1.00  0.00     0.004 C 
ENDBRANCH  12  13
ENDBRANCH  11  12
ENDBRANCH  10  11
ENDBRANCH   9  10
ENDBRANCH   1   9
TORSDOF 10
ENDMDL
MODEL 5
REMARK VINA RESULT:    -4.987     15.977     18.002
REMARK INTER + INTRA:          -9.391
REMARK INTER:                  -8.387
REMARK INTRA:                  -1.003
REMARK UNBOUND:                -1.489
REMARK SMILES CCCCCCCCCCCC(=O)[O-]
REMARK SMILES IDX 7 1 8 2 9 3 10 4 11 5 12 6 13 7 14 8 6 9 5 10 4 11 3 12 2 13
REMARK SMILES IDX 1 14
REMARK H PARENT
REMARK Flexibility Score: inf
ROOT
ATOM      1  C   UNL     1     -15.244  -0.406 -19.226  1.00  0.00     0.000 C 
ENDROOT
BRANCH   1   2
ATOM      2  C   UNL     1     -16.660  -0.991 -19.106  1.00  0.00     0.000 C 
BRANCH   2   3
ATOM      3  C   UNL     1     -17.744   0.091 -18.989  1.00  0.00     0.000 C 
BRANCH   3   4
ATOM      4  C   UNL     1     -17.431   1.059 -17.839  1.00  0.00     0.006 C 
BRANCH   4   5
ATOM      5  C   UNL     1     -18.101   0.637 -16.524  1.00  0.00     0.053 C 
BRANCH   5   6
ATOM      6  C   UNL     1     -17.096   0.176 -15.513  1.00  0.00     0.041 C 
ATOM      7  O   UNL     1     -16.669  -1.008 -15.537  1.00  0.00    -0.550 OA
ATOM      8  O   UNL     1     -16.606   1.065 -14.565  1.00  0.00    -0.550 OA
ENDBRANCH   5   6
ENDBRANCH   4   5
ENDBRANCH   3   4
ENDBRANCH   2   3
ENDBRANCH   1   2
BRANCH   1   9
ATOM      9  C   UNL     1     -15.076   0.484 -20.469  1.00  0.00     0.000 C 
BRANCH   9  10
ATOM     10  C   UNL     1     -14.642   1.916 -20.114  1.00  0.00    -0.000 C 
BRANCH  10  11
ATOM     11  C   UNL     1     -13.923   1.996 -18.756  1.00  0.00    -0.000 C 
BRANCH  11  12
ATOM     12  C   UNL     1     -13.353   3.395 -18.471  1.00  0.00    -0.000 C 
BRANCH  12  13
ATOM     13  C   UNL     1     -13.079   3.630 -16.977  1.00  0.00    -0.003 C 
ATOM     14  C   UNL     1     -13.738   2.551 -16.122  1.00  0.00     0.004 C 
ENDBRANCH  12  13
ENDBRANCH  11  12
ENDBRANCH  10  11
ENDBRANCH   9  10
ENDBRANCH   1   9
TORSDOF 10
ENDMDL
MODEL 6
REMARK VINA RESULT:    -4.986     15.297     16.999
REMARK INTER + INTRA:          -9.390
REMARK INTER:                  -8.831
REMARK INTRA:                  -0.559
REMARK UNBOUND:                -1.489
REMARK SMILES CCCCCCCCCCCC(=O)[O-]
REMARK SMILES IDX 7 1 8 2 9 3 10 4 11 5 12 6 13 7 14 8 6 9 5 10 4 11 3 12 2 13
REMARK SMILES IDX 1 14
REMARK H PARENT
REMARK Flexibility Score: inf
ROOT
ATOM      1  C   UNL     1     -15.189   2.616 -15.206  1.00  0.00     0.000 C 
ENDROOT
BRANCH   1   2
ATOM      2  C   UNL     1     -13.768   2.327 -15.717  1.00  0.00     0.000 C 
BRANCH   2   3
ATOM      3  C   UNL     1     -13.203   3.465 -16.579  1.00  0.00     0.000 C 
BRANCH   3   4
ATOM      4  C   UNL     1     -13.250   3.100 -18.070  1.00  0.00     0.006 C 
BRANCH   4   5
ATOM      5  C   UNL     1     -13.706   1.653 -18.301  1.00  0.00     0.053 C 
BRANCH   5   6
ATOM      6  C   UNL     1     -14.847   1.580 -19.269  1.00  0.00     0.041 C 
ATOM      7  O   UNL     1     -15.945   1.072 -18.919  1.00  0.00    -0.550 OA
ATOM      8  O   UNL     1     -14.708   2.104 -20.548  1.00  0.00    -0.550 OA
ENDBRANCH   5   6
ENDBRANCH   4   5
ENDBRANCH   3   4
ENDBRANCH   2   3
ENDBRANCH   1   2
BRANCH   1   9
ATOM      9  C   UNL     1     -15.219   2.960 -13.707  1.00  0.00     0.000 C 
BRANCH   9  10
ATOM     10  C   UNL     1     -15.101   1.714 -12.813  1.00  0.00    -0.000 C 
BRANCH  10  11
ATOM     11  C   UNL     1     -15.822   1.885 -11.465  1.00  0.00    -0.000 C 
BRANCH  11  12
ATOM     12  C   UNL     1     -16.804   0.739 -11.172  1.00  0.00    -0.000 C 
BRANCH  12  13
ATOM     13  C   UNL     1     -18.027   0.754 -12.102  1.00  0.00    -0.003 C 
ATOM     14  C   UNL     1     -18.017  -0.450 -13.041  1.00  0.00     0.004 C 
ENDBRANCH  12  13
ENDBRANCH  11  12
ENDBRANCH  10  11
ENDBRANCH   9  10
ENDBRANCH   1   9
TORSDOF 10
ENDMDL
MODEL 7
REMARK VINA RESULT:    -4.921     16.016     17.971
REMARK INTER + INTRA:          -9.287
REMARK INTER:                  -8.349
REMARK INTRA:                  -0.938
REMARK UNBOUND:                -1.489
REMARK SMILES CCCCCCCCCCCC(=O)[O-]
REMARK SMILES IDX 7 1 8 2 9 3 10 4 11 5 12 6 13 7 14 8 6 9 5 10 4 11 3 12 2 13
REMARK SMILES IDX 1 14
REMARK H PARENT
REMARK Flexibility Score: inf
ROOT
ATOM      1  C   UNL     1     -14.018   3.168 -18.742  1.00  0.00     0.000 C 
ENDROOT
BRANCH   1   2
ATOM      2  C   UNL     1     -13.316   3.529 -17.424  1.00  0.00     0.000 C 
BRANCH   2   3
ATOM      3  C   UNL     1     -13.590   2.512 -16.306  1.00  0.00     0.000 C 
BRANCH   3   4
ATOM      4  C   UNL     1     -15.015   2.672 -15.755  1.00  0.00     0.006 C 
BRANCH   4   5
ATOM      5  C   UNL     1     -15.390   1.551 -14.777  1.00  0.00     0.053 C 
BRANCH   5   6
ATOM      6  C   UNL     1     -15.070   1.921 -13.361  1.00  0.00     0.041 C 
ATOM      7  O   UNL     1     -14.680   1.041 -12.548  1.00  0.00    -0.550 OA
ATOM      8  O   UNL     1     -15.171   3.243 -12.948  1.00  0.00    -0.550 OA
ENDBRANCH   5   6
ENDBRANCH   4   5
ENDBRANCH   3   4
ENDBRANCH   2   3
ENDBRANCH   1   2
BRANCH   1   9
ATOM      9  C   UNL     1     -13.904   1.673 -19.082  1.00  0.00     0.000 C 
BRANCH   9  10
ATOM     10  C   UNL     1     -15.069   1.176 -19.955  1.00  0.00    -0.000 C 
BRANCH  10  11
ATOM     11  C   UNL     1     -15.303  -0.339 -19.822  1.00  0.00    -0.000 C 
BRANCH  11  12
ATOM     12  C   UNL     1     -16.468  -0.675 -18.877  1.00  0.00    -0.000 C 
BRANCH  12  13
ATOM     13  C   UNL     1     -17.622   0.333 -18.977  1.00  0.00    -0.003 C 
ATOM     14  C   UNL     1     -17.910   0.974 -17.622  1.00  0.00     0.004 C 
ENDBRANCH  12  13
ENDBRANCH  11  12
ENDBRANCH  10  11
ENDBRANCH   9  10
ENDBRANCH   1   9
TORSDOF 10
ENDMDL
MODEL 8
REMARK VINA RESULT:    -4.892     16.128     17.957
REMARK INTER + INTRA:          -9.240
REMARK INTER:                  -8.485
REMARK INTRA:                  -0.755
REMARK UNBOUND:                -1.489
REMARK SMILES CCCCCCCCCCCC(=O)[O-]
REMARK SMILES IDX 7 1 8 2 9 3 10 4 11 5 12 6 13 7 14 8 6 9 5 10 4 11 3 12 2 13
REMARK SMILES IDX 1 14
REMARK H PARENT
REMARK Flexibility Score: inf
ROOT
ATOM      1  C   UNL     1     -13.775   3.377 -18.524  1.00  0.00     0.000 C 
ENDROOT
BRANCH   1   2
ATOM      2  C   UNL     1     -13.759   1.870 -18.827  1.00  0.00     0.000 C 
BRANCH   2   3
ATOM      3  C   UNL     1     -14.791   1.466 -19.890  1.00  0.00     0.000 C 
BRANCH   3   4
ATOM      4  C   UNL     1     -15.927   0.641 -19.268  1.00  0.00     0.006 C 
BRANCH   4   5
ATOM      5  C   UNL     1     -15.438  -0.249 -18.118  1.00  0.00     0.053 C 
BRANCH   5   6
ATOM      6  C   UNL     1     -16.193  -1.542 -18.059  1.00  0.00     0.041 C 
ATOM      7  O   UNL     1     -16.057  -2.312 -17.072  1.00  0.00    -0.550 OA
ATOM      8  O   UNL     1     -17.072  -1.881 -19.079  1.00  0.00    -0.550 OA
ENDBRANCH   5   6
ENDBRANCH   4   5
ENDBRANCH   3   4
ENDBRANCH   2   3
ENDBRANCH   1   2
BRANCH   1   9
ATOM      9  C   UNL     1     -13.237   3.703 -17.120  1.00  0.00     0.000 C 
BRANCH   9  10
ATOM     10  C   UNL     1     -13.532   2.588 -16.102  1.00  0.00    -0.000 C 
BRANCH  10  11
ATOM     11  C   UNL     1     -14.959   2.672 -15.532  1.00  0.00    -0.000 C 
BRANCH  11  12
ATOM     12  C   UNL     1     -15.093   1.968 -14.172  1.00  0.00    -0.000 C 
BRANCH  12  13
ATOM     13  C   UNL     1     -15.320   2.953 -13.015  1.00  0.00    -0.003 C 
ATOM     14  C   UNL     1     -15.748   2.219 -11.746  1.00  0.00     0.004 C 
ENDBRANCH  12  13
ENDBRANCH  11  12
ENDBRANCH  10  11
ENDBRANCH   9  10
ENDBRANCH   1   9
TORSDOF 10
ENDMDL
MODEL 9
REMARK VINA RESULT:    -4.874     15.906     17.746
REMARK INTER + INTRA:          -9.211
REMARK INTER:                  -7.908
REMARK INTRA:                  -1.303
REMARK UNBOUND:                -1.489
REMARK SMILES CCCCCCCCCCCC(=O)[O-]
REMARK SMILES IDX 7 1 8 2 9 3 10 4 11 5 12 6 13 7 14 8 6 9 5 10 4 11 3 12 2 13
REMARK SMILES IDX 1 14
REMARK H PARENT
REMARK Flexibility Score: inf
ROOT
ATOM      1  C   UNL     1     -14.197   0.138 -19.444  1.00  0.00     0.000 C 
ENDROOT
BRANCH   1   2
ATOM      2  C   UNL     1     -13.857   1.063 -18.265  1.00  0.00     0.000 C 
BRANCH   2   3
ATOM      3  C   UNL     1     -13.958   2.552 -18.628  1.00  0.00     0.000 C 
BRANCH   3   4
ATOM      4  C   UNL     1     -14.355   3.390 -17.403  1.00  0.00     0.006 C 
BRANCH   4   5
ATOM      5  C   UNL     1     -15.395   2.683 -16.525  1.00  0.00     0.053 C 
BRANCH   5   6
ATOM      6  C   UNL     1     -14.910   2.513 -15.118  1.00  0.00     0.041 C 
ATOM      7  O   UNL     1     -13.684   2.343 -14.886  1.00  0.00    -0.550 OA
ATOM      8  O   UNL     1     -15.808   2.577 -14.061  1.00  0.00    -0.550 OA
ENDBRANCH   5   6
ENDBRANCH   4   5
ENDBRANCH   3   4
ENDBRANCH   2   3
ENDBRANCH   1   2
BRANCH   1   9
ATOM      9  C   UNL     1     -15.582   0.430 -20.044  1.00  0.00     0.000 C 
BRANCH   9  10
ATOM     10  C   UNL     1     -16.730   0.012 -19.109  1.00  0.00    -0.000 C 
BRANCH  10  11
ATOM     11  C   UNL     1     -16.865  -1.515 -18.986  1.00  0.00    -0.000 C 
BRANCH  11  12
ATOM     12  C   UNL     1     -16.976  -1.982 -17.526  1.00  0.00    -0.000 C 
BRANCH  12  13
ATOM     13  C   UNL     1     -16.345  -0.990 -16.537  1.00  0.00    -0.003 C 
ATOM     14  C   UNL     1     -17.356  -0.551 -15.481  1.00  0.00     0.004 C 
ENDBRANCH  12  13
ENDBRANCH  11  12
ENDBRANCH  10  11
ENDBRANCH   9  10
ENDBRANCH   1   9
TORSDOF 10
ENDMDL
