MODEL 1
REMARK VINA RESULT:    -3.584      0.000      0.000
REMARK INTER + INTRA:          -6.554
REMARK INTER:                  -5.679
REMARK INTRA:                  -0.876
REMARK UNBOUND:                -0.876
REMARK SMILES CCCCCCCCCCCC(=O)[O-]
REMARK SMILES IDX 7 1 8 2 9 3 10 4 11 5 12 6 13 7 14 8 6 9 5 10 4 11 3 12 2 13
REMARK SMILES IDX 1 14
REMARK H PARENT
REMARK Flexibility Score: inf
ROOT
ATOM      1  C   UNL     1      26.435 156.031 120.222  1.00  0.00     0.000 C 
ENDROOT
BRANCH   1   2
ATOM      2  C   UNL     1      26.655 156.995 121.397  1.00  0.00     0.000 C 
BRANCH   2   3
ATOM      3  C   UNL     1      28.038 156.827 122.051  1.00  0.00     0.000 C 
BRANCH   3   4
ATOM      4  C   UNL     1      29.088 157.799 121.480  1.00  0.00     0.006 C 
BRANCH   4   5
ATOM      5  C   UNL     1      30.541 157.324 121.645  1.00  0.00     0.053 C 
BRANCH   5   6
ATOM      6  C   UNL     1      31.504 158.201 120.906  1.00  0.00     0.041 C 
ATOM      7  O   UNL     1      31.269 159.431 120.772  1.00  0.00    -0.550 OA
ATOM      8  O   UNL     1      32.646 157.653 120.334  1.00  0.00    -0.550 OA
ENDBRANCH   5   6
ENDBRANCH   4   5
ENDBRANCH   3   4
ENDBRANCH   2   3
ENDBRANCH   1   2
BRANCH   1   9
ATOM      9  C   UNL     1      25.600 156.660 119.092  1.00  0.00     0.000 C 
BRANCH   9  10
ATOM     10  C   UNL     1      25.839 158.173 118.952  1.00  0.00    -0.000 C 
BRANCH  10  11
ATOM     11  C   UNL     1      25.991 158.613 117.486  1.00  0.00    -0.000 C 
BRANCH  11  12
ATOM     12  C   UNL     1      26.955 159.799 117.323  1.00  0.00    -0.000 C 
BRANCH  12  13
ATOM     13  C   UNL     1      28.050 159.826 118.400  1.00  0.00    -0.003 C 
ATOM     14  C   UNL     1      29.403 160.191 117.799  1.00  0.00     0.004 C 
ENDBRANCH  12  13
ENDBRANCH  11  12
ENDBRANCH  10  11
ENDBRANCH   9  10
ENDBRANCH   1   9
TORSDOF 10
ENDMDL
MODEL 2
REMARK VINA RESULT:    -3.507      1.704      4.164
REMARK INTER + INTRA:          -6.433
REMARK INTER:                  -5.628
REMARK INTRA:                  -0.805
REMARK UNBOUND:                -0.876
REMARK SMILES CCCCCCCCCCCC(=O)[O-]
REMARK SMILES IDX 7 1 8 2 9 3 10 4 11 5 12 6 13 7 14 8 6 9 5 10 4 11 3 12 2 13
REMARK SMILES IDX 1 14
REMARK H PARENT
REMARK Flexibility Score: inf
ROOT
ATOM      1  C   UNL     1      26.720 159.499 116.509  1.00  0.00     0.000 C 
ENDROOT
BRANCH   1   2
ATOM      2  C   UNL     1      27.128 160.966 116.711  1.00  0.00     0.000 C 
BRANCH   2   3
ATOM      3  C   UNL     1      28.177 161.143 117.822  1.00  0.00     0.000 C 
BRANCH   3   4
ATOM      4  C   UNL     1      29.373 160.183 117.670  1.00  0.00     0.006 C 
BRANCH   4   5
ATOM      5  C   UNL     1      30.342 160.192 118.863  1.00  0.00     0.053 C 
BRANCH   5   6
ATOM      6  C   UNL     1      31.760 159.973 118.434  1.00  0.00     0.041 C 
ATOM      7  O   UNL     1      32.093 160.140 117.230  1.00  0.00    -0.550 OA
ATOM      8  O   UNL     1      32.709 159.552 119.357  1.00  0.00    -0.550 OA
ENDBRANCH   5   6
ENDBRANCH   4   5
ENDBRANCH   3   4
ENDBRANCH   2   3
ENDBRANCH   1   2
BRANCH   1   9
ATOM      9  C   UNL     1      25.646 159.042 117.513  1.00  0.00     0.000 C 
BRANCH   9  10
ATOM     10  C   UNL     1      25.581 157.512 117.654  1.00  0.00    -0.000 C 
BRANCH  10  11
ATOM     11  C   UNL     1      25.674 157.050 119.118  1.00  0.00    -0.000 C 
BRANCH  11  12
ATOM     12  C   UNL     1      26.540 157.985 119.978  1.00  0.00    -0.000 C 
BRANCH  12  13
ATOM     13  C   UNL     1      27.460 157.221 120.943  1.00  0.00    -0.003 C 
ATOM     14  C   UNL     1      26.699 156.114 121.665  1.00  0.00     0.004 C 
ENDBRANCH  12  13
ENDBRANCH  11  12
ENDBRANCH  10  11
ENDBRANCH   9  10
ENDBRANCH   1   9
TORSDOF 10
ENDMDL
MODEL 3
REMARK VINA RESULT:    -3.425      1.453      3.677
REMARK INTER + INTRA:          -6.302
REMARK INTER:                  -5.372
REMARK INTRA:                  -0.930
REMARK UNBOUND:                -0.876
REMARK SMILES CCCCCCCCCCCC(=O)[O-]
REMARK SMILES IDX 7 1 8 2 9 3 10 4 11 5 12 6 13 7 14 8 6 9 5 10 4 11 3 12 2 13
REMARK SMILES IDX 1 14
REMARK H PARENT
REMARK Flexibility Score: inf
ROOT
ATOM      1  C   UNL     1      28.659 160.231 117.603  1.00  0.00     0.000 C 
ENDROOT
BRANCH   1   2
ATOM      2  C   UNL     1      28.909 161.285 118.692  1.00  0.00     0.000 C 
BRANCH   2   3
ATOM      3  C   UNL     1      28.713 160.728 120.113  1.00  0.00     0.000 C 
BRANCH   3   4
ATOM      4  C   UNL     1      29.074 159.234 120.221  1.00  0.00     0.006 C 
BRANCH   4   5
ATOM      5  C   UNL     1      30.270 158.941 121.142  1.00  0.00     0.053 C 
BRANCH   5   6
ATOM      6  C   UNL     1      31.507 158.611 120.366  1.00  0.00     0.041 C 
ATOM      7  O   UNL     1      32.185 157.589 120.656  1.00  0.00    -0.550 OA
ATOM      8  O   UNL     1      31.932 159.450 119.344  1.00  0.00    -0.550 OA
ENDBRANCH   5   6
ENDBRANCH   4   5
ENDBRANCH   3   4
ENDBRANCH   2   3
ENDBRANCH   1   2
BRANCH   1   9
ATOM      9  C   UNL     1      27.395 160.525 116.776  1.00  0.00     0.000 C 
BRANCH   9  10
ATOM     10  C   UNL     1      26.441 159.321 116.707  1.00  0.00    -0.000 C 
BRANCH  10  11
ATOM     11  C   UNL     1      26.017 158.824 118.100  1.00  0.00    -0.000 C 
BRANCH  11  12
ATOM     12  C   UNL     1      25.632 157.335 118.103  1.00  0.00    -0.000 C 
BRANCH  12  13
ATOM     13  C   UNL     1      25.655 156.720 119.510  1.00  0.00    -0.003 C 
ATOM     14  C   UNL     1      26.106 155.263 119.464  1.00  0.00     0.004 C 
ENDBRANCH  12  13
ENDBRANCH  11  12
ENDBRANCH  10  11
ENDBRANCH   9  10
ENDBRANCH   1   9
TORSDOF 10
ENDMDL
MODEL 4
REMARK VINA RESULT:    -3.399      1.960      3.630
REMARK INTER + INTRA:          -6.261
REMARK INTER:                  -5.362
REMARK INTRA:                  -0.899
REMARK UNBOUND:                -0.876
REMARK SMILES CCCCCCCCCCCC(=O)[O-]
REMARK SMILES IDX 7 1 8 2 9 3 10 4 11 5 12 6 13 7 14 8 6 9 5 10 4 11 3 12 2 13
REMARK SMILES IDX 1 14
REMARK H PARENT
REMARK Flexibility Score: inf
ROOT
ATOM      1  C   UNL     1      28.763 157.359 121.767  1.00  0.00     0.000 C 
ENDROOT
BRANCH   1   2
ATOM      2  C   UNL     1      30.219 156.883 121.653  1.00  0.00     0.000 C 
BRANCH   2   3
ATOM      3  C   UNL     1      31.230 158.040 121.730  1.00  0.00     0.000 C 
BRANCH   3   4
ATOM      4  C   UNL     1      32.195 158.068 120.529  1.00  0.00     0.006 C 
BRANCH   4   5
ATOM      5  C   UNL     1      32.539 159.481 120.031  1.00  0.00     0.053 C 
BRANCH   5   6
ATOM      6  C   UNL     1      31.888 159.787 118.718  1.00  0.00     0.041 C 
ATOM      7  O   UNL     1      30.637 159.906 118.642  1.00  0.00    -0.550 OA
ATOM      8  O   UNL     1      32.661 159.907 117.570  1.00  0.00    -0.550 OA
ENDBRANCH   5   6
ENDBRANCH   4   5
ENDBRANCH   3   4
ENDBRANCH   2   3
ENDBRANCH   1   2
BRANCH   1   9
ATOM      9  C   UNL     1      28.545 158.746 121.137  1.00  0.00     0.000 C 
BRANCH   9  10
ATOM     10  C   UNL     1      27.435 158.745 120.073  1.00  0.00    -0.000 C 
BRANCH  10  11
ATOM     11  C   UNL     1      26.027 158.672 120.690  1.00  0.00    -0.000 C 
BRANCH  11  12
ATOM     12  C   UNL     1      25.259 157.411 120.260  1.00  0.00    -0.000 C 
BRANCH  12  13
ATOM     13  C   UNL     1      25.963 156.645 119.130  1.00  0.00    -0.003 C 
ATOM     14  C   UNL     1      26.054 155.156 119.450  1.00  0.00     0.004 C 
ENDBRANCH  12  13
ENDBRANCH  11  12
ENDBRANCH  10  11
ENDBRANCH   9  10
ENDBRANCH   1   9
TORSDOF 10
ENDMDL
MODEL 5
REMARK VINA RESULT:    -3.320      2.719      4.712
REMARK INTER + INTRA:          -6.137
REMARK INTER:                  -5.347
REMARK INTRA:                  -0.789
REMARK UNBOUND:                -0.876
REMARK SMILES CCCCCCCCCCCC(=O)[O-]
REMARK SMILES IDX 7 1 8 2 9 3 10 4 11 5 12 6 13 7 14 8 6 9 5 10 4 11 3 12 2 13
REMARK SMILES IDX 1 14
REMARK H PARENT
REMARK Flexibility Score: inf
ROOT
ATOM      1  C   UNL     1      31.612 157.619 121.059  1.00  0.00     0.000 C 
ENDROOT
BRANCH   1   2
ATOM      2  C   UNL     1      30.323 158.225 121.636  1.00  0.00     0.000 C 
BRANCH   2   3
ATOM      3  C   UNL     1      29.211 157.179 121.829  1.00  0.00     0.000 C 
BRANCH   3   4
ATOM      4  C   UNL     1      27.879 157.601 121.181  1.00  0.00     0.006 C 
BRANCH   4   5
ATOM      5  C   UNL     1      26.794 156.512 121.206  1.00  0.00     0.053 C 
BRANCH   5   6
ATOM      6  C   UNL     1      26.282 156.199 119.834  1.00  0.00     0.041 C 
ATOM      7  O   UNL     1      25.921 157.128 119.064  1.00  0.00    -0.550 OA
ATOM      8  O   UNL     1      26.173 154.878 119.418  1.00  0.00    -0.550 OA
ENDBRANCH   5   6
ENDBRANCH   4   5
ENDBRANCH   3   4
ENDBRANCH   2   3
ENDBRANCH   1   2
BRANCH   1   9
ATOM      9  C   UNL     1      32.354 158.592 120.125  1.00  0.00     0.000 C 
BRANCH   9  10
ATOM     10  C   UNL     1      31.603 159.921 119.938  1.00  0.00    -0.000 C 
BRANCH  10  11
ATOM     11  C   UNL     1      30.917 160.022 118.565  1.00  0.00    -0.000 C 
BRANCH  11  12
ATOM     12  C   UNL     1      29.584 160.786 118.626  1.00  0.00    -0.000 C 
BRANCH  12  13
ATOM     13  C   UNL     1      28.388 159.927 118.188  1.00  0.00    -0.003 C 
ATOM     14  C   UNL     1      27.914 160.318 116.791  1.00  0.00     0.004 C 
ENDBRANCH  12  13
ENDBRANCH  11  12
ENDBRANCH  10  11
ENDBRANCH   9  10
ENDBRANCH   1   9
TORSDOF 10
ENDMDL
MODEL 6
REMARK VINA RESULT:    -3.139      2.152      4.218
REMARK INTER + INTRA:          -5.849
REMARK INTER:                  -4.961
REMARK INTRA:                  -0.888
REMARK UNBOUND:                -0.876
REMARK SMILES CCCCCCCCCCCC(=O)[O-]
REMARK SMILES IDX 7 1 8 2 9 3 10 4 11 5 12 6 13 7 14 8 6 9 5 10 4 11 3 12 2 13
REMARK SMILES IDX 1 14
REMARK H PARENT
REMARK Flexibility Score: inf
ROOT
ATOM      1  C   UNL     1      31.035 160.235 117.800  1.00  0.00     0.000 C 
ENDROOT
BRANCH   1   2
ATOM      2  C   UNL     1      32.423 159.880 118.354  1.00  0.00     0.000 C 
BRANCH   2   3
ATOM      3  C   UNL     1      32.693 160.513 119.730  1.00  0.00     0.000 C 
BRANCH   3   4
ATOM      4  C   UNL     1      33.052 159.469 120.804  1.00  0.00     0.006 C 
BRANCH   4   5
ATOM      5  C   UNL     1      32.394 158.096 120.593  1.00  0.00     0.053 C 
BRANCH   5   6
ATOM      6  C   UNL     1      31.158 157.933 121.422  1.00  0.00     0.041 C 
ATOM      7  O   UNL     1      30.735 158.889 122.125  1.00  0.00    -0.550 OA
ATOM      8  O   UNL     1      30.492 156.714 121.447  1.00  0.00    -0.550 OA
ENDBRANCH   5   6
ENDBRANCH   4   5
ENDBRANCH   3   4
ENDBRANCH   2   3
ENDBRANCH   1   2
BRANCH   1   9
ATOM      9  C   UNL     1      30.094 160.795 118.881  1.00  0.00     0.000 C 
BRANCH   9  10
ATOM     10  C   UNL     1      28.894 159.873 119.156  1.00  0.00    -0.000 C 
BRANCH  10  11
ATOM     11  C   UNL     1      27.591 160.400 118.530  1.00  0.00    -0.000 C 
BRANCH  11  12
ATOM     12  C   UNL     1      27.540 160.187 117.008  1.00  0.00    -0.000 C 
BRANCH  12  13
ATOM     13  C   UNL     1      26.386 159.269 116.576  1.00  0.00    -0.003 C 
ATOM     14  C   UNL     1      25.812 158.510 117.768  1.00  0.00     0.004 C 
ENDBRANCH  12  13
ENDBRANCH  11  12
ENDBRANCH  10  11
ENDBRANCH   9  10
ENDBRANCH   1   9
TORSDOF 10
ENDMDL
MODEL 7
REMARK VINA RESULT:    -3.046      1.613      2.993
REMARK INTER + INTRA:          -5.703
REMARK INTER:                  -5.082
REMARK INTRA:                  -0.621
REMARK UNBOUND:                -0.876
REMARK SMILES CCCCCCCCCCCC(=O)[O-]
REMARK SMILES IDX 7 1 8 2 9 3 10 4 11 5 12 6 13 7 14 8 6 9 5 10 4 11 3 12 2 13
REMARK SMILES IDX 1 14
REMARK H PARENT
REMARK Flexibility Score: inf
ROOT
ATOM      1  C   UNL     1      28.612 157.664 121.426  1.00  0.00     0.000 C 
ENDROOT
BRANCH   1   2
ATOM      2  C   UNL     1      29.806 156.865 121.969  1.00  0.00     0.000 C 
BRANCH   2   3
ATOM      3  C   UNL     1      31.148 157.323 121.371  1.00  0.00     0.000 C 
BRANCH   3   4
ATOM      4  C   UNL     1      31.067 158.721 120.729  1.00  0.00     0.006 C 
BRANCH   4   5
ATOM      5  C   UNL     1      32.262 159.070 119.828  1.00  0.00     0.053 C 
BRANCH   5   6
ATOM      6  C   UNL     1      33.080 160.191 120.390  1.00  0.00     0.041 C 
ATOM      7  O   UNL     1      33.996 159.953 121.221  1.00  0.00    -0.550 OA
ATOM      8  O   UNL     1      32.808 161.503 120.023  1.00  0.00    -0.550 OA
ENDBRANCH   5   6
ENDBRANCH   4   5
ENDBRANCH   3   4
ENDBRANCH   2   3
ENDBRANCH   1   2
BRANCH   1   9
ATOM      9  C   UNL     1      27.276 156.920 121.599  1.00  0.00     0.000 C 
BRANCH   9  10
ATOM     10  C   UNL     1      26.712 156.401 120.266  1.00  0.00    -0.000 C 
BRANCH  10  11
ATOM     11  C   UNL     1      25.385 157.081 119.883  1.00  0.00    -0.000 C 
BRANCH  11  12
ATOM     12  C   UNL     1      25.516 158.608 119.772  1.00  0.00    -0.000 C 
BRANCH  12  13
ATOM     13  C   UNL     1      26.405 159.043 118.597  1.00  0.00    -0.003 C 
ATOM     14  C   UNL     1      25.875 158.496 117.275  1.00  0.00     0.004 C 
ENDBRANCH  12  13
ENDBRANCH  11  12
ENDBRANCH  10  11
ENDBRANCH   9  10
ENDBRANCH   1   9
TORSDOF 10
ENDMDL
MODEL 8
REMARK VINA RESULT:    -3.013      2.276      4.898
REMARK INTER + INTRA:          -5.649
REMARK INTER:                  -4.860
REMARK INTRA:                  -0.790
REMARK UNBOUND:                -0.876
REMARK SMILES CCCCCCCCCCCC(=O)[O-]
REMARK SMILES IDX 7 1 8 2 9 3 10 4 11 5 12 6 13 7 14 8 6 9 5 10 4 11 3 12 2 13
REMARK SMILES IDX 1 14
REMARK H PARENT
REMARK Flexibility Score: inf
ROOT
ATOM      1  C   UNL     1      31.253 158.370 120.739  1.00  0.00     0.000 C 
ENDROOT
BRANCH   1   2
ATOM      2  C   UNL     1      32.369 159.116 121.487  1.00  0.00     0.000 C 
BRANCH   2   3
ATOM      3  C   UNL     1      32.758 160.440 120.806  1.00  0.00     0.000 C 
BRANCH   3   4
ATOM      4  C   UNL     1      31.538 161.219 120.281  1.00  0.00     0.006 C 
BRANCH   4   5
ATOM      5  C   UNL     1      31.665 161.676 118.819  1.00  0.00     0.053 C 
BRANCH   5   6
ATOM      6  C   UNL     1      31.533 160.533 117.861  1.00  0.00     0.041 C 
ATOM      7  O   UNL     1      32.555 160.046 117.308  1.00  0.00    -0.550 OA
ATOM      8  O   UNL     1      30.277 160.026 117.551  1.00  0.00    -0.550 OA
ENDBRANCH   5   6
ENDBRANCH   4   5
ENDBRANCH   3   4
ENDBRANCH   2   3
ENDBRANCH   1   2
BRANCH   1   9
ATOM      9  C   UNL     1      30.744 157.141 121.512  1.00  0.00     0.000 C 
BRANCH   9  10
ATOM     10  C   UNL     1      29.246 157.234 121.850  1.00  0.00    -0.000 C 
BRANCH  10  11
ATOM     11  C   UNL     1      28.545 158.385 121.107  1.00  0.00    -0.000 C 
BRANCH  11  12
ATOM     12  C   UNL     1      27.230 157.944 120.443  1.00  0.00    -0.000 C 
BRANCH  12  13
ATOM     13  C   UNL     1      26.866 156.486 120.760  1.00  0.00    -0.003 C 
ATOM     14  C   UNL     1      26.038 155.870 119.636  1.00  0.00     0.004 C 
ENDBRANCH  12  13
ENDBRANCH  11  12
ENDBRANCH  10  11
ENDBRANCH   9  10
ENDBRANCH   1   9
TORSDOF 10
ENDMDL
MODEL 9
REMARK VINA RESULT:    -2.881      2.791      4.415
REMARK INTER + INTRA:          -5.441
REMARK INTER:                  -4.129
REMARK INTRA:                  -1.313
REMARK UNBOUND:                -0.876
REMARK SMILES CCCCCCCCCCCC(=O)[O-]
REMARK SMILES IDX 7 1 8 2 9 3 10 4 11 5 12 6 13 7 14 8 6 9 5 10 4 11 3 12 2 13
REMARK SMILES IDX 1 14
REMARK H PARENT
REMARK Flexibility Score: inf
ROOT
ATOM      1  C   UNL     1      30.609 159.874 119.181  1.00  0.00     0.000 C 
ENDROOT
BRANCH   1   2
ATOM      2  C   UNL     1      30.177 159.514 120.611  1.00  0.00     0.000 C 
BRANCH   2   3
ATOM      3  C   UNL     1      28.859 160.193 121.021  1.00  0.00     0.000 C 
BRANCH   3   4
ATOM      4  C   UNL     1      27.812 159.192 121.546  1.00  0.00     0.006 C 
BRANCH   4   5
ATOM      5  C   UNL     1      27.697 157.907 120.710  1.00  0.00     0.053 C 
BRANCH   5   6
ATOM      6  C   UNL     1      26.389 157.211 120.930  1.00  0.00     0.041 C 
ATOM      7  O   UNL     1      25.327 157.878 121.047  1.00  0.00    -0.550 OA
ATOM      8  O   UNL     1      26.347 155.827 121.040  1.00  0.00    -0.550 OA
ENDBRANCH   5   6
ENDBRANCH   4   5
ENDBRANCH   3   4
ENDBRANCH   2   3
ENDBRANCH   1   2
BRANCH   1   9
ATOM      9  C   UNL     1      29.662 160.888 118.517  1.00  0.00     0.000 C 
BRANCH   9  10
ATOM     10  C   UNL     1      28.868 160.279 117.349  1.00  0.00    -0.000 C 
BRANCH  10  11
ATOM     11  C   UNL     1      27.487 160.933 117.169  1.00  0.00    -0.000 C 
BRANCH  11  12
ATOM     12  C   UNL     1      26.477 160.482 118.236  1.00  0.00    -0.000 C 
BRANCH  12  13
ATOM     13  C   UNL     1      25.317 159.665 117.646  1.00  0.00    -0.003 C 
ATOM     14  C   UNL     1      25.721 158.209 117.438  1.00  0.00     0.004 C 
ENDBRANCH  12  13
ENDBRANCH  11  12
ENDBRANCH  10  11
ENDBRANCH   9  10
ENDBRANCH   1   9
TORSDOF 10
ENDMDL
