MODEL 1
REMARK VINA RESULT:   124.126      0.000      0.000
REMARK INTER + INTRA:         135.784
REMARK INTER:                 135.010
REMARK INTRA:                   0.774
REMARK UNBOUND:                 0.774
REMARK SMILES C[C@H]1[C@H](C)CC[C@@]2(C(=O)[O-])CC[C@@]3(C)C(=CC[C@@H]4[C@@]5(C)CC[C@@H](O)C(C)(C)[C@@H]5CC[C@@]43C)[C@@H]12
REMARK SMILES IDX 7 1 6 2 11 3 33 4 5 5 12 6 15 7 2 8 3 9 13 10 16 11 1 12
REMARK SMILES IDX 4 13 14 14 31 15 17 16 18 17 30 18 32 19 19 20 29 21 28 22
REMARK SMILES IDX 21 23 20 24 25 25 22 26 23 27 26 28 27 29 8 30 9 31 10 32
REMARK SMILES IDX 24 33
REMARK H PARENT 24 34
REMARK Flexibility Score: inf
ROOT
ATOM      1  C   UNL     1      55.146 138.977  -0.564  1.00  0.00     0.017 C 
ATOM      2  C   UNL     1      55.929 137.674  -0.914  1.00  0.00     0.014 C 
ATOM      3  C   UNL     1      55.733 139.557   0.738  1.00  0.00     0.014 C 
ATOM      4  C   UNL     1      55.259 140.039  -1.727  1.00  0.00     0.030 C 
ATOM      5  C   UNL     1      55.862 137.362  -2.407  1.00  0.00     0.004 C 
ATOM      6  C   UNL     1      54.985 140.809   1.193  1.00  0.00     0.013 C 
ATOM      7  C   UNL     1      55.045 141.505  -1.301  1.00  0.00    -0.063 C 
ATOM      8  C   UNL     1      56.522 139.865  -2.642  1.00  0.00    -0.003 C 
ATOM      9  C   UNL     1      56.645 138.412  -3.222  1.00  0.00    -0.011 C 
ATOM     10  C   UNL     1      55.027 142.001   0.166  1.00  0.00    -0.006 C 
ATOM     11  C   UNL     1      54.766 142.390  -2.284  1.00  0.00    -0.027 C 
ATOM     12  C   UNL     1      57.840 140.318  -1.989  1.00  0.00     0.008 C 
ATOM     13  C   UNL     1      56.203 138.358  -4.693  1.00  0.00     0.008 C 
ATOM     14  C   UNL     1      56.373 142.731   0.444  1.00  0.00     0.017 C 
ATOM     15  C   UNL     1      53.758 142.993   0.343  1.00  0.00    -0.020 C 
ATOM     16  C   UNL     1      54.607 143.858  -2.029  1.00  0.00     0.032 C 
ATOM     17  C   UNL     1      53.762 144.176  -0.761  1.00  0.00     0.006 C 
ATOM     18  C   UNL     1      53.615 143.484   1.848  1.00  0.00     0.008 C 
ATOM     19  C   UNL     1      52.440 142.175   0.056  1.00  0.00     0.012 C 
ATOM     20  C   UNL     1      53.892 145.686  -0.278  1.00  0.00    -0.025 C 
ATOM     21  C   UNL     1      53.694 144.983   2.145  1.00  0.00     0.005 C 
ATOM     22  C   UNL     1      53.046 145.831   1.037  1.00  0.00     0.003 C 
ATOM     23  C   UNL     1      53.290 146.617  -1.380  1.00  0.00     0.010 C 
ATOM     24  C   UNL     1      55.386 146.090  -0.082  1.00  0.00     0.012 C 
ATOM     25  C   UNL     1      52.631 147.296   1.498  1.00  0.00    -0.006 C 
ATOM     26  C   UNL     1      53.091 148.061  -0.914  1.00  0.00     0.033 C 
ATOM     27  C   UNL     1      52.123 148.125   0.276  1.00  0.00     0.120 C 
ATOM     28  C   UNL     1      53.760 148.084   2.221  1.00  0.00     0.014 C 
ATOM     29  C   UNL     1      51.458 147.198   2.520  1.00  0.00     0.014 C 
ENDROOT
BRANCH   1  30
ATOM     30  C   UNL     1      53.690 138.577  -0.303  1.00  0.00     0.048 C 
ATOM     31  O   UNL     1      52.764 139.430  -0.253  1.00  0.00    -0.550 OA
ATOM     32  O   UNL     1      53.367 137.236  -0.114  1.00  0.00    -0.550 OA
ENDBRANCH   1  30
BRANCH  27  33
ATOM     33  O   UNL     1      50.856 147.666  -0.135  1.00  0.00    -0.393 OA
ATOM     34  H   UNL     1      50.672 148.072  -1.023  1.00  0.00     0.210 HD
ENDBRANCH  27  33
TORSDOF 2
ENDMDL
MODEL 2
REMARK VINA RESULT:   125.615      3.976      6.770
REMARK INTER + INTRA:         137.404
REMARK INTER:                 137.652
REMARK INTRA:                  -0.248
REMARK UNBOUND:                 0.774
REMARK SMILES C[C@H]1[C@H](C)CC[C@@]2(C(=O)[O-])CC[C@@]3(C)C(=CC[C@@H]4[C@@]5(C)CC[C@@H](O)C(C)(C)[C@@H]5CC[C@@]43C)[C@@H]12
REMARK SMILES IDX 7 1 6 2 11 3 33 4 5 5 12 6 15 7 2 8 3 9 13 10 16 11 1 12
REMARK SMILES IDX 4 13 14 14 31 15 17 16 18 17 30 18 32 19 19 20 29 21 28 22
REMARK SMILES IDX 21 23 20 24 25 25 22 26 23 27 26 28 27 29 8 30 9 31 10 32
REMARK SMILES IDX 24 33
REMARK H PARENT 24 34
REMARK Flexibility Score: inf
ROOT
ATOM      1  C   UNL     1      49.506 135.455   0.732  1.00  0.00     0.017 C 
ATOM      2  C   UNL     1      48.745 134.174   1.191  1.00  0.00     0.014 C 
ATOM      3  C   UNL     1      49.697 136.369   1.958  1.00  0.00     0.014 C 
ATOM      4  C   UNL     1      50.910 135.091   0.107  1.00  0.00     0.030 C 
ATOM      5  C   UNL     1      49.021 132.993   0.263  1.00  0.00     0.004 C 
ATOM      6  C   UNL     1      50.384 137.683   1.590  1.00  0.00     0.013 C 
ATOM      7  C   UNL     1      51.959 136.219   0.147  1.00  0.00    -0.063 C 
ATOM      8  C   UNL     1      51.496 133.718   0.589  1.00  0.00    -0.003 C 
ATOM      9  C   UNL     1      50.489 132.532   0.384  1.00  0.00    -0.011 C 
ATOM     10  C   UNL     1      51.828 137.514   0.984  1.00  0.00    -0.006 C 
ATOM     11  C   UNL     1      53.020 136.094  -0.683  1.00  0.00    -0.027 C 
ATOM     12  C   UNL     1      52.048 133.738   2.025  1.00  0.00     0.008 C 
ATOM     13  C   UNL     1      50.865 131.682  -0.839  1.00  0.00     0.008 C 
ATOM     14  C   UNL     1      52.772 137.390   2.215  1.00  0.00     0.017 C 
ATOM     15  C   UNL     1      52.234 138.766   0.040  1.00  0.00    -0.020 C 
ATOM     16  C   UNL     1      54.153 137.074  -0.700  1.00  0.00     0.032 C 
ATOM     17  C   UNL     1      53.687 138.557  -0.641  1.00  0.00     0.006 C 
ATOM     18  C   UNL     1      52.045 140.149   0.800  1.00  0.00     0.008 C 
ATOM     19  C   UNL     1      51.224 138.827  -1.171  1.00  0.00     0.012 C 
ATOM     20  C   UNL     1      54.859 139.575  -0.291  1.00  0.00    -0.025 C 
ATOM     21  C   UNL     1      53.263 141.054   0.999  1.00  0.00     0.005 C 
ATOM     22  C   UNL     1      54.224 141.008  -0.200  1.00  0.00     0.003 C 
ATOM     23  C   UNL     1      55.905 139.550  -1.453  1.00  0.00     0.010 C 
ATOM     24  C   UNL     1      55.597 139.158   1.018  1.00  0.00     0.012 C 
ATOM     25  C   UNL     1      55.198 142.262  -0.303  1.00  0.00    -0.006 C 
ATOM     26  C   UNL     1      56.925 140.688  -1.377  1.00  0.00     0.033 C 
ATOM     27  C   UNL     1      56.229 142.054  -1.456  1.00  0.00     0.120 C 
ATOM     28  C   UNL     1      55.957 142.592   1.014  1.00  0.00     0.014 C 
ATOM     29  C   UNL     1      54.361 143.533  -0.643  1.00  0.00     0.014 C 
ENDROOT
BRANCH   1  30
ATOM     30  C   UNL     1      48.609 136.180  -0.278  1.00  0.00     0.048 C 
ATOM     31  O   UNL     1      48.846 136.157  -1.515  1.00  0.00    -0.550 OA
ATOM     32  O   UNL     1      47.498 136.888   0.171  1.00  0.00    -0.550 OA
ENDBRANCH   1  30
BRANCH  27  33
ATOM     33  O   UNL     1      55.595 142.177  -2.709  1.00  0.00    -0.393 OA
ATOM     34  H   UNL     1      54.620 142.066  -2.555  1.00  0.00     0.210 HD
ENDBRANCH  27  33
TORSDOF 2
ENDMDL
MODEL 3
REMARK VINA RESULT:   125.664      1.912      2.630
REMARK INTER + INTRA:         137.457
REMARK INTER:                 136.427
REMARK INTRA:                   1.030
REMARK UNBOUND:                 0.774
REMARK SMILES C[C@H]1[C@H](C)CC[C@@]2(C(=O)[O-])CC[C@@]3(C)C(=CC[C@@H]4[C@@]5(C)CC[C@@H](O)C(C)(C)[C@@H]5CC[C@@]43C)[C@@H]12
REMARK SMILES IDX 7 1 6 2 11 3 33 4 5 5 12 6 15 7 2 8 3 9 13 10 16 11 1 12
REMARK SMILES IDX 4 13 14 14 31 15 17 16 18 17 30 18 32 19 19 20 29 21 28 22
REMARK SMILES IDX 21 23 20 24 25 25 22 26 23 27 26 28 27 29 8 30 9 31 10 32
REMARK SMILES IDX 24 33
REMARK H PARENT 24 34
REMARK Flexibility Score: inf
ROOT
ATOM      1  C   UNL     1      52.290 138.645   1.128  1.00  0.00     0.017 C 
ATOM      2  C   UNL     1      52.475 137.131   1.456  1.00  0.00     0.014 C 
ATOM      3  C   UNL     1      52.355 139.437   2.449  1.00  0.00     0.014 C 
ATOM      4  C   UNL     1      53.408 139.154   0.137  1.00  0.00     0.030 C 
ATOM      5  C   UNL     1      53.013 136.357   0.255  1.00  0.00     0.004 C 
ATOM      6  C   UNL     1      52.122 140.931   2.231  1.00  0.00     0.013 C 
ATOM      7  C   UNL     1      53.686 140.669   0.183  1.00  0.00    -0.063 C 
ATOM      8  C   UNL     1      54.729 138.307   0.161  1.00  0.00    -0.003 C 
ATOM      9  C   UNL     1      54.463 136.777  -0.064  1.00  0.00    -0.011 C 
ATOM     10  C   UNL     1      53.178 141.624   1.291  1.00  0.00    -0.006 C 
ATOM     11  C   UNL     1      54.343 141.201  -0.872  1.00  0.00    -0.027 C 
ATOM     12  C   UNL     1      55.606 138.544   1.404  1.00  0.00     0.008 C 
ATOM     13  C   UNL     1      54.821 136.352  -1.496  1.00  0.00     0.008 C 
ATOM     14  C   UNL     1      54.380 141.969   2.218  1.00  0.00     0.017 C 
ATOM     15  C   UNL     1      52.572 142.945   0.577  1.00  0.00    -0.020 C 
ATOM     16  C   UNL     1      54.747 142.643  -0.932  1.00  0.00     0.032 C 
ATOM     17  C   UNL     1      53.633 143.615  -0.446  1.00  0.00     0.006 C 
ATOM     18  C   UNL     1      51.949 143.945   1.643  1.00  0.00     0.008 C 
ATOM     19  C   UNL     1      51.356 142.510  -0.330  1.00  0.00     0.012 C 
ATOM     20  C   UNL     1      54.162 145.088  -0.157  1.00  0.00    -0.025 C 
ATOM     21  C   UNL     1      52.525 145.358   1.753  1.00  0.00     0.005 C 
ATOM     22  C   UNL     1      52.949 145.923   0.387  1.00  0.00     0.003 C 
ATOM     23  C   UNL     1      54.654 145.714  -1.502  1.00  0.00     0.010 C 
ATOM     24  C   UNL     1      55.372 145.071   0.827  1.00  0.00     0.012 C 
ATOM     25  C   UNL     1      53.057 147.509   0.343  1.00  0.00    -0.006 C 
ATOM     26  C   UNL     1      54.914 147.219  -1.413  1.00  0.00     0.033 C 
ATOM     27  C   UNL     1      53.633 147.975  -1.031  1.00  0.00     0.120 C 
ATOM     28  C   UNL     1      53.905 148.125   1.493  1.00  0.00     0.014 C 
ATOM     29  C   UNL     1      51.632 148.124   0.488  1.00  0.00     0.014 C 
ENDROOT
BRANCH   1  30
ATOM     30  C   UNL     1      50.887 138.811   0.532  1.00  0.00     0.048 C 
ATOM     31  O   UNL     1      50.246 139.891   0.633  1.00  0.00    -0.550 OA
ATOM     32  O   UNL     1      50.294 137.748  -0.142  1.00  0.00    -0.550 OA
ENDBRANCH   1  30
BRANCH  27  33
ATOM     33  O   UNL     1      52.674 147.801  -2.049  1.00  0.00    -0.393 OA
ATOM     34  H   UNL     1      52.391 146.849  -2.024  1.00  0.00     0.210 HD
ENDBRANCH  27  33
TORSDOF 2
ENDMDL
MODEL 4
REMARK VINA RESULT:   126.753      9.404     13.852
REMARK INTER + INTRA:         138.641
REMARK INTER:                 138.159
REMARK INTRA:                   0.483
REMARK UNBOUND:                 0.774
REMARK SMILES C[C@H]1[C@H](C)CC[C@@]2(C(=O)[O-])CC[C@@]3(C)C(=CC[C@@H]4[C@@]5(C)CC[C@@H](O)C(C)(C)[C@@H]5CC[C@@]43C)[C@@H]12
REMARK SMILES IDX 7 1 6 2 11 3 33 4 5 5 12 6 15 7 2 8 3 9 13 10 16 11 1 12
REMARK SMILES IDX 4 13 14 14 31 15 17 16 18 17 30 18 32 19 19 20 29 21 28 22
REMARK SMILES IDX 21 23 20 24 25 25 22 26 23 27 26 28 27 29 8 30 9 31 10 32
REMARK SMILES IDX 24 33
REMARK H PARENT 24 34
REMARK Flexibility Score: inf
ROOT
ATOM      1  C   UNL     1      63.060 129.142  -6.024  1.00  0.00     0.017 C 
ATOM      2  C   UNL     1      64.023 127.931  -5.828  1.00  0.00     0.014 C 
ATOM      3  C   UNL     1      62.455 129.504  -4.653  1.00  0.00     0.014 C 
ATOM      4  C   UNL     1      63.824 130.387  -6.622  1.00  0.00     0.030 C 
ATOM      5  C   UNL     1      65.085 127.875  -6.923  1.00  0.00     0.004 C 
ATOM      6  C   UNL     1      61.447 130.647  -4.758  1.00  0.00     0.013 C 
ATOM      7  C   UNL     1      63.175 131.756  -6.336  1.00  0.00    -0.063 C 
ATOM      8  C   UNL     1      65.368 130.393  -6.344  1.00  0.00    -0.003 C 
ATOM      9  C   UNL     1      66.064 129.063  -6.799  1.00  0.00    -0.011 C 
ATOM     10  C   UNL     1      62.048 131.996  -5.302  1.00  0.00    -0.006 C 
ATOM     11  C   UNL     1      63.565 132.790  -7.114  1.00  0.00    -0.027 C 
ATOM     12  C   UNL     1      65.746 130.752  -4.896  1.00  0.00     0.008 C 
ATOM     13  C   UNL     1      66.818 129.250  -8.125  1.00  0.00     0.008 C 
ATOM     14  C   UNL     1      62.675 132.692  -4.058  1.00  0.00     0.017 C 
ATOM     15  C   UNL     1      60.916 132.921  -6.000  1.00  0.00    -0.020 C 
ATOM     16  C   UNL     1      63.076 134.191  -6.904  1.00  0.00     0.032 C 
ATOM     17  C   UNL     1      61.547 134.273  -6.624  1.00  0.00     0.006 C 
ATOM     18  C   UNL     1      59.677 133.148  -5.031  1.00  0.00     0.008 C 
ATOM     19  C   UNL     1      60.326 132.140  -7.238  1.00  0.00     0.012 C 
ATOM     20  C   UNL     1      61.087 135.682  -6.045  1.00  0.00    -0.025 C 
ATOM     21  C   UNL     1      59.316 134.576  -4.617  1.00  0.00     0.005 C 
ATOM     22  C   UNL     1      59.548 135.588  -5.751  1.00  0.00     0.003 C 
ATOM     23  C   UNL     1      61.335 136.776  -7.134  1.00  0.00     0.010 C 
ATOM     24  C   UNL     1      61.919 136.074  -4.785  1.00  0.00     0.012 C 
ATOM     25  C   UNL     1      58.735 136.946  -5.588  1.00  0.00    -0.006 C 
ATOM     26  C   UNL     1      60.671 138.116  -6.813  1.00  0.00     0.033 C 
ATOM     27  C   UNL     1      59.147 137.960  -6.701  1.00  0.00     0.120 C 
ATOM     28  C   UNL     1      58.888 137.620  -4.194  1.00  0.00     0.014 C 
ATOM     29  C   UNL     1      57.213 136.655  -5.757  1.00  0.00     0.014 C 
ENDROOT
BRANCH   1  30
ATOM     30  C   UNL     1      61.927 128.677  -6.946  1.00  0.00     0.048 C 
ATOM     31  O   UNL     1      62.146 128.289  -8.125  1.00  0.00    -0.550 OA
ATOM     32  O   UNL     1      60.615 128.680  -6.482  1.00  0.00    -0.550 OA
ENDBRANCH   1  30
BRANCH  27  33
ATOM     33  O   UNL     1      58.632 137.555  -7.949  1.00  0.00    -0.393 OA
ATOM     34  H   UNL     1      59.105 138.083  -8.645  1.00  0.00     0.210 HD
ENDBRANCH  27  33
TORSDOF 2
ENDMDL
