MODEL 1
REMARK VINA RESULT:    -5.638      0.000      0.000
REMARK INTER + INTRA:          -8.082
REMARK INTER:                  -8.275
REMARK INTRA:                   0.193
REMARK UNBOUND:                 0.193
REMARK SMILES O=c1c(O[C@@H]2O[C@@H](CO)[C@H](O)[C@H](O)[C@H]2O)c(-c2ccc(O)c(O)c2)oc2cc(O)cc(O)c12
REMARK SMILES IDX 4 1 3 2 16 3 25 4 2 5 26 6 1 7 33 8 27 9 31 10 28 11 30 12
REMARK SMILES IDX 17 13 18 14 19 15 20 16 24 17 22 18 21 19 23 21 32 23 29 25
REMARK SMILES IDX 5 27 14 28 6 29 12 30 7 31 10 32 15 33 13 35 8 37 9 38 11 40
REMARK H PARENT 21 20 23 22 32 24 29 26 15 34 13 36 9 39 11 41
REMARK Flexibility Score: inf
ROOT
ATOM      1  O   UNL     1     -12.033   8.686   5.758  1.00  0.00    -0.454 OA
ENDROOT
BRANCH   1   2
ATOM      2  C   UNL     1     -10.646   8.734   5.936  1.00  0.00     0.214 A 
ATOM      3  C   UNL     1      -9.947   7.688   6.570  1.00  0.00     0.180 A 
ATOM      4  O   UNL     1      -8.650   7.822   6.816  1.00  0.00    -0.452 OA
ATOM      5  C   UNL     1      -9.937   9.856   5.493  1.00  0.00     0.239 A 
ATOM      6  C   UNL     1      -7.940   8.878   6.439  1.00  0.00     0.146 A 
ATOM      7  O   UNL     1     -10.579  10.794   4.953  1.00  0.00    -0.285 OA
ATOM      8  C   UNL     1      -8.540   9.937   5.708  1.00  0.00     0.111 A 
ATOM      9  C   UNL     1      -6.585   8.927   6.776  1.00  0.00     0.094 A 
ATOM     10  C   UNL     1      -7.717  11.021   5.281  1.00  0.00     0.134 A 
ATOM     11  C   UNL     1      -5.803  10.018   6.403  1.00  0.00     0.123 A 
ATOM     12  C   UNL     1      -6.370  11.058   5.663  1.00  0.00     0.093 A 
BRANCH   3  13
ATOM     13  C   UNL     1     -10.612   6.432   6.979  1.00  0.00     0.025 A 
ATOM     14  C   UNL     1     -11.192   6.298   8.252  1.00  0.00     0.016 A 
ATOM     15  C   UNL     1     -11.824   5.108   8.619  1.00  0.00     0.051 A 
ATOM     16  C   UNL     1     -11.902   4.043   7.717  1.00  0.00     0.157 A 
ATOM     17  C   UNL     1     -10.713   5.370   6.066  1.00  0.00     0.062 A 
ATOM     18  C   UNL     1     -11.348   4.174   6.432  1.00  0.00     0.158 A 
BRANCH  16  19
ATOM     19  O   UNL     1     -12.537   2.866   8.111  1.00  0.00    -0.504 OA
ATOM     20  H   UNL     1     -13.410   2.871   8.626  1.00  0.00     0.293 HD
ENDBRANCH  16  19
BRANCH  18  21
ATOM     21  O   UNL     1     -11.430   3.119   5.525  1.00  0.00    -0.504 OA
ATOM     22  H   UNL     1     -12.306   2.863   5.087  1.00  0.00     0.293 HD
ENDBRANCH  18  21
ENDBRANCH   3  13
BRANCH  10  23
ATOM     23  O   UNL     1      -8.163  12.065   4.464  1.00  0.00    -0.507 OA
ATOM     24  H   UNL     1      -9.046  12.078   3.977  1.00  0.00     0.293 HD
ENDBRANCH  10  23
BRANCH  11  25
ATOM     25  O   UNL     1      -4.459  10.055   6.767  1.00  0.00    -0.508 OA
ATOM     26  H   UNL     1      -4.044  10.884   7.178  1.00  0.00     0.293 HD
ENDBRANCH  11  25
ENDBRANCH   1   2
BRANCH   1  27
ATOM     27  C   UNL     1     -12.835   9.862   5.596  1.00  0.00     0.339 C 
ATOM     28  C   UNL     1     -14.299   9.494   5.293  1.00  0.00     0.214 C 
ATOM     29  O   UNL     1     -12.736  10.709   6.728  1.00  0.00    -0.332 OA
ATOM     30  C   UNL     1     -15.006   8.913   6.537  1.00  0.00     0.180 C 
ATOM     31  C   UNL     1     -13.187  10.066   7.908  1.00  0.00     0.179 C 
ATOM     32  C   UNL     1     -14.698   9.742   7.806  1.00  0.00     0.177 C 
BRANCH  28  33
ATOM     33  O   UNL     1     -14.972  10.652   4.863  1.00  0.00    -0.384 OA
ATOM     34  H   UNL     1     -15.771  10.350   4.356  1.00  0.00     0.211 HD
ENDBRANCH  28  33
BRANCH  30  35
ATOM     35  O   UNL     1     -14.705   7.547   6.701  1.00  0.00    -0.387 OA
ATOM     36  H   UNL     1     -14.576   7.141   5.807  1.00  0.00     0.211 HD
ENDBRANCH  30  35
BRANCH  31  37
ATOM     37  C   UNL     1     -12.896  11.008   9.090  1.00  0.00     0.191 C 
BRANCH  37  38
ATOM     38  O   UNL     1     -11.729  11.755   8.871  1.00  0.00    -0.394 OA
ATOM     39  H   UNL     1     -10.965  11.137   9.011  1.00  0.00     0.210 HD
ENDBRANCH  37  38
ENDBRANCH  31  37
BRANCH  32  40
ATOM     40  O   UNL     1     -15.125   9.045   8.948  1.00  0.00    -0.387 OA
ATOM     41  H   UNL     1     -16.100   9.207   9.035  1.00  0.00     0.211 HD
ENDBRANCH  32  40
ENDBRANCH   1  27
TORSDOF 12
ENDMDL
MODEL 2
REMARK VINA RESULT:    -5.222      1.302      2.109
REMARK INTER + INTRA:          -7.471
REMARK INTER:                  -6.628
REMARK INTRA:                  -0.843
REMARK UNBOUND:                 0.193
REMARK SMILES O=c1c(O[C@@H]2O[C@@H](CO)[C@H](O)[C@H](O)[C@H]2O)c(-c2ccc(O)c(O)c2)oc2cc(O)cc(O)c12
REMARK SMILES IDX 4 1 3 2 16 3 25 4 2 5 26 6 1 7 33 8 27 9 31 10 28 11 30 12
REMARK SMILES IDX 17 13 18 14 19 15 20 16 24 17 22 18 21 19 23 21 32 23 29 25
REMARK SMILES IDX 5 27 14 28 6 29 12 30 7 31 10 32 15 33 13 35 8 37 9 38 11 40
REMARK H PARENT 21 20 23 22 32 24 29 26 15 34 13 36 9 39 11 41
REMARK Flexibility Score: inf
ROOT
ATOM      1  O   UNL     1     -11.946   8.722   6.502  1.00  0.00    -0.454 OA
ENDROOT
BRANCH   1   2
ATOM      2  C   UNL     1     -10.551   8.726   6.387  1.00  0.00     0.214 A 
ATOM      3  C   UNL     1      -9.776   7.616   6.773  1.00  0.00     0.180 A 
ATOM      4  O   UNL     1      -8.452   7.702   6.750  1.00  0.00    -0.452 OA
ATOM      5  C   UNL     1      -9.908   9.869   5.897  1.00  0.00     0.239 A 
ATOM      6  C   UNL     1      -7.797   8.773   6.318  1.00  0.00     0.146 A 
ATOM      7  O   UNL     1     -10.614  10.862   5.581  1.00  0.00    -0.285 OA
ATOM      8  C   UNL     1      -8.496   9.904   5.818  1.00  0.00     0.111 A 
ATOM      9  C   UNL     1      -6.400   8.767   6.365  1.00  0.00     0.094 A 
ATOM     10  C   UNL     1      -7.740  11.004   5.316  1.00  0.00     0.134 A 
ATOM     11  C   UNL     1      -5.673   9.870   5.925  1.00  0.00     0.123 A 
ATOM     12  C   UNL     1      -6.343  10.981   5.407  1.00  0.00     0.093 A 
BRANCH   3  13
ATOM     13  C   UNL     1     -10.388   6.342   7.209  1.00  0.00     0.025 A 
ATOM     14  C   UNL     1     -10.760   6.138   8.549  1.00  0.00     0.016 A 
ATOM     15  C   UNL     1     -11.345   4.932   8.943  1.00  0.00     0.051 A 
ATOM     16  C   UNL     1     -11.582   3.923   8.006  1.00  0.00     0.157 A 
ATOM     17  C   UNL     1     -10.648   5.337   6.265  1.00  0.00     0.062 A 
ATOM     18  C   UNL     1     -11.236   4.126   6.658  1.00  0.00     0.158 A 
BRANCH  16  19
ATOM     19  O   UNL     1     -12.165   2.728   8.428  1.00  0.00    -0.504 OA
ATOM     20  H   UNL     1     -12.117   1.881   7.875  1.00  0.00     0.293 HD
ENDBRANCH  16  19
BRANCH  18  21
ATOM     21  O   UNL     1     -11.478   3.127   5.717  1.00  0.00    -0.504 OA
ATOM     22  H   UNL     1     -12.016   2.300   5.947  1.00  0.00     0.293 HD
ENDBRANCH  18  21
ENDBRANCH   3  13
BRANCH  10  23
ATOM     23  O   UNL     1      -8.306  12.124   4.698  1.00  0.00    -0.507 OA
ATOM     24  H   UNL     1      -7.818  12.986   4.509  1.00  0.00     0.293 HD
ENDBRANCH  10  23
BRANCH  11  25
ATOM     25  O   UNL     1      -4.282   9.850   5.999  1.00  0.00    -0.508 OA
ATOM     26  H   UNL     1      -3.770  10.543   6.533  1.00  0.00     0.293 HD
ENDBRANCH  11  25
ENDBRANCH   1   2
BRANCH   1  27
ATOM     27  C   UNL     1     -12.806   8.167   5.500  1.00  0.00     0.339 C 
ATOM     28  C   UNL     1     -14.241   8.003   6.032  1.00  0.00     0.214 C 
ATOM     29  O   UNL     1     -12.777   8.944   4.314  1.00  0.00    -0.332 OA
ATOM     30  C   UNL     1     -14.944   9.369   6.196  1.00  0.00     0.180 C 
ATOM     31  C   UNL     1     -13.219  10.272   4.544  1.00  0.00     0.179 C 
ATOM     32  C   UNL     1     -14.708  10.281   4.969  1.00  0.00     0.177 C 
BRANCH  28  33
ATOM     33  O   UNL     1     -14.965   7.204   5.130  1.00  0.00    -0.384 OA
ATOM     34  H   UNL     1     -14.506   6.324   5.092  1.00  0.00     0.211 HD
ENDBRANCH  28  33
BRANCH  30  35
ATOM     35  O   UNL     1     -14.573   9.989   7.406  1.00  0.00    -0.387 OA
ATOM     36  H   UNL     1     -15.064   9.554   8.148  1.00  0.00     0.211 HD
ENDBRANCH  30  35
BRANCH  31  37
ATOM     37  C   UNL     1     -13.005  11.063   3.241  1.00  0.00     0.191 C 
BRANCH  37  38
ATOM     38  O   UNL     1     -11.640  11.234   2.966  1.00  0.00    -0.394 OA
ATOM     39  H   UNL     1     -11.441  10.686   2.163  1.00  0.00     0.210 HD
ENDBRANCH  37  38
ENDBRANCH  31  37
BRANCH  32  40
ATOM     40  O   UNL     1     -15.122  11.591   5.262  1.00  0.00    -0.387 OA
ATOM     41  H   UNL     1     -14.329  12.069   5.619  1.00  0.00     0.211 HD
ENDBRANCH  32  40
ENDBRANCH   1  27
TORSDOF 12
ENDMDL
MODEL 3
REMARK VINA RESULT:    -4.295      1.781      5.734
REMARK INTER + INTRA:          -6.111
REMARK INTER:                  -5.520
REMARK INTRA:                  -0.591
REMARK UNBOUND:                 0.193
REMARK SMILES O=c1c(O[C@@H]2O[C@@H](CO)[C@H](O)[C@H](O)[C@H]2O)c(-c2ccc(O)c(O)c2)oc2cc(O)cc(O)c12
REMARK SMILES IDX 4 1 3 2 16 3 25 4 2 5 26 6 1 7 33 8 27 9 31 10 28 11 30 12
REMARK SMILES IDX 17 13 18 14 19 15 20 16 24 17 22 18 21 19 23 21 32 23 29 25
REMARK SMILES IDX 5 27 14 28 6 29 12 30 7 31 10 32 15 33 13 35 8 37 9 38 11 40
REMARK H PARENT 21 20 23 22 32 24 29 26 15 34 13 36 9 39 11 41
REMARK Flexibility Score: inf
ROOT
ATOM      1  O   UNL     1     -11.131   9.025   7.034  1.00  0.00    -0.454 OA
ENDROOT
BRANCH   1   2
ATOM      2  C   UNL     1     -10.708   7.864   6.378  1.00  0.00     0.214 A 
ATOM      3  C   UNL     1      -9.425   7.767   5.806  1.00  0.00     0.180 A 
ATOM      4  O   UNL     1      -9.103   6.691   5.099  1.00  0.00    -0.452 OA
ATOM      5  C   UNL     1     -11.587   6.781   6.267  1.00  0.00     0.239 A 
ATOM      6  C   UNL     1      -9.911   5.650   4.944  1.00  0.00     0.146 A 
ATOM      7  O   UNL     1     -12.739   6.894   6.759  1.00  0.00    -0.285 OA
ATOM      8  C   UNL     1     -11.188   5.618   5.566  1.00  0.00     0.111 A 
ATOM      9  C   UNL     1      -9.481   4.581   4.154  1.00  0.00     0.094 A 
ATOM     10  C   UNL     1     -11.992   4.450   5.410  1.00  0.00     0.134 A 
ATOM     11  C   UNL     1     -10.298   3.470   3.962  1.00  0.00     0.123 A 
ATOM     12  C   UNL     1     -11.547   3.410   4.585  1.00  0.00     0.093 A 
BRANCH   3  13
ATOM     13  C   UNL     1      -8.409   8.831   5.965  1.00  0.00     0.025 A 
ATOM     14  C   UNL     1      -7.840   9.462   4.846  1.00  0.00     0.016 A 
ATOM     15  C   UNL     1      -6.888  10.471   5.013  1.00  0.00     0.051 A 
ATOM     16  C   UNL     1      -6.506  10.876   6.295  1.00  0.00     0.157 A 
ATOM     17  C   UNL     1      -8.042   9.254   7.251  1.00  0.00     0.062 A 
ATOM     18  C   UNL     1      -7.088  10.268   7.422  1.00  0.00     0.158 A 
BRANCH  16  19
ATOM     19  O   UNL     1      -5.552  11.884   6.432  1.00  0.00    -0.504 OA
ATOM     20  H   UNL     1      -5.139  12.347   5.631  1.00  0.00     0.293 HD
ENDBRANCH  16  19
BRANCH  18  21
ATOM     21  O   UNL     1      -6.717  10.673   8.703  1.00  0.00    -0.504 OA
ATOM     22  H   UNL     1      -6.002  11.374   8.852  1.00  0.00     0.293 HD
ENDBRANCH  18  21
ENDBRANCH   3  13
BRANCH  10  23
ATOM     23  O   UNL     1     -13.215   4.252   6.059  1.00  0.00    -0.507 OA
ATOM     24  H   UNL     1     -13.323   4.110   7.052  1.00  0.00     0.293 HD
ENDBRANCH  10  23
BRANCH  11  25
ATOM     25  O   UNL     1      -9.857   2.424   3.154  1.00  0.00    -0.508 OA
ATOM     26  H   UNL     1     -10.179   1.473   3.295  1.00  0.00     0.293 HD
ENDBRANCH  11  25
ENDBRANCH   1   2
BRANCH   1  27
ATOM     27  C   UNL     1     -11.029  10.329   6.450  1.00  0.00     0.339 C 
ATOM     28  C   UNL     1     -11.692  10.365   5.061  1.00  0.00     0.214 C 
ATOM     29  O   UNL     1     -11.569  11.318   7.309  1.00  0.00    -0.332 OA
ATOM     30  C   UNL     1     -13.231  10.289   5.165  1.00  0.00     0.180 C 
ATOM     31  C   UNL     1     -12.944  11.094   7.572  1.00  0.00     0.179 C 
ATOM     32  C   UNL     1     -13.773  11.227   6.269  1.00  0.00     0.177 C 
BRANCH  28  33
ATOM     33  O   UNL     1     -11.319  11.558   4.417  1.00  0.00    -0.384 OA
ATOM     34  H   UNL     1     -12.096  11.846   3.870  1.00  0.00     0.211 HD
ENDBRANCH  28  33
BRANCH  30  35
ATOM     35  O   UNL     1     -13.664   8.959   5.330  1.00  0.00    -0.387 OA
ATOM     36  H   UNL     1     -13.314   8.615   6.190  1.00  0.00     0.211 HD
ENDBRANCH  30  35
BRANCH  31  37
ATOM     37  C   UNL     1     -13.389  12.125   8.624  1.00  0.00     0.191 C 
BRANCH  37  38
ATOM     38  O   UNL     1     -14.700  11.879   9.057  1.00  0.00    -0.394 OA
ATOM     39  H   UNL     1     -15.094  11.228   8.418  1.00  0.00     0.210 HD
ENDBRANCH  37  38
ENDBRANCH  31  37
BRANCH  32  40
ATOM     40  O   UNL     1     -15.124  10.937   6.522  1.00  0.00    -0.387 OA
ATOM     41  H   UNL     1     -15.354  10.141   5.975  1.00  0.00     0.211 HD
ENDBRANCH  32  40
ENDBRANCH   1  27
TORSDOF 12
ENDMDL
MODEL 4
REMARK VINA RESULT:    -4.263      1.507      2.058
REMARK INTER + INTRA:          -6.064
REMARK INTER:                  -4.952
REMARK INTRA:                  -1.111
REMARK UNBOUND:                 0.193
REMARK SMILES O=c1c(O[C@@H]2O[C@@H](CO)[C@H](O)[C@H](O)[C@H]2O)c(-c2ccc(O)c(O)c2)oc2cc(O)cc(O)c12
REMARK SMILES IDX 4 1 3 2 16 3 25 4 2 5 26 6 1 7 33 8 27 9 31 10 28 11 30 12
REMARK SMILES IDX 17 13 18 14 19 15 20 16 24 17 22 18 21 19 23 21 32 23 29 25
REMARK SMILES IDX 5 27 14 28 6 29 12 30 7 31 10 32 15 33 13 35 8 37 9 38 11 40
REMARK H PARENT 21 20 23 22 32 24 29 26 15 34 13 36 9 39 11 41
REMARK Flexibility Score: inf
ROOT
ATOM      1  O   UNL     1     -11.708   8.326   5.027  1.00  0.00    -0.454 OA
ENDROOT
BRANCH   1   2
ATOM      2  C   UNL     1     -10.374   8.463   5.427  1.00  0.00     0.214 A 
ATOM      3  C   UNL     1      -9.682   7.413   6.059  1.00  0.00     0.180 A 
ATOM      4  O   UNL     1      -8.455   7.620   6.520  1.00  0.00    -0.452 OA
ATOM      5  C   UNL     1      -9.717   9.681   5.215  1.00  0.00     0.239 A 
ATOM      6  C   UNL     1      -7.801   8.765   6.366  1.00  0.00     0.146 A 
ATOM      7  O   UNL     1     -10.358  10.619   4.674  1.00  0.00    -0.285 OA
ATOM      8  C   UNL     1      -8.383   9.848   5.656  1.00  0.00     0.111 A 
ATOM      9  C   UNL     1      -6.522   8.884   6.918  1.00  0.00     0.094 A 
ATOM     10  C   UNL     1      -7.612  11.035   5.474  1.00  0.00     0.134 A 
ATOM     11  C   UNL     1      -5.802  10.068   6.783  1.00  0.00     0.123 A 
ATOM     12  C   UNL     1      -6.348  11.135   6.067  1.00  0.00     0.093 A 
BRANCH   3  13
ATOM     13  C   UNL     1     -10.277   6.069   6.231  1.00  0.00     0.025 A 
ATOM     14  C   UNL     1     -10.797   5.361   5.135  1.00  0.00     0.016 A 
ATOM     15  C   UNL     1     -11.348   4.090   5.313  1.00  0.00     0.051 A 
ATOM     16  C   UNL     1     -11.372   3.502   6.581  1.00  0.00     0.157 A 
ATOM     17  C   UNL     1     -10.280   5.467   7.499  1.00  0.00     0.062 A 
ATOM     18  C   UNL     1     -10.832   4.191   7.681  1.00  0.00     0.158 A 
BRANCH  16  19
ATOM     19  O   UNL     1     -11.930   2.232   6.729  1.00  0.00    -0.504 OA
ATOM     20  H   UNL     1     -11.376   1.429   7.000  1.00  0.00     0.293 HD
ENDBRANCH  16  19
BRANCH  18  21
ATOM     21  O   UNL     1     -10.844   3.606   8.946  1.00  0.00    -0.504 OA
ATOM     22  H   UNL     1     -10.177   2.890   9.206  1.00  0.00     0.293 HD
ENDBRANCH  18  21
ENDBRANCH   3  13
BRANCH  10  23
ATOM     23  O   UNL     1      -8.029  12.125   4.703  1.00  0.00    -0.507 OA
ATOM     24  H   UNL     1      -7.648  13.057   4.771  1.00  0.00     0.293 HD
ENDBRANCH  10  23
BRANCH  11  25
ATOM     25  O   UNL     1      -4.536  10.171   7.358  1.00  0.00    -0.508 OA
ATOM     26  H   UNL     1      -4.418  10.376   8.343  1.00  0.00     0.293 HD
ENDBRANCH  11  25
ENDBRANCH   1   2
BRANCH   1  27
ATOM     27  C   UNL     1     -12.760   9.154   5.537  1.00  0.00     0.339 C 
ATOM     28  C   UNL     1     -14.067   8.931   4.754  1.00  0.00     0.214 C 
ATOM     29  O   UNL     1     -12.946   8.946   6.927  1.00  0.00    -0.332 OA
ATOM     30  C   UNL     1     -14.691   7.555   5.074  1.00  0.00     0.180 C 
ATOM     31  C   UNL     1     -13.303   7.605   7.216  1.00  0.00     0.179 C 
ATOM     32  C   UNL     1     -14.680   7.265   6.593  1.00  0.00     0.177 C 
BRANCH  28  33
ATOM     33  O   UNL     1     -14.972   9.952   5.093  1.00  0.00    -0.384 OA
ATOM     34  H   UNL     1     -14.677  10.321   5.966  1.00  0.00     0.211 HD
ENDBRANCH  28  33
BRANCH  30  35
ATOM     35  O   UNL     1     -14.077   6.532   4.326  1.00  0.00    -0.387 OA
ATOM     36  H   UNL     1     -14.688   5.753   4.294  1.00  0.00     0.211 HD
ENDBRANCH  30  35
BRANCH  31  37
ATOM     37  C   UNL     1     -13.330   7.453   8.747  1.00  0.00     0.191 C 
BRANCH  37  38
ATOM     38  O   UNL     1     -13.358   6.102   9.125  1.00  0.00    -0.394 OA
ATOM     39  H   UNL     1     -12.440   5.749   8.989  1.00  0.00     0.210 HD
ENDBRANCH  37  38
ENDBRANCH  31  37
BRANCH  32  40
ATOM     40  O   UNL     1     -14.997   5.916   6.824  1.00  0.00    -0.387 OA
ATOM     41  H   UNL     1     -15.313   5.852   7.763  1.00  0.00     0.211 HD
ENDBRANCH  32  40
ENDBRANCH   1  27
TORSDOF 12
ENDMDL
MODEL 5
REMARK VINA RESULT:    -4.140      1.929      6.353
REMARK INTER + INTRA:          -5.883
REMARK INTER:                  -5.180
REMARK INTRA:                  -0.703
REMARK UNBOUND:                 0.193
REMARK SMILES O=c1c(O[C@@H]2O[C@@H](CO)[C@H](O)[C@H](O)[C@H]2O)c(-c2ccc(O)c(O)c2)oc2cc(O)cc(O)c12
REMARK SMILES IDX 4 1 3 2 16 3 25 4 2 5 26 6 1 7 33 8 27 9 31 10 28 11 30 12
REMARK SMILES IDX 17 13 18 14 19 15 20 16 24 17 22 18 21 19 23 21 32 23 29 25
REMARK SMILES IDX 5 27 14 28 6 29 12 30 7 31 10 32 15 33 13 35 8 37 9 38 11 40
REMARK H PARENT 21 20 23 22 32 24 29 26 15 34 13 36 9 39 11 41
REMARK Flexibility Score: inf
ROOT
ATOM      1  O   UNL     1     -11.517   8.960   5.304  1.00  0.00    -0.454 OA
ENDROOT
BRANCH   1   2
ATOM      2  C   UNL     1     -11.228   7.830   6.077  1.00  0.00     0.214 A 
ATOM      3  C   UNL     1      -9.910   7.518   6.464  1.00  0.00     0.180 A 
ATOM      4  O   UNL     1      -9.666   6.381   7.103  1.00  0.00    -0.452 OA
ATOM      5  C   UNL     1     -12.269   6.976   6.459  1.00  0.00     0.239 A 
ATOM      6  C   UNL     1     -10.617   5.528   7.464  1.00  0.00     0.146 A 
ATOM      7  O   UNL     1     -13.437   7.254   6.083  1.00  0.00    -0.285 OA
ATOM      8  C   UNL     1     -11.985   5.806   7.203  1.00  0.00     0.111 A 
ATOM      9  C   UNL     1     -10.245   4.345   8.108  1.00  0.00     0.094 A 
ATOM     10  C   UNL     1     -12.968   4.879   7.661  1.00  0.00     0.134 A 
ATOM     11  C   UNL     1     -11.209   3.420   8.501  1.00  0.00     0.123 A 
ATOM     12  C   UNL     1     -12.560   3.688   8.274  1.00  0.00     0.093 A 
BRANCH   3  13
ATOM     13  C   UNL     1      -8.772   8.420   6.180  1.00  0.00     0.025 A 
ATOM     14  C   UNL     1      -8.315   8.620   4.867  1.00  0.00     0.016 A 
ATOM     15  C   UNL     1      -7.245   9.482   4.614  1.00  0.00     0.051 A 
ATOM     16  C   UNL     1      -6.630  10.169   5.665  1.00  0.00     0.157 A 
ATOM     17  C   UNL     1      -8.168   9.129   7.230  1.00  0.00     0.062 A 
ATOM     18  C   UNL     1      -7.095   9.996   6.980  1.00  0.00     0.158 A 
BRANCH  16  19
ATOM     19  O   UNL     1      -5.562  11.021   5.384  1.00  0.00    -0.504 OA
ATOM     20  H   UNL     1      -4.699  10.686   4.972  1.00  0.00     0.293 HD
ENDBRANCH  16  19
BRANCH  18  21
ATOM     21  O   UNL     1      -6.491  10.685   8.031  1.00  0.00    -0.504 OA
ATOM     22  H   UNL     1      -6.779  11.622   8.286  1.00  0.00     0.293 HD
ENDBRANCH  18  21
ENDBRANCH   3  13
BRANCH  10  23
ATOM     23  O   UNL     1     -14.347   5.092   7.564  1.00  0.00    -0.507 OA
ATOM     24  H   UNL     1     -15.045   4.587   8.088  1.00  0.00     0.293 HD
ENDBRANCH  10  23
BRANCH  11  25
ATOM     25  O   UNL     1     -10.813   2.239   9.125  1.00  0.00    -0.508 OA
ATOM     26  H   UNL     1     -10.842   1.349   8.641  1.00  0.00     0.293 HD
ENDBRANCH  11  25
ENDBRANCH   1   2
BRANCH   1  27
ATOM     27  C   UNL     1     -12.522   9.913   5.667  1.00  0.00     0.339 C 
ATOM     28  C   UNL     1     -11.907  11.307   5.888  1.00  0.00     0.214 C 
ATOM     29  O   UNL     1     -13.563   9.950   4.706  1.00  0.00    -0.332 OA
ATOM     30  C   UNL     1     -11.465  11.949   4.555  1.00  0.00     0.180 C 
ATOM     31  C   UNL     1     -13.085  10.328   3.426  1.00  0.00     0.179 C 
ATOM     32  C   UNL     1     -12.542  11.779   3.457  1.00  0.00     0.177 C 
BRANCH  28  33
ATOM     33  O   UNL     1     -12.865  12.125   6.513  1.00  0.00    -0.384 OA
ATOM     34  H   UNL     1     -12.768  13.033   6.123  1.00  0.00     0.211 HD
ENDBRANCH  28  33
BRANCH  30  35
ATOM     35  O   UNL     1     -10.206  11.465   4.151  1.00  0.00    -0.387 OA
ATOM     36  H   UNL     1     -10.252  10.478   4.083  1.00  0.00     0.211 HD
ENDBRANCH  30  35
BRANCH  31  37
ATOM     37  C   UNL     1     -14.253  10.190   2.435  1.00  0.00     0.191 C 
BRANCH  37  38
ATOM     38  O   UNL     1     -14.553  11.417   1.825  1.00  0.00    -0.394 OA
ATOM     39  H   UNL     1     -13.686  11.877   1.671  1.00  0.00     0.210 HD
ENDBRANCH  37  38
ENDBRANCH  31  37
BRANCH  32  40
ATOM     40  O   UNL     1     -12.007  12.125   2.205  1.00  0.00    -0.387 OA
ATOM     41  H   UNL     1     -12.595  12.828   1.826  1.00  0.00     0.211 HD
ENDBRANCH  32  40
ENDBRANCH   1  27
TORSDOF 12
ENDMDL
MODEL 6
REMARK VINA RESULT:    -3.926      1.979      5.100
REMARK INTER + INTRA:          -5.569
REMARK INTER:                  -4.271
REMARK INTRA:                  -1.299
REMARK UNBOUND:                 0.193
REMARK SMILES O=c1c(O[C@@H]2O[C@@H](CO)[C@H](O)[C@H](O)[C@H]2O)c(-c2ccc(O)c(O)c2)oc2cc(O)cc(O)c12
REMARK SMILES IDX 4 1 3 2 16 3 25 4 2 5 26 6 1 7 33 8 27 9 31 10 28 11 30 12
REMARK SMILES IDX 17 13 18 14 19 15 20 16 24 17 22 18 21 19 23 21 32 23 29 25
REMARK SMILES IDX 5 27 14 28 6 29 12 30 7 31 10 32 15 33 13 35 8 37 9 38 11 40
REMARK H PARENT 21 20 23 22 32 24 29 26 15 34 13 36 9 39 11 41
REMARK Flexibility Score: inf
ROOT
ATOM      1  O   UNL     1     -11.140   7.900   5.639  1.00  0.00    -0.454 OA
ENDROOT
BRANCH   1   2
ATOM      2  C   UNL     1     -10.087   8.820   5.691  1.00  0.00     0.214 A 
ATOM      3  C   UNL     1     -10.216  10.119   5.162  1.00  0.00     0.180 A 
ATOM      4  O   UNL     1      -9.160  10.922   5.133  1.00  0.00    -0.452 OA
ATOM      5  C   UNL     1      -8.869   8.436   6.263  1.00  0.00     0.239 A 
ATOM      6  C   UNL     1      -7.978  10.593   5.640  1.00  0.00     0.146 A 
ATOM      7  O   UNL     1      -8.762   7.263   6.707  1.00  0.00    -0.285 OA
ATOM      8  C   UNL     1      -7.781   9.341   6.281  1.00  0.00     0.111 A 
ATOM      9  C   UNL     1      -6.925  11.506   5.530  1.00  0.00     0.094 A 
ATOM     10  C   UNL     1      -6.506   9.063   6.855  1.00  0.00     0.134 A 
ATOM     11  C   UNL     1      -5.668  11.200   6.044  1.00  0.00     0.123 A 
ATOM     12  C   UNL     1      -5.463   9.984   6.699  1.00  0.00     0.093 A 
BRANCH   3  13
ATOM     13  C   UNL     1     -11.498  10.628   4.629  1.00  0.00     0.025 A 
ATOM     14  C   UNL     1     -12.479  11.158   5.484  1.00  0.00     0.016 A 
ATOM     15  C   UNL     1     -13.682  11.643   4.964  1.00  0.00     0.051 A 
ATOM     16  C   UNL     1     -13.914  11.623   3.586  1.00  0.00     0.157 A 
ATOM     17  C   UNL     1     -11.724  10.631   3.243  1.00  0.00     0.062 A 
ATOM     18  C   UNL     1     -12.929  11.118   2.719  1.00  0.00     0.158 A 
BRANCH  16  19
ATOM     19  O   UNL     1     -15.124  12.112   3.095  1.00  0.00    -0.504 OA
ATOM     20  H   UNL     1     -15.265  12.313   2.112  1.00  0.00     0.293 HD
ENDBRANCH  16  19
BRANCH  18  21
ATOM     21  O   UNL     1     -13.151  11.103   1.343  1.00  0.00    -0.504 OA
ATOM     22  H   UNL     1     -13.594  10.315   0.885  1.00  0.00     0.293 HD
ENDBRANCH  18  21
ENDBRANCH   3  13
BRANCH  10  23
ATOM     23  O   UNL     1      -6.220   7.918   7.606  1.00  0.00    -0.507 OA
ATOM     24  H   UNL     1      -6.455   7.794   8.579  1.00  0.00     0.293 HD
ENDBRANCH  10  23
BRANCH  11  25
ATOM     25  O   UNL     1      -4.628  12.117   5.905  1.00  0.00    -0.508 OA
ATOM     26  H   UNL     1      -3.660  11.819   5.868  1.00  0.00     0.293 HD
ENDBRANCH  11  25
ENDBRANCH   1   2
BRANCH   1  27
ATOM     27  C   UNL     1     -12.106   7.766   6.688  1.00  0.00     0.339 C 
ATOM     28  C   UNL     1     -13.487   7.388   6.122  1.00  0.00     0.214 C 
ATOM     29  O   UNL     1     -11.673   6.835   7.665  1.00  0.00    -0.332 OA
ATOM     30  C   UNL     1     -13.511   5.931   5.610  1.00  0.00     0.180 C 
ATOM     31  C   UNL     1     -11.484   5.542   7.115  1.00  0.00     0.179 C 
ATOM     32  C   UNL     1     -12.831   4.966   6.610  1.00  0.00     0.177 C 
BRANCH  28  33
ATOM     33  O   UNL     1     -14.446   7.549   7.137  1.00  0.00    -0.384 OA
ATOM     34  H   UNL     1     -14.127   8.285   7.722  1.00  0.00     0.211 HD
ENDBRANCH  28  33
BRANCH  30  35
ATOM     35  O   UNL     1     -12.963   5.838   4.316  1.00  0.00    -0.387 OA
ATOM     36  H   UNL     1     -12.614   6.727   4.055  1.00  0.00     0.211 HD
ENDBRANCH  30  35
BRANCH  31  37
ATOM     37  C   UNL     1     -10.874   4.654   8.213  1.00  0.00     0.191 C 
BRANCH  37  38
ATOM     38  O   UNL     1      -9.735   5.249   8.776  1.00  0.00    -0.394 OA
ATOM     39  H   UNL     1      -9.359   4.593   9.419  1.00  0.00     0.210 HD
ENDBRANCH  37  38
ENDBRANCH  31  37
BRANCH  32  40
ATOM     40  O   UNL     1     -12.628   3.715   6.004  1.00  0.00    -0.387 OA
ATOM     41  H   UNL     1     -13.398   3.563   5.396  1.00  0.00     0.211 HD
ENDBRANCH  32  40
ENDBRANCH   1  27
TORSDOF 12
ENDMDL
MODEL 7
REMARK VINA RESULT:    -3.792      1.496      6.078
REMARK INTER + INTRA:          -5.373
REMARK INTER:                  -4.949
REMARK INTRA:                  -0.423
REMARK UNBOUND:                 0.193
REMARK SMILES O=c1c(O[C@@H]2O[C@@H](CO)[C@H](O)[C@H](O)[C@H]2O)c(-c2ccc(O)c(O)c2)oc2cc(O)cc(O)c12
REMARK SMILES IDX 4 1 3 2 16 3 25 4 2 5 26 6 1 7 33 8 27 9 31 10 28 11 30 12
REMARK SMILES IDX 17 13 18 14 19 15 20 16 24 17 22 18 21 19 23 21 32 23 29 25
REMARK SMILES IDX 5 27 14 28 6 29 12 30 7 31 10 32 15 33 13 35 8 37 9 38 11 40
REMARK H PARENT 21 20 23 22 32 24 29 26 15 34 13 36 9 39 11 41
REMARK Flexibility Score: inf
ROOT
ATOM      1  O   UNL     1     -11.651   8.515   7.694  1.00  0.00    -0.454 OA
ENDROOT
BRANCH   1   2
ATOM      2  C   UNL     1     -11.199   7.433   6.931  1.00  0.00     0.214 A 
ATOM      3  C   UNL     1     -10.044   7.527   6.130  1.00  0.00     0.180 A 
ATOM      4  O   UNL     1      -9.712   6.515   5.339  1.00  0.00    -0.452 OA
ATOM      5  C   UNL     1     -11.923   6.236   6.945  1.00  0.00     0.239 A 
ATOM      6  C   UNL     1     -10.382   5.369   5.298  1.00  0.00     0.146 A 
ATOM      7  O   UNL     1     -12.968   6.177   7.643  1.00  0.00    -0.285 OA
ATOM      8  C   UNL     1     -11.502   5.148   6.142  1.00  0.00     0.111 A 
ATOM      9  C   UNL     1      -9.960   4.380   4.405  1.00  0.00     0.094 A 
ATOM     10  C   UNL     1     -12.150   3.878   6.095  1.00  0.00     0.134 A 
ATOM     11  C   UNL     1     -10.636   3.165   4.327  1.00  0.00     0.123 A 
ATOM     12  C   UNL     1     -11.725   2.921   5.166  1.00  0.00     0.093 A 
BRANCH   3  13
ATOM     13  C   UNL     1      -9.176   8.725   6.138  1.00  0.00     0.025 A 
ATOM     14  C   UNL     1      -7.956   8.732   6.835  1.00  0.00     0.016 A 
ATOM     15  C   UNL     1      -7.144   9.868   6.826  1.00  0.00     0.051 A 
ATOM     16  C   UNL     1      -7.528  11.004   6.107  1.00  0.00     0.157 A 
ATOM     17  C   UNL     1      -9.548   9.857   5.397  1.00  0.00     0.062 A 
ATOM     18  C   UNL     1      -8.734  10.999   5.384  1.00  0.00     0.158 A 
BRANCH  16  19
ATOM     19  O   UNL     1      -6.698  12.125   6.116  1.00  0.00    -0.504 OA
ATOM     20  H   UNL     1      -6.375  12.563   5.262  1.00  0.00     0.293 HD
ENDBRANCH  16  19
BRANCH  18  21
ATOM     21  O   UNL     1      -9.118  12.125   4.658  1.00  0.00    -0.504 OA
ATOM     22  H   UNL     1      -9.086  13.053   5.062  1.00  0.00     0.293 HD
ENDBRANCH  18  21
ENDBRANCH   3  13
BRANCH  10  23
ATOM     23  O   UNL     1     -13.190   3.500   6.950  1.00  0.00    -0.507 OA
ATOM     24  H   UNL     1     -13.112   3.423   7.952  1.00  0.00     0.293 HD
ENDBRANCH  10  23
BRANCH  11  25
ATOM     25  O   UNL     1     -10.210   2.200   3.415  1.00  0.00    -0.508 OA
ATOM     26  H   UNL     1      -9.245   2.148   3.111  1.00  0.00     0.293 HD
ENDBRANCH  11  25
ENDBRANCH   1   2
BRANCH   1  27
ATOM     27  C   UNL     1     -13.034   8.877   7.785  1.00  0.00     0.339 C 
ATOM     28  C   UNL     1     -13.204  10.245   8.470  1.00  0.00     0.214 C 
ATOM     29  O   UNL     1     -13.654   8.854   6.511  1.00  0.00    -0.332 OA
ATOM     30  C   UNL     1     -12.733  11.398   7.557  1.00  0.00     0.180 C 
ATOM     31  C   UNL     1     -13.049   9.771   5.614  1.00  0.00     0.179 C 
ATOM     32  C   UNL     1     -13.251  11.225   6.110  1.00  0.00     0.177 C 
BRANCH  28  33
ATOM     33  O   UNL     1     -14.561  10.420   8.792  1.00  0.00    -0.384 OA
ATOM     34  H   UNL     1     -14.676  10.125   9.733  1.00  0.00     0.211 HD
ENDBRANCH  28  33
BRANCH  30  35
ATOM     35  O   UNL     1     -11.334  11.551   7.612  1.00  0.00    -0.387 OA
ATOM     36  H   UNL     1     -11.120  12.518   7.592  1.00  0.00     0.211 HD
ENDBRANCH  30  35
BRANCH  31  37
ATOM     37  C   UNL     1     -13.690   9.558   4.231  1.00  0.00     0.191 C 
BRANCH  37  38
ATOM     38  O   UNL     1     -14.635  10.555   3.948  1.00  0.00    -0.394 OA
ATOM     39  H   UNL     1     -15.021  10.337   3.060  1.00  0.00     0.210 HD
ENDBRANCH  37  38
ENDBRANCH  31  37
BRANCH  32  40
ATOM     40  O   UNL     1     -12.592  12.125   5.256  1.00  0.00    -0.387 OA
ATOM     41  H   UNL     1     -12.662  11.753   4.338  1.00  0.00     0.211 HD
ENDBRANCH  32  40
ENDBRANCH   1  27
TORSDOF 12
ENDMDL
MODEL 8
REMARK VINA RESULT:    -2.899      1.755      5.929
REMARK INTER + INTRA:          -4.062
REMARK INTER:                  -3.761
REMARK INTRA:                  -0.301
REMARK UNBOUND:                 0.193
REMARK SMILES O=c1c(O[C@@H]2O[C@@H](CO)[C@H](O)[C@H](O)[C@H]2O)c(-c2ccc(O)c(O)c2)oc2cc(O)cc(O)c12
REMARK SMILES IDX 4 1 3 2 16 3 25 4 2 5 26 6 1 7 33 8 27 9 31 10 28 11 30 12
REMARK SMILES IDX 17 13 18 14 19 15 20 16 24 17 22 18 21 19 23 21 32 23 29 25
REMARK SMILES IDX 5 27 14 28 6 29 12 30 7 31 10 32 15 33 13 35 8 37 9 38 11 40
REMARK H PARENT 21 20 23 22 32 24 29 26 15 34 13 36 9 39 11 41
REMARK Flexibility Score: inf
ROOT
ATOM      1  O   UNL     1     -11.416   8.822   5.225  1.00  0.00    -0.454 OA
ENDROOT
BRANCH   1   2
ATOM      2  C   UNL     1     -11.139   7.700   6.015  1.00  0.00     0.214 A 
ATOM      3  C   UNL     1      -9.828   7.395   6.429  1.00  0.00     0.180 A 
ATOM      4  O   UNL     1      -9.595   6.265   7.084  1.00  0.00    -0.452 OA
ATOM      5  C   UNL     1     -12.186   6.849   6.384  1.00  0.00     0.239 A 
ATOM      6  C   UNL     1     -10.551   5.413   7.434  1.00  0.00     0.146 A 
ATOM      7  O   UNL     1     -13.347   7.120   5.984  1.00  0.00    -0.285 OA
ATOM      8  C   UNL     1     -11.914   5.686   7.145  1.00  0.00     0.111 A 
ATOM      9  C   UNL     1     -10.188   4.238   8.097  1.00  0.00     0.094 A 
ATOM     10  C   UNL     1     -12.904   4.762   7.593  1.00  0.00     0.134 A 
ATOM     11  C   UNL     1     -11.158   3.314   8.481  1.00  0.00     0.123 A 
ATOM     12  C   UNL     1     -12.506   3.577   8.225  1.00  0.00     0.093 A 
BRANCH   3  13
ATOM     13  C   UNL     1      -8.687   8.296   6.158  1.00  0.00     0.025 A 
ATOM     14  C   UNL     1      -8.164   8.435   4.861  1.00  0.00     0.016 A 
ATOM     15  C   UNL     1      -7.091   9.297   4.620  1.00  0.00     0.051 A 
ATOM     16  C   UNL     1      -6.539  10.045   5.664  1.00  0.00     0.157 A 
ATOM     17  C   UNL     1      -8.147   9.066   7.200  1.00  0.00     0.062 A 
ATOM     18  C   UNL     1      -7.071   9.933   6.961  1.00  0.00     0.158 A 
BRANCH  16  19
ATOM     19  O   UNL     1      -5.468  10.896   5.396  1.00  0.00    -0.504 OA
ATOM     20  H   UNL     1      -5.427  11.462   4.557  1.00  0.00     0.293 HD
ENDBRANCH  16  19
BRANCH  18  21
ATOM     21  O   UNL     1      -6.530  10.683   8.004  1.00  0.00    -0.504 OA
ATOM     22  H   UNL     1      -7.117  11.221   8.631  1.00  0.00     0.293 HD
ENDBRANCH  18  21
ENDBRANCH   3  13
BRANCH  10  23
ATOM     23  O   UNL     1     -14.281   4.971   7.468  1.00  0.00    -0.507 OA
ATOM     24  H   UNL     1     -14.978   4.603   8.097  1.00  0.00     0.293 HD
ENDBRANCH  10  23
BRANCH  11  25
ATOM     25  O   UNL     1     -10.772   2.139   9.123  1.00  0.00    -0.508 OA
ATOM     26  H   UNL     1     -10.694   2.089  10.132  1.00  0.00     0.293 HD
ENDBRANCH  11  25
ENDBRANCH   1   2
BRANCH   1  27
ATOM     27  C   UNL     1     -10.793  10.094   5.438  1.00  0.00     0.339 C 
ATOM     28  C   UNL     1     -10.994  11.018   4.223  1.00  0.00     0.214 C 
ATOM     29  O   UNL     1     -11.260  10.698   6.632  1.00  0.00    -0.332 OA
ATOM     30  C   UNL     1     -12.456  11.502   4.114  1.00  0.00     0.180 C 
ATOM     31  C   UNL     1     -12.659  10.928   6.595  1.00  0.00     0.179 C 
ATOM     32  C   UNL     1     -13.010  11.952   5.487  1.00  0.00     0.177 C 
BRANCH  28  33
ATOM     33  O   UNL     1     -10.137  12.125   4.355  1.00  0.00    -0.384 OA
ATOM     34  H   UNL     1      -9.357  11.959   3.764  1.00  0.00     0.211 HD
ENDBRANCH  28  33
BRANCH  30  35
ATOM     35  O   UNL     1     -13.269  10.529   3.501  1.00  0.00    -0.387 OA
ATOM     36  H   UNL     1     -14.186  10.604   3.869  1.00  0.00     0.211 HD
ENDBRANCH  30  35
BRANCH  31  37
ATOM     37  C   UNL     1     -13.082  11.439   7.983  1.00  0.00     0.191 C 
BRANCH  37  38
ATOM     38  O   UNL     1     -14.376  11.010   8.311  1.00  0.00    -0.394 OA
ATOM     39  H   UNL     1     -14.370  10.803   9.282  1.00  0.00     0.210 HD
ENDBRANCH  37  38
ENDBRANCH  31  37
BRANCH  32  40
ATOM     40  O   UNL     1     -14.402  12.125   5.408  1.00  0.00    -0.387 OA
ATOM     41  H   UNL     1     -14.577  12.675   4.601  1.00  0.00     0.211 HD
ENDBRANCH  32  40
ENDBRANCH   1  27
TORSDOF 12
ENDMDL
