MODEL 1
REMARK VINA RESULT:    -4.019      0.000      0.000
REMARK INTER + INTRA:         -14.266
REMARK INTER:                 -10.128
REMARK INTRA:                  -4.138
REMARK UNBOUND:                -4.138
REMARK SMILES CCCCCCCCCCCCCCCCCCCCCCCCCCCC(=O)[O-]
REMARK SMILES IDX 15 1 16 2 17 3 18 4 19 5 20 6 21 7 22 8 23 9 24 10 25 11
REMARK SMILES IDX 26 12 27 13 28 14 29 15 30 16 14 17 13 18 12 19 11 20 10 21
REMARK SMILES IDX 9 22 8 23 7 24 6 25 5 26 4 27 3 28 2 29 1 30
REMARK H PARENT
REMARK Flexibility Score: inf
ROOT
ATOM      1  C   UNL     1      41.771  19.336 223.857  1.00  0.00     0.000 C 
ENDROOT
BRANCH   1   2
ATOM      2  C   UNL     1      40.781  18.942 224.965  1.00  0.00     0.000 C 
BRANCH   2   3
ATOM      3  C   UNL     1      39.465  18.370 224.417  1.00  0.00     0.000 C 
BRANCH   3   4
ATOM      4  C   UNL     1      38.293  18.691 225.356  1.00  0.00     0.000 C 
BRANCH   4   5
ATOM      5  C   UNL     1      36.940  18.215 224.804  1.00  0.00     0.000 C 
BRANCH   5   6
ATOM      6  C   UNL     1      36.032  17.624 225.896  1.00  0.00     0.000 C 
BRANCH   6   7
ATOM      7  C   UNL     1      36.814  16.798 226.929  1.00  0.00     0.000 C 
BRANCH   7   8
ATOM      8  C   UNL     1      36.568  15.284 226.794  1.00  0.00     0.000 C 
BRANCH   8   9
ATOM      9  C   UNL     1      37.861  14.466 226.996  1.00  0.00     0.000 C 
BRANCH   9  10
ATOM     10  C   UNL     1      39.138  15.223 226.592  1.00  0.00     0.000 C 
BRANCH  10  11
ATOM     11  C   UNL     1      40.241  15.149 227.658  1.00  0.00     0.000 C 
BRANCH  11  12
ATOM     12  C   UNL     1      39.919  16.058 228.850  1.00  0.00     0.006 C 
BRANCH  12  13
ATOM     13  C   UNL     1      40.067  17.535 228.468  1.00  0.00     0.053 C 
BRANCH  13  14
ATOM     14  C   UNL     1      39.230  18.399 229.358  1.00  0.00     0.041 C 
ATOM     15  O   UNL     1      38.599  19.379 228.880  1.00  0.00    -0.550 OA
ATOM     16  O   UNL     1      39.141  18.119 230.717  1.00  0.00    -0.550 OA
ENDBRANCH  13  14
ENDBRANCH  12  13
ENDBRANCH  11  12
ENDBRANCH  10  11
ENDBRANCH   9  10
ENDBRANCH   8   9
ENDBRANCH   7   8
ENDBRANCH   6   7
ENDBRANCH   5   6
ENDBRANCH   4   5
ENDBRANCH   3   4
ENDBRANCH   2   3
ENDBRANCH   1   2
BRANCH   1  17
ATOM     17  C   UNL     1      41.136  19.588 222.475  1.00  0.00     0.000 C 
BRANCH  17  18
ATOM     18  C   UNL     1      41.504  20.953 221.855  1.00  0.00     0.000 C 
BRANCH  18  19
ATOM     19  C   UNL     1      40.867  22.136 222.607  1.00  0.00     0.000 C 
BRANCH  19  20
ATOM     20  C   UNL     1      39.337  22.196 222.410  1.00  0.00     0.000 C 
BRANCH  20  21
ATOM     21  C   UNL     1      38.547  22.029 223.718  1.00  0.00     0.000 C 
BRANCH  21  22
ATOM     22  C   UNL     1      38.896  23.102 224.762  1.00  0.00    -0.000 C 
BRANCH  22  23
ATOM     23  C   UNL     1      37.882  24.257 224.786  1.00  0.00    -0.000 C 
BRANCH  23  24
ATOM     24  C   UNL     1      38.268  25.398 223.832  1.00  0.00    -0.000 C 
BRANCH  24  25
ATOM     25  C   UNL     1      37.348  25.432 222.607  1.00  0.00    -0.000 C 
BRANCH  25  26
ATOM     26  C   UNL     1      35.933  24.954 222.970  1.00  0.00    -0.000 C 
BRANCH  26  27
ATOM     27  C   UNL     1      35.429  23.836 222.032  1.00  0.00    -0.000 C 
BRANCH  27  28
ATOM     28  C   UNL     1      36.288  23.657 220.769  1.00  0.00    -0.000 C 
BRANCH  28  29
ATOM     29  C   UNL     1      35.782  24.487 219.581  1.00  0.00    -0.003 C 
ATOM     30  C   UNL     1      34.416  23.998 219.107  1.00  0.00     0.004 C 
ENDBRANCH  28  29
ENDBRANCH  27  28
ENDBRANCH  26  27
ENDBRANCH  25  26
ENDBRANCH  24  25
ENDBRANCH  23  24
ENDBRANCH  22  23
ENDBRANCH  21  22
ENDBRANCH  20  21
ENDBRANCH  19  20
ENDBRANCH  18  19
ENDBRANCH  17  18
ENDBRANCH   1  17
TORSDOF 26
ENDMDL
MODEL 2
REMARK VINA RESULT:    -4.008      4.470      8.079
REMARK INTER + INTRA:         -14.237
REMARK INTER:                  -8.784
REMARK INTRA:                  -5.453
REMARK UNBOUND:                -4.138
REMARK SMILES CCCCCCCCCCCCCCCCCCCCCCCCCCCC(=O)[O-]
REMARK SMILES IDX 15 1 16 2 17 3 18 4 19 5 20 6 21 7 22 8 23 9 24 10 25 11
REMARK SMILES IDX 26 12 27 13 28 14 29 15 30 16 14 17 13 18 12 19 11 20 10 21
REMARK SMILES IDX 9 22 8 23 7 24 6 25 5 26 4 27 3 28 2 29 1 30
REMARK H PARENT
REMARK Flexibility Score: inf
ROOT
ATOM      1  C   UNL     1      42.401  22.020 225.344  1.00  0.00     0.000 C 
ENDROOT
BRANCH   1   2
ATOM      2  C   UNL     1      42.468  20.683 224.588  1.00  0.00     0.000 C 
BRANCH   2   3
ATOM      3  C   UNL     1      41.678  20.700 223.271  1.00  0.00     0.000 C 
BRANCH   3   4
ATOM      4  C   UNL     1      40.167  20.633 223.537  1.00  0.00     0.000 C 
BRANCH   4   5
ATOM      5  C   UNL     1      39.396  21.800 222.899  1.00  0.00     0.000 C 
BRANCH   5   6
ATOM      6  C   UNL     1      40.317  22.770 222.139  1.00  0.00     0.000 C 
BRANCH   6   7
ATOM      7  C   UNL     1      39.615  24.090 221.783  1.00  0.00     0.000 C 
BRANCH   7   8
ATOM      8  C   UNL     1      39.299  24.952 223.019  1.00  0.00     0.000 C 
BRANCH   8   9
ATOM      9  C   UNL     1      37.977  25.733 222.859  1.00  0.00     0.000 C 
BRANCH   9  10
ATOM     10  C   UNL     1      36.801  25.118 223.638  1.00  0.00     0.000 C 
BRANCH  10  11
ATOM     11  C   UNL     1      36.150  23.936 222.905  1.00  0.00     0.000 C 
BRANCH  11  12
ATOM     12  C   UNL     1      35.750  24.324 221.477  1.00  0.00     0.006 C 
BRANCH  12  13
ATOM     13  C   UNL     1      36.357  23.355 220.456  1.00  0.00     0.053 C 
BRANCH  13  14
ATOM     14  C   UNL     1      36.051  23.796 219.059  1.00  0.00     0.041 C 
ATOM     15  O   UNL     1      36.949  23.772 218.175  1.00  0.00    -0.550 OA
ATOM     16  O   UNL     1      34.770  24.225 218.729  1.00  0.00    -0.550 OA
ENDBRANCH  13  14
ENDBRANCH  12  13
ENDBRANCH  11  12
ENDBRANCH  10  11
ENDBRANCH   9  10
ENDBRANCH   8   9
ENDBRANCH   7   8
ENDBRANCH   6   7
ENDBRANCH   5   6
ENDBRANCH   4   5
ENDBRANCH   3   4
ENDBRANCH   2   3
ENDBRANCH   1   2
BRANCH   1  17
ATOM     17  C   UNL     1      43.102  23.201 224.644  1.00  0.00     0.000 C 
BRANCH  17  18
ATOM     18  C   UNL     1      42.348  24.542 224.768  1.00  0.00     0.000 C 
BRANCH  18  19
ATOM     19  C   UNL     1      43.220  25.659 225.367  1.00  0.00     0.000 C 
BRANCH  19  20
ATOM     20  C   UNL     1      42.904  27.039 224.750  1.00  0.00     0.000 C 
BRANCH  20  21
ATOM     21  C   UNL     1      41.895  27.858 225.572  1.00  0.00     0.000 C 
BRANCH  21  22
ATOM     22  C   UNL     1      40.440  27.602 225.150  1.00  0.00    -0.000 C 
BRANCH  22  23
ATOM     23  C   UNL     1      39.468  27.606 226.341  1.00  0.00    -0.000 C 
BRANCH  23  24
ATOM     24  C   UNL     1      38.765  26.254 226.531  1.00  0.00    -0.000 C 
BRANCH  24  25
ATOM     25  C   UNL     1      39.358  25.482 227.715  1.00  0.00    -0.000 C 
BRANCH  25  26
ATOM     26  C   UNL     1      39.874  24.105 227.268  1.00  0.00    -0.000 C 
BRANCH  26  27
ATOM     27  C   UNL     1      39.085  23.543 226.065  1.00  0.00    -0.000 C 
BRANCH  27  28
ATOM     28  C   UNL     1      38.288  22.268 226.391  1.00  0.00    -0.000 C 
BRANCH  28  29
ATOM     29  C   UNL     1      38.799  21.551 227.649  1.00  0.00    -0.003 C 
ATOM     30  C   UNL     1      39.654  20.341 227.284  1.00  0.00     0.004 C 
ENDBRANCH  28  29
ENDBRANCH  27  28
ENDBRANCH  26  27
ENDBRANCH  25  26
ENDBRANCH  24  25
ENDBRANCH  23  24
ENDBRANCH  22  23
ENDBRANCH  21  22
ENDBRANCH  20  21
ENDBRANCH  19  20
ENDBRANCH  18  19
ENDBRANCH  17  18
ENDBRANCH   1  17
TORSDOF 26
ENDMDL
MODEL 3
REMARK VINA RESULT:    -3.914      2.392      7.025
REMARK INTER + INTRA:         -14.001
REMARK INTER:                  -8.182
REMARK INTRA:                  -5.819
REMARK UNBOUND:                -4.138
REMARK SMILES CCCCCCCCCCCCCCCCCCCCCCCCCCCC(=O)[O-]
REMARK SMILES IDX 15 1 16 2 17 3 18 4 19 5 20 6 21 7 22 8 23 9 24 10 25 11
REMARK SMILES IDX 26 12 27 13 28 14 29 15 30 16 14 17 13 18 12 19 11 20 10 21
REMARK SMILES IDX 9 22 8 23 7 24 6 25 5 26 4 27 3 28 2 29 1 30
REMARK H PARENT
REMARK Flexibility Score: inf
ROOT
ATOM      1  C   UNL     1      41.016  23.744 222.660  1.00  0.00     0.000 C 
ENDROOT
BRANCH   1   2
ATOM      2  C   UNL     1      39.643  24.162 222.111  1.00  0.00     0.000 C 
BRANCH   2   3
ATOM      3  C   UNL     1      38.681  22.976 221.940  1.00  0.00     0.000 C 
BRANCH   3   4
ATOM      4  C   UNL     1      37.356  23.431 221.310  1.00  0.00     0.000 C 
BRANCH   4   5
ATOM      5  C   UNL     1      36.134  23.080 222.175  1.00  0.00     0.000 C 
BRANCH   5   6
ATOM      6  C   UNL     1      35.373  24.326 222.657  1.00  0.00     0.000 C 
BRANCH   6   7
ATOM      7  C   UNL     1      36.252  25.261 223.504  1.00  0.00     0.000 C 
BRANCH   7   8
ATOM      8  C   UNL     1      36.507  24.720 224.923  1.00  0.00     0.000 C 
BRANCH   8   9
ATOM      9  C   UNL     1      38.004  24.757 225.297  1.00  0.00     0.000 C 
BRANCH   9  10
ATOM     10  C   UNL     1      38.438  23.601 226.216  1.00  0.00     0.000 C 
BRANCH  10  11
ATOM     11  C   UNL     1      38.500  22.250 225.488  1.00  0.00     0.000 C 
BRANCH  11  12
ATOM     12  C   UNL     1      38.072  21.104 226.411  1.00  0.00     0.006 C 
BRANCH  12  13
ATOM     13  C   UNL     1      37.978  19.784 225.638  1.00  0.00     0.053 C 
BRANCH  13  14
ATOM     14  C   UNL     1      37.767  18.635 226.573  1.00  0.00     0.041 C 
ATOM     15  O   UNL     1      38.694  18.263 227.341  1.00  0.00    -0.550 OA
ATOM     16  O   UNL     1      36.542  17.977 226.603  1.00  0.00    -0.550 OA
ENDBRANCH  13  14
ENDBRANCH  12  13
ENDBRANCH  11  12
ENDBRANCH  10  11
ENDBRANCH   9  10
ENDBRANCH   8   9
ENDBRANCH   7   8
ENDBRANCH   6   7
ENDBRANCH   5   6
ENDBRANCH   4   5
ENDBRANCH   3   4
ENDBRANCH   2   3
ENDBRANCH   1   2
BRANCH   1  17
ATOM     17  C   UNL     1      41.335  24.255 224.079  1.00  0.00     0.000 C 
BRANCH  17  18
ATOM     18  C   UNL     1      42.733  23.850 224.593  1.00  0.00     0.000 C 
BRANCH  18  19
ATOM     19  C   UNL     1      42.678  23.124 225.949  1.00  0.00     0.000 C 
BRANCH  19  20
ATOM     20  C   UNL     1      43.595  21.882 225.983  1.00  0.00     0.000 C 
BRANCH  20  21
ATOM     21  C   UNL     1      42.945  20.663 226.657  1.00  0.00     0.000 C 
BRANCH  21  22
ATOM     22  C   UNL     1      41.626  20.247 225.986  1.00  0.00    -0.000 C 
BRANCH  22  23
ATOM     23  C   UNL     1      41.676  18.822 225.413  1.00  0.00    -0.000 C 
BRANCH  23  24
ATOM     24  C   UNL     1      41.092  18.738 223.995  1.00  0.00    -0.000 C 
BRANCH  24  25
ATOM     25  C   UNL     1      40.896  20.134 223.392  1.00  0.00    -0.000 C 
BRANCH  25  26
ATOM     26  C   UNL     1      41.768  20.318 222.140  1.00  0.00    -0.000 C 
BRANCH  26  27
ATOM     27  C   UNL     1      43.128  20.974 222.461  1.00  0.00    -0.000 C 
BRANCH  27  28
ATOM     28  C   UNL     1      44.329  20.033 222.267  1.00  0.00    -0.000 C 
BRANCH  28  29
ATOM     29  C   UNL     1      44.790  19.377 223.576  1.00  0.00    -0.003 C 
ATOM     30  C   UNL     1      44.767  17.855 223.468  1.00  0.00     0.004 C 
ENDBRANCH  28  29
ENDBRANCH  27  28
ENDBRANCH  26  27
ENDBRANCH  25  26
ENDBRANCH  24  25
ENDBRANCH  23  24
ENDBRANCH  22  23
ENDBRANCH  21  22
ENDBRANCH  20  21
ENDBRANCH  19  20
ENDBRANCH  18  19
ENDBRANCH  17  18
ENDBRANCH   1  17
TORSDOF 26
ENDMDL
MODEL 4
REMARK VINA RESULT:    -3.903      2.333      5.522
REMARK INTER + INTRA:         -13.973
REMARK INTER:                  -7.549
REMARK INTRA:                  -6.424
REMARK UNBOUND:                -4.138
REMARK SMILES CCCCCCCCCCCCCCCCCCCCCCCCCCCC(=O)[O-]
REMARK SMILES IDX 15 1 16 2 17 3 18 4 19 5 20 6 21 7 22 8 23 9 24 10 25 11
REMARK SMILES IDX 26 12 27 13 28 14 29 15 30 16 14 17 13 18 12 19 11 20 10 21
REMARK SMILES IDX 9 22 8 23 7 24 6 25 5 26 4 27 3 28 2 29 1 30
REMARK H PARENT
REMARK Flexibility Score: inf
ROOT
ATOM      1  C   UNL     1      39.635  20.465 224.263  1.00  0.00     0.000 C 
ENDROOT
BRANCH   1   2
ATOM      2  C   UNL     1      40.247  19.211 223.618  1.00  0.00     0.000 C 
BRANCH   2   3
ATOM      3  C   UNL     1      40.981  19.513 222.303  1.00  0.00     0.000 C 
BRANCH   3   4
ATOM      4  C   UNL     1      42.436  19.926 222.568  1.00  0.00     0.000 C 
BRANCH   4   5
ATOM      5  C   UNL     1      43.267  18.804 223.212  1.00  0.00     0.000 C 
BRANCH   5   6
ATOM      6  C   UNL     1      44.010  19.269 224.475  1.00  0.00     0.000 C 
BRANCH   6   7
ATOM      7  C   UNL     1      43.923  20.789 224.683  1.00  0.00     0.000 C 
BRANCH   7   8
ATOM      8  C   UNL     1      43.707  21.181 226.156  1.00  0.00     0.000 C 
BRANCH   8   9
ATOM      9  C   UNL     1      42.212  21.357 226.497  1.00  0.00     0.000 C 
BRANCH   9  10
ATOM     10  C   UNL     1      41.865  20.993 227.951  1.00  0.00     0.000 C 
BRANCH  10  11
ATOM     11  C   UNL     1      40.832  19.861 228.054  1.00  0.00     0.000 C 
BRANCH  11  12
ATOM     12  C   UNL     1      41.300  18.614 227.296  1.00  0.00     0.006 C 
BRANCH  12  13
ATOM     13  C   UNL     1      40.569  17.363 227.795  1.00  0.00     0.053 C 
BRANCH  13  14
ATOM     14  C   UNL     1      39.210  17.260 227.176  1.00  0.00     0.041 C 
ATOM     15  O   UNL     1      39.079  16.817 226.004  1.00  0.00    -0.550 OA
ATOM     16  O   UNL     1      38.086  17.645 227.898  1.00  0.00    -0.550 OA
ENDBRANCH  13  14
ENDBRANCH  12  13
ENDBRANCH  11  12
ENDBRANCH  10  11
ENDBRANCH   9  10
ENDBRANCH   8   9
ENDBRANCH   7   8
ENDBRANCH   6   7
ENDBRANCH   5   6
ENDBRANCH   4   5
ENDBRANCH   3   4
ENDBRANCH   2   3
ENDBRANCH   1   2
BRANCH   1  17
ATOM     17  C   UNL     1      38.417  20.204 225.171  1.00  0.00     0.000 C 
BRANCH  17  18
ATOM     18  C   UNL     1      38.067  21.382 226.106  1.00  0.00     0.000 C 
BRANCH  18  19
ATOM     19  C   UNL     1      38.794  22.682 225.718  1.00  0.00     0.000 C 
BRANCH  19  20
ATOM     20  C   UNL     1      37.809  23.831 225.412  1.00  0.00     0.000 C 
BRANCH  20  21
ATOM     21  C   UNL     1      37.040  23.640 224.094  1.00  0.00     0.000 C 
BRANCH  21  22
ATOM     22  C   UNL     1      37.751  24.285 222.894  1.00  0.00    -0.000 C 
BRANCH  22  23
ATOM     23  C   UNL     1      38.133  23.263 221.812  1.00  0.00    -0.000 C 
BRANCH  23  24
ATOM     24  C   UNL     1      39.651  23.042 221.722  1.00  0.00    -0.000 C 
BRANCH  24  25
ATOM     25  C   UNL     1      40.412  24.075 222.559  1.00  0.00    -0.000 C 
BRANCH  25  26
ATOM     26  C   UNL     1      41.547  23.409 223.353  1.00  0.00    -0.000 C 
BRANCH  26  27
ATOM     27  C   UNL     1      42.017  24.271 224.545  1.00  0.00    -0.000 C 
BRANCH  27  28
ATOM     28  C   UNL     1      41.274  25.612 224.668  1.00  0.00    -0.000 C 
BRANCH  28  29
ATOM     29  C   UNL     1      40.770  25.885 226.093  1.00  0.00    -0.003 C 
ATOM     30  C   UNL     1      41.455  24.972 227.105  1.00  0.00     0.004 C 
ENDBRANCH  28  29
ENDBRANCH  27  28
ENDBRANCH  26  27
ENDBRANCH  25  26
ENDBRANCH  24  25
ENDBRANCH  23  24
ENDBRANCH  22  23
ENDBRANCH  21  22
ENDBRANCH  20  21
ENDBRANCH  19  20
ENDBRANCH  18  19
ENDBRANCH  17  18
ENDBRANCH   1  17
TORSDOF 26
ENDMDL
MODEL 5
REMARK VINA RESULT:    -3.865      2.355      5.441
REMARK INTER + INTRA:         -13.877
REMARK INTER:                  -8.671
REMARK INTRA:                  -5.205
REMARK UNBOUND:                -4.138
REMARK SMILES CCCCCCCCCCCCCCCCCCCCCCCCCCCC(=O)[O-]
REMARK SMILES IDX 15 1 16 2 17 3 18 4 19 5 20 6 21 7 22 8 23 9 24 10 25 11
REMARK SMILES IDX 26 12 27 13 28 14 29 15 30 16 14 17 13 18 12 19 11 20 10 21
REMARK SMILES IDX 9 22 8 23 7 24 6 25 5 26 4 27 3 28 2 29 1 30
REMARK H PARENT
REMARK Flexibility Score: inf
ROOT
ATOM      1  C   UNL     1      40.613  22.251 221.777  1.00  0.00     0.000 C 
ENDROOT
BRANCH   1   2
ATOM      2  C   UNL     1      40.692  21.054 222.738  1.00  0.00     0.000 C 
BRANCH   2   3
ATOM      3  C   UNL     1      41.323  19.810 222.094  1.00  0.00     0.000 C 
BRANCH   3   4
ATOM      4  C   UNL     1      42.633  19.431 222.799  1.00  0.00     0.000 C 
BRANCH   4   5
ATOM      5  C   UNL     1      43.596  20.620 222.948  1.00  0.00     0.000 C 
BRANCH   5   6
ATOM      6  C   UNL     1      44.039  20.843 224.404  1.00  0.00     0.000 C 
BRANCH   6   7
ATOM      7  C   UNL     1      43.494  22.154 224.990  1.00  0.00     0.000 C 
BRANCH   7   8
ATOM      8  C   UNL     1      42.408  21.927 226.057  1.00  0.00     0.000 C 
BRANCH   8   9
ATOM      9  C   UNL     1      42.141  20.427 226.302  1.00  0.00     0.000 C 
BRANCH   9  10
ATOM     10  C   UNL     1      40.659  20.034 226.167  1.00  0.00     0.000 C 
BRANCH  10  11
ATOM     11  C   UNL     1      40.465  18.601 225.652  1.00  0.00     0.000 C 
BRANCH  11  12
ATOM     12  C   UNL     1      39.051  18.400 225.094  1.00  0.00     0.006 C 
BRANCH  12  13
ATOM     13  C   UNL     1      37.996  18.920 226.076  1.00  0.00     0.053 C 
BRANCH  13  14
ATOM     14  C   UNL     1      37.704  17.899 227.131  1.00  0.00     0.041 C 
ATOM     15  O   UNL     1      37.087  16.840 226.835  1.00  0.00    -0.550 OA
ATOM     16  O   UNL     1      38.121  18.111 228.440  1.00  0.00    -0.550 OA
ENDBRANCH  13  14
ENDBRANCH  12  13
ENDBRANCH  11  12
ENDBRANCH  10  11
ENDBRANCH   9  10
ENDBRANCH   8   9
ENDBRANCH   7   8
ENDBRANCH   6   7
ENDBRANCH   5   6
ENDBRANCH   4   5
ENDBRANCH   3   4
ENDBRANCH   2   3
ENDBRANCH   1   2
BRANCH   1  17
ATOM     17  C   UNL     1      40.600  23.634 222.456  1.00  0.00     0.000 C 
BRANCH  17  18
ATOM     18  C   UNL     1      39.250  24.376 222.346  1.00  0.00     0.000 C 
BRANCH  18  19
ATOM     19  C   UNL     1      38.163  23.528 221.662  1.00  0.00     0.000 C 
BRANCH  19  20
ATOM     20  C   UNL     1      37.253  22.813 222.684  1.00  0.00     0.000 C 
BRANCH  20  21
ATOM     21  C   UNL     1      37.251  23.480 224.069  1.00  0.00     0.000 C 
BRANCH  21  22
ATOM     22  C   UNL     1      37.868  22.588 225.158  1.00  0.00    -0.000 C 
BRANCH  22  23
ATOM     23  C   UNL     1      39.045  23.263 225.880  1.00  0.00    -0.000 C 
BRANCH  23  24
ATOM     24  C   UNL     1      38.590  24.128 227.065  1.00  0.00    -0.000 C 
BRANCH  24  25
ATOM     25  C   UNL     1      39.462  25.381 227.204  1.00  0.00    -0.000 C 
BRANCH  25  26
ATOM     26  C   UNL     1      38.856  26.560 226.425  1.00  0.00    -0.000 C 
BRANCH  26  27
ATOM     27  C   UNL     1      39.540  26.777 225.058  1.00  0.00    -0.000 C 
BRANCH  27  28
ATOM     28  C   UNL     1      40.573  27.916 225.059  1.00  0.00    -0.000 C 
BRANCH  28  29
ATOM     29  C   UNL     1      41.996  27.430 225.366  1.00  0.00    -0.003 C 
ATOM     30  C   UNL     1      42.215  26.007 224.860  1.00  0.00     0.004 C 
ENDBRANCH  28  29
ENDBRANCH  27  28
ENDBRANCH  26  27
ENDBRANCH  25  26
ENDBRANCH  24  25
ENDBRANCH  23  24
ENDBRANCH  22  23
ENDBRANCH  21  22
ENDBRANCH  20  21
ENDBRANCH  19  20
ENDBRANCH  18  19
ENDBRANCH  17  18
ENDBRANCH   1  17
TORSDOF 26
ENDMDL
MODEL 6
REMARK VINA RESULT:    -3.861      3.230      8.045
REMARK INTER + INTRA:         -13.867
REMARK INTER:                  -8.698
REMARK INTRA:                  -5.169
REMARK UNBOUND:                -4.138
REMARK SMILES CCCCCCCCCCCCCCCCCCCCCCCCCCCC(=O)[O-]
REMARK SMILES IDX 15 1 16 2 17 3 18 4 19 5 20 6 21 7 22 8 23 9 24 10 25 11
REMARK SMILES IDX 26 12 27 13 28 14 29 15 30 16 14 17 13 18 12 19 11 20 10 21
REMARK SMILES IDX 9 22 8 23 7 24 6 25 5 26 4 27 3 28 2 29 1 30
REMARK H PARENT
REMARK Flexibility Score: inf
ROOT
ATOM      1  C   UNL     1      42.359  22.959 226.353  1.00  0.00     0.000 C 
ENDROOT
BRANCH   1   2
ATOM      2  C   UNL     1      41.387  24.009 225.792  1.00  0.00     0.000 C 
BRANCH   2   3
ATOM      3  C   UNL     1      41.723  24.425 224.352  1.00  0.00     0.000 C 
BRANCH   3   4
ATOM      4  C   UNL     1      40.448  24.769 223.569  1.00  0.00     0.000 C 
BRANCH   4   5
ATOM      5  C   UNL     1      40.351  24.021 222.229  1.00  0.00     0.000 C 
BRANCH   5   6
ATOM      6  C   UNL     1      41.165  22.715 222.222  1.00  0.00     0.000 C 
BRANCH   6   7
ATOM      7  C   UNL     1      40.278  21.469 222.372  1.00  0.00     0.000 C 
BRANCH   7   8
ATOM      8  C   UNL     1      40.583  20.668 223.651  1.00  0.00     0.000 C 
BRANCH   8   9
ATOM      9  C   UNL     1      39.577  20.976 224.781  1.00  0.00     0.000 C 
BRANCH   9  10
ATOM     10  C   UNL     1      38.278  21.636 224.285  1.00  0.00     0.000 C 
BRANCH  10  11
ATOM     11  C   UNL     1      37.851  22.835 225.144  1.00  0.00     0.000 C 
BRANCH  11  12
ATOM     12  C   UNL     1      36.971  23.803 224.345  1.00  0.00     0.006 C 
BRANCH  12  13
ATOM     13  C   UNL     1      36.768  23.302 222.911  1.00  0.00     0.053 C 
BRANCH  13  14
ATOM     14  C   UNL     1      35.947  24.271 222.121  1.00  0.00     0.041 C 
ATOM     15  O   UNL     1      36.439  25.374 221.761  1.00  0.00    -0.550 OA
ATOM     16  O   UNL     1      34.638  23.954 221.773  1.00  0.00    -0.550 OA
ENDBRANCH  13  14
ENDBRANCH  12  13
ENDBRANCH  11  12
ENDBRANCH  10  11
ENDBRANCH   9  10
ENDBRANCH   8   9
ENDBRANCH   7   8
ENDBRANCH   6   7
ENDBRANCH   5   6
ENDBRANCH   4   5
ENDBRANCH   3   4
ENDBRANCH   2   3
ENDBRANCH   1   2
BRANCH   1  17
ATOM     17  C   UNL     1      43.651  22.762 225.536  1.00  0.00     0.000 C 
BRANCH  17  18
ATOM     18  C   UNL     1      44.008  21.284 225.272  1.00  0.00     0.000 C 
BRANCH  18  19
ATOM     19  C   UNL     1      44.032  20.939 223.772  1.00  0.00     0.000 C 
BRANCH  19  20
ATOM     20  C   UNL     1      44.625  19.538 223.506  1.00  0.00     0.000 C 
BRANCH  20  21
ATOM     21  C   UNL     1      43.568  18.423 223.484  1.00  0.00     0.000 C 
BRANCH  21  22
ATOM     22  C   UNL     1      43.481  17.662 224.817  1.00  0.00    -0.000 C 
BRANCH  22  23
ATOM     23  C   UNL     1      42.205  17.995 225.607  1.00  0.00    -0.000 C 
BRANCH  23  24
ATOM     24  C   UNL     1      41.536  16.744 226.196  1.00  0.00    -0.000 C 
BRANCH  24  25
ATOM     25  C   UNL     1      40.140  16.529 225.599  1.00  0.00    -0.000 C 
BRANCH  25  26
ATOM     26  C   UNL     1      39.189  15.916 226.639  1.00  0.00    -0.000 C 
BRANCH  26  27
ATOM     27  C   UNL     1      38.032  16.867 227.012  1.00  0.00    -0.000 C 
BRANCH  27  28
ATOM     28  C   UNL     1      38.429  18.353 227.011  1.00  0.00    -0.000 C 
BRANCH  28  29
ATOM     29  C   UNL     1      38.727  18.891 228.418  1.00  0.00    -0.003 C 
ATOM     30  C   UNL     1      39.245  20.325 228.361  1.00  0.00     0.004 C 
ENDBRANCH  28  29
ENDBRANCH  27  28
ENDBRANCH  26  27
ENDBRANCH  25  26
ENDBRANCH  24  25
ENDBRANCH  23  24
ENDBRANCH  22  23
ENDBRANCH  21  22
ENDBRANCH  20  21
ENDBRANCH  19  20
ENDBRANCH  18  19
ENDBRANCH  17  18
ENDBRANCH   1  17
TORSDOF 26
ENDMDL
MODEL 7
REMARK VINA RESULT:    -3.860      1.900      3.726
REMARK INTER + INTRA:         -13.866
REMARK INTER:                  -8.498
REMARK INTRA:                  -5.368
REMARK UNBOUND:                -4.138
REMARK SMILES CCCCCCCCCCCCCCCCCCCCCCCCCCCC(=O)[O-]
REMARK SMILES IDX 15 1 16 2 17 3 18 4 19 5 20 6 21 7 22 8 23 9 24 10 25 11
REMARK SMILES IDX 26 12 27 13 28 14 29 15 30 16 14 17 13 18 12 19 11 20 10 21
REMARK SMILES IDX 9 22 8 23 7 24 6 25 5 26 4 27 3 28 2 29 1 30
REMARK H PARENT
REMARK Flexibility Score: inf
ROOT
ATOM      1  C   UNL     1      39.405  22.128 222.514  1.00  0.00     0.000 C 
ENDROOT
BRANCH   1   2
ATOM      2  C   UNL     1      38.610  22.020 223.825  1.00  0.00     0.000 C 
BRANCH   2   3
ATOM      3  C   UNL     1      38.597  20.596 224.401  1.00  0.00     0.000 C 
BRANCH   3   4
ATOM      4  C   UNL     1      39.781  19.777 223.865  1.00  0.00     0.000 C 
BRANCH   4   5
ATOM      5  C   UNL     1      39.869  18.376 224.493  1.00  0.00     0.000 C 
BRANCH   5   6
ATOM      6  C   UNL     1      41.211  18.129 225.201  1.00  0.00     0.000 C 
BRANCH   6   7
ATOM      7  C   UNL     1      42.200  19.290 225.009  1.00  0.00     0.000 C 
BRANCH   7   8
ATOM      8  C   UNL     1      43.019  19.595 226.277  1.00  0.00     0.000 C 
BRANCH   8   9
ATOM      9  C   UNL     1      42.262  19.201 227.564  1.00  0.00     0.000 C 
BRANCH   9  10
ATOM     10  C   UNL     1      41.444  20.353 228.173  1.00  0.00     0.000 C 
BRANCH  10  11
ATOM     11  C   UNL     1      39.952  20.283 227.814  1.00  0.00     0.000 C 
BRANCH  11  12
ATOM     12  C   UNL     1      39.205  19.317 228.741  1.00  0.00     0.006 C 
BRANCH  12  13
ATOM     13  C   UNL     1      38.285  18.390 227.938  1.00  0.00     0.053 C 
BRANCH  13  14
ATOM     14  C   UNL     1      38.865  17.013 227.851  1.00  0.00     0.041 C 
ATOM     15  O   UNL     1      39.700  16.620 228.709  1.00  0.00    -0.550 OA
ATOM     16  O   UNL     1      38.478  16.158 226.825  1.00  0.00    -0.550 OA
ENDBRANCH  13  14
ENDBRANCH  12  13
ENDBRANCH  11  12
ENDBRANCH  10  11
ENDBRANCH   9  10
ENDBRANCH   8   9
ENDBRANCH   7   8
ENDBRANCH   6   7
ENDBRANCH   5   6
ENDBRANCH   4   5
ENDBRANCH   3   4
ENDBRANCH   2   3
ENDBRANCH   1   2
BRANCH   1  17
ATOM     17  C   UNL     1      40.593  23.109 222.550  1.00  0.00     0.000 C 
BRANCH  17  18
ATOM     18  C   UNL     1      41.899  22.493 223.096  1.00  0.00     0.000 C 
BRANCH  18  19
ATOM     19  C   UNL     1      42.433  23.237 224.333  1.00  0.00     0.000 C 
BRANCH  19  20
ATOM     20  C   UNL     1      41.575  22.970 225.589  1.00  0.00     0.000 C 
BRANCH  20  21
ATOM     21  C   UNL     1      41.205  24.249 226.356  1.00  0.00     0.000 C 
BRANCH  21  22
ATOM     22  C   UNL     1      39.908  24.894 225.843  1.00  0.00    -0.000 C 
BRANCH  22  23
ATOM     23  C   UNL     1      40.167  26.037 224.849  1.00  0.00    -0.000 C 
BRANCH  23  24
ATOM     24  C   UNL     1      38.914  26.409 224.041  1.00  0.00    -0.000 C 
BRANCH  24  25
ATOM     25  C   UNL     1      37.869  25.289 224.092  1.00  0.00    -0.000 C 
BRANCH  25  26
ATOM     26  C   UNL     1      36.819  25.469 222.984  1.00  0.00    -0.000 C 
BRANCH  26  27
ATOM     27  C   UNL     1      35.692  24.417 223.064  1.00  0.00    -0.000 C 
BRANCH  27  28
ATOM     28  C   UNL     1      35.638  23.476 221.849  1.00  0.00    -0.000 C 
BRANCH  28  29
ATOM     29  C   UNL     1      35.983  24.184 220.531  1.00  0.00    -0.003 C 
ATOM     30  C   UNL     1      36.952  23.352 219.696  1.00  0.00     0.004 C 
ENDBRANCH  28  29
ENDBRANCH  27  28
ENDBRANCH  26  27
ENDBRANCH  25  26
ENDBRANCH  24  25
ENDBRANCH  23  24
ENDBRANCH  22  23
ENDBRANCH  21  22
ENDBRANCH  20  21
ENDBRANCH  19  20
ENDBRANCH  18  19
ENDBRANCH  17  18
ENDBRANCH   1  17
TORSDOF 26
ENDMDL
MODEL 8
REMARK VINA RESULT:    -3.846      1.484      2.942
REMARK INTER + INTRA:         -13.831
REMARK INTER:                  -9.257
REMARK INTRA:                  -4.573
REMARK UNBOUND:                -4.138
REMARK SMILES CCCCCCCCCCCCCCCCCCCCCCCCCCCC(=O)[O-]
REMARK SMILES IDX 15 1 16 2 17 3 18 4 19 5 20 6 21 7 22 8 23 9 24 10 25 11
REMARK SMILES IDX 26 12 27 13 28 14 29 15 30 16 14 17 13 18 12 19 11 20 10 21
REMARK SMILES IDX 9 22 8 23 7 24 6 25 5 26 4 27 3 28 2 29 1 30
REMARK H PARENT
REMARK Flexibility Score: inf
ROOT
ATOM      1  C   UNL     1      44.130  18.675 223.330  1.00  0.00     0.000 C 
ENDROOT
BRANCH   1   2
ATOM      2  C   UNL     1      43.616  17.854 224.523  1.00  0.00     0.000 C 
BRANCH   2   3
ATOM      3  C   UNL     1      43.277  18.722 225.744  1.00  0.00     0.000 C 
BRANCH   3   4
ATOM      4  C   UNL     1      41.759  18.780 225.972  1.00  0.00     0.000 C 
BRANCH   4   5
ATOM      5  C   UNL     1      40.962  18.088 224.854  1.00  0.00     0.000 C 
BRANCH   5   6
ATOM      6  C   UNL     1      40.023  19.055 224.113  1.00  0.00     0.000 C 
BRANCH   6   7
ATOM      7  C   UNL     1      39.649  20.279 224.963  1.00  0.00     0.000 C 
BRANCH   7   8
ATOM      8  C   UNL     1      38.236  20.179 225.567  1.00  0.00     0.000 C 
BRANCH   8   9
ATOM      9  C   UNL     1      37.577  18.814 225.277  1.00  0.00     0.000 C 
BRANCH   9  10
ATOM     10  C   UNL     1      37.214  18.023 226.546  1.00  0.00     0.000 C 
BRANCH  10  11
ATOM     11  C   UNL     1      38.156  16.837 226.801  1.00  0.00     0.000 C 
BRANCH  11  12
ATOM     12  C   UNL     1      39.001  17.061 228.059  1.00  0.00     0.006 C 
BRANCH  12  13
ATOM     13  C   UNL     1      38.559  18.331 228.796  1.00  0.00     0.053 C 
BRANCH  13  14
ATOM     14  C   UNL     1      39.744  19.160 229.183  1.00  0.00     0.041 C 
ATOM     15  O   UNL     1      39.926  20.290 228.657  1.00  0.00    -0.550 OA
ATOM     16  O   UNL     1      40.644  18.687 230.132  1.00  0.00    -0.550 OA
ENDBRANCH  13  14
ENDBRANCH  12  13
ENDBRANCH  11  12
ENDBRANCH  10  11
ENDBRANCH   9  10
ENDBRANCH   8   9
ENDBRANCH   7   8
ENDBRANCH   6   7
ENDBRANCH   5   6
ENDBRANCH   4   5
ENDBRANCH   3   4
ENDBRANCH   2   3
ENDBRANCH   1   2
BRANCH   1  17
ATOM     17  C   UNL     1      44.323  20.179 223.607  1.00  0.00     0.000 C 
BRANCH  17  18
ATOM     18  C   UNL     1      43.245  21.079 222.964  1.00  0.00     0.000 C 
BRANCH  18  19
ATOM     19  C   UNL     1      42.515  20.388 221.799  1.00  0.00     0.000 C 
BRANCH  19  20
ATOM     20  C   UNL     1      41.307  21.210 221.298  1.00  0.00     0.000 C 
BRANCH  20  21
ATOM     21  C   UNL     1      40.838  22.276 222.302  1.00  0.00     0.000 C 
BRANCH  21  22
ATOM     22  C   UNL     1      39.633  23.081 221.791  1.00  0.00    -0.000 C 
BRANCH  22  23
ATOM     23  C   UNL     1      39.393  24.366 222.600  1.00  0.00    -0.000 C 
BRANCH  23  24
ATOM     24  C   UNL     1      39.008  24.080 224.059  1.00  0.00    -0.000 C 
BRANCH  24  25
ATOM     25  C   UNL     1      37.581  23.529 224.159  1.00  0.00    -0.000 C 
BRANCH  25  26
ATOM     26  C   UNL     1      36.559  24.671 224.269  1.00  0.00    -0.000 C 
BRANCH  26  27
ATOM     27  C   UNL     1      35.474  24.599 223.173  1.00  0.00    -0.000 C 
BRANCH  27  28
ATOM     28  C   UNL     1      35.764  23.550 222.086  1.00  0.00    -0.000 C 
BRANCH  28  29
ATOM     29  C   UNL     1      35.087  23.877 220.747  1.00  0.00    -0.003 C 
ATOM     30  C   UNL     1      36.101  23.897 219.607  1.00  0.00     0.004 C 
ENDBRANCH  28  29
ENDBRANCH  27  28
ENDBRANCH  26  27
ENDBRANCH  25  26
ENDBRANCH  24  25
ENDBRANCH  23  24
ENDBRANCH  22  23
ENDBRANCH  21  22
ENDBRANCH  20  21
ENDBRANCH  19  20
ENDBRANCH  18  19
ENDBRANCH  17  18
ENDBRANCH   1  17
TORSDOF 26
ENDMDL
MODEL 9
REMARK VINA RESULT:    -3.834      2.923      7.722
REMARK INTER + INTRA:         -13.799
REMARK INTER:                  -8.311
REMARK INTRA:                  -5.488
REMARK UNBOUND:                -4.138
REMARK SMILES CCCCCCCCCCCCCCCCCCCCCCCCCCCC(=O)[O-]
REMARK SMILES IDX 15 1 16 2 17 3 18 4 19 5 20 6 21 7 22 8 23 9 24 10 25 11
REMARK SMILES IDX 26 12 27 13 28 14 29 15 30 16 14 17 13 18 12 19 11 20 10 21
REMARK SMILES IDX 9 22 8 23 7 24 6 25 5 26 4 27 3 28 2 29 1 30
REMARK H PARENT
REMARK Flexibility Score: inf
ROOT
ATOM      1  C   UNL     1      41.633  20.721 222.821  1.00  0.00     0.000 C 
ENDROOT
BRANCH   1   2
ATOM      2  C   UNL     1      41.343  19.378 223.511  1.00  0.00     0.000 C 
BRANCH   2   3
ATOM      3  C   UNL     1      39.899  19.271 224.027  1.00  0.00     0.000 C 
BRANCH   3   4
ATOM      4  C   UNL     1      39.330  20.659 224.358  1.00  0.00     0.000 C 
BRANCH   4   5
ATOM      5  C   UNL     1      39.079  20.857 225.861  1.00  0.00     0.000 C 
BRANCH   5   6
ATOM      6  C   UNL     1      38.026  21.942 226.146  1.00  0.00     0.000 C 
BRANCH   6   7
ATOM      7  C   UNL     1      38.239  23.205 225.298  1.00  0.00     0.000 C 
BRANCH   7   8
ATOM      8  C   UNL     1      39.476  24.015 225.730  1.00  0.00     0.000 C 
BRANCH   8   9
ATOM      9  C   UNL     1      40.214  24.634 224.524  1.00  0.00     0.000 C 
BRANCH   9  10
ATOM     10  C   UNL     1      39.328  24.794 223.276  1.00  0.00     0.000 C 
BRANCH  10  11
ATOM     11  C   UNL     1      39.885  24.056 222.049  1.00  0.00     0.000 C 
BRANCH  11  12
ATOM     12  C   UNL     1      38.909  22.980 221.561  1.00  0.00     0.006 C 
BRANCH  12  13
ATOM     13  C   UNL     1      37.683  23.613 220.893  1.00  0.00     0.053 C 
BRANCH  13  14
ATOM     14  C   UNL     1      36.426  23.197 221.589  1.00  0.00     0.041 C 
ATOM     15  O   UNL     1      36.458  22.303 222.477  1.00  0.00    -0.550 OA
ATOM     16  O   UNL     1      35.216  23.802 221.263  1.00  0.00    -0.550 OA
ENDBRANCH  13  14
ENDBRANCH  12  13
ENDBRANCH  11  12
ENDBRANCH  10  11
ENDBRANCH   9  10
ENDBRANCH   8   9
ENDBRANCH   7   8
ENDBRANCH   6   7
ENDBRANCH   5   6
ENDBRANCH   4   5
ENDBRANCH   3   4
ENDBRANCH   2   3
ENDBRANCH   1   2
BRANCH   1  17
ATOM     17  C   UNL     1      43.017  21.326 223.128  1.00  0.00     0.000 C 
BRANCH  17  18
ATOM     18  C   UNL     1      42.975  22.531 224.092  1.00  0.00     0.000 C 
BRANCH  18  19
ATOM     19  C   UNL     1      43.715  22.257 225.414  1.00  0.00     0.000 C 
BRANCH  19  20
ATOM     20  C   UNL     1      42.792  22.418 226.642  1.00  0.00     0.000 C 
BRANCH  20  21
ATOM     21  C   UNL     1      42.363  21.078 227.262  1.00  0.00     0.000 C 
BRANCH  21  22
ATOM     22  C   UNL     1      43.195  19.893 226.747  1.00  0.00    -0.000 C 
BRANCH  22  23
ATOM     23  C   UNL     1      42.423  18.565 226.787  1.00  0.00    -0.000 C 
BRANCH  23  24
ATOM     24  C   UNL     1      41.199  18.624 227.713  1.00  0.00    -0.000 C 
BRANCH  24  25
ATOM     25  C   UNL     1      40.813  17.227 228.211  1.00  0.00    -0.000 C 
BRANCH  25  26
ATOM     26  C   UNL     1      39.443  17.252 228.907  1.00  0.00    -0.000 C 
BRANCH  26  27
ATOM     27  C   UNL     1      38.368  17.972 228.064  1.00  0.00    -0.000 C 
BRANCH  27  28
ATOM     28  C   UNL     1      37.899  17.165 226.842  1.00  0.00    -0.000 C 
BRANCH  28  29
ATOM     29  C   UNL     1      36.499  17.572 226.360  1.00  0.00    -0.003 C 
ATOM     30  C   UNL     1      36.539  18.097 224.928  1.00  0.00     0.004 C 
ENDBRANCH  28  29
ENDBRANCH  27  28
ENDBRANCH  26  27
ENDBRANCH  25  26
ENDBRANCH  24  25
ENDBRANCH  23  24
ENDBRANCH  22  23
ENDBRANCH  21  22
ENDBRANCH  20  21
ENDBRANCH  19  20
ENDBRANCH  18  19
ENDBRANCH  17  18
ENDBRANCH   1  17
TORSDOF 26
ENDMDL
