MODEL 1
REMARK VINA RESULT:    -2.037      0.000      0.000
REMARK INTER + INTRA:          -4.896
REMARK INTER:                  -3.943
REMARK INTRA:                  -0.953
REMARK UNBOUND:                -0.953
REMARK SMILES CCCCCCCCCCCCCCCCCC(=O)[O-]
REMARK SMILES IDX 10 1 11 2 12 3 13 4 14 5 15 6 16 7 17 8 18 9 19 10 20 11
REMARK SMILES IDX 9 12 8 13 7 14 6 15 5 16 4 17 3 18 2 19 1 20
REMARK H PARENT
REMARK Flexibility Score: inf
ROOT
ATOM      1  C   UNL     1       2.373 -14.125 -18.737  1.00  0.00     0.000 C 
ENDROOT
BRANCH   1   2
ATOM      2  C   UNL     1       2.367 -12.592 -18.926  1.00  0.00     0.000 C 
BRANCH   2   3
ATOM      3  C   UNL     1       3.787 -12.007 -19.017  1.00  0.00     0.000 C 
BRANCH   3   4
ATOM      4  C   UNL     1       3.849 -10.539 -18.570  1.00  0.00     0.000 C 
BRANCH   4   5
ATOM      5  C   UNL     1       2.483 -10.003 -18.106  1.00  0.00     0.000 C 
BRANCH   5   6
ATOM      6  C   UNL     1       2.601  -8.747 -17.227  1.00  0.00     0.000 C 
BRANCH   6   7
ATOM      7  C   UNL     1       3.121  -8.996 -15.797  1.00  0.00     0.006 C 
BRANCH   7   8
ATOM      8  C   UNL     1       3.490  -7.713 -15.030  1.00  0.00     0.053 C 
BRANCH   8   9
ATOM      9  C   UNL     1       3.588  -7.938 -13.550  1.00  0.00     0.041 C 
ATOM     10  O   UNL     1       3.741  -6.962 -12.770  1.00  0.00    -0.550 OA
ATOM     11  O   UNL     1       3.551  -9.228 -13.036  1.00  0.00    -0.550 OA
ENDBRANCH   8   9
ENDBRANCH   7   8
ENDBRANCH   6   7
ENDBRANCH   5   6
ENDBRANCH   4   5
ENDBRANCH   3   4
ENDBRANCH   2   3
ENDBRANCH   1   2
BRANCH   1  12
ATOM     12  C   UNL     1       1.211 -14.642 -17.867  1.00  0.00     0.000 C 
BRANCH  12  13
ATOM     13  C   UNL     1       0.441 -15.834 -18.463  1.00  0.00    -0.000 C 
BRANCH  13  14
ATOM     14  C   UNL     1      -1.095 -15.686 -18.464  1.00  0.00    -0.000 C 
BRANCH  14  15
ATOM     15  C   UNL     1      -1.812 -16.295 -19.682  1.00  0.00    -0.000 C 
BRANCH  15  16
ATOM     16  C   UNL     1      -1.409 -17.753 -19.947  1.00  0.00    -0.000 C 
BRANCH  16  17
ATOM     17  C   UNL     1      -1.698 -18.633 -18.725  1.00  0.00    -0.000 C 
BRANCH  17  18
ATOM     18  C   UNL     1      -0.740 -19.829 -18.667  1.00  0.00    -0.000 C 
BRANCH  18  19
ATOM     19  C   UNL     1      -0.084 -19.942 -17.287  1.00  0.00    -0.003 C 
ATOM     20  C   UNL     1       1.325 -19.356 -17.296  1.00  0.00     0.004 C 
ENDBRANCH  18  19
ENDBRANCH  17  18
ENDBRANCH  16  17
ENDBRANCH  15  16
ENDBRANCH  14  15
ENDBRANCH  13  14
ENDBRANCH  12  13
ENDBRANCH   1  12
TORSDOF 16
ENDMDL
MODEL 2
REMARK VINA RESULT:    -1.950      4.444      9.544
REMARK INTER + INTRA:          -4.727
REMARK INTER:                  -3.905
REMARK INTRA:                  -0.822
REMARK UNBOUND:                -0.953
REMARK SMILES CCCCCCCCCCCCCCCCCC(=O)[O-]
REMARK SMILES IDX 10 1 11 2 12 3 13 4 14 5 15 6 16 7 17 8 18 9 19 10 20 11
REMARK SMILES IDX 9 12 8 13 7 14 6 15 5 16 4 17 3 18 2 19 1 20
REMARK H PARENT
REMARK Flexibility Score: inf
ROOT
ATOM      1  C   UNL     1       0.805 -15.551 -18.664  1.00  0.00     0.000 C 
ENDROOT
BRANCH   1   2
ATOM      2  C   UNL     1      -0.658 -15.465 -18.175  1.00  0.00     0.000 C 
BRANCH   2   3
ATOM      3  C   UNL     1      -1.663 -15.413 -19.339  1.00  0.00     0.000 C 
BRANCH   3   4
ATOM      4  C   UNL     1      -1.832 -16.773 -20.032  1.00  0.00     0.000 C 
BRANCH   4   5
ATOM      5  C   UNL     1      -1.540 -17.957 -19.094  1.00  0.00     0.000 C 
BRANCH   5   6
ATOM      6  C   UNL     1      -1.050 -19.207 -19.844  1.00  0.00     0.000 C 
BRANCH   6   7
ATOM      7  C   UNL     1       0.125 -19.951 -19.178  1.00  0.00     0.006 C 
BRANCH   7   8
ATOM      8  C   UNL     1       0.888 -19.113 -18.135  1.00  0.00     0.053 C 
BRANCH   8   9
ATOM      9  C   UNL     1       0.917 -19.767 -16.786  1.00  0.00     0.041 C 
ATOM     10  O   UNL     1       2.017 -20.030 -16.232  1.00  0.00    -0.550 OA
ATOM     11  O   UNL     1      -0.269 -20.125 -16.157  1.00  0.00    -0.550 OA
ENDBRANCH   8   9
ENDBRANCH   7   8
ENDBRANCH   6   7
ENDBRANCH   5   6
ENDBRANCH   4   5
ENDBRANCH   3   4
ENDBRANCH   2   3
ENDBRANCH   1   2
BRANCH   1  12
ATOM     12  C   UNL     1       1.717 -14.461 -18.071  1.00  0.00     0.000 C 
BRANCH  12  13
ATOM     13  C   UNL     1       1.830 -13.181 -18.919  1.00  0.00    -0.000 C 
BRANCH  13  14
ATOM     14  C   UNL     1       3.088 -12.328 -18.650  1.00  0.00    -0.000 C 
BRANCH  14  15
ATOM     15  C   UNL     1       2.826 -10.829 -18.423  1.00  0.00    -0.000 C 
BRANCH  15  16
ATOM     16  C   UNL     1       3.855  -9.928 -19.121  1.00  0.00    -0.000 C 
BRANCH  16  17
ATOM     17  C   UNL     1       4.640 -10.711 -20.181  1.00  0.00    -0.000 C 
BRANCH  17  18
ATOM     18  C   UNL     1       6.059 -11.029 -19.694  1.00  0.00    -0.000 C 
BRANCH  18  19
ATOM     19  C   UNL     1       7.091 -10.754 -20.793  1.00  0.00    -0.003 C 
ATOM     20  C   UNL     1       8.372 -10.163 -20.210  1.00  0.00     0.004 C 
ENDBRANCH  18  19
ENDBRANCH  17  18
ENDBRANCH  16  17
ENDBRANCH  15  16
ENDBRANCH  14  15
ENDBRANCH  13  14
ENDBRANCH  12  13
ENDBRANCH   1  12
TORSDOF 16
ENDMDL
MODEL 3
REMARK VINA RESULT:    -1.792      4.020      9.723
REMARK INTER + INTRA:          -4.421
REMARK INTER:                  -3.699
REMARK INTRA:                  -0.721
REMARK UNBOUND:                -0.953
REMARK SMILES CCCCCCCCCCCCCCCCCC(=O)[O-]
REMARK SMILES IDX 10 1 11 2 12 3 13 4 14 5 15 6 16 7 17 8 18 9 19 10 20 11
REMARK SMILES IDX 9 12 8 13 7 14 6 15 5 16 4 17 3 18 2 19 1 20
REMARK H PARENT
REMARK Flexibility Score: inf
ROOT
ATOM      1  C   UNL     1       2.353 -14.195 -18.586  1.00  0.00     0.000 C 
ENDROOT
BRANCH   1   2
ATOM      2  C   UNL     1       1.117 -14.567 -17.739  1.00  0.00     0.000 C 
BRANCH   2   3
ATOM      3  C   UNL     1       0.447 -15.867 -18.217  1.00  0.00     0.000 C 
BRANCH   3   4
ATOM      4  C   UNL     1      -0.914 -15.618 -18.883  1.00  0.00     0.000 C 
BRANCH   4   5
ATOM      5  C   UNL     1      -1.453 -16.860 -19.613  1.00  0.00     0.000 C 
BRANCH   5   6
ATOM      6  C   UNL     1      -1.664 -18.060 -18.674  1.00  0.00     0.000 C 
BRANCH   6   7
ATOM      7  C   UNL     1      -0.830 -19.311 -19.014  1.00  0.00     0.006 C 
BRANCH   7   8
ATOM      8  C   UNL     1       0.582 -19.310 -18.400  1.00  0.00     0.053 C 
BRANCH   8   9
ATOM      9  C   UNL     1       0.599 -19.854 -17.002  1.00  0.00     0.041 C 
ATOM     10  O   UNL     1      -0.481 -20.124 -16.413  1.00  0.00    -0.550 OA
ATOM     11  O   UNL     1       1.805 -20.026 -16.334  1.00  0.00    -0.550 OA
ENDBRANCH   8   9
ENDBRANCH   7   8
ENDBRANCH   6   7
ENDBRANCH   5   6
ENDBRANCH   4   5
ENDBRANCH   3   4
ENDBRANCH   2   3
ENDBRANCH   1   2
BRANCH   1  12
ATOM     12  C   UNL     1       2.400 -12.709 -18.987  1.00  0.00     0.000 C 
BRANCH  12  13
ATOM     13  C   UNL     1       3.771 -12.034 -18.802  1.00  0.00    -0.000 C 
BRANCH  13  14
ATOM     14  C   UNL     1       3.726 -10.503 -18.611  1.00  0.00    -0.000 C 
BRANCH  14  15
ATOM     15  C   UNL     1       2.316  -9.888 -18.580  1.00  0.00    -0.000 C 
BRANCH  15  16
ATOM     16  C   UNL     1       2.081  -8.991 -17.356  1.00  0.00    -0.000 C 
BRANCH  16  17
ATOM     17  C   UNL     1       3.230  -9.124 -16.349  1.00  0.00    -0.000 C 
BRANCH  17  18
ATOM     18  C   UNL     1       3.180  -8.002 -15.304  1.00  0.00    -0.000 C 
BRANCH  18  19
ATOM     19  C   UNL     1       3.760  -8.471 -13.966  1.00  0.00    -0.003 C 
ATOM     20  C   UNL     1       4.023  -7.291 -13.035  1.00  0.00     0.004 C 
ENDBRANCH  18  19
ENDBRANCH  17  18
ENDBRANCH  16  17
ENDBRANCH  15  16
ENDBRANCH  14  15
ENDBRANCH  13  14
ENDBRANCH  12  13
ENDBRANCH   1  12
TORSDOF 16
ENDMDL
MODEL 4
REMARK VINA RESULT:    -1.637      0.822      1.566
REMARK INTER + INTRA:          -4.121
REMARK INTER:                  -3.417
REMARK INTRA:                  -0.704
REMARK UNBOUND:                -0.953
REMARK SMILES CCCCCCCCCCCCCCCCCC(=O)[O-]
REMARK SMILES IDX 10 1 11 2 12 3 13 4 14 5 15 6 16 7 17 8 18 9 19 10 20 11
REMARK SMILES IDX 9 12 8 13 7 14 6 15 5 16 4 17 3 18 2 19 1 20
REMARK H PARENT
REMARK Flexibility Score: inf
ROOT
ATOM      1  C   UNL     1       2.370 -12.504 -18.989  1.00  0.00     0.000 C 
ENDROOT
BRANCH   1   2
ATOM      2  C   UNL     1       3.782 -11.885 -19.077  1.00  0.00     0.000 C 
BRANCH   2   3
ATOM      3  C   UNL     1       3.805 -10.410 -18.638  1.00  0.00     0.000 C 
BRANCH   3   4
ATOM      4  C   UNL     1       2.577 -10.027 -17.799  1.00  0.00     0.000 C 
BRANCH   4   5
ATOM      5  C   UNL     1       2.720  -8.647 -17.135  1.00  0.00     0.000 C 
BRANCH   5   6
ATOM      6  C   UNL     1       3.177  -8.734 -15.669  1.00  0.00     0.000 C 
BRANCH   6   7
ATOM      7  C   UNL     1       3.242  -7.386 -14.924  1.00  0.00     0.006 C 
BRANCH   7   8
ATOM      8  C   UNL     1       3.738  -7.496 -13.470  1.00  0.00     0.053 C 
BRANCH   8   9
ATOM      9  C   UNL     1       3.909  -8.919 -13.029  1.00  0.00     0.041 C 
ATOM     10  O   UNL     1       5.048  -9.455 -13.042  1.00  0.00    -0.550 OA
ATOM     11  O   UNL     1       2.804  -9.668 -12.642  1.00  0.00    -0.550 OA
ENDBRANCH   8   9
ENDBRANCH   7   8
ENDBRANCH   6   7
ENDBRANCH   5   6
ENDBRANCH   4   5
ENDBRANCH   3   4
ENDBRANCH   2   3
ENDBRANCH   1   2
BRANCH   1  12
ATOM     12  C   UNL     1       2.376 -14.005 -18.645  1.00  0.00     0.000 C 
BRANCH  12  13
ATOM     13  C   UNL     1       1.160 -14.486 -17.832  1.00  0.00    -0.000 C 
BRANCH  13  14
ATOM     14  C   UNL     1       0.482 -15.766 -18.364  1.00  0.00    -0.000 C 
BRANCH  14  15
ATOM     15  C   UNL     1      -1.047 -15.684 -18.514  1.00  0.00    -0.000 C 
BRANCH  15  16
ATOM     16  C   UNL     1      -1.608 -16.718 -19.501  1.00  0.00    -0.000 C 
BRANCH  16  17
ATOM     17  C   UNL     1      -0.732 -17.976 -19.535  1.00  0.00    -0.000 C 
BRANCH  17  18
ATOM     18  C   UNL     1      -1.474 -19.180 -18.941  1.00  0.00    -0.000 C 
BRANCH  18  19
ATOM     19  C   UNL     1      -1.069 -19.410 -17.481  1.00  0.00    -0.003 C 
ATOM     20  C   UNL     1       0.355 -19.950 -17.383  1.00  0.00     0.004 C 
ENDBRANCH  18  19
ENDBRANCH  17  18
ENDBRANCH  16  17
ENDBRANCH  15  16
ENDBRANCH  14  15
ENDBRANCH  13  14
ENDBRANCH  12  13
ENDBRANCH   1  12
TORSDOF 16
ENDMDL
MODEL 5
REMARK VINA RESULT:    -1.236      4.157      9.463
REMARK INTER + INTRA:          -3.344
REMARK INTER:                  -2.575
REMARK INTRA:                  -0.769
REMARK UNBOUND:                -0.953
REMARK SMILES CCCCCCCCCCCCCCCCCC(=O)[O-]
REMARK SMILES IDX 10 1 11 2 12 3 13 4 14 5 15 6 16 7 17 8 18 9 19 10 20 11
REMARK SMILES IDX 9 12 8 13 7 14 6 15 5 16 4 17 3 18 2 19 1 20
REMARK H PARENT
REMARK Flexibility Score: inf
ROOT
ATOM      1  C   UNL     1      -0.051 -15.684 -18.627  1.00  0.00     0.000 C 
ENDROOT
BRANCH   1   2
ATOM      2  C   UNL     1      -1.414 -15.368 -19.281  1.00  0.00     0.000 C 
BRANCH   2   3
ATOM      3  C   UNL     1      -1.989 -16.570 -20.050  1.00  0.00     0.000 C 
BRANCH   3   4
ATOM      4  C   UNL     1      -1.834 -17.890 -19.279  1.00  0.00     0.000 C 
BRANCH   4   5
ATOM      5  C   UNL     1      -1.205 -19.004 -20.133  1.00  0.00     0.000 C 
BRANCH   5   6
ATOM      6  C   UNL     1       0.136 -19.503 -19.570  1.00  0.00     0.000 C 
BRANCH   6   7
ATOM      7  C   UNL     1       0.564 -18.863 -18.234  1.00  0.00     0.006 C 
BRANCH   7   8
ATOM      8  C   UNL     1       0.859 -19.880 -17.117  1.00  0.00     0.053 C 
BRANCH   8   9
ATOM      9  C   UNL     1      -0.279 -20.014 -16.149  1.00  0.00     0.041 C 
ATOM     10  O   UNL     1      -0.053 -20.125 -14.915  1.00  0.00    -0.550 OA
ATOM     11  O   UNL     1      -1.588 -20.060 -16.613  1.00  0.00    -0.550 OA
ENDBRANCH   8   9
ENDBRANCH   7   8
ENDBRANCH   6   7
ENDBRANCH   5   6
ENDBRANCH   4   5
ENDBRANCH   3   4
ENDBRANCH   2   3
ENDBRANCH   1   2
BRANCH   1  12
ATOM     12  C   UNL     1       0.564 -14.488 -17.877  1.00  0.00     0.000 C 
BRANCH  12  13
ATOM     13  C   UNL     1       2.050 -14.227 -18.185  1.00  0.00    -0.000 C 
BRANCH  13  14
ATOM     14  C   UNL     1       2.356 -12.852 -18.814  1.00  0.00    -0.000 C 
BRANCH  14  15
ATOM     15  C   UNL     1       3.778 -12.693 -19.381  1.00  0.00    -0.000 C 
BRANCH  15  16
ATOM     16  C   UNL     1       4.241 -11.230 -19.435  1.00  0.00    -0.000 C 
BRANCH  16  17
ATOM     17  C   UNL     1       3.945 -10.511 -18.112  1.00  0.00    -0.000 C 
BRANCH  17  18
ATOM     18  C   UNL     1       2.709  -9.613 -18.238  1.00  0.00    -0.000 C 
BRANCH  18  19
ATOM     19  C   UNL     1       2.161  -9.236 -16.858  1.00  0.00    -0.003 C 
ATOM     20  C   UNL     1       3.094  -8.265 -16.140  1.00  0.00     0.004 C 
ENDBRANCH  18  19
ENDBRANCH  17  18
ENDBRANCH  16  17
ENDBRANCH  15  16
ENDBRANCH  14  15
ENDBRANCH  13  14
ENDBRANCH  12  13
ENDBRANCH   1  12
TORSDOF 16
ENDMDL
MODEL 6
REMARK VINA RESULT:    -1.154      4.070      9.911
REMARK INTER + INTRA:          -3.186
REMARK INTER:                  -2.385
REMARK INTRA:                  -0.801
REMARK UNBOUND:                -0.953
REMARK SMILES CCCCCCCCCCCCCCCCCC(=O)[O-]
REMARK SMILES IDX 10 1 11 2 12 3 13 4 14 5 15 6 16 7 17 8 18 9 19 10 20 11
REMARK SMILES IDX 9 12 8 13 7 14 6 15 5 16 4 17 3 18 2 19 1 20
REMARK H PARENT
REMARK Flexibility Score: inf
ROOT
ATOM      1  C   UNL     1       3.885 -12.310 -18.772  1.00  0.00     0.000 C 
ENDROOT
BRANCH   1   2
ATOM      2  C   UNL     1       2.464 -12.855 -19.036  1.00  0.00     0.000 C 
BRANCH   2   3
ATOM      3  C   UNL     1       2.037 -13.907 -17.999  1.00  0.00     0.000 C 
BRANCH   3   4
ATOM      4  C   UNL     1       1.380 -15.136 -18.644  1.00  0.00     0.000 C 
BRANCH   4   5
ATOM      5  C   UNL     1       0.124 -15.603 -17.887  1.00  0.00     0.000 C 
BRANCH   5   6
ATOM      6  C   UNL     1      -1.125 -15.661 -18.781  1.00  0.00     0.000 C 
BRANCH   6   7
ATOM      7  C   UNL     1      -1.302 -16.972 -19.573  1.00  0.00     0.006 C 
BRANCH   7   8
ATOM      8  C   UNL     1      -1.269 -18.242 -18.701  1.00  0.00     0.053 C 
BRANCH   8   9
ATOM      9  C   UNL     1      -0.042 -19.070 -18.942  1.00  0.00     0.041 C 
ATOM     10  O   UNL     1       0.884 -19.096 -18.089  1.00  0.00    -0.550 OA
ATOM     11  O   UNL     1       0.099 -19.781 -20.128  1.00  0.00    -0.550 OA
ENDBRANCH   8   9
ENDBRANCH   7   8
ENDBRANCH   6   7
ENDBRANCH   5   6
ENDBRANCH   4   5
ENDBRANCH   3   4
ENDBRANCH   2   3
ENDBRANCH   1   2
BRANCH   1  12
ATOM     12  C   UNL     1       4.194 -11.003 -19.527  1.00  0.00     0.000 C 
BRANCH  12  13
ATOM     13  C   UNL     1       3.509  -9.749 -18.955  1.00  0.00    -0.000 C 
BRANCH  13  14
ATOM     14  C   UNL     1       3.125  -9.837 -17.462  1.00  0.00    -0.000 C 
BRANCH  14  15
ATOM     15  C   UNL     1       2.383  -8.610 -16.904  1.00  0.00    -0.000 C 
BRANCH  15  16
ATOM     16  C   UNL     1       3.157  -7.901 -15.783  1.00  0.00    -0.000 C 
BRANCH  16  17
ATOM     17  C   UNL     1       3.733  -8.915 -14.787  1.00  0.00    -0.000 C 
BRANCH  17  18
ATOM     18  C   UNL     1       3.567  -8.424 -13.343  1.00  0.00    -0.000 C 
BRANCH  18  19
ATOM     19  C   UNL     1       3.633  -6.895 -13.271  1.00  0.00    -0.003 C 
ATOM     20  C   UNL     1       2.450  -6.328 -12.492  1.00  0.00     0.004 C 
ENDBRANCH  18  19
ENDBRANCH  17  18
ENDBRANCH  16  17
ENDBRANCH  15  16
ENDBRANCH  14  15
ENDBRANCH  13  14
ENDBRANCH  12  13
ENDBRANCH   1  12
TORSDOF 16
ENDMDL
MODEL 7
REMARK VINA RESULT:    -0.655      1.171      2.238
REMARK INTER + INTRA:          -2.220
REMARK INTER:                  -1.243
REMARK INTRA:                  -0.977
REMARK UNBOUND:                -0.953
REMARK SMILES CCCCCCCCCCCCCCCCCC(=O)[O-]
REMARK SMILES IDX 10 1 11 2 12 3 13 4 14 5 15 6 16 7 17 8 18 9 19 10 20 11
REMARK SMILES IDX 9 12 8 13 7 14 6 15 5 16 4 17 3 18 2 19 1 20
REMARK H PARENT
REMARK Flexibility Score: inf
ROOT
ATOM      1  C   UNL     1       0.455 -16.015 -18.408  1.00  0.00     0.000 C 
ENDROOT
BRANCH   1   2
ATOM      2  C   UNL     1       1.728 -15.239 -18.006  1.00  0.00     0.000 C 
BRANCH   2   3
ATOM      3  C   UNL     1       1.848 -13.890 -18.738  1.00  0.00     0.000 C 
BRANCH   3   4
ATOM      4  C   UNL     1       3.046 -13.061 -18.250  1.00  0.00     0.000 C 
BRANCH   4   5
ATOM      5  C   UNL     1       3.339 -11.854 -19.157  1.00  0.00     0.000 C 
BRANCH   5   6
ATOM      6  C   UNL     1       2.474 -10.628 -18.819  1.00  0.00     0.000 C 
BRANCH   6   7
ATOM      7  C   UNL     1       3.143  -9.590 -17.896  1.00  0.00     0.006 C 
BRANCH   7   8
ATOM      8  C   UNL     1       2.258  -9.130 -16.723  1.00  0.00     0.053 C 
BRANCH   8   9
ATOM      9  C   UNL     1       2.988  -8.227 -15.774  1.00  0.00     0.041 C 
ATOM     10  O   UNL     1       2.939  -6.978 -15.922  1.00  0.00    -0.550 OA
ATOM     11  O   UNL     1       3.757  -8.766 -14.750  1.00  0.00    -0.550 OA
ENDBRANCH   8   9
ENDBRANCH   7   8
ENDBRANCH   6   7
ENDBRANCH   5   6
ENDBRANCH   4   5
ENDBRANCH   3   4
ENDBRANCH   2   3
ENDBRANCH   1   2
BRANCH   1  12
ATOM     12  C   UNL     1      -0.844 -15.208 -18.222  1.00  0.00     0.000 C 
BRANCH  12  13
ATOM     13  C   UNL     1      -1.915 -15.451 -19.300  1.00  0.00    -0.000 C 
BRANCH  13  14
ATOM     14  C   UNL     1      -1.677 -16.688 -20.192  1.00  0.00    -0.000 C 
BRANCH  14  15
ATOM     15  C   UNL     1      -2.037 -18.039 -19.550  1.00  0.00    -0.000 C 
BRANCH  15  16
ATOM     16  C   UNL     1      -1.697 -19.238 -20.447  1.00  0.00    -0.000 C 
BRANCH  16  17
ATOM     17  C   UNL     1      -0.613 -20.114 -19.807  1.00  0.00    -0.000 C 
BRANCH  17  18
ATOM     18  C   UNL     1      -0.479 -19.817 -18.308  1.00  0.00    -0.000 C 
BRANCH  18  19
ATOM     19  C   UNL     1       0.944 -19.367 -17.962  1.00  0.00    -0.003 C 
ATOM     20  C   UNL     1       1.306 -19.738 -16.527  1.00  0.00     0.004 C 
ENDBRANCH  18  19
ENDBRANCH  17  18
ENDBRANCH  16  17
ENDBRANCH  15  16
ENDBRANCH  14  15
ENDBRANCH  13  14
ENDBRANCH  12  13
ENDBRANCH   1  12
TORSDOF 16
ENDMDL
