MODEL 1
REMARK VINA RESULT:    -3.218      0.000      0.000
REMARK INTER + INTRA:          -7.480
REMARK INTER:                  -5.476
REMARK INTRA:                  -2.004
REMARK UNBOUND:                -2.004
REMARK SMILES CCCCCCCCCCCCCC(=O)[O-]
REMARK SMILES IDX 8 1 9 2 10 3 11 4 12 5 13 6 14 7 15 8 16 9 7 10 6 11 5 12
REMARK SMILES IDX 4 13 3 14 2 15 1 16
REMARK H PARENT
REMARK Flexibility Score: inf
ROOT
ATOM      1  C   UNL     1     -95.221 147.805 238.731  1.00  0.00     0.000 C 
ENDROOT
BRANCH   1   2
ATOM      2  C   UNL     1     -96.503 148.518 239.192  1.00  0.00     0.000 C 
BRANCH   2   3
ATOM      3  C   UNL     1     -96.467 150.032 238.918  1.00  0.00     0.000 C 
BRANCH   3   4
ATOM      4  C   UNL     1     -97.869 150.665 238.916  1.00  0.00     0.000 C 
BRANCH   4   5
ATOM      5  C   UNL     1     -98.966 149.678 239.347  1.00  0.00     0.006 C 
BRANCH   5   6
ATOM      6  C   UNL     1     -99.773 150.196 240.545  1.00  0.00     0.053 C 
BRANCH   6   7
ATOM      7  C   UNL     1     -99.001 150.085 241.825  1.00  0.00     0.041 C 
ATOM      8  O   UNL     1     -99.043 151.015 242.673  1.00  0.00    -0.550 OA
ATOM      9  O   UNL     1     -98.261 148.941 242.092  1.00  0.00    -0.550 OA
ENDBRANCH   6   7
ENDBRANCH   5   6
ENDBRANCH   4   5
ENDBRANCH   3   4
ENDBRANCH   2   3
ENDBRANCH   1   2
BRANCH   1  10
ATOM     10  C   UNL     1     -94.297 148.715 237.909  1.00  0.00     0.000 C 
BRANCH  10  11
ATOM     11  C   UNL     1     -93.723 147.963 236.699  1.00  0.00    -0.000 C 
BRANCH  11  12
ATOM     12  C   UNL     1     -94.660 147.988 235.478  1.00  0.00    -0.000 C 
BRANCH  12  13
ATOM     13  C   UNL     1     -95.366 149.335 235.223  1.00  0.00    -0.000 C 
BRANCH  13  14
ATOM     14  C   UNL     1     -96.903 149.273 235.210  1.00  0.00    -0.000 C 
BRANCH  14  15
ATOM     15  C   UNL     1     -97.449 147.918 235.685  1.00  0.00    -0.003 C 
ATOM     16  C   UNL     1     -98.933 148.015 236.031  1.00  0.00     0.004 C 
ENDBRANCH  14  15
ENDBRANCH  13  14
ENDBRANCH  12  13
ENDBRANCH  11  12
ENDBRANCH  10  11
ENDBRANCH   1  10
TORSDOF 12
ENDMDL
MODEL 2
REMARK VINA RESULT:    -3.170      2.535      3.873
REMARK INTER + INTRA:          -7.398
REMARK INTER:                  -6.364
REMARK INTRA:                  -1.034
REMARK UNBOUND:                -2.004
REMARK SMILES CCCCCCCCCCCCCC(=O)[O-]
REMARK SMILES IDX 8 1 9 2 10 3 11 4 12 5 13 6 14 7 15 8 16 9 7 10 6 11 5 12
REMARK SMILES IDX 4 13 3 14 2 15 1 16
REMARK H PARENT
REMARK Flexibility Score: inf
ROOT
ATOM      1  C   UNL     1     -94.527 148.134 235.591  1.00  0.00     0.000 C 
ENDROOT
BRANCH   1   2
ATOM      2  C   UNL     1     -93.771 147.981 236.922  1.00  0.00     0.000 C 
BRANCH   2   3
ATOM      3  C   UNL     1     -94.454 148.733 238.078  1.00  0.00     0.000 C 
BRANCH   3   4
ATOM      4  C   UNL     1     -95.327 147.813 238.947  1.00  0.00     0.000 C 
BRANCH   4   5
ATOM      5  C   UNL     1     -96.658 148.466 239.351  1.00  0.00     0.006 C 
BRANCH   5   6
ATOM      6  C   UNL     1     -96.700 149.960 239.000  1.00  0.00     0.053 C 
BRANCH   6   7
ATOM      7  C   UNL     1     -98.059 150.548 239.235  1.00  0.00     0.041 C 
ATOM      8  O   UNL     1     -98.556 150.553 240.392  1.00  0.00    -0.550 OA
ATOM      9  O   UNL     1     -98.761 151.115 238.180  1.00  0.00    -0.550 OA
ENDBRANCH   6   7
ENDBRANCH   5   6
ENDBRANCH   4   5
ENDBRANCH   3   4
ENDBRANCH   2   3
ENDBRANCH   1   2
BRANCH   1  10
ATOM     10  C   UNL     1     -95.221 149.498 235.455  1.00  0.00     0.000 C 
BRANCH  10  11
ATOM     11  C   UNL     1     -96.636 149.337 234.878  1.00  0.00    -0.000 C 
BRANCH  11  12
ATOM     12  C   UNL     1     -96.919 150.298 233.710  1.00  0.00    -0.000 C 
BRANCH  12  13
ATOM     13  C   UNL     1     -95.676 150.993 233.119  1.00  0.00    -0.000 C 
BRANCH  13  14
ATOM     14  C   UNL     1     -95.959 152.302 232.361  1.00  0.00    -0.000 C 
BRANCH  14  15
ATOM     15  C   UNL     1     -97.351 152.877 232.664  1.00  0.00    -0.003 C 
ATOM     16  C   UNL     1     -97.246 154.260 233.303  1.00  0.00     0.004 C 
ENDBRANCH  14  15
ENDBRANCH  13  14
ENDBRANCH  12  13
ENDBRANCH  11  12
ENDBRANCH  10  11
ENDBRANCH   1  10
TORSDOF 12
ENDMDL
MODEL 3
REMARK VINA RESULT:    -3.107      1.131      1.906
REMARK INTER + INTRA:          -7.291
REMARK INTER:                  -5.834
REMARK INTRA:                  -1.457
REMARK UNBOUND:                -2.004
REMARK SMILES CCCCCCCCCCCCCC(=O)[O-]
REMARK SMILES IDX 8 1 9 2 10 3 11 4 12 5 13 6 14 7 15 8 16 9 7 10 6 11 5 12
REMARK SMILES IDX 4 13 3 14 2 15 1 16
REMARK H PARENT
REMARK Flexibility Score: inf
ROOT
ATOM      1  C   UNL     1     -96.510 148.507 239.096  1.00  0.00     0.000 C 
ENDROOT
BRANCH   1   2
ATOM      2  C   UNL     1     -96.484 150.042 239.020  1.00  0.00     0.000 C 
BRANCH   2   3
ATOM      3  C   UNL     1     -97.887 150.663 239.141  1.00  0.00     0.000 C 
BRANCH   3   4
ATOM      4  C   UNL     1     -98.796 149.884 240.107  1.00  0.00     0.000 C 
BRANCH   4   5
ATOM      5  C   UNL     1     -98.567 150.268 241.577  1.00  0.00     0.006 C 
BRANCH   5   6
ATOM      6  C   UNL     1     -99.855 150.749 242.258  1.00  0.00     0.053 C 
BRANCH   6   7
ATOM      7  C   UNL     1     -99.576 151.770 243.319  1.00  0.00     0.041 C 
ATOM      8  O   UNL     1     -98.457 151.794 243.896  1.00  0.00    -0.550 OA
ATOM      9  O   UNL     1    -100.542 152.712 243.648  1.00  0.00    -0.550 OA
ENDBRANCH   6   7
ENDBRANCH   5   6
ENDBRANCH   4   5
ENDBRANCH   3   4
ENDBRANCH   2   3
ENDBRANCH   1   2
BRANCH   1  10
ATOM     10  C   UNL     1     -95.166 147.870 238.715  1.00  0.00     0.000 C 
BRANCH  10  11
ATOM     11  C   UNL     1     -94.312 148.845 237.892  1.00  0.00    -0.000 C 
BRANCH  11  12
ATOM     12  C   UNL     1     -94.231 148.462 236.403  1.00  0.00    -0.000 C 
BRANCH  12  13
ATOM     13  C   UNL     1     -95.242 149.182 235.487  1.00  0.00    -0.000 C 
BRANCH  13  14
ATOM     14  C   UNL     1     -96.607 148.486 235.347  1.00  0.00    -0.000 C 
BRANCH  14  15
ATOM     15  C   UNL     1     -97.788 149.442 235.570  1.00  0.00    -0.003 C 
ATOM     16  C   UNL     1     -98.995 148.700 236.139  1.00  0.00     0.004 C 
ENDBRANCH  14  15
ENDBRANCH  13  14
ENDBRANCH  12  13
ENDBRANCH  11  12
ENDBRANCH  10  11
ENDBRANCH   1  10
TORSDOF 12
ENDMDL
MODEL 4
REMARK VINA RESULT:    -3.078      4.069      6.168
REMARK INTER + INTRA:          -7.242
REMARK INTER:                  -6.098
REMARK INTRA:                  -1.144
REMARK UNBOUND:                -2.004
REMARK SMILES CCCCCCCCCCCCCC(=O)[O-]
REMARK SMILES IDX 8 1 9 2 10 3 11 4 12 5 13 6 14 7 15 8 16 9 7 10 6 11 5 12
REMARK SMILES IDX 4 13 3 14 2 15 1 16
REMARK H PARENT
REMARK Flexibility Score: inf
ROOT
ATOM      1  C   UNL     1     -95.409 149.474 235.238  1.00  0.00     0.000 C 
ENDROOT
BRANCH   1   2
ATOM      2  C   UNL     1     -96.925 149.518 234.988  1.00  0.00     0.000 C 
BRANCH   2   3
ATOM      3  C   UNL     1     -97.286 150.229 233.672  1.00  0.00     0.000 C 
BRANCH   3   4
ATOM      4  C   UNL     1     -96.048 150.746 232.922  1.00  0.00     0.000 C 
BRANCH   4   5
ATOM      5  C   UNL     1     -96.021 152.279 232.808  1.00  0.00     0.006 C 
BRANCH   5   6
ATOM      6  C   UNL     1     -97.356 152.845 232.306  1.00  0.00     0.053 C 
BRANCH   6   7
ATOM      7  C   UNL     1     -97.909 153.876 233.243  1.00  0.00     0.041 C 
ATOM      8  O   UNL     1     -98.885 153.596 233.989  1.00  0.00    -0.550 OA
ATOM      9  O   UNL     1     -97.329 155.136 233.312  1.00  0.00    -0.550 OA
ENDBRANCH   6   7
ENDBRANCH   5   6
ENDBRANCH   4   5
ENDBRANCH   3   4
ENDBRANCH   2   3
ENDBRANCH   1   2
BRANCH   1  10
ATOM     10  C   UNL     1     -94.946 148.145 235.853  1.00  0.00     0.000 C 
BRANCH  10  11
ATOM     11  C   UNL     1     -93.881 148.383 236.935  1.00  0.00    -0.000 C 
BRANCH  11  12
ATOM     12  C   UNL     1     -94.485 148.805 238.286  1.00  0.00    -0.000 C 
BRANCH  12  13
ATOM     13  C   UNL     1     -95.694 147.968 238.752  1.00  0.00    -0.000 C 
BRANCH  13  14
ATOM     14  C   UNL     1     -96.829 148.772 239.412  1.00  0.00    -0.000 C 
BRANCH  14  15
ATOM     15  C   UNL     1     -96.790 150.264 239.050  1.00  0.00    -0.003 C 
ATOM     16  C   UNL     1     -98.199 150.848 238.978  1.00  0.00     0.004 C 
ENDBRANCH  14  15
ENDBRANCH  13  14
ENDBRANCH  12  13
ENDBRANCH  11  12
ENDBRANCH  10  11
ENDBRANCH   1  10
TORSDOF 12
ENDMDL
MODEL 5
REMARK VINA RESULT:    -3.067      0.992      1.497
REMARK INTER + INTRA:          -7.223
REMARK INTER:                  -5.450
REMARK INTRA:                  -1.773
REMARK UNBOUND:                -2.004
REMARK SMILES CCCCCCCCCCCCCC(=O)[O-]
REMARK SMILES IDX 8 1 9 2 10 3 11 4 12 5 13 6 14 7 15 8 16 9 7 10 6 11 5 12
REMARK SMILES IDX 4 13 3 14 2 15 1 16
REMARK H PARENT
REMARK Flexibility Score: inf
ROOT
ATOM      1  C   UNL     1     -94.597 147.838 238.121  1.00  0.00     0.000 C 
ENDROOT
BRANCH   1   2
ATOM      2  C   UNL     1     -95.990 148.274 238.604  1.00  0.00     0.000 C 
BRANCH   2   3
ATOM      3  C   UNL     1     -96.120 149.803 238.728  1.00  0.00     0.000 C 
BRANCH   3   4
ATOM      4  C   UNL     1     -97.341 150.225 239.562  1.00  0.00     0.000 C 
BRANCH   4   5
ATOM      5  C   UNL     1     -98.137 149.025 240.098  1.00  0.00     0.006 C 
BRANCH   5   6
ATOM      6  C   UNL     1     -98.416 149.139 241.602  1.00  0.00     0.053 C 
BRANCH   6   7
ATOM      7  C   UNL     1     -99.285 150.319 241.918  1.00  0.00     0.041 C 
ATOM      8  O   UNL     1    -100.424 150.427 241.390  1.00  0.00    -0.550 OA
ATOM      9  O   UNL     1     -98.848 151.283 242.817  1.00  0.00    -0.550 OA
ENDBRANCH   6   7
ENDBRANCH   5   6
ENDBRANCH   4   5
ENDBRANCH   3   4
ENDBRANCH   2   3
ENDBRANCH   1   2
BRANCH   1  10
ATOM     10  C   UNL     1     -94.069 148.705 236.968  1.00  0.00     0.000 C 
BRANCH  10  11
ATOM     11  C   UNL     1     -94.728 148.309 235.638  1.00  0.00    -0.000 C 
BRANCH  11  12
ATOM     12  C   UNL     1     -95.384 149.500 234.916  1.00  0.00    -0.000 C 
BRANCH  12  13
ATOM     13  C   UNL     1     -96.893 149.345 234.637  1.00  0.00    -0.000 C 
BRANCH  13  14
ATOM     14  C   UNL     1     -97.560 148.134 235.311  1.00  0.00    -0.000 C 
BRANCH  14  15
ATOM     15  C   UNL     1     -98.744 148.527 236.206  1.00  0.00    -0.003 C 
ATOM     16  C   UNL     1     -98.959 150.038 236.201  1.00  0.00     0.004 C 
ENDBRANCH  14  15
ENDBRANCH  13  14
ENDBRANCH  12  13
ENDBRANCH  11  12
ENDBRANCH  10  11
ENDBRANCH   1  10
TORSDOF 12
ENDMDL
MODEL 6
REMARK VINA RESULT:    -3.019      4.147      6.043
REMARK INTER + INTRA:          -7.140
REMARK INTER:                  -5.555
REMARK INTRA:                  -1.585
REMARK UNBOUND:                -2.004
REMARK SMILES CCCCCCCCCCCCCC(=O)[O-]
REMARK SMILES IDX 8 1 9 2 10 3 11 4 12 5 13 6 14 7 15 8 16 9 7 10 6 11 5 12
REMARK SMILES IDX 4 13 3 14 2 15 1 16
REMARK H PARENT
REMARK Flexibility Score: inf
ROOT
ATOM      1  C   UNL     1     -95.531 147.722 235.360  1.00  0.00     0.000 C 
ENDROOT
BRANCH   1   2
ATOM      2  C   UNL     1     -97.061 147.877 235.369  1.00  0.00     0.000 C 
BRANCH   2   3
ATOM      3  C   UNL     1     -97.505 149.339 235.552  1.00  0.00     0.000 C 
BRANCH   3   4
ATOM      4  C   UNL     1     -98.537 149.780 234.501  1.00  0.00     0.000 C 
BRANCH   4   5
ATOM      5  C   UNL     1     -98.124 151.066 233.767  1.00  0.00     0.006 C 
BRANCH   5   6
ATOM      6  C   UNL     1     -96.683 150.998 233.245  1.00  0.00     0.053 C 
BRANCH   6   7
ATOM      7  C   UNL     1     -96.297 152.247 232.513  1.00  0.00     0.041 C 
ATOM      8  O   UNL     1     -95.668 152.175 231.424  1.00  0.00    -0.550 OA
ATOM      9  O   UNL     1     -96.657 153.489 233.020  1.00  0.00    -0.550 OA
ENDBRANCH   6   7
ENDBRANCH   5   6
ENDBRANCH   4   5
ENDBRANCH   3   4
ENDBRANCH   2   3
ENDBRANCH   1   2
BRANCH   1  10
ATOM     10  C   UNL     1     -94.805 148.961 235.903  1.00  0.00     0.000 C 
BRANCH  10  11
ATOM     11  C   UNL     1     -94.001 148.616 237.166  1.00  0.00    -0.000 C 
BRANCH  11  12
ATOM     12  C   UNL     1     -94.696 149.071 238.461  1.00  0.00    -0.000 C 
BRANCH  12  13
ATOM     13  C   UNL     1     -95.786 148.116 238.989  1.00  0.00    -0.000 C 
BRANCH  13  14
ATOM     14  C   UNL     1     -97.101 148.796 239.410  1.00  0.00    -0.000 C 
BRANCH  14  15
ATOM     15  C   UNL     1     -97.079 150.317 239.200  1.00  0.00    -0.003 C 
ATOM     16  C   UNL     1     -98.457 150.836 238.797  1.00  0.00     0.004 C 
ENDBRANCH  14  15
ENDBRANCH  13  14
ENDBRANCH  12  13
ENDBRANCH  11  12
ENDBRANCH  10  11
ENDBRANCH   1  10
TORSDOF 12
ENDMDL
MODEL 7
REMARK VINA RESULT:    -2.979      3.895      5.899
REMARK INTER + INTRA:          -7.073
REMARK INTER:                  -5.520
REMARK INTRA:                  -1.553
REMARK UNBOUND:                -2.004
REMARK SMILES CCCCCCCCCCCCCC(=O)[O-]
REMARK SMILES IDX 8 1 9 2 10 3 11 4 12 5 13 6 14 7 15 8 16 9 7 10 6 11 5 12
REMARK SMILES IDX 4 13 3 14 2 15 1 16
REMARK H PARENT
REMARK Flexibility Score: inf
ROOT
ATOM      1  C   UNL     1     -94.455 148.747 237.620  1.00  0.00     0.000 C 
ENDROOT
BRANCH   1   2
ATOM      2  C   UNL     1     -94.019 148.017 236.338  1.00  0.00     0.000 C 
BRANCH   2   3
ATOM      3  C   UNL     1     -95.000 148.235 235.173  1.00  0.00     0.000 C 
BRANCH   3   4
ATOM      4  C   UNL     1     -95.353 149.718 234.968  1.00  0.00     0.000 C 
BRANCH   4   5
ATOM      5  C   UNL     1     -96.031 149.984 233.614  1.00  0.00     0.006 C 
BRANCH   5   6
ATOM      6  C   UNL     1     -95.659 151.358 233.041  1.00  0.00     0.053 C 
BRANCH   6   7
ATOM      7  C   UNL     1     -96.875 152.172 232.716  1.00  0.00     0.041 C 
ATOM      8  O   UNL     1     -96.857 152.980 231.750  1.00  0.00    -0.550 OA
ATOM      9  O   UNL     1     -98.036 152.016 233.462  1.00  0.00    -0.550 OA
ENDBRANCH   6   7
ENDBRANCH   5   6
ENDBRANCH   4   5
ENDBRANCH   3   4
ENDBRANCH   2   3
ENDBRANCH   1   2
BRANCH   1  10
ATOM     10  C   UNL     1     -95.163 147.821 238.620  1.00  0.00     0.000 C 
BRANCH  10  11
ATOM     11  C   UNL     1     -96.386 148.515 239.237  1.00  0.00    -0.000 C 
BRANCH  11  12
ATOM     12  C   UNL     1     -96.396 150.036 238.999  1.00  0.00    -0.000 C 
BRANCH  12  13
ATOM     13  C   UNL     1     -97.794 150.686 238.981  1.00  0.00    -0.000 C 
BRANCH  13  14
ATOM     14  C   UNL     1     -98.872 149.894 238.219  1.00  0.00    -0.000 C 
BRANCH  14  15
ATOM     15  C   UNL     1     -98.642 149.884 236.701  1.00  0.00    -0.003 C 
ATOM     16  C   UNL     1     -98.633 148.458 236.156  1.00  0.00     0.004 C 
ENDBRANCH  14  15
ENDBRANCH  13  14
ENDBRANCH  12  13
ENDBRANCH  11  12
ENDBRANCH  10  11
ENDBRANCH   1  10
TORSDOF 12
ENDMDL
MODEL 8
REMARK VINA RESULT:    -2.979      3.036      3.510
REMARK INTER + INTRA:          -7.072
REMARK INTER:                  -5.189
REMARK INTRA:                  -1.883
REMARK UNBOUND:                -2.004
REMARK SMILES CCCCCCCCCCCCCC(=O)[O-]
REMARK SMILES IDX 8 1 9 2 10 3 11 4 12 5 13 6 14 7 15 8 16 9 7 10 6 11 5 12
REMARK SMILES IDX 4 13 3 14 2 15 1 16
REMARK H PARENT
REMARK Flexibility Score: inf
ROOT
ATOM      1  C   UNL     1     -95.886 148.041 239.016  1.00  0.00     0.000 C 
ENDROOT
BRANCH   1   2
ATOM      2  C   UNL     1     -95.897 149.543 238.685  1.00  0.00     0.000 C 
BRANCH   2   3
ATOM      3  C   UNL     1     -97.096 150.276 239.313  1.00  0.00     0.000 C 
BRANCH   3   4
ATOM      4  C   UNL     1     -98.435 149.876 238.672  1.00  0.00     0.000 C 
BRANCH   4   5
ATOM      5  C   UNL     1     -99.095 151.035 237.907  1.00  0.00     0.006 C 
BRANCH   5   6
ATOM      6  C   UNL     1    -100.025 150.537 236.793  1.00  0.00     0.053 C 
BRANCH   6   7
ATOM      7  C   UNL     1     -99.956 151.413 235.578  1.00  0.00     0.041 C 
ATOM      8  O   UNL     1     -99.919 152.666 235.702  1.00  0.00    -0.550 OA
ATOM      9  O   UNL     1     -99.904 150.844 234.313  1.00  0.00    -0.550 OA
ENDBRANCH   6   7
ENDBRANCH   5   6
ENDBRANCH   4   5
ENDBRANCH   3   4
ENDBRANCH   2   3
ENDBRANCH   1   2
BRANCH   1  10
ATOM     10  C   UNL     1     -94.725 147.293 238.345  1.00  0.00     0.000 C 
BRANCH  10  11
ATOM     11  C   UNL     1     -93.954 148.220 237.393  1.00  0.00    -0.000 C 
BRANCH  11  12
ATOM     12  C   UNL     1     -93.696 147.583 236.015  1.00  0.00    -0.000 C 
BRANCH  12  13
ATOM     13  C   UNL     1     -94.852 147.720 235.004  1.00  0.00    -0.000 C 
BRANCH  13  14
ATOM     14  C   UNL     1     -95.401 149.147 234.831  1.00  0.00    -0.000 C 
BRANCH  14  15
ATOM     15  C   UNL     1     -96.874 149.274 235.247  1.00  0.00    -0.003 C 
ATOM     16  C   UNL     1     -97.468 147.910 235.588  1.00  0.00     0.004 C 
ENDBRANCH  14  15
ENDBRANCH  13  14
ENDBRANCH  12  13
ENDBRANCH  11  12
ENDBRANCH  10  11
ENDBRANCH   1  10
TORSDOF 12
ENDMDL
MODEL 9
REMARK VINA RESULT:    -2.958      1.679      2.954
REMARK INTER + INTRA:          -7.038
REMARK INTER:                  -5.687
REMARK INTRA:                  -1.350
REMARK UNBOUND:                -2.004
REMARK SMILES CCCCCCCCCCCCCC(=O)[O-]
REMARK SMILES IDX 8 1 9 2 10 3 11 4 12 5 13 6 14 7 15 8 16 9 7 10 6 11 5 12
REMARK SMILES IDX 4 13 3 14 2 15 1 16
REMARK H PARENT
REMARK Flexibility Score: inf
ROOT
ATOM      1  C   UNL     1     -93.815 148.274 236.988  1.00  0.00     0.000 C 
ENDROOT
BRANCH   1   2
ATOM      2  C   UNL     1     -94.571 148.956 238.141  1.00  0.00     0.000 C 
BRANCH   2   3
ATOM      3  C   UNL     1     -95.460 147.974 238.926  1.00  0.00     0.000 C 
BRANCH   3   4
ATOM      4  C   UNL     1     -96.795 148.603 239.358  1.00  0.00     0.000 C 
BRANCH   4   5
ATOM      5  C   UNL     1     -96.808 150.133 239.200  1.00  0.00     0.006 C 
BRANCH   5   6
ATOM      6  C   UNL     1     -98.228 150.682 239.005  1.00  0.00     0.053 C 
BRANCH   6   7
ATOM      7  C   UNL     1     -99.129 150.308 240.143  1.00  0.00     0.041 C 
ATOM      8  O   UNL     1    -100.230 149.739 239.918  1.00  0.00    -0.550 OA
ATOM      9  O   UNL     1     -98.740 150.564 241.451  1.00  0.00    -0.550 OA
ENDBRANCH   6   7
ENDBRANCH   5   6
ENDBRANCH   4   5
ENDBRANCH   3   4
ENDBRANCH   2   3
ENDBRANCH   1   2
BRANCH   1  10
ATOM     10  C   UNL     1     -94.631 148.229 235.688  1.00  0.00     0.000 C 
BRANCH  10  11
ATOM     11  C   UNL     1     -95.579 149.434 235.593  1.00  0.00    -0.000 C 
BRANCH  11  12
ATOM     12  C   UNL     1     -97.055 149.025 235.448  1.00  0.00    -0.000 C 
BRANCH  12  13
ATOM     13  C   UNL     1     -97.932 150.013 234.652  1.00  0.00    -0.000 C 
BRANCH  13  14
ATOM     14  C   UNL     1     -97.477 150.269 233.205  1.00  0.00    -0.000 C 
BRANCH  14  15
ATOM     15  C   UNL     1     -96.988 151.707 232.979  1.00  0.00    -0.003 C 
ATOM     16  C   UNL     1     -95.590 151.722 232.367  1.00  0.00     0.004 C 
ENDBRANCH  14  15
ENDBRANCH  13  14
ENDBRANCH  12  13
ENDBRANCH  11  12
ENDBRANCH  10  11
ENDBRANCH   1  10
TORSDOF 12
ENDMDL
