MODEL 1
REMARK VINA RESULT:    -3.136      0.000      0.000
REMARK INTER + INTRA:          -6.029
REMARK INTER:                  -4.328
REMARK INTRA:                  -1.701
REMARK UNBOUND:                -1.701
REMARK SMILES O=c1cc(-c2ccc(O)c(O)c2)oc2cc(O)c([C@H]3O[C@@H](CO)C(O)[C@@H](O)[C@H]3O)c(O)c12
REMARK SMILES IDX 4 1 3 2 2 3 1 4 32 5 14 6 13 7 15 8 16 9 18 10 30 11 5 12
REMARK SMILES IDX 6 13 7 14 8 15 12 16 10 17 9 18 11 20 31 22 17 24 19 26
REMARK SMILES IDX 28 27 20 28 26 29 21 30 24 31 29 32 27 34 22 36 23 37 25 39
REMARK H PARENT 9 19 11 21 31 23 17 25 29 33 27 35 23 38 25 40
REMARK Flexibility Score: inf
ROOT
ATOM      1  C   UNL     1     -43.334 -23.874  46.058  1.00  0.00     0.138 A 
ATOM      2  C   UNL     1     -42.286 -24.558  45.473  1.00  0.00     0.100 A 
ATOM      3  C   UNL     1     -42.339 -24.785  44.091  1.00  0.00     0.197 A 
ATOM      4  O   UNL     1     -41.386 -25.410  43.564  1.00  0.00    -0.289 OA
ATOM      5  C   UNL     1     -43.428 -24.310  43.404  1.00  0.00     0.107 A 
ATOM      6  C   UNL     1     -44.426 -23.642  44.043  1.00  0.00     0.146 A 
ATOM      7  O   UNL     1     -44.354 -23.447  45.331  1.00  0.00    -0.456 OA
ATOM      8  C   UNL     1     -45.503 -23.180  43.309  1.00  0.00     0.094 A 
ATOM      9  C   UNL     1     -45.613 -23.369  41.948  1.00  0.00     0.128 A 
ATOM     10  C   UNL     1     -44.585 -24.057  41.258  1.00  0.00     0.068 A 
ATOM     11  C   UNL     1     -43.527 -24.498  42.051  1.00  0.00     0.140 A 
ENDROOT
BRANCH   1  12
ATOM     12  C   UNL     1     -43.308 -23.627  47.493  1.00  0.00     0.021 A 
ATOM     13  C   UNL     1     -42.163 -23.642  48.229  1.00  0.00     0.016 A 
ATOM     14  C   UNL     1     -42.181 -23.402  49.611  1.00  0.00     0.051 A 
ATOM     15  C   UNL     1     -43.362 -23.146  50.276  1.00  0.00     0.157 A 
ATOM     16  C   UNL     1     -44.502 -23.366  48.170  1.00  0.00     0.062 A 
ATOM     17  C   UNL     1     -44.519 -23.133  49.532  1.00  0.00     0.158 A 
BRANCH  15  18
ATOM     18  O   UNL     1     -43.385 -22.907  51.659  1.00  0.00    -0.504 OA
ATOM     19  H   UNL     1     -42.539 -22.562  52.139  1.00  0.00     0.293 HD
ENDBRANCH  15  18
BRANCH  17  20
ATOM     20  O   UNL     1     -45.717 -22.881  50.198  1.00  0.00    -0.504 OA
ATOM     21  H   UNL     1     -46.427 -23.631  50.100  1.00  0.00     0.293 HD
ENDBRANCH  17  20
ENDBRANCH   1  12
BRANCH  11  22
ATOM     22  O   UNL     1     -42.506 -25.174  41.435  1.00  0.00    -0.506 OA
ATOM     23  H   UNL     1     -42.696 -25.897  40.720  1.00  0.00     0.293 HD
ENDBRANCH  11  22
BRANCH   9  24
ATOM     24  O   UNL     1     -46.726 -22.875  41.296  1.00  0.00    -0.507 OA
ATOM     25  H   UNL     1     -47.582 -23.380  41.290  1.00  0.00     0.293 HD
ENDBRANCH   9  24
BRANCH  10  26
ATOM     26  C   UNL     1     -44.738 -24.218  39.885  1.00  0.00     0.188 C 
ATOM     27  C   UNL     1     -45.294 -25.599  39.387  1.00  0.00     0.179 C 
ATOM     28  O   UNL     1     -43.461 -24.197  39.118  1.00  0.00    -0.362 OA
ATOM     29  C   UNL     1     -45.737 -25.564  37.764  1.00  0.00     0.177 C 
ATOM     30  C   UNL     1     -43.596 -23.989  37.608  1.00  0.00     0.176 C 
ATOM     31  C   UNL     1     -44.660 -24.771  37.686  1.00  0.00     0.177 C 
BRANCH  27  32
ATOM     32  O   UNL     1     -44.236 -26.477  39.297  1.00  0.00    -0.387 OA
ATOM     33  H   UNL     1     -43.358 -26.041  39.447  1.00  0.00     0.211 HD
ENDBRANCH  27  32
BRANCH  29  34
ATOM     34  O   UNL     1     -45.723 -26.919  37.464  1.00  0.00    -0.387 OA
ATOM     35  H   UNL     1     -45.152 -27.082  36.643  1.00  0.00     0.211 HD
ENDBRANCH  29  34
BRANCH  30  36
ATOM     36  C   UNL     1     -42.260 -24.437  37.103  1.00  0.00     0.191 C 
BRANCH  36  37
ATOM     37  O   UNL     1     -41.890 -25.720  37.425  1.00  0.00    -0.394 OA
ATOM     38  H   UNL     1     -41.769 -25.779  38.421  1.00  0.00     0.210 HD
ENDBRANCH  36  37
ENDBRANCH  30  36
BRANCH  31  39
ATOM     39  O   UNL     1     -44.488 -25.181  36.043  1.00  0.00    -0.388 OA
ATOM     40  H   UNL     1     -45.353 -25.655  36.086  1.00  0.00     0.211 HD
ENDBRANCH  31  39
ENDBRANCH  10  26
TORSDOF 11
ENDMDL
MODEL 2
REMARK VINA RESULT:    -3.111      1.778      3.266
REMARK INTER + INTRA:          -5.995
REMARK INTER:                  -4.742
REMARK INTRA:                  -1.253
REMARK UNBOUND:                -1.701
REMARK SMILES O=c1cc(-c2ccc(O)c(O)c2)oc2cc(O)c([C@H]3O[C@@H](CO)C(O)[C@@H](O)[C@H]3O)c(O)c12
REMARK SMILES IDX 4 1 3 2 2 3 1 4 32 5 14 6 13 7 15 8 16 9 18 10 30 11 5 12
REMARK SMILES IDX 6 13 7 14 8 15 12 16 10 17 9 18 11 20 31 22 17 24 19 26
REMARK SMILES IDX 28 27 20 28 26 29 21 30 24 31 29 32 27 34 22 36 23 37 25 39
REMARK H PARENT 9 19 11 21 31 23 17 25 29 33 27 35 23 38 25 40
REMARK Flexibility Score: inf
ROOT
ATOM      1  C   UNL     1     -43.996 -23.340  43.782  1.00  0.00     0.138 A 
ATOM      2  C   UNL     1     -45.297 -23.141  43.363  1.00  0.00     0.100 A 
ATOM      3  C   UNL     1     -45.558 -23.189  41.986  1.00  0.00     0.197 A 
ATOM      4  O   UNL     1     -46.741 -23.004  41.609  1.00  0.00    -0.289 OA
ATOM      5  C   UNL     1     -44.505 -23.436  41.142  1.00  0.00     0.107 A 
ATOM      6  C   UNL     1     -43.246 -23.624  41.623  1.00  0.00     0.146 A 
ATOM      7  O   UNL     1     -43.030 -23.571  42.909  1.00  0.00    -0.456 OA
ATOM      8  C   UNL     1     -42.217 -23.871  40.733  1.00  0.00     0.094 A 
ATOM      9  C   UNL     1     -42.409 -23.934  39.370  1.00  0.00     0.128 A 
ATOM     10  C   UNL     1     -43.711 -23.746  38.844  1.00  0.00     0.068 A 
ATOM     11  C   UNL     1     -44.705 -23.500  39.789  1.00  0.00     0.140 A 
ENDROOT
BRANCH   1  12
ATOM     12  C   UNL     1     -43.693 -23.292  45.206  1.00  0.00     0.021 A 
ATOM     13  C   UNL     1     -42.434 -23.115  45.693  1.00  0.00     0.016 A 
ATOM     14  C   UNL     1     -42.183 -23.077  47.072  1.00  0.00     0.051 A 
ATOM     15  C   UNL     1     -43.204 -23.223  47.988  1.00  0.00     0.157 A 
ATOM     16  C   UNL     1     -44.725 -23.437  46.137  1.00  0.00     0.062 A 
ATOM     17  C   UNL     1     -44.476 -23.403  47.495  1.00  0.00     0.158 A 
BRANCH  15  18
ATOM     18  O   UNL     1     -42.957 -23.188  49.368  1.00  0.00    -0.504 OA
ATOM     19  H   UNL     1     -43.389 -22.455  49.954  1.00  0.00     0.293 HD
ENDBRANCH  15  18
BRANCH  17  20
ATOM     20  O   UNL     1     -45.512 -23.556  48.415  1.00  0.00    -0.504 OA
ATOM     21  H   UNL     1     -45.287 -23.222  49.371  1.00  0.00     0.293 HD
ENDBRANCH  17  20
ENDBRANCH   1  12
BRANCH  11  22
ATOM     22  O   UNL     1     -45.983 -23.306  39.334  1.00  0.00    -0.506 OA
ATOM     23  H   UNL     1     -46.199 -22.573  38.636  1.00  0.00     0.293 HD
ENDBRANCH  11  22
BRANCH   9  24
ATOM     24  O   UNL     1     -41.321 -24.183  38.556  1.00  0.00    -0.507 OA
ATOM     25  H   UNL     1     -41.403 -24.767  37.756  1.00  0.00     0.293 HD
ENDBRANCH   9  24
BRANCH  10  26
ATOM     26  C   UNL     1     -43.856 -23.823  37.463  1.00  0.00     0.188 C 
ATOM     27  C   UNL     1     -43.952 -25.257  36.833  1.00  0.00     0.179 C 
ATOM     28  O   UNL     1     -42.685 -23.315  36.693  1.00  0.00    -0.362 OA
ATOM     29  C   UNL     1     -44.445 -25.221  35.226  1.00  0.00     0.177 C 
ATOM     30  C   UNL     1     -42.938 -23.026  35.212  1.00  0.00     0.176 C 
ATOM     31  C   UNL     1     -43.687 -24.116  35.219  1.00  0.00     0.177 C 
BRANCH  27  32
ATOM     32  O   UNL     1     -42.671 -25.730  36.650  1.00  0.00    -0.387 OA
ATOM     33  H   UNL     1     -42.648 -26.624  36.222  1.00  0.00     0.211 HD
ENDBRANCH  27  32
BRANCH  29  34
ATOM     34  O   UNL     1     -44.004 -26.464  34.793  1.00  0.00    -0.387 OA
ATOM     35  H   UNL     1     -44.003 -27.116  35.569  1.00  0.00     0.211 HD
ENDBRANCH  29  34
BRANCH  30  36
ATOM     36  C   UNL     1     -41.549 -22.966  34.657  1.00  0.00     0.191 C 
BRANCH  36  37
ATOM     37  O   UNL     1     -40.770 -24.080  34.851  1.00  0.00    -0.394 OA
ATOM     38  H   UNL     1     -39.868 -23.786  35.184  1.00  0.00     0.210 HD
ENDBRANCH  36  37
ENDBRANCH  30  36
BRANCH  31  39
ATOM     39  O   UNL     1     -43.454 -24.295  33.543  1.00  0.00    -0.388 OA
ATOM     40  H   UNL     1     -44.429 -24.209  33.413  1.00  0.00     0.211 HD
ENDBRANCH  31  39
ENDBRANCH  10  26
TORSDOF 11
ENDMDL
MODEL 3
REMARK VINA RESULT:    -3.095      2.696      9.925
REMARK INTER + INTRA:          -5.972
REMARK INTER:                  -4.289
REMARK INTRA:                  -1.683
REMARK UNBOUND:                -1.701
REMARK SMILES O=c1cc(-c2ccc(O)c(O)c2)oc2cc(O)c([C@H]3O[C@@H](CO)C(O)[C@@H](O)[C@H]3O)c(O)c12
REMARK SMILES IDX 4 1 3 2 2 3 1 4 32 5 14 6 13 7 15 8 16 9 18 10 30 11 5 12
REMARK SMILES IDX 6 13 7 14 8 15 12 16 10 17 9 18 11 20 31 22 17 24 19 26
REMARK SMILES IDX 28 27 20 28 26 29 21 30 24 31 29 32 27 34 22 36 23 37 25 39
REMARK H PARENT 9 19 11 21 31 23 17 25 29 33 27 35 23 38 25 40
REMARK Flexibility Score: inf
ROOT
ATOM      1  C   UNL     1     -45.804 -26.585  37.496  1.00  0.00     0.138 A 
ATOM      2  C   UNL     1     -44.911 -27.438  38.114  1.00  0.00     0.100 A 
ATOM      3  C   UNL     1     -44.589 -27.193  39.456  1.00  0.00     0.197 A 
ATOM      4  O   UNL     1     -43.775 -27.968  40.014  1.00  0.00    -0.289 OA
ATOM      5  C   UNL     1     -45.186 -26.122  40.074  1.00  0.00     0.107 A 
ATOM      6  C   UNL     1     -46.059 -25.322  39.405  1.00  0.00     0.146 A 
ATOM      7  O   UNL     1     -46.339 -25.570  38.155  1.00  0.00    -0.456 OA
ATOM      8  C   UNL     1     -46.637 -24.255  40.070  1.00  0.00     0.094 A 
ATOM      9  C   UNL     1     -46.365 -23.964  41.389  1.00  0.00     0.128 A 
ATOM     10  C   UNL     1     -45.462 -24.785  42.108  1.00  0.00     0.068 A 
ATOM     11  C   UNL     1     -44.912 -25.842  41.386  1.00  0.00     0.140 A 
ENDROOT
BRANCH   1  12
ATOM     12  C   UNL     1     -46.155 -26.812  36.101  1.00  0.00     0.021 A 
ATOM     13  C   UNL     1     -46.792 -25.885  35.334  1.00  0.00     0.016 A 
ATOM     14  C   UNL     1     -47.116 -26.144  33.994  1.00  0.00     0.051 A 
ATOM     15  C   UNL     1     -46.802 -27.351  33.404  1.00  0.00     0.157 A 
ATOM     16  C   UNL     1     -45.838 -28.033  35.499  1.00  0.00     0.062 A 
ATOM     17  C   UNL     1     -46.159 -28.288  34.180  1.00  0.00     0.158 A 
BRANCH  15  18
ATOM     18  O   UNL     1     -47.125 -27.614  32.065  1.00  0.00    -0.504 OA
ATOM     19  H   UNL     1     -48.085 -27.895  31.808  1.00  0.00     0.293 HD
ENDBRANCH  15  18
BRANCH  17  20
ATOM     20  O   UNL     1     -45.844 -29.511  33.592  1.00  0.00    -0.504 OA
ATOM     21  H   UNL     1     -45.936 -30.327  34.226  1.00  0.00     0.293 HD
ENDBRANCH  17  20
ENDBRANCH   1  12
BRANCH  11  22
ATOM     22  O   UNL     1     -44.029 -26.666  42.033  1.00  0.00    -0.506 OA
ATOM     23  H   UNL     1     -44.346 -27.316  42.774  1.00  0.00     0.293 HD
ENDBRANCH  11  22
BRANCH   9  24
ATOM     24  O   UNL     1     -46.986 -22.876  41.971  1.00  0.00    -0.507 OA
ATOM     25  H   UNL     1     -46.629 -22.467  42.803  1.00  0.00     0.293 HD
ENDBRANCH   9  24
BRANCH  10  26
ATOM     26  C   UNL     1     -45.222 -24.453  43.438  1.00  0.00     0.188 C 
ATOM     27  C   UNL     1     -43.891 -23.682  43.753  1.00  0.00     0.179 C 
ATOM     28  O   UNL     1     -45.025 -25.624  44.338  1.00  0.00    -0.362 OA
ATOM     29  C   UNL     1     -43.865 -23.059  45.314  1.00  0.00     0.177 C 
ATOM     30  C   UNL     1     -45.138 -25.337  45.836  1.00  0.00     0.176 C 
ATOM     31  C   UNL     1     -44.506 -24.205  45.577  1.00  0.00     0.177 C 
BRANCH  27  32
ATOM     32  O   UNL     1     -42.881 -24.610  43.880  1.00  0.00    -0.387 OA
ATOM     33  H   UNL     1     -43.198 -25.543  43.765  1.00  0.00     0.211 HD
ENDBRANCH  27  32
BRANCH  29  34
ATOM     34  O   UNL     1     -42.501 -22.876  45.496  1.00  0.00    -0.387 OA
ATOM     35  H   UNL     1     -42.045 -22.786  44.595  1.00  0.00     0.211 HD
ENDBRANCH  29  34
BRANCH  30  36
ATOM     36  C   UNL     1     -44.488 -26.542  46.442  1.00  0.00     0.191 C 
BRANCH  36  37
ATOM     37  O   UNL     1     -43.157 -26.721  46.154  1.00  0.00    -0.394 OA
ATOM     38  H   UNL     1     -42.872 -26.013  45.500  1.00  0.00     0.210 HD
ENDBRANCH  36  37
ENDBRANCH  30  36
BRANCH  31  39
ATOM     39  O   UNL     1     -43.960 -24.133  47.187  1.00  0.00    -0.388 OA
ATOM     40  H   UNL     1     -43.189 -24.697  46.935  1.00  0.00     0.211 HD
ENDBRANCH  31  39
ENDBRANCH  10  26
TORSDOF 11
ENDMDL
MODEL 4
REMARK VINA RESULT:    -3.072     14.948     18.006
REMARK INTER + INTRA:          -5.940
REMARK INTER:                  -4.245
REMARK INTRA:                  -1.695
REMARK UNBOUND:                -1.701
REMARK SMILES O=c1cc(-c2ccc(O)c(O)c2)oc2cc(O)c([C@H]3O[C@@H](CO)C(O)[C@@H](O)[C@H]3O)c(O)c12
REMARK SMILES IDX 4 1 3 2 2 3 1 4 32 5 14 6 13 7 15 8 16 9 18 10 30 11 5 12
REMARK SMILES IDX 6 13 7 14 8 15 12 16 10 17 9 18 11 20 31 22 17 24 19 26
REMARK SMILES IDX 28 27 20 28 26 29 21 30 24 31 29 32 27 34 22 36 23 37 25 39
REMARK H PARENT 9 19 11 21 31 23 17 25 29 33 27 35 23 38 25 40
REMARK Flexibility Score: inf
ROOT
ATOM      1  C   UNL     1     -28.992 -25.051  39.955  1.00  0.00     0.138 A 
ATOM      2  C   UNL     1     -29.338 -24.060  40.852  1.00  0.00     0.100 A 
ATOM      3  C   UNL     1     -29.210 -24.338  42.220  1.00  0.00     0.197 A 
ATOM      4  O   UNL     1     -29.529 -23.437  43.033  1.00  0.00    -0.289 OA
ATOM      5  C   UNL     1     -28.744 -25.578  42.582  1.00  0.00     0.107 A 
ATOM      6  C   UNL     1     -28.419 -26.509  41.644  1.00  0.00     0.146 A 
ATOM      7  O   UNL     1     -28.551 -26.225  40.377  1.00  0.00    -0.456 OA
ATOM      8  C   UNL     1     -27.952 -27.743  42.057  1.00  0.00     0.094 A 
ATOM      9  C   UNL     1     -27.801 -28.077  43.385  1.00  0.00     0.128 A 
ATOM     10  C   UNL     1     -28.128 -27.124  44.381  1.00  0.00     0.068 A 
ATOM     11  C   UNL     1     -28.593 -25.900  43.904  1.00  0.00     0.140 A 
ENDROOT
BRANCH   1  12
ATOM     12  C   UNL     1     -29.119 -24.793  38.527  1.00  0.00     0.021 A 
ATOM     13  C   UNL     1     -29.497 -23.587  38.021  1.00  0.00     0.016 A 
ATOM     14  C   UNL     1     -29.611 -23.379  36.638  1.00  0.00     0.051 A 
ATOM     15  C   UNL     1     -29.347 -24.391  35.740  1.00  0.00     0.157 A 
ATOM     16  C   UNL     1     -28.850 -25.815  37.613  1.00  0.00     0.062 A 
ATOM     17  C   UNL     1     -28.965 -25.610  36.252  1.00  0.00     0.158 A 
BRANCH  15  18
ATOM     18  O   UNL     1     -29.461 -24.188  34.356  1.00  0.00    -0.504 OA
ATOM     19  H   UNL     1     -29.671 -23.248  33.986  1.00  0.00     0.293 HD
ENDBRANCH  15  18
BRANCH  17  20
ATOM     20  O   UNL     1     -28.702 -26.639  35.350  1.00  0.00    -0.504 OA
ATOM     21  H   UNL     1     -27.833 -27.170  35.549  1.00  0.00     0.293 HD
ENDBRANCH  17  20
ENDBRANCH   1  12
BRANCH  11  22
ATOM     22  O   UNL     1     -28.928 -24.942  44.825  1.00  0.00    -0.506 OA
ATOM     23  H   UNL     1     -28.993 -25.167  45.834  1.00  0.00     0.293 HD
ENDBRANCH  11  22
BRANCH   9  24
ATOM     24  O   UNL     1     -27.330 -29.336  43.705  1.00  0.00    -0.507 OA
ATOM     25  H   UNL     1     -26.358 -29.537  43.691  1.00  0.00     0.293 HD
ENDBRANCH   9  24
BRANCH  10  26
ATOM     26  C   UNL     1     -27.954 -27.505  45.707  1.00  0.00     0.188 C 
ATOM     27  C   UNL     1     -29.244 -27.892  46.513  1.00  0.00     0.179 C 
ATOM     28  O   UNL     1     -27.447 -26.422  46.597  1.00  0.00    -0.362 OA
ATOM     29  C   UNL     1     -28.886 -28.635  47.979  1.00  0.00     0.177 C 
ATOM     30  C   UNL     1     -26.887 -26.878  47.945  1.00  0.00     0.176 C 
ATOM     31  C   UNL     1     -27.880 -27.751  47.962  1.00  0.00     0.177 C 
BRANCH  27  32
ATOM     32  O   UNL     1     -29.808 -26.732  46.999  1.00  0.00    -0.387 OA
ATOM     33  H   UNL     1     -29.194 -26.221  47.586  1.00  0.00     0.211 HD
ENDBRANCH  27  32
BRANCH  29  34
ATOM     34  O   UNL     1     -30.077 -28.439  48.665  1.00  0.00    -0.387 OA
ATOM     35  H   UNL     1     -30.199 -29.172  49.354  1.00  0.00     0.211 HD
ENDBRANCH  29  34
BRANCH  30  36
ATOM     36  C   UNL     1     -26.876 -25.605  48.733  1.00  0.00     0.191 C 
BRANCH  36  37
ATOM     37  O   UNL     1     -28.066 -24.922  48.798  1.00  0.00    -0.394 OA
ATOM     38  H   UNL     1     -27.995 -24.223  49.517  1.00  0.00     0.210 HD
ENDBRANCH  36  37
ENDBRANCH  30  36
BRANCH  31  39
ATOM     39  O   UNL     1     -27.796 -27.826  49.660  1.00  0.00    -0.388 OA
ATOM     40  H   UNL     1     -27.288 -26.978  49.657  1.00  0.00     0.211 HD
ENDBRANCH  31  39
ENDBRANCH  10  26
TORSDOF 11
ENDMDL
MODEL 5
REMARK VINA RESULT:    -3.063     15.276     16.307
REMARK INTER + INTRA:          -5.928
REMARK INTER:                  -4.261
REMARK INTRA:                  -1.667
REMARK UNBOUND:                -1.701
REMARK SMILES O=c1cc(-c2ccc(O)c(O)c2)oc2cc(O)c([C@H]3O[C@@H](CO)C(O)[C@@H](O)[C@H]3O)c(O)c12
REMARK SMILES IDX 4 1 3 2 2 3 1 4 32 5 14 6 13 7 15 8 16 9 18 10 30 11 5 12
REMARK SMILES IDX 6 13 7 14 8 15 12 16 10 17 9 18 11 20 31 22 17 24 19 26
REMARK SMILES IDX 28 27 20 28 26 29 21 30 24 31 29 32 27 34 22 36 23 37 25 39
REMARK H PARENT 9 19 11 21 31 23 17 25 29 33 27 35 23 38 25 40
REMARK Flexibility Score: inf
ROOT
ATOM      1  C   UNL     1     -27.430 -26.572  45.738  1.00  0.00     0.138 A 
ATOM      2  C   UNL     1     -27.446 -27.836  45.181  1.00  0.00     0.100 A 
ATOM      3  C   UNL     1     -27.589 -27.939  43.790  1.00  0.00     0.197 A 
ATOM      4  O   UNL     1     -27.606 -29.089  43.288  1.00  0.00    -0.289 OA
ATOM      5  C   UNL     1     -27.701 -26.777  43.069  1.00  0.00     0.107 A 
ATOM      6  C   UNL     1     -27.677 -25.563  43.682  1.00  0.00     0.146 A 
ATOM      7  O   UNL     1     -27.545 -25.495  44.978  1.00  0.00    -0.456 OA
ATOM      8  C   UNL     1     -27.792 -24.419  42.913  1.00  0.00     0.094 A 
ATOM      9  C   UNL     1     -27.932 -24.454  41.542  1.00  0.00     0.128 A 
ATOM     10  C   UNL     1     -27.955 -25.706  40.879  1.00  0.00     0.068 A 
ATOM     11  C   UNL     1     -27.836 -26.821  41.707  1.00  0.00     0.140 A 
ENDROOT
BRANCH   1  12
ATOM     12  C   UNL     1     -27.287 -26.433  47.181  1.00  0.00     0.021 A 
ATOM     13  C   UNL     1     -27.047 -25.240  47.792  1.00  0.00     0.016 A 
ATOM     14  C   UNL     1     -26.912 -25.149  49.185  1.00  0.00     0.051 A 
ATOM     15  C   UNL     1     -27.013 -26.266  49.988  1.00  0.00     0.157 A 
ATOM     16  C   UNL     1     -27.390 -27.562  47.997  1.00  0.00     0.062 A 
ATOM     17  C   UNL     1     -27.254 -27.471  49.368  1.00  0.00     0.158 A 
BRANCH  15  18
ATOM     18  O   UNL     1     -26.877 -26.179  51.381  1.00  0.00    -0.504 OA
ATOM     19  H   UNL     1     -27.548 -26.663  51.999  1.00  0.00     0.293 HD
ENDBRANCH  15  18
BRANCH  17  20
ATOM     20  O   UNL     1     -27.352 -28.605  50.173  1.00  0.00    -0.504 OA
ATOM     21  H   UNL     1     -28.024 -28.515  50.957  1.00  0.00     0.293 HD
ENDBRANCH  17  20
ENDBRANCH   1  12
BRANCH  11  22
ATOM     22  O   UNL     1     -27.857 -28.058  41.117  1.00  0.00    -0.506 OA
ATOM     23  H   UNL     1     -27.773 -28.165  40.091  1.00  0.00     0.293 HD
ENDBRANCH  11  22
BRANCH   9  24
ATOM     24  O   UNL     1     -28.043 -23.261  40.855  1.00  0.00    -0.507 OA
ATOM     25  H   UNL     1     -28.644 -22.539  41.176  1.00  0.00     0.293 HD
ENDBRANCH   9  24
BRANCH  10  26
ATOM     26  C   UNL     1     -28.094 -25.690  39.495  1.00  0.00     0.188 C 
ATOM     27  C   UNL     1     -29.537 -25.915  38.920  1.00  0.00     0.179 C 
ATOM     28  O   UNL     1     -27.394 -26.803  38.794  1.00  0.00    -0.362 OA
ATOM     29  C   UNL     1     -29.637 -25.556  37.280  1.00  0.00     0.177 C 
ATOM     30  C   UNL     1     -27.197 -26.620  37.288  1.00  0.00     0.176 C 
ATOM     31  C   UNL     1     -28.409 -26.092  37.284  1.00  0.00     0.177 C 
BRANCH  27  32
ATOM     32  O   UNL     1     -29.762 -27.273  38.852  1.00  0.00    -0.387 OA
ATOM     33  H   UNL     1     -28.940 -27.791  38.652  1.00  0.00     0.211 HD
ENDBRANCH  27  32
BRANCH  29  34
ATOM     34  O   UNL     1     -30.784 -26.256  36.933  1.00  0.00    -0.387 OA
ATOM     35  H   UNL     1     -30.956 -26.990  37.610  1.00  0.00     0.211 HD
ENDBRANCH  29  34
BRANCH  30  36
ATOM     36  C   UNL     1     -26.887 -28.013  36.836  1.00  0.00     0.191 C 
BRANCH  36  37
ATOM     37  O   UNL     1     -27.880 -28.945  37.019  1.00  0.00    -0.394 OA
ATOM     38  H   UNL     1     -27.458 -29.854  37.088  1.00  0.00     0.210 HD
ENDBRANCH  36  37
ENDBRANCH  30  36
BRANCH  31  39
ATOM     39  O   UNL     1     -28.584 -26.488  35.639  1.00  0.00    -0.388 OA
ATOM     40  H   UNL     1     -29.565 -26.447  35.748  1.00  0.00     0.211 HD
ENDBRANCH  31  39
ENDBRANCH  10  26
TORSDOF 11
ENDMDL
MODEL 6
REMARK VINA RESULT:    -3.039     14.744     16.183
REMARK INTER + INTRA:          -5.895
REMARK INTER:                  -4.639
REMARK INTRA:                  -1.256
REMARK UNBOUND:                -1.701
REMARK SMILES O=c1cc(-c2ccc(O)c(O)c2)oc2cc(O)c([C@H]3O[C@@H](CO)C(O)[C@@H](O)[C@H]3O)c(O)c12
REMARK SMILES IDX 4 1 3 2 2 3 1 4 32 5 14 6 13 7 15 8 16 9 18 10 30 11 5 12
REMARK SMILES IDX 6 13 7 14 8 15 12 16 10 17 9 18 11 20 31 22 17 24 19 26
REMARK SMILES IDX 28 27 20 28 26 29 21 30 24 31 29 32 27 34 22 36 23 37 25 39
REMARK H PARENT 9 19 11 21 31 23 17 25 29 33 27 35 23 38 25 40
REMARK Flexibility Score: inf
ROOT
ATOM      1  C   UNL     1     -46.803 -40.187  44.004  1.00  0.00     0.138 A 
ATOM      2  C   UNL     1     -47.013 -41.499  43.625  1.00  0.00     0.100 A 
ATOM      3  C   UNL     1     -46.931 -41.809  42.260  1.00  0.00     0.197 A 
ATOM      4  O   UNL     1     -47.125 -43.001  41.918  1.00  0.00    -0.289 OA
ATOM      5  C   UNL     1     -46.643 -40.790  41.387  1.00  0.00     0.107 A 
ATOM      6  C   UNL     1     -46.447 -39.519  41.829  1.00  0.00     0.146 A 
ATOM      7  O   UNL     1     -46.532 -39.256  43.104  1.00  0.00    -0.456 OA
ATOM      8  C   UNL     1     -46.158 -38.525  40.911  1.00  0.00     0.094 A 
ATOM      9  C   UNL     1     -46.060 -38.766  39.558  1.00  0.00     0.128 A 
ATOM     10  C   UNL     1     -46.256 -40.082  39.073  1.00  0.00     0.068 A 
ATOM     11  C   UNL     1     -46.545 -41.039  40.044  1.00  0.00     0.140 A 
ENDROOT
BRANCH   1  12
ATOM     12  C   UNL     1     -46.886 -39.834  45.415  1.00  0.00     0.021 A 
ATOM     13  C   UNL     1     -47.051 -38.555  45.852  1.00  0.00     0.016 A 
ATOM     14  C   UNL     1     -47.123 -38.256  47.221  1.00  0.00     0.051 A 
ATOM     15  C   UNL     1     -47.025 -39.247  48.175  1.00  0.00     0.157 A 
ATOM     16  C   UNL     1     -46.789 -40.835  46.384  1.00  0.00     0.062 A 
ATOM     17  C   UNL     1     -46.856 -40.539  47.732  1.00  0.00     0.158 A 
BRANCH  15  18
ATOM     18  O   UNL     1     -47.094 -38.951  49.544  1.00  0.00    -0.504 OA
ATOM     19  H   UNL     1     -47.927 -39.221  50.091  1.00  0.00     0.293 HD
ENDBRANCH  15  18
BRANCH  17  20
ATOM     20  O   UNL     1     -46.751 -41.545  48.691  1.00  0.00    -0.504 OA
ATOM     21  H   UNL     1     -46.357 -42.435  48.334  1.00  0.00     0.293 HD
ENDBRANCH  17  20
ENDBRANCH   1  12
BRANCH  11  22
ATOM     22  O   UNL     1     -46.747 -42.329  39.628  1.00  0.00    -0.506 OA
ATOM     23  H   UNL     1     -46.095 -42.789  38.969  1.00  0.00     0.293 HD
ENDBRANCH  11  22
BRANCH   9  24
ATOM     24  O   UNL     1     -45.771 -37.712  38.714  1.00  0.00    -0.507 OA
ATOM     25  H   UNL     1     -46.082 -37.710  37.771  1.00  0.00     0.293 HD
ENDBRANCH   9  24
BRANCH  10  26
ATOM     26  C   UNL     1     -46.144 -40.277  37.700  1.00  0.00     0.188 C 
ATOM     27  C   UNL     1     -44.697 -40.470  37.122  1.00  0.00     0.179 C 
ATOM     28  O   UNL     1     -46.563 -39.107  36.877  1.00  0.00    -0.362 OA
ATOM     29  C   UNL     1     -44.709 -41.012  35.530  1.00  0.00     0.177 C 
ATOM     30  C   UNL     1     -46.818 -39.394  35.396  1.00  0.00     0.176 C 
ATOM     31  C   UNL     1     -45.770 -40.198  35.463  1.00  0.00     0.177 C 
BRANCH  27  32
ATOM     32  O   UNL     1     -44.151 -39.222  36.915  1.00  0.00    -0.387 OA
ATOM     33  H   UNL     1     -44.409 -38.567  37.613  1.00  0.00     0.211 HD
ENDBRANCH  27  32
BRANCH  29  34
ATOM     34  O   UNL     1     -43.431 -40.652  35.126  1.00  0.00    -0.387 OA
ATOM     35  H   UNL     1     -43.246 -41.027  34.202  1.00  0.00     0.211 HD
ENDBRANCH  29  34
BRANCH  30  36
ATOM     36  C   UNL     1     -46.787 -38.023  34.796  1.00  0.00     0.191 C 
BRANCH  36  37
ATOM     37  O   UNL     1     -45.653 -37.284  35.031  1.00  0.00    -0.394 OA
ATOM     38  H   UNL     1     -45.326 -36.911  34.156  1.00  0.00     0.210 HD
ENDBRANCH  36  37
ENDBRANCH  30  36
BRANCH  31  39
ATOM     39  O   UNL     1     -45.526 -40.031  33.787  1.00  0.00    -0.388 OA
ATOM     40  H   UNL     1     -44.806 -40.705  33.840  1.00  0.00     0.211 HD
ENDBRANCH  31  39
ENDBRANCH  10  26
TORSDOF 11
ENDMDL
MODEL 7
REMARK VINA RESULT:    -3.009     15.782     16.680
REMARK INTER + INTRA:          -5.854
REMARK INTER:                  -4.599
REMARK INTRA:                  -1.255
REMARK UNBOUND:                -1.701
REMARK SMILES O=c1cc(-c2ccc(O)c(O)c2)oc2cc(O)c([C@H]3O[C@@H](CO)C(O)[C@@H](O)[C@H]3O)c(O)c12
REMARK SMILES IDX 4 1 3 2 2 3 1 4 32 5 14 6 13 7 15 8 16 9 18 10 30 11 5 12
REMARK SMILES IDX 6 13 7 14 8 15 12 16 10 17 9 18 11 20 31 22 17 24 19 26
REMARK SMILES IDX 28 27 20 28 26 29 21 30 24 31 29 32 27 34 22 36 23 37 25 39
REMARK H PARENT 9 19 11 21 31 23 17 25 29 33 27 35 23 38 25 40
REMARK Flexibility Score: inf
ROOT
ATOM      1  C   UNL     1     -27.308 -26.186  43.936  1.00  0.00     0.138 A 
ATOM      2  C   UNL     1     -27.123 -24.875  43.545  1.00  0.00     0.100 A 
ATOM      3  C   UNL     1     -27.148 -24.589  42.172  1.00  0.00     0.197 A 
ATOM      4  O   UNL     1     -26.977 -23.396  41.820  1.00  0.00    -0.289 OA
ATOM      5  C   UNL     1     -27.359 -25.630  41.304  1.00  0.00     0.107 A 
ATOM      6  C   UNL     1     -27.535 -26.901  41.758  1.00  0.00     0.146 A 
ATOM      7  O   UNL     1     -27.505 -27.140  43.040  1.00  0.00    -0.456 OA
ATOM      8  C   UNL     1     -27.746 -27.918  40.845  1.00  0.00     0.094 A 
ATOM      9  C   UNL     1     -27.785 -27.701  39.484  1.00  0.00     0.128 A 
ATOM     10  C   UNL     1     -27.609 -26.387  38.986  1.00  0.00     0.068 A 
ATOM     11  C   UNL     1     -27.400 -25.406  39.954  1.00  0.00     0.140 A 
ENDROOT
BRANCH   1  12
ATOM     12  C   UNL     1     -27.283 -26.514  45.355  1.00  0.00     0.021 A 
ATOM     13  C   UNL     1     -27.099 -27.780  45.822  1.00  0.00     0.016 A 
ATOM     14  C   UNL     1     -27.084 -28.055  47.197  1.00  0.00     0.051 A 
ATOM     15  C   UNL     1     -27.261 -27.053  48.128  1.00  0.00     0.157 A 
ATOM     16  C   UNL     1     -27.461 -25.502  46.301  1.00  0.00     0.062 A 
ATOM     17  C   UNL     1     -27.450 -25.774  47.655  1.00  0.00     0.158 A 
BRANCH  15  18
ATOM     18  O   UNL     1     -27.250 -27.325  49.504  1.00  0.00    -0.504 OA
ATOM     19  H   UNL     1     -27.282 -28.300  49.841  1.00  0.00     0.293 HD
ENDBRANCH  15  18
BRANCH  17  20
ATOM     20  O   UNL     1     -27.635 -24.758  48.591  1.00  0.00    -0.504 OA
ATOM     21  H   UNL     1     -27.961 -25.086  49.519  1.00  0.00     0.293 HD
ENDBRANCH  17  20
ENDBRANCH   1  12
BRANCH  11  22
ATOM     22  O   UNL     1     -27.219 -24.116  39.526  1.00  0.00    -0.506 OA
ATOM     23  H   UNL     1     -26.344 -23.601  39.728  1.00  0.00     0.293 HD
ENDBRANCH  11  22
BRANCH   9  24
ATOM     24  O   UNL     1     -27.998 -28.778  38.646  1.00  0.00    -0.507 OA
ATOM     25  H   UNL     1     -27.352 -29.002  37.926  1.00  0.00     0.293 HD
ENDBRANCH   9  24
BRANCH  10  26
ATOM     26  C   UNL     1     -27.660 -26.218  37.606  1.00  0.00     0.188 C 
ATOM     27  C   UNL     1     -29.080 -26.044  36.961  1.00  0.00     0.179 C 
ATOM     28  O   UNL     1     -27.198 -27.399  36.825  1.00  0.00    -0.362 OA
ATOM     29  C   UNL     1     -28.999 -25.530  35.361  1.00  0.00     0.177 C 
ATOM     30  C   UNL     1     -26.878 -27.138  35.352  1.00  0.00     0.176 C 
ATOM     31  C   UNL     1     -27.931 -26.339  35.357  1.00  0.00     0.177 C 
BRANCH  27  32
ATOM     32  O   UNL     1     -29.610 -27.298  36.751  1.00  0.00    -0.387 OA
ATOM     33  H   UNL     1     -28.954 -28.025  36.906  1.00  0.00     0.211 HD
ENDBRANCH  27  32
BRANCH  29  34
ATOM     34  O   UNL     1     -30.255 -25.905  34.906  1.00  0.00    -0.387 OA
ATOM     35  H   UNL     1     -30.713 -26.482  35.602  1.00  0.00     0.211 HD
ENDBRANCH  29  34
BRANCH  30  36
ATOM     36  C   UNL     1     -26.875 -28.520  34.776  1.00  0.00     0.191 C 
BRANCH  36  37
ATOM     37  O   UNL     1     -28.043 -29.232  34.903  1.00  0.00    -0.394 OA
ATOM     38  H   UNL     1     -27.877 -30.177  34.604  1.00  0.00     0.210 HD
ENDBRANCH  36  37
ENDBRANCH  30  36
BRANCH  31  39
ATOM     39  O   UNL     1     -28.098 -26.538  33.675  1.00  0.00    -0.388 OA
ATOM     40  H   UNL     1     -28.429 -27.456  33.831  1.00  0.00     0.211 HD
ENDBRANCH  31  39
ENDBRANCH  10  26
TORSDOF 11
ENDMDL
MODEL 8
REMARK VINA RESULT:    -3.002     15.288     18.457
REMARK INTER + INTRA:          -5.844
REMARK INTER:                  -4.160
REMARK INTRA:                  -1.684
REMARK UNBOUND:                -1.701
REMARK SMILES O=c1cc(-c2ccc(O)c(O)c2)oc2cc(O)c([C@H]3O[C@@H](CO)C(O)[C@@H](O)[C@H]3O)c(O)c12
REMARK SMILES IDX 4 1 3 2 2 3 1 4 32 5 14 6 13 7 15 8 16 9 18 10 30 11 5 12
REMARK SMILES IDX 6 13 7 14 8 15 12 16 10 17 9 18 11 20 31 22 17 24 19 26
REMARK SMILES IDX 28 27 20 28 26 29 21 30 24 31 29 32 27 34 22 36 23 37 25 39
REMARK H PARENT 9 19 11 21 31 23 17 25 29 33 27 35 23 38 25 40
REMARK Flexibility Score: inf
ROOT
ATOM      1  C   UNL     1     -44.895 -41.218  40.692  1.00  0.00     0.138 A 
ATOM      2  C   UNL     1     -44.385 -42.108  41.616  1.00  0.00     0.100 A 
ATOM      3  C   UNL     1     -44.529 -41.799  42.976  1.00  0.00     0.197 A 
ATOM      4  O   UNL     1     -44.061 -42.609  43.813  1.00  0.00    -0.289 OA
ATOM      5  C   UNL     1     -45.173 -40.632  43.303  1.00  0.00     0.107 A 
ATOM      6  C   UNL     1     -45.653 -39.799  42.341  1.00  0.00     0.146 A 
ATOM      7  O   UNL     1     -45.503 -40.110  41.082  1.00  0.00    -0.456 OA
ATOM      8  C   UNL     1     -46.296 -38.635  42.719  1.00  0.00     0.094 A 
ATOM      9  C   UNL     1     -46.473 -38.276  44.038  1.00  0.00     0.128 A 
ATOM     10  C   UNL     1     -45.986 -39.128  45.059  1.00  0.00     0.068 A 
ATOM     11  C   UNL     1     -45.347 -40.285  44.616  1.00  0.00     0.140 A 
ENDROOT
BRANCH   1  12
ATOM     12  C   UNL     1     -44.757 -41.511  39.272  1.00  0.00     0.021 A 
ATOM     13  C   UNL     1     -44.244 -42.680  38.801  1.00  0.00     0.016 A 
ATOM     14  C   UNL     1     -44.124 -42.923  37.424  1.00  0.00     0.051 A 
ATOM     15  C   UNL     1     -44.518 -41.982  36.497  1.00  0.00     0.157 A 
ATOM     16  C   UNL     1     -45.156 -40.561  38.329  1.00  0.00     0.062 A 
ATOM     17  C   UNL     1     -45.035 -40.799  36.974  1.00  0.00     0.158 A 
BRANCH  15  18
ATOM     18  O   UNL     1     -44.398 -42.220  35.119  1.00  0.00    -0.504 OA
ATOM     19  H   UNL     1     -45.062 -42.849  34.642  1.00  0.00     0.293 HD
ENDBRANCH  15  18
BRANCH  17  20
ATOM     20  O   UNL     1     -45.430 -39.841  36.041  1.00  0.00    -0.504 OA
ATOM     21  H   UNL     1     -46.385 -39.984  35.661  1.00  0.00     0.293 HD
ENDBRANCH  17  20
ENDBRANCH   1  12
BRANCH  11  22
ATOM     22  O   UNL     1     -44.852 -41.143  45.564  1.00  0.00    -0.506 OA
ATOM     23  H   UNL     1     -44.772 -42.158  45.378  1.00  0.00     0.293 HD
ENDBRANCH  11  22
BRANCH   9  24
ATOM     24  O   UNL     1     -47.125 -37.092  44.323  1.00  0.00    -0.507 OA
ATOM     25  H   UNL     1     -47.609 -36.591  43.616  1.00  0.00     0.293 HD
ENDBRANCH   9  24
BRANCH  10  26
ATOM     26  C   UNL     1     -46.191 -38.725  46.375  1.00  0.00     0.188 C 
ATOM     27  C   UNL     1     -44.957 -38.128  47.140  1.00  0.00     0.179 C 
ATOM     28  O   UNL     1     -46.524 -39.835  47.313  1.00  0.00    -0.362 OA
ATOM     29  C   UNL     1     -45.395 -37.388  48.585  1.00  0.00     0.177 C 
ATOM     30  C   UNL     1     -47.122 -39.413  48.656  1.00  0.00     0.176 C 
ATOM     31  C   UNL     1     -46.264 -38.407  48.620  1.00  0.00     0.177 C 
BRANCH  27  32
ATOM     32  O   UNL     1     -44.225 -39.176  47.653  1.00  0.00    -0.387 OA
ATOM     33  H   UNL     1     -43.311 -38.909  47.931  1.00  0.00     0.211 HD
ENDBRANCH  27  32
BRANCH  29  34
ATOM     34  O   UNL     1     -44.178 -37.386  49.253  1.00  0.00    -0.387 OA
ATOM     35  H   UNL     1     -44.247 -37.952  50.091  1.00  0.00     0.211 HD
ENDBRANCH  29  34
BRANCH  30  36
ATOM     36  C   UNL     1     -46.938 -40.644  49.488  1.00  0.00     0.191 C 
BRANCH  36  37
ATOM     37  O   UNL     1     -45.641 -40.997  49.768  1.00  0.00    -0.394 OA
ATOM     38  H   UNL     1     -45.649 -41.723  50.463  1.00  0.00     0.210 HD
ENDBRANCH  36  37
ENDBRANCH  30  36
BRANCH  31  39
ATOM     39  O   UNL     1     -46.331 -38.281  50.316  1.00  0.00    -0.388 OA
ATOM     40  H   UNL     1     -45.896 -39.165  50.385  1.00  0.00     0.211 HD
ENDBRANCH  31  39
ENDBRANCH  10  26
TORSDOF 11
ENDMDL
