MODEL 1
REMARK VINA RESULT:    -3.458      0.000      0.000
REMARK INTER + INTRA:         -14.613
REMARK INTER:                  -9.118
REMARK INTRA:                  -5.496
REMARK UNBOUND:                -5.496
REMARK SMILES CCCCCCCCCCCCCCCCCCCCCCCCCCCCCC(=O)[O-]
REMARK SMILES IDX 16 1 17 2 18 3 19 4 20 5 21 6 22 7 23 8 24 9 25 10 26 11
REMARK SMILES IDX 27 12 28 13 29 14 30 15 31 16 32 17 15 18 14 19 13 20 12 21
REMARK SMILES IDX 11 22 10 23 9 24 8 25 7 26 6 27 5 28 4 29 3 30 2 31 1 32
REMARK H PARENT
REMARK Flexibility Score: inf
ROOT
ATOM      1  C   UNL     1      48.688  29.111  86.515  1.00  0.00     0.000 C 
ENDROOT
BRANCH   1   2
ATOM      2  C   UNL     1      49.404  28.374  87.656  1.00  0.00     0.000 C 
BRANCH   2   3
ATOM      3  C   UNL     1      50.255  29.319  88.523  1.00  0.00     0.000 C 
BRANCH   3   4
ATOM      4  C   UNL     1      50.534  28.765  89.934  1.00  0.00     0.000 C 
BRANCH   4   5
ATOM      5  C   UNL     1      50.228  29.731  91.098  1.00  0.00     0.000 C 
BRANCH   5   6
ATOM      6  C   UNL     1      50.487  31.200  90.739  1.00  0.00     0.000 C 
BRANCH   6   7
ATOM      7  C   UNL     1      51.528  31.843  91.663  1.00  0.00     0.000 C 
BRANCH   7   8
ATOM      8  C   UNL     1      52.763  32.321  90.877  1.00  0.00     0.000 C 
BRANCH   8   9
ATOM      9  C   UNL     1      53.661  31.154  90.398  1.00  0.00     0.000 C 
BRANCH   9  10
ATOM     10  C   UNL     1      53.645  30.961  88.871  1.00  0.00     0.000 C 
BRANCH  10  11
ATOM     11  C   UNL     1      53.357  32.272  88.123  1.00  0.00     0.000 C 
BRANCH  11  12
ATOM     12  C   UNL     1      52.146  32.132  87.194  1.00  0.00     0.000 C 
BRANCH  12  13
ATOM     13  C   UNL     1      51.022  33.091  87.617  1.00  0.00     0.006 C 
BRANCH  13  14
ATOM     14  C   UNL     1      51.346  34.552  87.279  1.00  0.00     0.053 C 
BRANCH  14  15
ATOM     15  C   UNL     1      51.662  34.726  85.824  1.00  0.00     0.041 C 
ATOM     16  O   UNL     1      50.746  34.654  84.963  1.00  0.00    -0.550 OA
ATOM     17  O   UNL     1      52.961  35.013  85.425  1.00  0.00    -0.550 OA
ENDBRANCH  14  15
ENDBRANCH  13  14
ENDBRANCH  12  13
ENDBRANCH  11  12
ENDBRANCH  10  11
ENDBRANCH   9  10
ENDBRANCH   8   9
ENDBRANCH   7   8
ENDBRANCH   6   7
ENDBRANCH   5   6
ENDBRANCH   4   5
ENDBRANCH   3   4
ENDBRANCH   2   3
ENDBRANCH   1   2
BRANCH   1  18
ATOM     18  C   UNL     1      47.450  29.889  86.984  1.00  0.00     0.000 C 
BRANCH  18  19
ATOM     19  C   UNL     1      47.726  31.397  86.992  1.00  0.00     0.000 C 
BRANCH  19  20
ATOM     20  C   UNL     1      47.525  31.991  88.395  1.00  0.00     0.000 C 
BRANCH  20  21
ATOM     21  C   UNL     1      47.024  30.949  89.408  1.00  0.00     0.000 C 
BRANCH  21  22
ATOM     22  C   UNL     1      46.360  31.593  90.638  1.00  0.00     0.000 C 
BRANCH  22  23
ATOM     23  C   UNL     1      45.242  30.719  91.235  1.00  0.00     0.000 C 
BRANCH  23  24
ATOM     24  C   UNL     1      45.184  29.277  90.692  1.00  0.00    -0.000 C 
BRANCH  24  25
ATOM     25  C   UNL     1      43.887  28.906  89.944  1.00  0.00    -0.000 C 
BRANCH  25  26
ATOM     26  C   UNL     1      44.030  28.762  88.418  1.00  0.00    -0.000 C 
BRANCH  26  27
ATOM     27  C   UNL     1      43.860  30.098  87.674  1.00  0.00    -0.000 C 
BRANCH  27  28
ATOM     28  C   UNL     1      42.835  31.030  88.345  1.00  0.00    -0.000 C 
BRANCH  28  29
ATOM     29  C   UNL     1      41.566  31.319  87.517  1.00  0.00    -0.000 C 
BRANCH  29  30
ATOM     30  C   UNL     1      40.262  30.753  88.105  1.00  0.00    -0.000 C 
BRANCH  30  31
ATOM     31  C   UNL     1      40.459  30.140  89.498  1.00  0.00    -0.003 C 
ATOM     32  C   UNL     1      40.190  28.638  89.481  1.00  0.00     0.004 C 
ENDBRANCH  30  31
ENDBRANCH  29  30
ENDBRANCH  28  29
ENDBRANCH  27  28
ENDBRANCH  26  27
ENDBRANCH  25  26
ENDBRANCH  24  25
ENDBRANCH  23  24
ENDBRANCH  22  23
ENDBRANCH  21  22
ENDBRANCH  20  21
ENDBRANCH  19  20
ENDBRANCH  18  19
ENDBRANCH   1  18
TORSDOF 28
ENDMDL
MODEL 2
REMARK VINA RESULT:    -3.388      2.410      4.319
REMARK INTER + INTRA:         -14.428
REMARK INTER:                  -9.602
REMARK INTRA:                  -4.827
REMARK UNBOUND:                -5.496
REMARK SMILES CCCCCCCCCCCCCCCCCCCCCCCCCCCCCC(=O)[O-]
REMARK SMILES IDX 16 1 17 2 18 3 19 4 20 5 21 6 22 7 23 8 24 9 25 10 26 11
REMARK SMILES IDX 27 12 28 13 29 14 30 15 31 16 32 17 15 18 14 19 13 20 12 21
REMARK SMILES IDX 11 22 10 23 9 24 8 25 7 26 6 27 5 28 4 29 3 30 2 31 1 32
REMARK H PARENT
REMARK Flexibility Score: inf
ROOT
ATOM      1  C   UNL     1      48.474  31.831  86.532  1.00  0.00     0.000 C 
ENDROOT
BRANCH   1   2
ATOM      2  C   UNL     1      48.619  33.349  86.718  1.00  0.00     0.000 C 
BRANCH   2   3
ATOM      3  C   UNL     1      50.031  33.752  87.178  1.00  0.00     0.000 C 
BRANCH   3   4
ATOM      4  C   UNL     1      50.709  34.770  86.238  1.00  0.00     0.000 C 
BRANCH   4   5
ATOM      5  C   UNL     1      52.160  35.147  86.606  1.00  0.00     0.000 C 
BRANCH   5   6
ATOM      6  C   UNL     1      53.149  34.906  85.457  1.00  0.00     0.000 C 
BRANCH   6   7
ATOM      7  C   UNL     1      52.555  34.009  84.365  1.00  0.00     0.000 C 
BRANCH   7   8
ATOM      8  C   UNL     1      53.065  32.561  84.484  1.00  0.00     0.000 C 
BRANCH   8   9
ATOM      9  C   UNL     1      51.918  31.524  84.581  1.00  0.00     0.000 C 
BRANCH   9  10
ATOM     10  C   UNL     1      51.913  30.745  85.908  1.00  0.00     0.000 C 
BRANCH  10  11
ATOM     11  C   UNL     1      52.842  31.378  86.956  1.00  0.00     0.000 C 
BRANCH  11  12
ATOM     12  C   UNL     1      52.798  30.609  88.281  1.00  0.00     0.000 C 
BRANCH  12  13
ATOM     13  C   UNL     1      51.403  30.705  88.920  1.00  0.00     0.006 C 
BRANCH  13  14
ATOM     14  C   UNL     1      51.317  31.828  89.961  1.00  0.00     0.053 C 
BRANCH  14  15
ATOM     15  C   UNL     1      51.044  31.291  91.334  1.00  0.00     0.041 C 
ATOM     16  O   UNL     1      50.972  30.049  91.526  1.00  0.00    -0.550 OA
ATOM     17  O   UNL     1      50.913  32.163  92.407  1.00  0.00    -0.550 OA
ENDBRANCH  14  15
ENDBRANCH  13  14
ENDBRANCH  12  13
ENDBRANCH  11  12
ENDBRANCH  10  11
ENDBRANCH   9  10
ENDBRANCH   8   9
ENDBRANCH   7   8
ENDBRANCH   6   7
ENDBRANCH   5   6
ENDBRANCH   4   5
ENDBRANCH   3   4
ENDBRANCH   2   3
ENDBRANCH   1   2
BRANCH   1  18
ATOM     18  C   UNL     1      47.503  31.191  87.535  1.00  0.00     0.000 C 
BRANCH  18  19
ATOM     19  C   UNL     1      47.357  32.068  88.784  1.00  0.00     0.000 C 
BRANCH  19  20
ATOM     20  C   UNL     1      47.428  31.224  90.066  1.00  0.00     0.000 C 
BRANCH  20  21
ATOM     21  C   UNL     1      47.816  29.763  89.787  1.00  0.00     0.000 C 
BRANCH  21  22
ATOM     22  C   UNL     1      47.033  28.767  90.661  1.00  0.00     0.000 C 
BRANCH  22  23
ATOM     23  C   UNL     1      45.768  29.387  91.281  1.00  0.00     0.000 C 
BRANCH  23  24
ATOM     24  C   UNL     1      44.508  29.317  90.394  1.00  0.00    -0.000 C 
BRANCH  24  25
ATOM     25  C   UNL     1      43.722  30.637  90.259  1.00  0.00    -0.000 C 
BRANCH  25  26
ATOM     26  C   UNL     1      43.802  31.307  88.875  1.00  0.00    -0.000 C 
BRANCH  26  27
ATOM     27  C   UNL     1      43.020  30.541  87.795  1.00  0.00    -0.000 C 
BRANCH  27  28
ATOM     28  C   UNL     1      41.667  31.195  87.460  1.00  0.00    -0.000 C 
BRANCH  28  29
ATOM     29  C   UNL     1      40.476  30.724  88.319  1.00  0.00    -0.000 C 
BRANCH  29  30
ATOM     30  C   UNL     1      39.733  29.489  87.780  1.00  0.00    -0.000 C 
BRANCH  30  31
ATOM     31  C   UNL     1      40.063  28.211  88.563  1.00  0.00    -0.003 C 
ATOM     32  C   UNL     1      40.665  28.542  89.927  1.00  0.00     0.004 C 
ENDBRANCH  30  31
ENDBRANCH  29  30
ENDBRANCH  28  29
ENDBRANCH  27  28
ENDBRANCH  26  27
ENDBRANCH  25  26
ENDBRANCH  24  25
ENDBRANCH  23  24
ENDBRANCH  22  23
ENDBRANCH  21  22
ENDBRANCH  20  21
ENDBRANCH  19  20
ENDBRANCH  18  19
ENDBRANCH   1  18
TORSDOF 28
ENDMDL
MODEL 3
REMARK VINA RESULT:    -3.362      2.541      4.630
REMARK INTER + INTRA:         -14.362
REMARK INTER:                  -9.753
REMARK INTRA:                  -4.609
REMARK UNBOUND:                -5.496
REMARK SMILES CCCCCCCCCCCCCCCCCCCCCCCCCCCCCC(=O)[O-]
REMARK SMILES IDX 16 1 17 2 18 3 19 4 20 5 21 6 22 7 23 8 24 9 25 10 26 11
REMARK SMILES IDX 27 12 28 13 29 14 30 15 31 16 32 17 15 18 14 19 13 20 12 21
REMARK SMILES IDX 11 22 10 23 9 24 8 25 7 26 6 27 5 28 4 29 3 30 2 31 1 32
REMARK H PARENT
REMARK Flexibility Score: inf
ROOT
ATOM      1  C   UNL     1      49.184  30.884  86.622  1.00  0.00     0.000 C 
ENDROOT
BRANCH   1   2
ATOM      2  C   UNL     1      48.263  32.110  86.533  1.00  0.00     0.000 C 
BRANCH   2   3
ATOM      3  C   UNL     1      48.823  33.322  87.297  1.00  0.00     0.000 C 
BRANCH   3   4
ATOM      4  C   UNL     1      48.973  34.580  86.416  1.00  0.00     0.000 C 
BRANCH   4   5
ATOM      5  C   UNL     1      50.208  35.455  86.717  1.00  0.00     0.000 C 
BRANCH   5   6
ATOM      6  C   UNL     1      51.339  34.678  87.404  1.00  0.00     0.000 C 
BRANCH   6   7
ATOM      7  C   UNL     1      52.724  35.163  86.960  1.00  0.00     0.000 C 
BRANCH   7   8
ATOM      8  C   UNL     1      53.380  34.176  85.977  1.00  0.00     0.000 C 
BRANCH   8   9
ATOM      9  C   UNL     1      53.377  34.689  84.516  1.00  0.00     0.000 C 
BRANCH   9  10
ATOM     10  C   UNL     1      53.418  33.558  83.473  1.00  0.00     0.000 C 
BRANCH  10  11
ATOM     11  C   UNL     1      52.250  33.643  82.479  1.00  0.00     0.000 C 
BRANCH  11  12
ATOM     12  C   UNL     1      51.007  34.264  83.126  1.00  0.00     0.000 C 
BRANCH  12  13
ATOM     13  C   UNL     1      49.917  33.201  83.342  1.00  0.00     0.006 C 
BRANCH  13  14
ATOM     14  C   UNL     1      48.575  33.610  82.722  1.00  0.00     0.053 C 
BRANCH  14  15
ATOM     15  C   UNL     1      48.317  32.888  81.434  1.00  0.00     0.041 C 
ATOM     16  O   UNL     1      47.137  32.723  81.025  1.00  0.00    -0.550 OA
ATOM     17  O   UNL     1      49.382  32.437  80.665  1.00  0.00    -0.550 OA
ENDBRANCH  14  15
ENDBRANCH  13  14
ENDBRANCH  12  13
ENDBRANCH  11  12
ENDBRANCH  10  11
ENDBRANCH   9  10
ENDBRANCH   8   9
ENDBRANCH   7   8
ENDBRANCH   6   7
ENDBRANCH   5   6
ENDBRANCH   4   5
ENDBRANCH   3   4
ENDBRANCH   2   3
ENDBRANCH   1   2
BRANCH   1  18
ATOM     18  C   UNL     1      50.673  31.239  86.493  1.00  0.00     0.000 C 
BRANCH  18  19
ATOM     19  C   UNL     1      51.511  30.439  87.496  1.00  0.00     0.000 C 
BRANCH  19  20
ATOM     20  C   UNL     1      52.223  31.368  88.492  1.00  0.00     0.000 C 
BRANCH  20  21
ATOM     21  C   UNL     1      51.316  31.779  89.663  1.00  0.00     0.000 C 
BRANCH  21  22
ATOM     22  C   UNL     1      50.494  30.601  90.215  1.00  0.00     0.000 C 
BRANCH  22  23
ATOM     23  C   UNL     1      48.996  30.931  90.345  1.00  0.00     0.000 C 
BRANCH  23  24
ATOM     24  C   UNL     1      48.041  29.801  89.909  1.00  0.00    -0.000 C 
BRANCH  24  25
ATOM     25  C   UNL     1      46.599  29.912  90.445  1.00  0.00    -0.000 C 
BRANCH  25  26
ATOM     26  C   UNL     1      46.042  31.345  90.529  1.00  0.00    -0.000 C 
BRANCH  26  27
ATOM     27  C   UNL     1      44.504  31.387  90.544  1.00  0.00    -0.000 C 
BRANCH  27  28
ATOM     28  C   UNL     1      43.867  30.278  89.686  1.00  0.00    -0.000 C 
BRANCH  28  29
ATOM     29  C   UNL     1      43.555  30.671  88.228  1.00  0.00    -0.000 C 
BRANCH  29  30
ATOM     30  C   UNL     1      42.102  31.104  87.967  1.00  0.00    -0.000 C 
BRANCH  30  31
ATOM     31  C   UNL     1      41.102  30.420  88.910  1.00  0.00    -0.003 C 
ATOM     32  C   UNL     1      39.884  29.912  88.145  1.00  0.00     0.004 C 
ENDBRANCH  30  31
ENDBRANCH  29  30
ENDBRANCH  28  29
ENDBRANCH  27  28
ENDBRANCH  26  27
ENDBRANCH  25  26
ENDBRANCH  24  25
ENDBRANCH  23  24
ENDBRANCH  22  23
ENDBRANCH  21  22
ENDBRANCH  20  21
ENDBRANCH  19  20
ENDBRANCH  18  19
ENDBRANCH   1  18
TORSDOF 28
ENDMDL
MODEL 4
REMARK VINA RESULT:    -3.350      4.563      7.162
REMARK INTER + INTRA:         -14.329
REMARK INTER:                  -7.888
REMARK INTRA:                  -6.440
REMARK UNBOUND:                -5.496
REMARK SMILES CCCCCCCCCCCCCCCCCCCCCCCCCCCCCC(=O)[O-]
REMARK SMILES IDX 16 1 17 2 18 3 19 4 20 5 21 6 22 7 23 8 24 9 25 10 26 11
REMARK SMILES IDX 27 12 28 13 29 14 30 15 31 16 32 17 15 18 14 19 13 20 12 21
REMARK SMILES IDX 11 22 10 23 9 24 8 25 7 26 6 27 5 28 4 29 3 30 2 31 1 32
REMARK H PARENT
REMARK Flexibility Score: inf
ROOT
ATOM      1  C   UNL     1      48.520  29.043  90.436  1.00  0.00     0.000 C 
ENDROOT
BRANCH   1   2
ATOM      2  C   UNL     1      48.697  30.537  90.122  1.00  0.00     0.000 C 
BRANCH   2   3
ATOM      3  C   UNL     1      47.357  31.293  90.091  1.00  0.00     0.000 C 
BRANCH   3   4
ATOM      4  C   UNL     1      47.066  31.960  88.731  1.00  0.00     0.000 C 
BRANCH   4   5
ATOM      5  C   UNL     1      48.297  32.189  87.829  1.00  0.00     0.000 C 
BRANCH   5   6
ATOM      6  C   UNL     1      48.188  31.469  86.477  1.00  0.00     0.000 C 
BRANCH   6   7
ATOM      7  C   UNL     1      48.996  30.166  86.452  1.00  0.00     0.000 C 
BRANCH   7   8
ATOM      8  C   UNL     1      48.104  28.942  86.727  1.00  0.00     0.000 C 
BRANCH   8   9
ATOM      9  C   UNL     1      46.684  29.084  86.125  1.00  0.00     0.000 C 
BRANCH   9  10
ATOM     10  C   UNL     1      45.561  28.879  87.157  1.00  0.00     0.000 C 
BRANCH  10  11
ATOM     11  C   UNL     1      45.183  27.398  87.317  1.00  0.00     0.000 C 
BRANCH  11  12
ATOM     12  C   UNL     1      44.152  27.201  88.434  1.00  0.00     0.000 C 
BRANCH  12  13
ATOM     13  C   UNL     1      44.429  25.902  89.207  1.00  0.00     0.006 C 
BRANCH  13  14
ATOM     14  C   UNL     1      43.266  25.513  90.128  1.00  0.00     0.053 C 
BRANCH  14  15
ATOM     15  C   UNL     1      42.627  24.227  89.700  1.00  0.00     0.041 C 
ATOM     16  O   UNL     1      41.375  24.146  89.591  1.00  0.00    -0.550 OA
ATOM     17  O   UNL     1      43.417  23.131  89.380  1.00  0.00    -0.550 OA
ENDBRANCH  14  15
ENDBRANCH  13  14
ENDBRANCH  12  13
ENDBRANCH  11  12
ENDBRANCH  10  11
ENDBRANCH   9  10
ENDBRANCH   8   9
ENDBRANCH   7   8
ENDBRANCH   6   7
ENDBRANCH   5   6
ENDBRANCH   4   5
ENDBRANCH   3   4
ENDBRANCH   2   3
ENDBRANCH   1   2
BRANCH   1  18
ATOM     18  C   UNL     1      47.048  28.609  90.484  1.00  0.00     0.000 C 
BRANCH  18  19
ATOM     19  C   UNL     1      46.847  27.484  91.506  1.00  0.00     0.000 C 
BRANCH  19  20
ATOM     20  C   UNL     1      45.524  27.656  92.268  1.00  0.00     0.000 C 
BRANCH  20  21
ATOM     21  C   UNL     1      44.887  29.035  92.036  1.00  0.00     0.000 C 
BRANCH  21  22
ATOM     22  C   UNL     1      43.353  28.966  91.923  1.00  0.00     0.000 C 
BRANCH  22  23
ATOM     23  C   UNL     1      42.800  29.850  90.791  1.00  0.00     0.000 C 
BRANCH  23  24
ATOM     24  C   UNL     1      43.872  30.549  89.930  1.00  0.00    -0.000 C 
BRANCH  24  25
ATOM     25  C   UNL     1      43.335  31.314  88.703  1.00  0.00    -0.000 C 
BRANCH  25  26
ATOM     26  C   UNL     1      42.344  30.528  87.824  1.00  0.00    -0.000 C 
BRANCH  26  27
ATOM     27  C   UNL     1      40.950  31.176  87.772  1.00  0.00    -0.000 C 
BRANCH  27  28
ATOM     28  C   UNL     1      39.884  30.364  88.530  1.00  0.00    -0.000 C 
BRANCH  28  29
ATOM     29  C   UNL     1      39.101  29.345  87.677  1.00  0.00    -0.000 C 
BRANCH  29  30
ATOM     30  C   UNL     1      39.208  27.884  88.148  1.00  0.00    -0.000 C 
BRANCH  30  31
ATOM     31  C   UNL     1      40.383  27.657  89.110  1.00  0.00    -0.003 C 
ATOM     32  C   UNL     1      39.888  27.238  90.492  1.00  0.00     0.004 C 
ENDBRANCH  30  31
ENDBRANCH  29  30
ENDBRANCH  28  29
ENDBRANCH  27  28
ENDBRANCH  26  27
ENDBRANCH  25  26
ENDBRANCH  24  25
ENDBRANCH  23  24
ENDBRANCH  22  23
ENDBRANCH  21  22
ENDBRANCH  20  21
ENDBRANCH  19  20
ENDBRANCH  18  19
ENDBRANCH   1  18
TORSDOF 28
ENDMDL
MODEL 5
REMARK VINA RESULT:    -3.334      3.153      8.776
REMARK INTER + INTRA:         -14.287
REMARK INTER:                  -8.953
REMARK INTRA:                  -5.335
REMARK UNBOUND:                -5.496
REMARK SMILES CCCCCCCCCCCCCCCCCCCCCCCCCCCCCC(=O)[O-]
REMARK SMILES IDX 16 1 17 2 18 3 19 4 20 5 21 6 22 7 23 8 24 9 25 10 26 11
REMARK SMILES IDX 27 12 28 13 29 14 30 15 31 16 32 17 15 18 14 19 13 20 12 21
REMARK SMILES IDX 11 22 10 23 9 24 8 25 7 26 6 27 5 28 4 29 3 30 2 31 1 32
REMARK H PARENT
REMARK Flexibility Score: inf
ROOT
ATOM      1  C   UNL     1      48.644  33.267  87.372  1.00  0.00     0.000 C 
ENDROOT
BRANCH   1   2
ATOM      2  C   UNL     1      48.054  32.016  86.704  1.00  0.00     0.000 C 
BRANCH   2   3
ATOM      3  C   UNL     1      47.570  30.976  87.730  1.00  0.00     0.000 C 
BRANCH   3   4
ATOM      4  C   UNL     1      48.089  31.242  89.157  1.00  0.00     0.000 C 
BRANCH   4   5
ATOM      5  C   UNL     1      48.881  30.085  89.802  1.00  0.00     0.000 C 
BRANCH   5   6
ATOM      6  C   UNL     1      48.144  28.741  89.725  1.00  0.00     0.000 C 
BRANCH   6   7
ATOM      7  C   UNL     1      47.349  28.447  91.003  1.00  0.00     0.000 C 
BRANCH   7   8
ATOM      8  C   UNL     1      45.836  28.628  90.782  1.00  0.00     0.000 C 
BRANCH   8   9
ATOM      9  C   UNL     1      45.180  29.560  91.830  1.00  0.00     0.000 C 
BRANCH   9  10
ATOM     10  C   UNL     1      44.136  30.516  91.225  1.00  0.00     0.000 C 
BRANCH  10  11
ATOM     11  C   UNL     1      44.694  31.302  90.028  1.00  0.00     0.000 C 
BRANCH  11  12
ATOM     12  C   UNL     1      43.705  31.315  88.857  1.00  0.00     0.000 C 
BRANCH  12  13
ATOM     13  C   UNL     1      43.327  29.882  88.448  1.00  0.00     0.006 C 
BRANCH  13  14
ATOM     14  C   UNL     1      44.067  29.423  87.186  1.00  0.00     0.053 C 
BRANCH  14  15
ATOM     15  C   UNL     1      43.163  29.402  85.991  1.00  0.00     0.041 C 
ATOM     16  O   UNL     1      41.931  29.626  86.124  1.00  0.00    -0.550 OA
ATOM     17  O   UNL     1      43.689  29.178  84.725  1.00  0.00    -0.550 OA
ENDBRANCH  14  15
ENDBRANCH  13  14
ENDBRANCH  12  13
ENDBRANCH  11  12
ENDBRANCH  10  11
ENDBRANCH   9  10
ENDBRANCH   8   9
ENDBRANCH   7   8
ENDBRANCH   6   7
ENDBRANCH   5   6
ENDBRANCH   4   5
ENDBRANCH   3   4
ENDBRANCH   2   3
ENDBRANCH   1   2
BRANCH   1  18
ATOM     18  C   UNL     1      49.008  34.371  86.368  1.00  0.00     0.000 C 
BRANCH  18  19
ATOM     19  C   UNL     1      49.321  33.772  84.992  1.00  0.00     0.000 C 
BRANCH  19  20
ATOM     20  C   UNL     1      49.138  34.814  83.878  1.00  0.00     0.000 C 
BRANCH  20  21
ATOM     21  C   UNL     1      50.115  34.604  82.711  1.00  0.00     0.000 C 
BRANCH  21  22
ATOM     22  C   UNL     1      51.250  33.625  83.059  1.00  0.00     0.000 C 
BRANCH  22  23
ATOM     23  C   UNL     1      52.647  34.244  82.877  1.00  0.00     0.000 C 
BRANCH  23  24
ATOM     24  C   UNL     1      53.507  34.295  84.156  1.00  0.00    -0.000 C 
BRANCH  24  25
ATOM     25  C   UNL     1      52.762  34.729  85.434  1.00  0.00    -0.000 C 
BRANCH  25  26
ATOM     26  C   UNL     1      53.307  34.131  86.744  1.00  0.00    -0.000 C 
BRANCH  26  27
ATOM     27  C   UNL     1      52.251  34.080  87.861  1.00  0.00    -0.000 C 
BRANCH  27  28
ATOM     28  C   UNL     1      52.304  32.775  88.676  1.00  0.00    -0.000 C 
BRANCH  28  29
ATOM     29  C   UNL     1      52.637  31.505  87.867  1.00  0.00    -0.000 C 
BRANCH  29  30
ATOM     30  C   UNL     1      51.439  30.858  87.150  1.00  0.00    -0.000 C 
BRANCH  30  31
ATOM     31  C   UNL     1      51.560  30.918  85.621  1.00  0.00    -0.003 C 
ATOM     32  C   UNL     1      53.013  30.762  85.179  1.00  0.00     0.004 C 
ENDBRANCH  30  31
ENDBRANCH  29  30
ENDBRANCH  28  29
ENDBRANCH  27  28
ENDBRANCH  26  27
ENDBRANCH  25  26
ENDBRANCH  24  25
ENDBRANCH  23  24
ENDBRANCH  22  23
ENDBRANCH  21  22
ENDBRANCH  20  21
ENDBRANCH  19  20
ENDBRANCH  18  19
ENDBRANCH   1  18
TORSDOF 28
ENDMDL
MODEL 6
REMARK VINA RESULT:    -3.318      2.210      7.490
REMARK INTER + INTRA:         -14.246
REMARK INTER:                  -8.687
REMARK INTRA:                  -5.559
REMARK UNBOUND:                -5.496
REMARK SMILES CCCCCCCCCCCCCCCCCCCCCCCCCCCCCC(=O)[O-]
REMARK SMILES IDX 16 1 17 2 18 3 19 4 20 5 21 6 22 7 23 8 24 9 25 10 26 11
REMARK SMILES IDX 27 12 28 13 29 14 30 15 31 16 32 17 15 18 14 19 13 20 12 21
REMARK SMILES IDX 11 22 10 23 9 24 8 25 7 26 6 27 5 28 4 29 3 30 2 31 1 32
REMARK H PARENT
REMARK Flexibility Score: inf
ROOT
ATOM      1  C   UNL     1      44.431  28.646  87.929  1.00  0.00     0.000 C 
ENDROOT
BRANCH   1   2
ATOM      2  C   UNL     1      44.233  30.149  87.683  1.00  0.00     0.000 C 
BRANCH   2   3
ATOM      3  C   UNL     1      43.481  30.838  88.835  1.00  0.00     0.000 C 
BRANCH   3   4
ATOM      4  C   UNL     1      44.415  31.569  89.821  1.00  0.00     0.000 C 
BRANCH   4   5
ATOM      5  C   UNL     1      44.383  31.049  91.274  1.00  0.00     0.000 C 
BRANCH   5   6
ATOM      6  C   UNL     1      43.584  29.748  91.425  1.00  0.00     0.000 C 
BRANCH   6   7
ATOM      7  C   UNL     1      44.498  28.521  91.536  1.00  0.00     0.000 C 
BRANCH   7   8
ATOM      8  C   UNL     1      45.977  28.928  91.664  1.00  0.00     0.000 C 
BRANCH   8   9
ATOM      9  C   UNL     1      46.925  28.022  90.839  1.00  0.00     0.000 C 
BRANCH   9  10
ATOM     10  C   UNL     1      48.045  28.802  90.127  1.00  0.00     0.000 C 
BRANCH  10  11
ATOM     11  C   UNL     1      47.771  30.314  90.097  1.00  0.00     0.000 C 
BRANCH  11  12
ATOM     12  C   UNL     1      48.992  31.114  90.564  1.00  0.00     0.000 C 
BRANCH  12  13
ATOM     13  C   UNL     1      50.277  30.571  89.920  1.00  0.00     0.006 C 
BRANCH  13  14
ATOM     14  C   UNL     1      51.088  31.671  89.224  1.00  0.00     0.053 C 
BRANCH  14  15
ATOM     15  C   UNL     1      52.274  31.110  88.498  1.00  0.00     0.041 C 
ATOM     16  O   UNL     1      53.421  31.594  88.688  1.00  0.00    -0.550 OA
ATOM     17  O   UNL     1      52.117  30.025  87.646  1.00  0.00    -0.550 OA
ENDBRANCH  14  15
ENDBRANCH  13  14
ENDBRANCH  12  13
ENDBRANCH  11  12
ENDBRANCH  10  11
ENDBRANCH   9  10
ENDBRANCH   8   9
ENDBRANCH   7   8
ENDBRANCH   6   7
ENDBRANCH   5   6
ENDBRANCH   4   5
ENDBRANCH   3   4
ENDBRANCH   2   3
ENDBRANCH   1   2
BRANCH   1  18
ATOM     18  C   UNL     1      45.728  28.101  87.313  1.00  0.00     0.000 C 
BRANCH  18  19
ATOM     19  C   UNL     1      46.437  29.185  86.492  1.00  0.00     0.000 C 
BRANCH  19  20
ATOM     20  C   UNL     1      47.962  29.002  86.529  1.00  0.00     0.000 C 
BRANCH  20  21
ATOM     21  C   UNL     1      48.715  30.341  86.548  1.00  0.00     0.000 C 
BRANCH  21  22
ATOM     22  C   UNL     1      47.765  31.552  86.558  1.00  0.00     0.000 C 
BRANCH  22  23
ATOM     23  C   UNL     1      48.381  32.785  87.244  1.00  0.00     0.000 C 
BRANCH  23  24
ATOM     24  C   UNL     1      49.126  33.750  86.300  1.00  0.00    -0.000 C 
BRANCH  24  25
ATOM     25  C   UNL     1      49.169  35.221  86.761  1.00  0.00    -0.000 C 
BRANCH  25  26
ATOM     26  C   UNL     1      50.565  35.748  87.141  1.00  0.00    -0.000 C 
BRANCH  26  27
ATOM     27  C   UNL     1      51.642  34.649  87.124  1.00  0.00    -0.000 C 
BRANCH  27  28
ATOM     28  C   UNL     1      52.922  35.077  86.383  1.00  0.00    -0.000 C 
BRANCH  28  29
ATOM     29  C   UNL     1      52.976  34.701  84.889  1.00  0.00    -0.000 C 
BRANCH  29  30
ATOM     30  C   UNL     1      52.238  33.402  84.518  1.00  0.00    -0.000 C 
BRANCH  30  31
ATOM     31  C   UNL     1      51.589  33.466  83.128  1.00  0.00    -0.003 C 
ATOM     32  C   UNL     1      50.553  34.585  83.057  1.00  0.00     0.004 C 
ENDBRANCH  30  31
ENDBRANCH  29  30
ENDBRANCH  28  29
ENDBRANCH  27  28
ENDBRANCH  26  27
ENDBRANCH  25  26
ENDBRANCH  24  25
ENDBRANCH  23  24
ENDBRANCH  22  23
ENDBRANCH  21  22
ENDBRANCH  20  21
ENDBRANCH  19  20
ENDBRANCH  18  19
ENDBRANCH   1  18
TORSDOF 28
ENDMDL
MODEL 7
REMARK VINA RESULT:    -3.310      2.643      6.206
REMARK INTER + INTRA:         -14.224
REMARK INTER:                  -7.922
REMARK INTRA:                  -6.302
REMARK UNBOUND:                -5.496
REMARK SMILES CCCCCCCCCCCCCCCCCCCCCCCCCCCCCC(=O)[O-]
REMARK SMILES IDX 16 1 17 2 18 3 19 4 20 5 21 6 22 7 23 8 24 9 25 10 26 11
REMARK SMILES IDX 27 12 28 13 29 14 30 15 31 16 32 17 15 18 14 19 13 20 12 21
REMARK SMILES IDX 11 22 10 23 9 24 8 25 7 26 6 27 5 28 4 29 3 30 2 31 1 32
REMARK H PARENT
REMARK Flexibility Score: inf
ROOT
ATOM      1  C   UNL     1      45.445  29.882  87.967  1.00  0.00     0.000 C 
ENDROOT
BRANCH   1   2
ATOM      2  C   UNL     1      45.521  31.158  88.819  1.00  0.00     0.000 C 
BRANCH   2   3
ATOM      3  C   UNL     1      44.396  31.233  89.866  1.00  0.00     0.000 C 
BRANCH   3   4
ATOM      4  C   UNL     1      44.906  31.554  91.285  1.00  0.00     0.000 C 
BRANCH   4   5
ATOM      5  C   UNL     1      44.195  30.801  92.430  1.00  0.00     0.000 C 
BRANCH   5   6
ATOM      6  C   UNL     1      43.320  29.643  91.932  1.00  0.00     0.000 C 
BRANCH   6   7
ATOM      7  C   UNL     1      43.898  28.277  92.320  1.00  0.00     0.000 C 
BRANCH   7   8
ATOM      8  C   UNL     1      44.485  27.544  91.100  1.00  0.00     0.000 C 
BRANCH   8   9
ATOM      9  C   UNL     1      46.003  27.271  91.233  1.00  0.00     0.000 C 
BRANCH   9  10
ATOM     10  C   UNL     1      46.861  28.546  91.140  1.00  0.00     0.000 C 
BRANCH  10  11
ATOM     11  C   UNL     1      48.219  28.283  90.471  1.00  0.00     0.000 C 
BRANCH  11  12
ATOM     12  C   UNL     1      48.662  29.475  89.615  1.00  0.00     0.000 C 
BRANCH  12  13
ATOM     13  C   UNL     1      49.173  30.622  90.502  1.00  0.00     0.006 C 
BRANCH  13  14
ATOM     14  C   UNL     1      50.640  30.433  90.907  1.00  0.00     0.053 C 
BRANCH  14  15
ATOM     15  C   UNL     1      51.412  31.714  90.802  1.00  0.00     0.041 C 
ATOM     16  O   UNL     1      51.728  32.352  91.841  1.00  0.00    -0.550 OA
ATOM     17  O   UNL     1      51.821  32.179  89.559  1.00  0.00    -0.550 OA
ENDBRANCH  14  15
ENDBRANCH  13  14
ENDBRANCH  12  13
ENDBRANCH  11  12
ENDBRANCH  10  11
ENDBRANCH   9  10
ENDBRANCH   8   9
ENDBRANCH   7   8
ENDBRANCH   6   7
ENDBRANCH   5   6
ENDBRANCH   4   5
ENDBRANCH   3   4
ENDBRANCH   2   3
ENDBRANCH   1   2
BRANCH   1  18
ATOM     18  C   UNL     1      44.045  29.253  87.949  1.00  0.00     0.000 C 
BRANCH  18  19
ATOM     19  C   UNL     1      43.514  29.149  86.514  1.00  0.00     0.000 C 
BRANCH  19  20
ATOM     20  C   UNL     1      42.067  29.657  86.420  1.00  0.00     0.000 C 
BRANCH  20  21
ATOM     21  C   UNL     1      41.888  31.043  87.060  1.00  0.00     0.000 C 
BRANCH  21  22
ATOM     22  C   UNL     1      40.811  31.051  88.159  1.00  0.00     0.000 C 
BRANCH  22  23
ATOM     23  C   UNL     1      40.146  29.675  88.350  1.00  0.00     0.000 C 
BRANCH  23  24
ATOM     24  C   UNL     1      40.520  28.949  89.659  1.00  0.00    -0.000 C 
BRANCH  24  25
ATOM     25  C   UNL     1      40.003  27.501  89.779  1.00  0.00    -0.000 C 
BRANCH  25  26
ATOM     26  C   UNL     1      40.478  26.542  88.672  1.00  0.00    -0.000 C 
BRANCH  26  27
ATOM     27  C   UNL     1      42.007  26.373  88.646  1.00  0.00    -0.000 C 
BRANCH  27  28
ATOM     28  C   UNL     1      42.508  25.665  87.374  1.00  0.00    -0.000 C 
BRANCH  28  29
ATOM     29  C   UNL     1      43.901  25.013  87.488  1.00  0.00    -0.000 C 
BRANCH  29  30
ATOM     30  C   UNL     1      45.045  25.803  86.829  1.00  0.00    -0.000 C 
BRANCH  30  31
ATOM     31  C   UNL     1      46.135  26.212  87.829  1.00  0.00    -0.003 C 
ATOM     32  C   UNL     1      47.334  26.829  87.114  1.00  0.00     0.004 C 
ENDBRANCH  30  31
ENDBRANCH  29  30
ENDBRANCH  28  29
ENDBRANCH  27  28
ENDBRANCH  26  27
ENDBRANCH  25  26
ENDBRANCH  24  25
ENDBRANCH  23  24
ENDBRANCH  22  23
ENDBRANCH  21  22
ENDBRANCH  20  21
ENDBRANCH  19  20
ENDBRANCH  18  19
ENDBRANCH   1  18
TORSDOF 28
ENDMDL
MODEL 8
REMARK VINA RESULT:    -3.271      3.428      9.185
REMARK INTER + INTRA:         -14.120
REMARK INTER:                  -7.882
REMARK INTRA:                  -6.239
REMARK UNBOUND:                -5.496
REMARK SMILES CCCCCCCCCCCCCCCCCCCCCCCCCCCCCC(=O)[O-]
REMARK SMILES IDX 16 1 17 2 18 3 19 4 20 5 21 6 22 7 23 8 24 9 25 10 26 11
REMARK SMILES IDX 27 12 28 13 29 14 30 15 31 16 32 17 15 18 14 19 13 20 12 21
REMARK SMILES IDX 11 22 10 23 9 24 8 25 7 26 6 27 5 28 4 29 3 30 2 31 1 32
REMARK H PARENT
REMARK Flexibility Score: inf
ROOT
ATOM      1  C   UNL     1      44.775  27.943  91.828  1.00  0.00     0.000 C 
ENDROOT
BRANCH   1   2
ATOM      2  C   UNL     1      43.270  28.130  91.582  1.00  0.00     0.000 C 
BRANCH   2   3
ATOM      3  C   UNL     1      42.683  27.036  90.672  1.00  0.00     0.000 C 
BRANCH   3   4
ATOM      4  C   UNL     1      43.534  26.770  89.413  1.00  0.00     0.000 C 
BRANCH   4   5
ATOM      5  C   UNL     1      43.302  27.744  88.238  1.00  0.00     0.000 C 
BRANCH   5   6
ATOM      6  C   UNL     1      44.548  28.572  87.894  1.00  0.00     0.000 C 
BRANCH   6   7
ATOM      7  C   UNL     1      44.226  30.064  87.753  1.00  0.00     0.000 C 
BRANCH   7   8
ATOM      8  C   UNL     1      42.995  30.458  88.589  1.00  0.00     0.000 C 
BRANCH   8   9
ATOM      9  C   UNL     1      41.929  31.225  87.769  1.00  0.00     0.000 C 
BRANCH   9  10
ATOM     10  C   UNL     1      40.484  30.863  88.158  1.00  0.00     0.000 C 
BRANCH  10  11
ATOM     11  C   UNL     1      40.431  29.849  89.311  1.00  0.00     0.000 C 
BRANCH  11  12
ATOM     12  C   UNL     1      39.760  28.541  88.878  1.00  0.00     0.000 C 
BRANCH  12  13
ATOM     13  C   UNL     1      39.427  28.572  87.378  1.00  0.00     0.006 C 
BRANCH  13  14
ATOM     14  C   UNL     1      39.935  27.325  86.643  1.00  0.00     0.053 C 
BRANCH  14  15
ATOM     15  C   UNL     1      40.730  27.685  85.425  1.00  0.00     0.041 C 
ATOM     16  O   UNL     1      41.461  28.711  85.425  1.00  0.00    -0.550 OA
ATOM     17  O   UNL     1      40.696  26.864  84.305  1.00  0.00    -0.550 OA
ENDBRANCH  14  15
ENDBRANCH  13  14
ENDBRANCH  12  13
ENDBRANCH  11  12
ENDBRANCH  10  11
ENDBRANCH   9  10
ENDBRANCH   8   9
ENDBRANCH   7   8
ENDBRANCH   6   7
ENDBRANCH   5   6
ENDBRANCH   4   5
ENDBRANCH   3   4
ENDBRANCH   2   3
ENDBRANCH   1   2
BRANCH   1  18
ATOM     18  C   UNL     1      45.612  29.150  91.382  1.00  0.00     0.000 C 
BRANCH  18  19
ATOM     19  C   UNL     1      44.909  30.463  91.745  1.00  0.00     0.000 C 
BRANCH  19  20
ATOM     20  C   UNL     1      45.504  31.646  90.964  1.00  0.00     0.000 C 
BRANCH  20  21
ATOM     21  C   UNL     1      46.822  31.283  90.262  1.00  0.00     0.000 C 
BRANCH  21  22
ATOM     22  C   UNL     1      46.967  31.964  88.890  1.00  0.00     0.000 C 
BRANCH  22  23
ATOM     23  C   UNL     1      48.078  31.336  88.029  1.00  0.00     0.000 C 
BRANCH  23  24
ATOM     24  C   UNL     1      49.394  32.137  87.981  1.00  0.00    -0.000 C 
BRANCH  24  25
ATOM     25  C   UNL     1      50.665  31.341  88.342  1.00  0.00    -0.000 C 
BRANCH  25  26
ATOM     26  C   UNL     1      51.234  31.618  89.745  1.00  0.00    -0.000 C 
BRANCH  26  27
ATOM     27  C   UNL     1      50.523  30.814  90.847  1.00  0.00    -0.000 C 
BRANCH  27  28
ATOM     28  C   UNL     1      50.498  29.301  90.562  1.00  0.00    -0.000 C 
BRANCH  28  29
ATOM     29  C   UNL     1      49.136  28.612  90.777  1.00  0.00    -0.000 C 
BRANCH  29  30
ATOM     30  C   UNL     1      48.554  27.917  89.534  1.00  0.00    -0.000 C 
BRANCH  30  31
ATOM     31  C   UNL     1      49.574  27.795  88.393  1.00  0.00    -0.003 C 
ATOM     32  C   UNL     1      48.910  28.017  87.036  1.00  0.00     0.004 C 
ENDBRANCH  30  31
ENDBRANCH  29  30
ENDBRANCH  28  29
ENDBRANCH  27  28
ENDBRANCH  26  27
ENDBRANCH  25  26
ENDBRANCH  24  25
ENDBRANCH  23  24
ENDBRANCH  22  23
ENDBRANCH  21  22
ENDBRANCH  20  21
ENDBRANCH  19  20
ENDBRANCH  18  19
ENDBRANCH   1  18
TORSDOF 28
ENDMDL
MODEL 9
REMARK VINA RESULT:    -3.252      2.276      4.634
REMARK INTER + INTRA:         -14.071
REMARK INTER:                  -7.915
REMARK INTRA:                  -6.156
REMARK UNBOUND:                -5.496
REMARK SMILES CCCCCCCCCCCCCCCCCCCCCCCCCCCCCC(=O)[O-]
REMARK SMILES IDX 16 1 17 2 18 3 19 4 20 5 21 6 22 7 23 8 24 9 25 10 26 11
REMARK SMILES IDX 27 12 28 13 29 14 30 15 31 16 32 17 15 18 14 19 13 20 12 21
REMARK SMILES IDX 11 22 10 23 9 24 8 25 7 26 6 27 5 28 4 29 3 30 2 31 1 32
REMARK H PARENT
REMARK Flexibility Score: inf
ROOT
ATOM      1  C   UNL     1      46.337  31.058  90.269  1.00  0.00     0.000 C 
ENDROOT
BRANCH   1   2
ATOM      2  C   UNL     1      46.738  31.998  89.123  1.00  0.00     0.000 C 
BRANCH   2   3
ATOM      3  C   UNL     1      47.263  31.234  87.894  1.00  0.00     0.000 C 
BRANCH   3   4
ATOM      4  C   UNL     1      48.212  32.074  87.015  1.00  0.00     0.000 C 
BRANCH   4   5
ATOM      5  C   UNL     1      49.666  31.564  86.934  1.00  0.00     0.000 C 
BRANCH   5   6
ATOM      6  C   UNL     1      50.632  32.370  87.813  1.00  0.00     0.000 C 
BRANCH   6   7
ATOM      7  C   UNL     1      51.472  31.466  88.724  1.00  0.00     0.000 C 
BRANCH   7   8
ATOM      8  C   UNL     1      51.097  31.651  90.206  1.00  0.00     0.000 C 
BRANCH   8   9
ATOM      9  C   UNL     1      50.004  30.662  90.679  1.00  0.00     0.000 C 
BRANCH   9  10
ATOM     10  C   UNL     1      50.574  29.332  91.205  1.00  0.00     0.000 C 
BRANCH  10  11
ATOM     11  C   UNL     1      50.029  28.121  90.431  1.00  0.00     0.000 C 
BRANCH  11  12
ATOM     12  C   UNL     1      48.504  28.188  90.288  1.00  0.00     0.000 C 
BRANCH  12  13
ATOM     13  C   UNL     1      48.081  27.912  88.836  1.00  0.00     0.006 C 
BRANCH  13  14
ATOM     14  C   UNL     1      49.262  27.992  87.861  1.00  0.00     0.053 C 
BRANCH  14  15
ATOM     15  C   UNL     1      48.802  28.008  86.434  1.00  0.00     0.041 C 
ATOM     16  O   UNL     1      47.575  28.106  86.165  1.00  0.00    -0.550 OA
ATOM     17  O   UNL     1      49.731  27.960  85.404  1.00  0.00    -0.550 OA
ENDBRANCH  14  15
ENDBRANCH  13  14
ENDBRANCH  12  13
ENDBRANCH  11  12
ENDBRANCH  10  11
ENDBRANCH   9  10
ENDBRANCH   8   9
ENDBRANCH   7   8
ENDBRANCH   6   7
ENDBRANCH   5   6
ENDBRANCH   4   5
ENDBRANCH   3   4
ENDBRANCH   2   3
ENDBRANCH   1   2
BRANCH   1  18
ATOM     18  C   UNL     1      45.214  31.627  91.149  1.00  0.00     0.000 C 
BRANCH  18  19
ATOM     19  C   UNL     1      44.394  30.497  91.781  1.00  0.00     0.000 C 
BRANCH  19  20
ATOM     20  C   UNL     1      45.143  29.157  91.705  1.00  0.00     0.000 C 
BRANCH  20  21
ATOM     21  C   UNL     1      44.198  27.968  91.475  1.00  0.00     0.000 C 
BRANCH  21  22
ATOM     22  C   UNL     1      44.500  27.219  90.165  1.00  0.00     0.000 C 
BRANCH  22  23
ATOM     23  C   UNL     1      43.741  27.801  88.958  1.00  0.00     0.000 C 
BRANCH  23  24
ATOM     24  C   UNL     1      44.603  28.642  87.994  1.00  0.00    -0.000 C 
BRANCH  24  25
ATOM     25  C   UNL     1      43.875  29.823  87.320  1.00  0.00    -0.000 C 
BRANCH  25  26
ATOM     26  C   UNL     1      43.051  30.712  88.270  1.00  0.00    -0.000 C 
BRANCH  26  27
ATOM     27  C   UNL     1      41.757  31.236  87.624  1.00  0.00    -0.000 C 
BRANCH  27  28
ATOM     28  C   UNL     1      40.487  30.720  88.324  1.00  0.00    -0.000 C 
BRANCH  28  29
ATOM     29  C   UNL     1      40.728  29.924  89.623  1.00  0.00    -0.000 C 
BRANCH  29  30
ATOM     30  C   UNL     1      40.207  28.476  89.603  1.00  0.00    -0.000 C 
BRANCH  30  31
ATOM     31  C   UNL     1      39.521  28.111  88.280  1.00  0.00    -0.003 C 
ATOM     32  C   UNL     1      40.472  27.353  87.358  1.00  0.00     0.004 C 
ENDBRANCH  30  31
ENDBRANCH  29  30
ENDBRANCH  28  29
ENDBRANCH  27  28
ENDBRANCH  26  27
ENDBRANCH  25  26
ENDBRANCH  24  25
ENDBRANCH  23  24
ENDBRANCH  22  23
ENDBRANCH  21  22
ENDBRANCH  20  21
ENDBRANCH  19  20
ENDBRANCH  18  19
ENDBRANCH   1  18
TORSDOF 28
ENDMDL
