MODEL 1
REMARK VINA RESULT:    -2.746      0.000      0.000
REMARK INTER + INTRA:          -4.821
REMARK INTER:                  -4.351
REMARK INTRA:                  -0.470
REMARK UNBOUND:                -0.470
REMARK SMILES CCCCCCCCCCCC(=O)[O-]
REMARK SMILES IDX 7 1 8 2 9 3 10 4 11 5 12 6 13 7 14 8 6 9 5 10 4 11 3 12 2 13
REMARK SMILES IDX 1 14
REMARK H PARENT
REMARK Flexibility Score: inf
ROOT
ATOM      1  C   UNL     1      -1.047 -16.185 -27.079  1.00  0.00     0.000 C 
ENDROOT
BRANCH   1   2
ATOM      2  C   UNL     1      -2.007 -16.570 -25.945  1.00  0.00     0.000 C 
BRANCH   2   3
ATOM      3  C   UNL     1      -2.087 -18.088 -25.714  1.00  0.00     0.000 C 
BRANCH   3   4
ATOM      4  C   UNL     1      -0.734 -18.789 -25.479  1.00  0.00     0.006 C 
BRANCH   4   5
ATOM      5  C   UNL     1      -0.506 -20.028 -26.364  1.00  0.00     0.053 C 
BRANCH   5   6
ATOM      6  C   UNL     1      -0.540 -21.308 -25.586  1.00  0.00     0.041 C 
ATOM      7  O   UNL     1      -1.502 -22.109 -25.721  1.00  0.00    -0.550 OA
ATOM      8  O   UNL     1       0.513 -21.638 -24.742  1.00  0.00    -0.550 OA
ENDBRANCH   5   6
ENDBRANCH   4   5
ENDBRANCH   3   4
ENDBRANCH   2   3
ENDBRANCH   1   2
BRANCH   1   9
ATOM      9  C   UNL     1      -1.332 -14.764 -27.581  1.00  0.00     0.000 C 
BRANCH   9  10
ATOM     10  C   UNL     1      -1.562 -13.801 -26.410  1.00  0.00    -0.000 C 
BRANCH  10  11
ATOM     11  C   UNL     1      -1.399 -12.343 -26.855  1.00  0.00    -0.000 C 
BRANCH  11  12
ATOM     12  C   UNL     1      -0.358 -12.223 -27.975  1.00  0.00    -0.000 C 
BRANCH  12  13
ATOM     13  C   UNL     1       0.377 -10.880 -27.901  1.00  0.00    -0.003 C 
ATOM     14  C   UNL     1       1.875 -11.057 -28.125  1.00  0.00     0.004 C 
ENDBRANCH  12  13
ENDBRANCH  11  12
ENDBRANCH  10  11
ENDBRANCH   9  10
ENDBRANCH   1   9
TORSDOF 10
ENDMDL
MODEL 2
REMARK VINA RESULT:    -1.055      3.946      7.971
REMARK INTER + INTRA:          -2.143
REMARK INTER:                  -1.841
REMARK INTRA:                  -0.302
REMARK UNBOUND:                -0.470
REMARK SMILES CCCCCCCCCCCC(=O)[O-]
REMARK SMILES IDX 7 1 8 2 9 3 10 4 11 5 12 6 13 7 14 8 6 9 5 10 4 11 3 12 2 13
REMARK SMILES IDX 1 14
REMARK H PARENT
REMARK Flexibility Score: inf
ROOT
ATOM      1  C   UNL     1      -1.430 -15.972 -26.922  1.00  0.00     0.000 C 
ENDROOT
BRANCH   1   2
ATOM      2  C   UNL     1      -1.634 -14.605 -26.253  1.00  0.00     0.000 C 
BRANCH   2   3
ATOM      3  C   UNL     1      -2.007 -13.497 -27.250  1.00  0.00     0.000 C 
BRANCH   3   4
ATOM      4  C   UNL     1      -1.405 -12.110 -26.948  1.00  0.00     0.006 C 
BRANCH   4   5
ATOM      5  C   UNL     1      -0.619 -11.497 -28.122  1.00  0.00     0.053 C 
BRANCH   5   6
ATOM      6  C   UNL     1       0.831 -11.875 -28.106  1.00  0.00     0.041 C 
ATOM      7  O   UNL     1       1.719 -10.984 -28.038  1.00  0.00    -0.550 OA
ATOM      8  O   UNL     1       1.203 -13.213 -28.125  1.00  0.00    -0.550 OA
ENDBRANCH   5   6
ENDBRANCH   4   5
ENDBRANCH   3   4
ENDBRANCH   2   3
ENDBRANCH   1   2
BRANCH   1   9
ATOM      9  C   UNL     1      -1.356 -17.090 -25.876  1.00  0.00     0.000 C 
BRANCH   9  10
ATOM     10  C   UNL     1      -0.310 -18.141 -26.265  1.00  0.00    -0.000 C 
BRANCH  10  11
ATOM     11  C   UNL     1      -0.501 -19.432 -25.460  1.00  0.00    -0.000 C 
BRANCH  11  12
ATOM     12  C   UNL     1      -0.918 -20.593 -26.371  1.00  0.00    -0.000 C 
BRANCH  12  13
ATOM     13  C   UNL     1      -0.945 -21.917 -25.599  1.00  0.00    -0.003 C 
ATOM     14  C   UNL     1       0.330 -22.105 -24.783  1.00  0.00     0.004 C 
ENDBRANCH  12  13
ENDBRANCH  11  12
ENDBRANCH  10  11
ENDBRANCH   9  10
ENDBRANCH   1   9
TORSDOF 10
ENDMDL
