MODEL 1
REMARK VINA RESULT:    -4.750      0.000      0.000
REMARK INTER + INTRA:         -15.007
REMARK INTER:                 -10.858
REMARK INTRA:                  -4.148
REMARK UNBOUND:                -4.148
REMARK SMILES CCCCCCCCCCCCCCCCCCCCCCCC(=O)[O-]
REMARK SMILES IDX 13 1 14 2 15 3 16 4 17 5 18 6 19 7 20 8 21 9 22 10 23 11
REMARK SMILES IDX 24 12 25 13 26 14 12 15 11 16 10 17 9 18 8 19 7 20 6 21 5 22
REMARK SMILES IDX 4 23 3 24 2 25 1 26
REMARK H PARENT
REMARK Flexibility Score: inf
ROOT
ATOM      1  C   UNL     1      19.883  15.834  46.878  1.00  0.00     0.000 C 
ENDROOT
BRANCH   1   2
ATOM      2  C   UNL     1      21.102  16.271  47.703  1.00  0.00     0.000 C 
BRANCH   2   3
ATOM      3  C   UNL     1      21.223  17.801  47.836  1.00  0.00     0.000 C 
BRANCH   3   4
ATOM      4  C   UNL     1      20.951  18.357  49.245  1.00  0.00     0.000 C 
BRANCH   4   5
ATOM      5  C   UNL     1      20.183  19.690  49.225  1.00  0.00     0.000 C 
BRANCH   5   6
ATOM      6  C   UNL     1      20.047  20.270  47.807  1.00  0.00     0.000 C 
BRANCH   6   7
ATOM      7  C   UNL     1      18.624  20.776  47.513  1.00  0.00     0.000 C 
BRANCH   7   8
ATOM      8  C   UNL     1      18.343  20.915  46.009  1.00  0.00     0.000 C 
BRANCH   8   9
ATOM      9  C   UNL     1      19.390  20.202  45.139  1.00  0.00     0.000 C 
BRANCH   9  10
ATOM     10  C   UNL     1      18.891  20.051  43.694  1.00  0.00     0.006 C 
BRANCH  10  11
ATOM     11  C   UNL     1      17.508  20.685  43.488  1.00  0.00     0.053 C 
BRANCH  11  12
ATOM     12  C   UNL     1      17.542  21.763  42.448  1.00  0.00     0.041 C 
ATOM     13  O   UNL     1      18.403  22.679  42.512  1.00  0.00    -0.550 OA
ATOM     14  O   UNL     1      16.644  21.736  41.388  1.00  0.00    -0.550 OA
ENDBRANCH  11  12
ENDBRANCH  10  11
ENDBRANCH   9  10
ENDBRANCH   8   9
ENDBRANCH   7   8
ENDBRANCH   6   7
ENDBRANCH   5   6
ENDBRANCH   4   5
ENDBRANCH   3   4
ENDBRANCH   2   3
ENDBRANCH   1   2
BRANCH   1  15
ATOM     15  C   UNL     1      19.035  17.048  46.469  1.00  0.00     0.000 C 
BRANCH  15  16
ATOM     16  C   UNL     1      17.782  17.220  47.343  1.00  0.00     0.000 C 
BRANCH  16  17
ATOM     17  C   UNL     1      16.500  16.749  46.638  1.00  0.00     0.000 C 
BRANCH  17  18
ATOM     18  C   UNL     1      16.271  17.447  45.285  1.00  0.00    -0.000 C 
BRANCH  18  19
ATOM     19  C   UNL     1      16.211  16.509  44.061  1.00  0.00    -0.000 C 
BRANCH  19  20
ATOM     20  C   UNL     1      16.998  16.995  42.831  1.00  0.00    -0.000 C 
BRANCH  20  21
ATOM     21  C   UNL     1      16.116  17.750  41.822  1.00  0.00    -0.000 C 
BRANCH  21  22
ATOM     22  C   UNL     1      14.719  17.126  41.679  1.00  0.00    -0.000 C 
BRANCH  22  23
ATOM     23  C   UNL     1      13.591  18.129  41.980  1.00  0.00    -0.000 C 
BRANCH  23  24
ATOM     24  C   UNL     1      14.134  19.505  42.421  1.00  0.00    -0.000 C 
BRANCH  24  25
ATOM     25  C   UNL     1      13.878  19.824  43.903  1.00  0.00    -0.003 C 
ATOM     26  C   UNL     1      12.933  18.830  44.576  1.00  0.00     0.004 C 
ENDBRANCH  24  25
ENDBRANCH  23  24
ENDBRANCH  22  23
ENDBRANCH  21  22
ENDBRANCH  20  21
ENDBRANCH  19  20
ENDBRANCH  18  19
ENDBRANCH  17  18
ENDBRANCH  16  17
ENDBRANCH  15  16
ENDBRANCH   1  15
TORSDOF 22
ENDMDL
MODEL 2
REMARK VINA RESULT:    -4.726      3.614      7.389
REMARK INTER + INTRA:         -14.952
REMARK INTER:                 -11.051
REMARK INTRA:                  -3.901
REMARK UNBOUND:                -4.148
REMARK SMILES CCCCCCCCCCCCCCCCCCCCCCCC(=O)[O-]
REMARK SMILES IDX 13 1 14 2 15 3 16 4 17 5 18 6 19 7 20 8 21 9 22 10 23 11
REMARK SMILES IDX 24 12 25 13 26 14 12 15 11 16 10 17 9 18 8 19 7 20 6 21 5 22
REMARK SMILES IDX 4 23 3 24 2 25 1 26
REMARK H PARENT
REMARK Flexibility Score: inf
ROOT
ATOM      1  C   UNL     1      16.470  17.455  46.415  1.00  0.00     0.000 C 
ENDROOT
BRANCH   1   2
ATOM      2  C   UNL     1      15.605  16.270  45.962  1.00  0.00     0.000 C 
BRANCH   2   3
ATOM      3  C   UNL     1      16.072  15.659  44.628  1.00  0.00     0.000 C 
BRANCH   3   4
ATOM      4  C   UNL     1      16.778  14.297  44.745  1.00  0.00     0.000 C 
BRANCH   4   5
ATOM      5  C   UNL     1      16.547  13.618  46.107  1.00  0.00     0.000 C 
BRANCH   5   6
ATOM      6  C   UNL     1      17.660  12.619  46.463  1.00  0.00     0.000 C 
BRANCH   6   7
ATOM      7  C   UNL     1      19.062  13.153  46.119  1.00  0.00     0.000 C 
BRANCH   7   8
ATOM      8  C   UNL     1      20.143  12.063  46.182  1.00  0.00     0.000 C 
BRANCH   8   9
ATOM      9  C   UNL     1      21.057  12.201  47.410  1.00  0.00     0.000 C 
BRANCH   9  10
ATOM     10  C   UNL     1      21.529  13.653  47.580  1.00  0.00     0.006 C 
BRANCH  10  11
ATOM     11  C   UNL     1      22.879  13.744  48.305  1.00  0.00     0.053 C 
BRANCH  11  12
ATOM     12  C   UNL     1      23.048  15.060  48.999  1.00  0.00     0.041 C 
ATOM     13  O   UNL     1      23.723  15.978  48.464  1.00  0.00    -0.550 OA
ATOM     14  O   UNL     1      22.432  15.286  50.223  1.00  0.00    -0.550 OA
ENDBRANCH  11  12
ENDBRANCH  10  11
ENDBRANCH   9  10
ENDBRANCH   8   9
ENDBRANCH   7   8
ENDBRANCH   6   7
ENDBRANCH   5   6
ENDBRANCH   4   5
ENDBRANCH   3   4
ENDBRANCH   2   3
ENDBRANCH   1   2
BRANCH   1  15
ATOM     15  C   UNL     1      17.699  16.968  47.198  1.00  0.00     0.000 C 
BRANCH  15  16
ATOM     16  C   UNL     1      18.986  16.990  46.358  1.00  0.00     0.000 C 
BRANCH  16  17
ATOM     17  C   UNL     1      20.241  16.682  47.191  1.00  0.00     0.000 C 
BRANCH  17  18
ATOM     18  C   UNL     1      21.087  17.934  47.483  1.00  0.00    -0.000 C 
BRANCH  18  19
ATOM     19  C   UNL     1      20.959  18.496  48.914  1.00  0.00    -0.000 C 
BRANCH  19  20
ATOM     20  C   UNL     1      20.007  19.697  49.058  1.00  0.00    -0.000 C 
BRANCH  20  21
ATOM     21  C   UNL     1      19.849  20.489  47.749  1.00  0.00    -0.000 C 
BRANCH  21  22
ATOM     22  C   UNL     1      18.388  20.864  47.459  1.00  0.00    -0.000 C 
BRANCH  22  23
ATOM     23  C   UNL     1      18.084  20.936  45.952  1.00  0.00    -0.000 C 
BRANCH  23  24
ATOM     24  C   UNL     1      19.263  20.431  45.094  1.00  0.00    -0.000 C 
BRANCH  24  25
ATOM     25  C   UNL     1      18.825  19.671  43.831  1.00  0.00    -0.003 C 
ATOM     26  C   UNL     1      17.315  19.698  43.608  1.00  0.00     0.004 C 
ENDBRANCH  24  25
ENDBRANCH  23  24
ENDBRANCH  22  23
ENDBRANCH  21  22
ENDBRANCH  20  21
ENDBRANCH  19  20
ENDBRANCH  18  19
ENDBRANCH  17  18
ENDBRANCH  16  17
ENDBRANCH  15  16
ENDBRANCH   1  15
TORSDOF 22
ENDMDL
MODEL 3
REMARK VINA RESULT:    -4.716      1.839      4.447
REMARK INTER + INTRA:         -14.929
REMARK INTER:                 -10.642
REMARK INTRA:                  -4.287
REMARK UNBOUND:                -4.148
REMARK SMILES CCCCCCCCCCCCCCCCCCCCCCCC(=O)[O-]
REMARK SMILES IDX 13 1 14 2 15 3 16 4 17 5 18 6 19 7 20 8 21 9 22 10 23 11
REMARK SMILES IDX 24 12 25 13 26 14 12 15 11 16 10 17 9 18 8 19 7 20 6 21 5 22
REMARK SMILES IDX 4 23 3 24 2 25 1 26
REMARK H PARENT
REMARK Flexibility Score: inf
ROOT
ATOM      1  C   UNL     1      17.624  16.910  47.303  1.00  0.00     0.000 C 
ENDROOT
BRANCH   1   2
ATOM      2  C   UNL     1      18.800  16.927  46.316  1.00  0.00     0.000 C 
BRANCH   2   3
ATOM      3  C   UNL     1      20.056  16.223  46.863  1.00  0.00     0.000 C 
BRANCH   3   4
ATOM      4  C   UNL     1      20.666  16.862  48.123  1.00  0.00     0.000 C 
BRANCH   4   5
ATOM      5  C   UNL     1      21.096  18.324  47.904  1.00  0.00     0.000 C 
BRANCH   5   6
ATOM      6  C   UNL     1      20.332  19.303  48.809  1.00  0.00     0.000 C 
BRANCH   6   7
ATOM      7  C   UNL     1      19.914  20.585  48.067  1.00  0.00     0.000 C 
BRANCH   7   8
ATOM      8  C   UNL     1      18.456  20.542  47.584  1.00  0.00     0.000 C 
BRANCH   8   9
ATOM      9  C   UNL     1      18.301  20.968  46.116  1.00  0.00     0.000 C 
BRANCH   9  10
ATOM     10  C   UNL     1      19.450  20.412  45.261  1.00  0.00     0.006 C 
BRANCH  10  11
ATOM     11  C   UNL     1      18.957  19.845  43.923  1.00  0.00     0.053 C 
BRANCH  11  12
ATOM     12  C   UNL     1      18.121  20.838  43.175  1.00  0.00     0.041 C 
ATOM     13  O   UNL     1      16.913  20.589  42.922  1.00  0.00    -0.550 OA
ATOM     14  O   UNL     1      18.667  22.055  42.785  1.00  0.00    -0.550 OA
ENDBRANCH  11  12
ENDBRANCH  10  11
ENDBRANCH   9  10
ENDBRANCH   8   9
ENDBRANCH   7   8
ENDBRANCH   6   7
ENDBRANCH   5   6
ENDBRANCH   4   5
ENDBRANCH   3   4
ENDBRANCH   2   3
ENDBRANCH   1   2
BRANCH   1  15
ATOM     15  C   UNL     1      16.282  16.911  46.556  1.00  0.00     0.000 C 
BRANCH  15  16
ATOM     16  C   UNL     1      16.164  18.065  45.548  1.00  0.00     0.000 C 
BRANCH  16  17
ATOM     17  C   UNL     1      15.585  17.613  44.197  1.00  0.00     0.000 C 
BRANCH  17  18
ATOM     18  C   UNL     1      16.642  16.980  43.275  1.00  0.00    -0.000 C 
BRANCH  18  19
ATOM     19  C   UNL     1      16.472  15.468  43.018  1.00  0.00    -0.000 C 
BRANCH  19  20
ATOM     20  C   UNL     1      15.318  14.804  43.789  1.00  0.00    -0.000 C 
BRANCH  20  21
ATOM     21  C   UNL     1      15.808  13.760  44.807  1.00  0.00    -0.000 C 
BRANCH  21  22
ATOM     22  C   UNL     1      17.284  13.385  44.603  1.00  0.00    -0.000 C 
BRANCH  22  23
ATOM     23  C   UNL     1      18.032  13.185  45.933  1.00  0.00    -0.000 C 
BRANCH  23  24
ATOM     24  C   UNL     1      19.395  12.489  45.737  1.00  0.00    -0.000 C 
BRANCH  24  25
ATOM     25  C   UNL     1      20.375  12.712  46.902  1.00  0.00    -0.003 C 
ATOM     26  C   UNL     1      20.263  11.648  47.992  1.00  0.00     0.004 C 
ENDBRANCH  24  25
ENDBRANCH  23  24
ENDBRANCH  22  23
ENDBRANCH  21  22
ENDBRANCH  20  21
ENDBRANCH  19  20
ENDBRANCH  18  19
ENDBRANCH  17  18
ENDBRANCH  16  17
ENDBRANCH  15  16
ENDBRANCH   1  15
TORSDOF 22
ENDMDL
MODEL 4
REMARK VINA RESULT:    -4.639      1.836      4.586
REMARK INTER + INTRA:         -14.753
REMARK INTER:                 -11.187
REMARK INTRA:                  -3.566
REMARK UNBOUND:                -4.148
REMARK SMILES CCCCCCCCCCCCCCCCCCCCCCCC(=O)[O-]
REMARK SMILES IDX 13 1 14 2 15 3 16 4 17 5 18 6 19 7 20 8 21 9 22 10 23 11
REMARK SMILES IDX 24 12 25 13 26 14 12 15 11 16 10 17 9 18 8 19 7 20 6 21 5 22
REMARK SMILES IDX 4 23 3 24 2 25 1 26
REMARK H PARENT
REMARK Flexibility Score: inf
ROOT
ATOM      1  C   UNL     1      21.181  17.899  47.587  1.00  0.00     0.000 C 
ENDROOT
BRANCH   1   2
ATOM      2  C   UNL     1      20.966  18.277  49.060  1.00  0.00     0.000 C 
BRANCH   2   3
ATOM      3  C   UNL     1      20.271  19.640  49.237  1.00  0.00     0.000 C 
BRANCH   3   4
ATOM      4  C   UNL     1      20.049  20.433  47.936  1.00  0.00     0.000 C 
BRANCH   4   5
ATOM      5  C   UNL     1      18.562  20.572  47.567  1.00  0.00     0.000 C 
BRANCH   5   6
ATOM      6  C   UNL     1      18.357  21.105  46.140  1.00  0.00     0.000 C 
BRANCH   6   7
ATOM      7  C   UNL     1      19.384  20.533  45.146  1.00  0.00     0.000 C 
BRANCH   7   8
ATOM      8  C   UNL     1      18.761  19.531  44.161  1.00  0.00     0.000 C 
BRANCH   8   9
ATOM      9  C   UNL     1      17.225  19.552  44.182  1.00  0.00     0.000 C 
BRANCH   9  10
ATOM     10  C   UNL     1      16.666  20.016  42.828  1.00  0.00     0.006 C 
BRANCH  10  11
ATOM     11  C   UNL     1      16.342  21.516  42.816  1.00  0.00     0.053 C 
BRANCH  11  12
ATOM     12  C   UNL     1      17.320  22.287  41.982  1.00  0.00     0.041 C 
ATOM     13  O   UNL     1      17.053  22.560  40.783  1.00  0.00    -0.550 OA
ATOM     14  O   UNL     1      18.511  22.733  42.540  1.00  0.00    -0.550 OA
ENDBRANCH  11  12
ENDBRANCH  10  11
ENDBRANCH   9  10
ENDBRANCH   8   9
ENDBRANCH   7   8
ENDBRANCH   6   7
ENDBRANCH   5   6
ENDBRANCH   4   5
ENDBRANCH   3   4
ENDBRANCH   2   3
ENDBRANCH   1   2
BRANCH   1  15
ATOM     15  C   UNL     1      20.451  16.591  47.246  1.00  0.00     0.000 C 
BRANCH  15  16
ATOM     16  C   UNL     1      19.109  16.827  46.536  1.00  0.00     0.000 C 
BRANCH  16  17
ATOM     17  C   UNL     1      17.945  17.026  47.521  1.00  0.00     0.000 C 
BRANCH  17  18
ATOM     18  C   UNL     1      16.585  17.177  46.817  1.00  0.00    -0.000 C 
BRANCH  18  19
ATOM     19  C   UNL     1      15.860  15.855  46.493  1.00  0.00    -0.000 C 
BRANCH  19  20
ATOM     20  C   UNL     1      16.120  15.299  45.082  1.00  0.00    -0.000 C 
BRANCH  20  21
ATOM     21  C   UNL     1      16.304  13.772  45.070  1.00  0.00    -0.000 C 
BRANCH  21  22
ATOM     22  C   UNL     1      17.234  13.282  46.190  1.00  0.00    -0.000 C 
BRANCH  22  23
ATOM     23  C   UNL     1      18.722  13.482  45.852  1.00  0.00    -0.000 C 
BRANCH  23  24
ATOM     24  C   UNL     1      19.434  12.150  45.536  1.00  0.00    -0.000 C 
BRANCH  24  25
ATOM     25  C   UNL     1      20.575  11.813  46.511  1.00  0.00    -0.003 C 
ATOM     26  C   UNL     1      21.052  13.021  47.316  1.00  0.00     0.004 C 
ENDBRANCH  24  25
ENDBRANCH  23  24
ENDBRANCH  22  23
ENDBRANCH  21  22
ENDBRANCH  20  21
ENDBRANCH  19  20
ENDBRANCH  18  19
ENDBRANCH  17  18
ENDBRANCH  16  17
ENDBRANCH  15  16
ENDBRANCH   1  15
TORSDOF 22
ENDMDL
MODEL 5
REMARK VINA RESULT:    -4.544      2.435      6.234
REMARK INTER + INTRA:         -14.536
REMARK INTER:                 -11.035
REMARK INTRA:                  -3.501
REMARK UNBOUND:                -4.148
REMARK SMILES CCCCCCCCCCCCCCCCCCCCCCCC(=O)[O-]
REMARK SMILES IDX 13 1 14 2 15 3 16 4 17 5 18 6 19 7 20 8 21 9 22 10 23 11
REMARK SMILES IDX 24 12 25 13 26 14 12 15 11 16 10 17 9 18 8 19 7 20 6 21 5 22
REMARK SMILES IDX 4 23 3 24 2 25 1 26
REMARK H PARENT
REMARK Flexibility Score: inf
ROOT
ATOM      1  C   UNL     1      16.406  16.858  46.385  1.00  0.00     0.000 C 
ENDROOT
BRANCH   1   2
ATOM      2  C   UNL     1      17.683  16.929  47.234  1.00  0.00     0.000 C 
BRANCH   2   3
ATOM      3  C   UNL     1      18.971  16.870  46.392  1.00  0.00     0.000 C 
BRANCH   3   4
ATOM      4  C   UNL     1      20.235  16.446  47.161  1.00  0.00     0.000 C 
BRANCH   4   5
ATOM      5  C   UNL     1      21.121  17.640  47.560  1.00  0.00     0.000 C 
BRANCH   5   6
ATOM      6  C   UNL     1      20.850  18.121  48.994  1.00  0.00     0.000 C 
BRANCH   6   7
ATOM      7  C   UNL     1      20.257  19.541  49.036  1.00  0.00     0.000 C 
BRANCH   7   8
ATOM      8  C   UNL     1      20.200  20.200  47.648  1.00  0.00     0.000 C 
BRANCH   8   9
ATOM      9  C   UNL     1      18.774  20.602  47.239  1.00  0.00     0.000 C 
BRANCH   9  10
ATOM     10  C   UNL     1      18.681  20.818  45.721  1.00  0.00     0.006 C 
BRANCH  10  11
ATOM     11  C   UNL     1      17.451  20.133  45.110  1.00  0.00     0.053 C 
BRANCH  11  12
ATOM     12  C   UNL     1      17.664  19.797  43.666  1.00  0.00     0.041 C 
ATOM     13  O   UNL     1      17.911  18.612  43.320  1.00  0.00    -0.550 OA
ATOM     14  O   UNL     1      17.557  20.787  42.698  1.00  0.00    -0.550 OA
ENDBRANCH  11  12
ENDBRANCH  10  11
ENDBRANCH   9  10
ENDBRANCH   8   9
ENDBRANCH   7   8
ENDBRANCH   6   7
ENDBRANCH   5   6
ENDBRANCH   4   5
ENDBRANCH   3   4
ENDBRANCH   2   3
ENDBRANCH   1   2
BRANCH   1  15
ATOM     15  C   UNL     1      15.715  15.495  46.548  1.00  0.00     0.000 C 
BRANCH  15  16
ATOM     16  C   UNL     1      16.245  14.439  45.566  1.00  0.00     0.000 C 
BRANCH  16  17
ATOM     17  C   UNL     1      16.059  13.004  46.084  1.00  0.00     0.000 C 
BRANCH  17  18
ATOM     18  C   UNL     1      17.390  12.324  46.453  1.00  0.00    -0.000 C 
BRANCH  18  19
ATOM     19  C   UNL     1      18.660  13.132  46.111  1.00  0.00    -0.000 C 
BRANCH  19  20
ATOM     20  C   UNL     1      19.967  12.321  46.113  1.00  0.00    -0.000 C 
BRANCH  20  21
ATOM     21  C   UNL     1      20.742  12.448  47.436  1.00  0.00    -0.000 C 
BRANCH  21  22
ATOM     22  C   UNL     1      22.198  12.889  47.226  1.00  0.00    -0.000 C 
BRANCH  22  23
ATOM     23  C   UNL     1      22.786  13.596  48.460  1.00  0.00    -0.000 C 
BRANCH  23  24
ATOM     24  C   UNL     1      23.513  14.907  48.092  1.00  0.00    -0.000 C 
BRANCH  24  25
ATOM     25  C   UNL     1      23.885  15.769  49.310  1.00  0.00    -0.003 C 
ATOM     26  C   UNL     1      23.023  15.478  50.537  1.00  0.00     0.004 C 
ENDBRANCH  24  25
ENDBRANCH  23  24
ENDBRANCH  22  23
ENDBRANCH  21  22
ENDBRANCH  20  21
ENDBRANCH  19  20
ENDBRANCH  18  19
ENDBRANCH  17  18
ENDBRANCH  16  17
ENDBRANCH  15  16
ENDBRANCH   1  15
TORSDOF 22
ENDMDL
MODEL 6
REMARK VINA RESULT:    -4.540      2.475      6.681
REMARK INTER + INTRA:         -14.527
REMARK INTER:                 -10.278
REMARK INTRA:                  -4.250
REMARK UNBOUND:                -4.148
REMARK SMILES CCCCCCCCCCCCCCCCCCCCCCCC(=O)[O-]
REMARK SMILES IDX 13 1 14 2 15 3 16 4 17 5 18 6 19 7 20 8 21 9 22 10 23 11
REMARK SMILES IDX 24 12 25 13 26 14 12 15 11 16 10 17 9 18 8 19 7 20 6 21 5 22
REMARK SMILES IDX 4 23 3 24 2 25 1 26
REMARK H PARENT
REMARK Flexibility Score: inf
ROOT
ATOM      1  C   UNL     1      17.499  16.625  47.052  1.00  0.00     0.000 C 
ENDROOT
BRANCH   1   2
ATOM      2  C   UNL     1      18.311  16.022  45.896  1.00  0.00     0.000 C 
BRANCH   2   3
ATOM      3  C   UNL     1      18.832  14.605  46.200  1.00  0.00     0.000 C 
BRANCH   3   4
ATOM      4  C   UNL     1      18.051  13.463  45.526  1.00  0.00     0.000 C 
BRANCH   4   5
ATOM      5  C   UNL     1      17.173  12.674  46.513  1.00  0.00     0.000 C 
BRANCH   5   6
ATOM      6  C   UNL     1      15.681  12.733  46.150  1.00  0.00     0.000 C 
BRANCH   6   7
ATOM      7  C   UNL     1      15.113  14.161  46.226  1.00  0.00     0.000 C 
BRANCH   7   8
ATOM      8  C   UNL     1      14.621  14.677  44.865  1.00  0.00     0.000 C 
BRANCH   8   9
ATOM      9  C   UNL     1      14.727  13.621  43.754  1.00  0.00     0.000 C 
BRANCH   9  10
ATOM     10  C   UNL     1      15.740  14.053  42.683  1.00  0.00     0.006 C 
BRANCH  10  11
ATOM     11  C   UNL     1      16.030  15.560  42.732  1.00  0.00     0.053 C 
BRANCH  11  12
ATOM     12  C   UNL     1      15.239  16.310  41.704  1.00  0.00     0.041 C 
ATOM     13  O   UNL     1      14.751  15.705  40.714  1.00  0.00    -0.550 OA
ATOM     14  O   UNL     1      15.012  17.672  41.857  1.00  0.00    -0.550 OA
ENDBRANCH  11  12
ENDBRANCH  10  11
ENDBRANCH   9  10
ENDBRANCH   8   9
ENDBRANCH   7   8
ENDBRANCH   6   7
ENDBRANCH   5   6
ENDBRANCH   4   5
ENDBRANCH   3   4
ENDBRANCH   2   3
ENDBRANCH   1   2
BRANCH   1  15
ATOM     15  C   UNL     1      16.880  17.970  46.644  1.00  0.00     0.000 C 
BRANCH  15  16
ATOM     16  C   UNL     1      16.596  18.060  45.136  1.00  0.00     0.000 C 
BRANCH  16  17
ATOM     17  C   UNL     1      16.984  19.424  44.542  1.00  0.00     0.000 C 
BRANCH  17  18
ATOM     18  C   UNL     1      18.495  19.549  44.269  1.00  0.00    -0.000 C 
BRANCH  18  19
ATOM     19  C   UNL     1      19.237  20.586  45.138  1.00  0.00    -0.000 C 
BRANCH  19  20
ATOM     20  C   UNL     1      18.351  21.346  46.141  1.00  0.00    -0.000 C 
BRANCH  20  21
ATOM     21  C   UNL     1      18.601  20.917  47.597  1.00  0.00    -0.000 C 
BRANCH  21  22
ATOM     22  C   UNL     1      20.049  20.464  47.837  1.00  0.00    -0.000 C 
BRANCH  22  23
ATOM     23  C   UNL     1      20.142  18.995  48.283  1.00  0.00    -0.000 C 
BRANCH  23  24
ATOM     24  C   UNL     1      21.021  18.151  47.336  1.00  0.00    -0.000 C 
BRANCH  24  25
ATOM     25  C   UNL     1      21.385  16.767  47.900  1.00  0.00    -0.003 C 
ATOM     26  C   UNL     1      21.444  16.738  49.426  1.00  0.00     0.004 C 
ENDBRANCH  24  25
ENDBRANCH  23  24
ENDBRANCH  22  23
ENDBRANCH  21  22
ENDBRANCH  20  21
ENDBRANCH  19  20
ENDBRANCH  18  19
ENDBRANCH  17  18
ENDBRANCH  16  17
ENDBRANCH  15  16
ENDBRANCH   1  15
TORSDOF 22
ENDMDL
MODEL 7
REMARK VINA RESULT:    -4.529      1.440      2.240
REMARK INTER + INTRA:         -14.502
REMARK INTER:                 -10.234
REMARK INTRA:                  -4.268
REMARK UNBOUND:                -4.148
REMARK SMILES CCCCCCCCCCCCCCCCCCCCCCCC(=O)[O-]
REMARK SMILES IDX 13 1 14 2 15 3 16 4 17 5 18 6 19 7 20 8 21 9 22 10 23 11
REMARK SMILES IDX 24 12 25 13 26 14 12 15 11 16 10 17 9 18 8 19 7 20 6 21 5 22
REMARK SMILES IDX 4 23 3 24 2 25 1 26
REMARK H PARENT
REMARK Flexibility Score: inf
ROOT
ATOM      1  C   UNL     1      18.601  17.149  47.681  1.00  0.00     0.000 C 
ENDROOT
BRANCH   1   2
ATOM      2  C   UNL     1      20.040  16.945  47.185  1.00  0.00     0.000 C 
BRANCH   2   3
ATOM      3  C   UNL     1      20.996  18.066  47.634  1.00  0.00     0.000 C 
BRANCH   3   4
ATOM      4  C   UNL     1      20.696  18.664  49.019  1.00  0.00     0.000 C 
BRANCH   4   5
ATOM      5  C   UNL     1      20.250  20.136  48.953  1.00  0.00     0.000 C 
BRANCH   5   6
ATOM      6  C   UNL     1      19.956  20.597  47.516  1.00  0.00     0.000 C 
BRANCH   6   7
ATOM      7  C   UNL     1      18.454  20.824  47.267  1.00  0.00     0.000 C 
BRANCH   7   8
ATOM      8  C   UNL     1      18.002  20.330  45.883  1.00  0.00     0.000 C 
BRANCH   8   9
ATOM      9  C   UNL     1      19.178  19.912  44.986  1.00  0.00     0.000 C 
BRANCH   9  10
ATOM     10  C   UNL     1      18.793  20.006  43.502  1.00  0.00     0.006 C 
BRANCH  10  11
ATOM     11  C   UNL     1      18.423  21.436  43.086  1.00  0.00     0.053 C 
BRANCH  11  12
ATOM     12  C   UNL     1      17.038  21.507  42.518  1.00  0.00     0.041 C 
ATOM     13  O   UNL     1      16.037  21.394  43.273  1.00  0.00    -0.550 OA
ATOM     14  O   UNL     1      16.854  21.731  41.160  1.00  0.00    -0.550 OA
ENDBRANCH  11  12
ENDBRANCH  10  11
ENDBRANCH   9  10
ENDBRANCH   8   9
ENDBRANCH   7   8
ENDBRANCH   6   7
ENDBRANCH   5   6
ENDBRANCH   4   5
ENDBRANCH   3   4
ENDBRANCH   2   3
ENDBRANCH   1   2
BRANCH   1  15
ATOM     15  C   UNL     1      17.587  16.683  46.625  1.00  0.00     0.000 C 
BRANCH  15  16
ATOM     16  C   UNL     1      18.084  15.476  45.815  1.00  0.00     0.000 C 
BRANCH  16  17
ATOM     17  C   UNL     1      17.098  14.297  45.846  1.00  0.00     0.000 C 
BRANCH  17  18
ATOM     18  C   UNL     1      15.736  14.672  46.459  1.00  0.00    -0.000 C 
BRANCH  18  19
ATOM     19  C   UNL     1      14.530  14.558  45.504  1.00  0.00    -0.000 C 
BRANCH  19  20
ATOM     20  C   UNL     1      14.457  15.644  44.416  1.00  0.00    -0.000 C 
BRANCH  20  21
ATOM     21  C   UNL     1      14.369  17.064  45.000  1.00  0.00    -0.000 C 
BRANCH  21  22
ATOM     22  C   UNL     1      15.181  18.087  44.190  1.00  0.00    -0.000 C 
BRANCH  22  23
ATOM     23  C   UNL     1      16.237  17.422  43.290  1.00  0.00    -0.000 C 
BRANCH  23  24
ATOM     24  C   UNL     1      16.166  17.930  41.834  1.00  0.00    -0.000 C 
BRANCH  24  25
ATOM     25  C   UNL     1      14.827  18.596  41.476  1.00  0.00    -0.003 C 
ATOM     26  C   UNL     1      14.627  18.770  39.972  1.00  0.00     0.004 C 
ENDBRANCH  24  25
ENDBRANCH  23  24
ENDBRANCH  22  23
ENDBRANCH  21  22
ENDBRANCH  20  21
ENDBRANCH  19  20
ENDBRANCH  18  19
ENDBRANCH  17  18
ENDBRANCH  16  17
ENDBRANCH  15  16
ENDBRANCH   1  15
TORSDOF 22
ENDMDL
MODEL 8
REMARK VINA RESULT:    -4.529      2.350      5.638
REMARK INTER + INTRA:         -14.501
REMARK INTER:                 -10.967
REMARK INTRA:                  -3.534
REMARK UNBOUND:                -4.148
REMARK SMILES CCCCCCCCCCCCCCCCCCCCCCCC(=O)[O-]
REMARK SMILES IDX 13 1 14 2 15 3 16 4 17 5 18 6 19 7 20 8 21 9 22 10 23 11
REMARK SMILES IDX 24 12 25 13 26 14 12 15 11 16 10 17 9 18 8 19 7 20 6 21 5 22
REMARK SMILES IDX 4 23 3 24 2 25 1 26
REMARK H PARENT
REMARK Flexibility Score: inf
ROOT
ATOM      1  C   UNL     1      19.013  16.455  46.388  1.00  0.00     0.000 C 
ENDROOT
BRANCH   1   2
ATOM      2  C   UNL     1      20.301  16.269  47.202  1.00  0.00     0.000 C 
BRANCH   2   3
ATOM      3  C   UNL     1      20.985  17.601  47.560  1.00  0.00     0.000 C 
BRANCH   3   4
ATOM      4  C   UNL     1      20.901  18.000  49.044  1.00  0.00     0.000 C 
BRANCH   4   5
ATOM      5  C   UNL     1      20.590  19.493  49.247  1.00  0.00     0.000 C 
BRANCH   5   6
ATOM      6  C   UNL     1      19.319  19.935  48.504  1.00  0.00     0.000 C 
BRANCH   6   7
ATOM      7  C   UNL     1      19.621  20.901  47.345  1.00  0.00     0.000 C 
BRANCH   7   8
ATOM      8  C   UNL     1      18.754  20.628  46.105  1.00  0.00     0.000 C 
BRANCH   8   9
ATOM      9  C   UNL     1      19.502  19.846  45.015  1.00  0.00     0.000 C 
BRANCH   9  10
ATOM     10  C   UNL     1      18.555  19.461  43.869  1.00  0.00     0.006 C 
BRANCH  10  11
ATOM     11  C   UNL     1      17.143  19.124  44.371  1.00  0.00     0.053 C 
BRANCH  11  12
ATOM     12  C   UNL     1      16.086  19.682  43.467  1.00  0.00     0.041 C 
ATOM     13  O   UNL     1      14.869  19.499  43.728  1.00  0.00    -0.550 OA
ATOM     14  O   UNL     1      16.446  20.432  42.355  1.00  0.00    -0.550 OA
ENDBRANCH  11  12
ENDBRANCH  10  11
ENDBRANCH   9  10
ENDBRANCH   8   9
ENDBRANCH   7   8
ENDBRANCH   6   7
ENDBRANCH   5   6
ENDBRANCH   4   5
ENDBRANCH   3   4
ENDBRANCH   2   3
ENDBRANCH   1   2
BRANCH   1  15
ATOM     15  C   UNL     1      17.864  16.942  47.284  1.00  0.00     0.000 C 
BRANCH  15  16
ATOM     16  C   UNL     1      16.516  16.298  46.926  1.00  0.00     0.000 C 
BRANCH  16  17
ATOM     17  C   UNL     1      16.641  15.245  45.813  1.00  0.00     0.000 C 
BRANCH  17  18
ATOM     18  C   UNL     1      16.285  13.825  46.291  1.00  0.00    -0.000 C 
BRANCH  18  19
ATOM     19  C   UNL     1      17.153  12.695  45.699  1.00  0.00    -0.000 C 
BRANCH  19  20
ATOM     20  C   UNL     1      18.262  12.172  46.630  1.00  0.00    -0.000 C 
BRANCH  20  21
ATOM     21  C   UNL     1      19.652  12.715  46.260  1.00  0.00    -0.000 C 
BRANCH  21  22
ATOM     22  C   UNL     1      20.645  12.638  47.431  1.00  0.00    -0.000 C 
BRANCH  22  23
ATOM     23  C   UNL     1      22.034  12.138  46.995  1.00  0.00    -0.000 C 
BRANCH  23  24
ATOM     24  C   UNL     1      23.157  13.124  47.381  1.00  0.00    -0.000 C 
BRANCH  24  25
ATOM     25  C   UNL     1      22.778  14.074  48.529  1.00  0.00    -0.003 C 
ATOM     26  C   UNL     1      23.708  15.280  48.641  1.00  0.00     0.004 C 
ENDBRANCH  24  25
ENDBRANCH  23  24
ENDBRANCH  22  23
ENDBRANCH  21  22
ENDBRANCH  20  21
ENDBRANCH  19  20
ENDBRANCH  18  19
ENDBRANCH  17  18
ENDBRANCH  16  17
ENDBRANCH  15  16
ENDBRANCH   1  15
TORSDOF 22
ENDMDL
MODEL 9
REMARK VINA RESULT:    -4.492      3.681      5.808
REMARK INTER + INTRA:         -14.417
REMARK INTER:                 -10.439
REMARK INTRA:                  -3.977
REMARK UNBOUND:                -4.148
REMARK SMILES CCCCCCCCCCCCCCCCCCCCCCCC(=O)[O-]
REMARK SMILES IDX 13 1 14 2 15 3 16 4 17 5 18 6 19 7 20 8 21 9 22 10 23 11
REMARK SMILES IDX 24 12 25 13 26 14 12 15 11 16 10 17 9 18 8 19 7 20 6 21 5 22
REMARK SMILES IDX 4 23 3 24 2 25 1 26
REMARK H PARENT
REMARK Flexibility Score: inf
ROOT
ATOM      1  C   UNL     1      16.355  18.782  44.138  1.00  0.00     0.000 C 
ENDROOT
BRANCH   1   2
ATOM      2  C   UNL     1      17.745  18.448  43.578  1.00  0.00     0.000 C 
BRANCH   2   3
ATOM      3  C   UNL     1      18.758  19.595  43.759  1.00  0.00     0.000 C 
BRANCH   3   4
ATOM      4  C   UNL     1      18.213  20.839  44.481  1.00  0.00     0.000 C 
BRANCH   4   5
ATOM      5  C   UNL     1      19.017  21.200  45.743  1.00  0.00     0.000 C 
BRANCH   5   6
ATOM      6  C   UNL     1      19.888  20.034  46.239  1.00  0.00     0.000 C 
BRANCH   6   7
ATOM      7  C   UNL     1      20.063  20.040  47.768  1.00  0.00     0.000 C 
BRANCH   7   8
ATOM      8  C   UNL     1      20.330  18.639  48.339  1.00  0.00     0.000 C 
BRANCH   8   9
ATOM      9  C   UNL     1      21.475  17.910  47.619  1.00  0.00     0.000 C 
BRANCH   9  10
ATOM     10  C   UNL     1      21.550  16.440  48.059  1.00  0.00     0.006 C 
BRANCH  10  11
ATOM     11  C   UNL     1      22.977  16.020  48.439  1.00  0.00     0.053 C 
BRANCH  11  12
ATOM     12  C   UNL     1      23.064  15.585  49.870  1.00  0.00     0.041 C 
ATOM     13  O   UNL     1      22.034  15.188  50.476  1.00  0.00    -0.550 OA
ATOM     14  O   UNL     1      24.289  15.585  50.524  1.00  0.00    -0.550 OA
ENDBRANCH  11  12
ENDBRANCH  10  11
ENDBRANCH   9  10
ENDBRANCH   8   9
ENDBRANCH   7   8
ENDBRANCH   6   7
ENDBRANCH   5   6
ENDBRANCH   4   5
ENDBRANCH   3   4
ENDBRANCH   2   3
ENDBRANCH   1   2
BRANCH   1  15
ATOM     15  C   UNL     1      15.998  17.852  45.308  1.00  0.00     0.000 C 
BRANCH  15  16
ATOM     16  C   UNL     1      16.909  18.056  46.528  1.00  0.00     0.000 C 
BRANCH  16  17
ATOM     17  C   UNL     1      17.435  16.730  47.101  1.00  0.00     0.000 C 
BRANCH  17  18
ATOM     18  C   UNL     1      18.443  16.034  46.169  1.00  0.00    -0.000 C 
BRANCH  18  19
ATOM     19  C   UNL     1      18.121  14.563  45.832  1.00  0.00    -0.000 C 
BRANCH  19  20
ATOM     20  C   UNL     1      16.700  14.106  46.208  1.00  0.00    -0.000 C 
BRANCH  20  21
ATOM     21  C   UNL     1      15.729  14.145  45.014  1.00  0.00    -0.000 C 
BRANCH  21  22
ATOM     22  C   UNL     1      16.446  13.973  43.666  1.00  0.00    -0.000 C 
BRANCH  22  23
ATOM     23  C   UNL     1      16.302  15.207  42.759  1.00  0.00    -0.000 C 
BRANCH  23  24
ATOM     24  C   UNL     1      14.943  15.240  42.028  1.00  0.00    -0.000 C 
BRANCH  24  25
ATOM     25  C   UNL     1      14.074  16.454  42.395  1.00  0.00    -0.003 C 
ATOM     26  C   UNL     1      13.015  16.137  43.449  1.00  0.00     0.004 C 
ENDBRANCH  24  25
ENDBRANCH  23  24
ENDBRANCH  22  23
ENDBRANCH  21  22
ENDBRANCH  20  21
ENDBRANCH  19  20
ENDBRANCH  18  19
ENDBRANCH  17  18
ENDBRANCH  16  17
ENDBRANCH  15  16
ENDBRANCH   1  15
TORSDOF 22
ENDMDL
