MODEL 1
REMARK VINA RESULT:    -3.673      0.000      0.000
REMARK INTER + INTRA:         -11.472
REMARK INTER:                  -9.686
REMARK INTRA:                  -1.786
REMARK UNBOUND:                -1.786
REMARK SMILES CCCCCCCCCCCCCCCCCCCCCCCCCCCCCC(=O)[O-]
REMARK SMILES IDX 16 1 17 2 18 3 19 4 20 5 21 6 22 7 23 8 24 9 25 10 26 11
REMARK SMILES IDX 27 12 28 13 29 14 30 15 31 16 32 17 15 18 14 19 13 20 12 21
REMARK SMILES IDX 11 22 10 23 9 24 8 25 7 26 6 27 5 28 4 29 3 30 2 31 1 32
REMARK H PARENT
REMARK Flexibility Score: inf
ROOT
ATOM      1  C   UNL     1      42.949  28.510   1.634  1.00  0.00     0.000 C 
ENDROOT
BRANCH   1   2
ATOM      2  C   UNL     1      43.096  28.213   0.134  1.00  0.00     0.000 C 
BRANCH   2   3
ATOM      3  C   UNL     1      43.506  26.755  -0.127  1.00  0.00     0.000 C 
BRANCH   3   4
ATOM      4  C   UNL     1      43.590  26.417  -1.631  1.00  0.00     0.000 C 
BRANCH   4   5
ATOM      5  C   UNL     1      44.406  27.416  -2.480  1.00  0.00     0.000 C 
BRANCH   5   6
ATOM      6  C   UNL     1      45.445  28.257  -1.716  1.00  0.00     0.000 C 
BRANCH   6   7
ATOM      7  C   UNL     1      46.828  28.274  -2.394  1.00  0.00     0.000 C 
BRANCH   7   8
ATOM      8  C   UNL     1      47.068  27.047  -3.289  1.00  0.00     0.000 C 
BRANCH   8   9
ATOM      9  C   UNL     1      47.121  27.419  -4.783  1.00  0.00     0.000 C 
BRANCH   9  10
ATOM     10  C   UNL     1      46.654  28.856  -5.056  1.00  0.00     0.000 C 
BRANCH  10  11
ATOM     11  C   UNL     1      46.340  29.094  -6.545  1.00  0.00     0.000 C 
BRANCH  11  12
ATOM     12  C   UNL     1      44.920  28.647  -6.929  1.00  0.00     0.000 C 
BRANCH  12  13
ATOM     13  C   UNL     1      44.359  27.576  -5.973  1.00  0.00     0.006 C 
BRANCH  13  14
ATOM     14  C   UNL     1      42.827  27.508  -6.016  1.00  0.00     0.053 C 
BRANCH  14  15
ATOM     15  C   UNL     1      42.204  28.847  -5.753  1.00  0.00     0.041 C 
ATOM     16  O   UNL     1      42.457  29.465  -4.683  1.00  0.00    -0.550 OA
ATOM     17  O   UNL     1      41.313  29.392  -6.670  1.00  0.00    -0.550 OA
ENDBRANCH  14  15
ENDBRANCH  13  14
ENDBRANCH  12  13
ENDBRANCH  11  12
ENDBRANCH  10  11
ENDBRANCH   9  10
ENDBRANCH   8   9
ENDBRANCH   7   8
ENDBRANCH   6   7
ENDBRANCH   5   6
ENDBRANCH   4   5
ENDBRANCH   3   4
ENDBRANCH   2   3
ENDBRANCH   1   2
BRANCH   1  18
ATOM     18  C   UNL     1      43.915  29.608   2.115  1.00  0.00     0.000 C 
BRANCH  18  19
ATOM     19  C   UNL     1      45.347  29.093   2.329  1.00  0.00     0.000 C 
BRANCH  19  20
ATOM     20  C   UNL     1      45.353  27.583   2.613  1.00  0.00     0.000 C 
BRANCH  20  21
ATOM     21  C   UNL     1      46.641  26.891   2.139  1.00  0.00     0.000 C 
BRANCH  21  22
ATOM     22  C   UNL     1      46.893  25.553   2.852  1.00  0.00     0.000 C 
BRANCH  22  23
ATOM     23  C   UNL     1      46.114  25.441   4.172  1.00  0.00     0.000 C 
BRANCH  23  24
ATOM     24  C   UNL     1      46.904  25.988   5.370  1.00  0.00    -0.000 C 
BRANCH  24  25
ATOM     25  C   UNL     1      45.974  26.237   6.563  1.00  0.00    -0.000 C 
BRANCH  25  26
ATOM     26  C   UNL     1      46.096  27.683   7.071  1.00  0.00    -0.000 C 
BRANCH  26  27
ATOM     27  C   UNL     1      45.464  27.865   8.468  1.00  0.00    -0.000 C 
BRANCH  27  28
ATOM     28  C   UNL     1      46.438  28.420   9.524  1.00  0.00    -0.000 C 
BRANCH  28  29
ATOM     29  C   UNL     1      47.073  27.322  10.393  1.00  0.00    -0.000 C 
BRANCH  29  30
ATOM     30  C   UNL     1      46.213  26.049  10.478  1.00  0.00    -0.000 C 
BRANCH  30  31
ATOM     31  C   UNL     1      46.992  24.731  10.316  1.00  0.00    -0.003 C 
ATOM     32  C   UNL     1      47.095  23.936  11.618  1.00  0.00     0.004 C 
ENDBRANCH  30  31
ENDBRANCH  29  30
ENDBRANCH  28  29
ENDBRANCH  27  28
ENDBRANCH  26  27
ENDBRANCH  25  26
ENDBRANCH  24  25
ENDBRANCH  23  24
ENDBRANCH  22  23
ENDBRANCH  21  22
ENDBRANCH  20  21
ENDBRANCH  19  20
ENDBRANCH  18  19
ENDBRANCH   1  18
TORSDOF 28
ENDMDL
MODEL 2
REMARK VINA RESULT:    -3.524      1.623      3.147
REMARK INTER + INTRA:         -11.078
REMARK INTER:                  -8.270
REMARK INTRA:                  -2.808
REMARK UNBOUND:                -1.786
REMARK SMILES CCCCCCCCCCCCCCCCCCCCCCCCCCCCCC(=O)[O-]
REMARK SMILES IDX 16 1 17 2 18 3 19 4 20 5 21 6 22 7 23 8 24 9 25 10 26 11
REMARK SMILES IDX 27 12 28 13 29 14 30 15 31 16 32 17 15 18 14 19 13 20 12 21
REMARK SMILES IDX 11 22 10 23 9 24 8 25 7 26 6 27 5 28 4 29 3 30 2 31 1 32
REMARK H PARENT
REMARK Flexibility Score: inf
ROOT
ATOM      1  C   UNL     1      42.658  27.267   0.481  1.00  0.00     0.000 C 
ENDROOT
BRANCH   1   2
ATOM      2  C   UNL     1      43.147  27.640  -0.927  1.00  0.00     0.000 C 
BRANCH   2   3
ATOM      3  C   UNL     1      42.232  28.677  -1.599  1.00  0.00     0.000 C 
BRANCH   3   4
ATOM      4  C   UNL     1      43.001  29.920  -2.094  1.00  0.00     0.000 C 
BRANCH   4   5
ATOM      5  C   UNL     1      44.410  29.635  -2.659  1.00  0.00     0.000 C 
BRANCH   5   6
ATOM      6  C   UNL     1      45.581  29.848  -1.684  1.00  0.00     0.000 C 
BRANCH   6   7
ATOM      7  C   UNL     1      46.526  28.634  -1.597  1.00  0.00     0.000 C 
BRANCH   7   8
ATOM      8  C   UNL     1      47.079  28.210  -2.969  1.00  0.00     0.000 C 
BRANCH   8   9
ATOM      9  C   UNL     1      46.463  26.886  -3.459  1.00  0.00     0.000 C 
BRANCH   9  10
ATOM     10  C   UNL     1      45.252  27.096  -4.380  1.00  0.00     0.000 C 
BRANCH  10  11
ATOM     11  C   UNL     1      45.663  27.588  -5.780  1.00  0.00     0.000 C 
BRANCH  11  12
ATOM     12  C   UNL     1      45.658  29.120  -5.895  1.00  0.00     0.000 C 
BRANCH  12  13
ATOM     13  C   UNL     1      44.447  29.649  -6.688  1.00  0.00     0.006 C 
BRANCH  13  14
ATOM     14  C   UNL     1      43.458  28.533  -7.049  1.00  0.00     0.053 C 
BRANCH  14  15
ATOM     15  C   UNL     1      42.221  28.593  -6.203  1.00  0.00     0.041 C 
ATOM     16  O   UNL     1      42.175  27.980  -5.102  1.00  0.00    -0.550 OA
ATOM     17  O   UNL     1      41.105  29.290  -6.651  1.00  0.00    -0.550 OA
ENDBRANCH  14  15
ENDBRANCH  13  14
ENDBRANCH  12  13
ENDBRANCH  11  12
ENDBRANCH  10  11
ENDBRANCH   9  10
ENDBRANCH   8   9
ENDBRANCH   7   8
ENDBRANCH   6   7
ENDBRANCH   5   6
ENDBRANCH   4   5
ENDBRANCH   3   4
ENDBRANCH   2   3
ENDBRANCH   1   2
BRANCH   1  18
ATOM     18  C   UNL     1      42.375  28.503   1.354  1.00  0.00     0.000 C 
BRANCH  18  19
ATOM     19  C   UNL     1      43.617  29.384   1.563  1.00  0.00     0.000 C 
BRANCH  19  20
ATOM     20  C   UNL     1      44.740  28.597   2.254  1.00  0.00     0.000 C 
BRANCH  20  21
ATOM     21  C   UNL     1      46.136  29.177   1.975  1.00  0.00     0.000 C 
BRANCH  21  22
ATOM     22  C   UNL     1      46.728  29.913   3.187  1.00  0.00     0.000 C 
BRANCH  22  23
ATOM     23  C   UNL     1      46.409  29.201   4.512  1.00  0.00     0.000 C 
BRANCH  23  24
ATOM     24  C   UNL     1      46.568  30.125   5.729  1.00  0.00    -0.000 C 
BRANCH  24  25
ATOM     25  C   UNL     1      45.291  30.125   6.578  1.00  0.00    -0.000 C 
BRANCH  25  26
ATOM     26  C   UNL     1      45.348  29.041   7.667  1.00  0.00    -0.000 C 
BRANCH  26  27
ATOM     27  C   UNL     1      46.485  28.026   7.420  1.00  0.00    -0.000 C 
BRANCH  27  28
ATOM     28  C   UNL     1      46.122  26.580   7.807  1.00  0.00    -0.000 C 
BRANCH  28  29
ATOM     29  C   UNL     1      45.923  25.663   6.588  1.00  0.00    -0.000 C 
BRANCH  29  30
ATOM     30  C   UNL     1      46.697  26.139   5.345  1.00  0.00    -0.000 C 
BRANCH  30  31
ATOM     31  C   UNL     1      46.356  25.388   4.045  1.00  0.00    -0.003 C 
ATOM     32  C   UNL     1      47.125  25.914   2.833  1.00  0.00     0.004 C 
ENDBRANCH  30  31
ENDBRANCH  29  30
ENDBRANCH  28  29
ENDBRANCH  27  28
ENDBRANCH  26  27
ENDBRANCH  25  26
ENDBRANCH  24  25
ENDBRANCH  23  24
ENDBRANCH  22  23
ENDBRANCH  21  22
ENDBRANCH  20  21
ENDBRANCH  19  20
ENDBRANCH  18  19
ENDBRANCH   1  18
TORSDOF 28
ENDMDL
MODEL 3
REMARK VINA RESULT:    -3.322      1.310      2.458
REMARK INTER + INTRA:         -10.545
REMARK INTER:                  -8.868
REMARK INTRA:                  -1.677
REMARK UNBOUND:                -1.786
REMARK SMILES CCCCCCCCCCCCCCCCCCCCCCCCCCCCCC(=O)[O-]
REMARK SMILES IDX 16 1 17 2 18 3 19 4 20 5 21 6 22 7 23 8 24 9 25 10 26 11
REMARK SMILES IDX 27 12 28 13 29 14 30 15 31 16 32 17 15 18 14 19 13 20 12 21
REMARK SMILES IDX 11 22 10 23 9 24 8 25 7 26 6 27 5 28 4 29 3 30 2 31 1 32
REMARK H PARENT
REMARK Flexibility Score: inf
ROOT
ATOM      1  C   UNL     1      42.287  28.192   0.798  1.00  0.00     0.000 C 
ENDROOT
BRANCH   1   2
ATOM      2  C   UNL     1      42.102  28.302  -0.724  1.00  0.00     0.000 C 
BRANCH   2   3
ATOM      3  C   UNL     1      43.416  28.655  -1.439  1.00  0.00     0.000 C 
BRANCH   3   4
ATOM      4  C   UNL     1      44.377  27.452  -1.553  1.00  0.00     0.000 C 
BRANCH   4   5
ATOM      5  C   UNL     1      45.828  27.732  -1.105  1.00  0.00     0.000 C 
BRANCH   5   6
ATOM      6  C   UNL     1      46.806  28.154  -2.215  1.00  0.00     0.000 C 
BRANCH   6   7
ATOM      7  C   UNL     1      46.917  29.682  -2.376  1.00  0.00     0.000 C 
BRANCH   7   8
ATOM      8  C   UNL     1      47.016  30.121  -3.847  1.00  0.00     0.000 C 
BRANCH   8   9
ATOM      9  C   UNL     1      46.952  28.925  -4.815  1.00  0.00     0.000 C 
BRANCH   9  10
ATOM     10  C   UNL     1      47.095  29.341  -6.287  1.00  0.00     0.000 C 
BRANCH  10  11
ATOM     11  C   UNL     1      45.863  28.952  -7.125  1.00  0.00     0.000 C 
BRANCH  11  12
ATOM     12  C   UNL     1      45.465  27.479  -6.945  1.00  0.00     0.000 C 
BRANCH  12  13
ATOM     13  C   UNL     1      43.941  27.264  -7.027  1.00  0.00     0.006 C 
BRANCH  13  14
ATOM     14  C   UNL     1      43.280  27.270  -5.642  1.00  0.00     0.053 C 
BRANCH  14  15
ATOM     15  C   UNL     1      42.340  28.428  -5.482  1.00  0.00     0.041 C 
ATOM     16  O   UNL     1      41.511  28.702  -6.393  1.00  0.00    -0.550 OA
ATOM     17  O   UNL     1      42.410  29.230  -4.349  1.00  0.00    -0.550 OA
ENDBRANCH  14  15
ENDBRANCH  13  14
ENDBRANCH  12  13
ENDBRANCH  11  12
ENDBRANCH  10  11
ENDBRANCH   9  10
ENDBRANCH   8   9
ENDBRANCH   7   8
ENDBRANCH   6   7
ENDBRANCH   5   6
ENDBRANCH   4   5
ENDBRANCH   3   4
ENDBRANCH   2   3
ENDBRANCH   1   2
BRANCH   1  18
ATOM     18  C   UNL     1      42.754  29.514   1.432  1.00  0.00     0.000 C 
BRANCH  18  19
ATOM     19  C   UNL     1      44.283  29.659   1.455  1.00  0.00     0.000 C 
BRANCH  19  20
ATOM     20  C   UNL     1      44.782  30.024   2.862  1.00  0.00     0.000 C 
BRANCH  20  21
ATOM     21  C   UNL     1      45.787  29.006   3.423  1.00  0.00     0.000 C 
BRANCH  21  22
ATOM     22  C   UNL     1      46.413  28.124   2.331  1.00  0.00     0.000 C 
BRANCH  22  23
ATOM     23  C   UNL     1      45.602  26.842   2.084  1.00  0.00     0.000 C 
BRANCH  23  24
ATOM     24  C   UNL     1      44.563  26.582   3.185  1.00  0.00    -0.000 C 
BRANCH  24  25
ATOM     25  C   UNL     1      45.156  25.700   4.290  1.00  0.00    -0.000 C 
BRANCH  25  26
ATOM     26  C   UNL     1      46.673  25.913   4.419  1.00  0.00    -0.000 C 
BRANCH  26  27
ATOM     27  C   UNL     1      47.124  26.013   5.892  1.00  0.00    -0.000 C 
BRANCH  27  28
ATOM     28  C   UNL     1      45.964  26.222   6.885  1.00  0.00    -0.000 C 
BRANCH  28  29
ATOM     29  C   UNL     1      46.336  25.851   8.331  1.00  0.00    -0.000 C 
BRANCH  29  30
ATOM     30  C   UNL     1      45.980  26.953   9.344  1.00  0.00    -0.000 C 
BRANCH  30  31
ATOM     31  C   UNL     1      45.540  28.289   8.718  1.00  0.00    -0.003 C 
ATOM     32  C   UNL     1      45.777  29.487   9.639  1.00  0.00     0.004 C 
ENDBRANCH  30  31
ENDBRANCH  29  30
ENDBRANCH  28  29
ENDBRANCH  27  28
ENDBRANCH  26  27
ENDBRANCH  25  26
ENDBRANCH  24  25
ENDBRANCH  23  24
ENDBRANCH  22  23
ENDBRANCH  21  22
ENDBRANCH  20  21
ENDBRANCH  19  20
ENDBRANCH  18  19
ENDBRANCH   1  18
TORSDOF 28
ENDMDL
MODEL 4
REMARK VINA RESULT:    -3.076      1.462      2.332
REMARK INTER + INTRA:          -9.896
REMARK INTER:                  -8.905
REMARK INTRA:                  -0.991
REMARK UNBOUND:                -1.786
REMARK SMILES CCCCCCCCCCCCCCCCCCCCCCCCCCCCCC(=O)[O-]
REMARK SMILES IDX 16 1 17 2 18 3 19 4 20 5 21 6 22 7 23 8 24 9 25 10 26 11
REMARK SMILES IDX 27 12 28 13 29 14 30 15 31 16 32 17 15 18 14 19 13 20 12 21
REMARK SMILES IDX 11 22 10 23 9 24 8 25 7 26 6 27 5 28 4 29 3 30 2 31 1 32
REMARK H PARENT
REMARK Flexibility Score: inf
ROOT
ATOM      1  C   UNL     1      43.923  28.580   1.531  1.00  0.00     0.000 C 
ENDROOT
BRANCH   1   2
ATOM      2  C   UNL     1      42.452  29.003   1.390  1.00  0.00     0.000 C 
BRANCH   2   3
ATOM      3  C   UNL     1      42.247  29.995   0.234  1.00  0.00     0.000 C 
BRANCH   3   4
ATOM      4  C   UNL     1      42.615  29.397  -1.141  1.00  0.00     0.000 C 
BRANCH   4   5
ATOM      5  C   UNL     1      43.796  30.087  -1.857  1.00  0.00     0.000 C 
BRANCH   5   6
ATOM      6  C   UNL     1      45.202  29.639  -1.421  1.00  0.00     0.000 C 
BRANCH   6   7
ATOM      7  C   UNL     1      45.452  28.133  -1.631  1.00  0.00     0.000 C 
BRANCH   7   8
ATOM      8  C   UNL     1      46.703  27.849  -2.479  1.00  0.00     0.000 C 
BRANCH   8   9
ATOM      9  C   UNL     1      46.371  27.056  -3.758  1.00  0.00     0.000 C 
BRANCH   9  10
ATOM     10  C   UNL     1      45.332  27.761  -4.643  1.00  0.00     0.000 C 
BRANCH  10  11
ATOM     11  C   UNL     1      43.923  27.163  -4.476  1.00  0.00     0.000 C 
BRANCH  11  12
ATOM     12  C   UNL     1      43.189  26.994  -5.815  1.00  0.00     0.000 C 
BRANCH  12  13
ATOM     13  C   UNL     1      43.802  27.853  -6.938  1.00  0.00     0.006 C 
BRANCH  13  14
ATOM     14  C   UNL     1      43.469  29.342  -6.776  1.00  0.00     0.053 C 
BRANCH  14  15
ATOM     15  C   UNL     1      42.076  29.545  -6.259  1.00  0.00     0.041 C 
ATOM     16  O   UNL     1      41.888  30.125  -5.155  1.00  0.00    -0.550 OA
ATOM     17  O   UNL     1      40.990  29.056  -6.975  1.00  0.00    -0.550 OA
ENDBRANCH  14  15
ENDBRANCH  13  14
ENDBRANCH  12  13
ENDBRANCH  11  12
ENDBRANCH  10  11
ENDBRANCH   9  10
ENDBRANCH   8   9
ENDBRANCH   7   8
ENDBRANCH   6   7
ENDBRANCH   5   6
ENDBRANCH   4   5
ENDBRANCH   3   4
ENDBRANCH   2   3
ENDBRANCH   1   2
BRANCH   1  18
ATOM     18  C   UNL     1      44.626  29.277   2.710  1.00  0.00     0.000 C 
BRANCH  18  19
ATOM     19  C   UNL     1      46.122  29.518   2.456  1.00  0.00     0.000 C 
BRANCH  19  20
ATOM     20  C   UNL     1      46.739  28.361   1.655  1.00  0.00     0.000 C 
BRANCH  20  21
ATOM     21  C   UNL     1      47.121  27.161   2.536  1.00  0.00     0.000 C 
BRANCH  21  22
ATOM     22  C   UNL     1      46.039  26.070   2.557  1.00  0.00     0.000 C 
BRANCH  22  23
ATOM     23  C   UNL     1      46.435  24.875   3.440  1.00  0.00     0.000 C 
BRANCH  23  24
ATOM     24  C   UNL     1      47.037  25.312   4.784  1.00  0.00    -0.000 C 
BRANCH  24  25
ATOM     25  C   UNL     1      46.993  26.837   4.926  1.00  0.00    -0.000 C 
BRANCH  25  26
ATOM     26  C   UNL     1      46.456  27.253   6.305  1.00  0.00    -0.000 C 
BRANCH  26  27
ATOM     27  C   UNL     1      46.674  26.156   7.370  1.00  0.00    -0.000 C 
BRANCH  27  28
ATOM     28  C   UNL     1      45.615  26.154   8.488  1.00  0.00    -0.000 C 
BRANCH  28  29
ATOM     29  C   UNL     1      46.132  26.752   9.808  1.00  0.00    -0.000 C 
BRANCH  29  30
ATOM     30  C   UNL     1      46.857  28.096   9.615  1.00  0.00    -0.000 C 
BRANCH  30  31
ATOM     31  C   UNL     1      46.067  29.330  10.087  1.00  0.00    -0.003 C 
ATOM     32  C   UNL     1      45.120  29.876   9.019  1.00  0.00     0.004 C 
ENDBRANCH  30  31
ENDBRANCH  29  30
ENDBRANCH  28  29
ENDBRANCH  27  28
ENDBRANCH  26  27
ENDBRANCH  25  26
ENDBRANCH  24  25
ENDBRANCH  23  24
ENDBRANCH  22  23
ENDBRANCH  21  22
ENDBRANCH  20  21
ENDBRANCH  19  20
ENDBRANCH  18  19
ENDBRANCH   1  18
TORSDOF 28
ENDMDL
MODEL 5
REMARK VINA RESULT:    -3.067      3.118      5.666
REMARK INTER + INTRA:          -9.874
REMARK INTER:                  -6.902
REMARK INTRA:                  -2.971
REMARK UNBOUND:                -1.786
REMARK SMILES CCCCCCCCCCCCCCCCCCCCCCCCCCCCCC(=O)[O-]
REMARK SMILES IDX 16 1 17 2 18 3 19 4 20 5 21 6 22 7 23 8 24 9 25 10 26 11
REMARK SMILES IDX 27 12 28 13 29 14 30 15 31 16 32 17 15 18 14 19 13 20 12 21
REMARK SMILES IDX 11 22 10 23 9 24 8 25 7 26 6 27 5 28 4 29 3 30 2 31 1 32
REMARK H PARENT
REMARK Flexibility Score: inf
ROOT
ATOM      1  C   UNL     1      44.151  26.558  -3.015  1.00  0.00     0.000 C 
ENDROOT
BRANCH   1   2
ATOM      2  C   UNL     1      43.377  25.958  -4.200  1.00  0.00     0.000 C 
BRANCH   2   3
ATOM      3  C   UNL     1      43.023  27.019  -5.253  1.00  0.00     0.000 C 
BRANCH   3   4
ATOM      4  C   UNL     1      44.127  27.196  -6.319  1.00  0.00     0.000 C 
BRANCH   4   5
ATOM      5  C   UNL     1      44.518  28.660  -6.617  1.00  0.00     0.000 C 
BRANCH   5   6
ATOM      6  C   UNL     1      46.015  28.995  -6.495  1.00  0.00     0.000 C 
BRANCH   6   7
ATOM      7  C   UNL     1      46.305  30.114  -5.476  1.00  0.00     0.000 C 
BRANCH   7   8
ATOM      8  C   UNL     1      47.052  29.607  -4.231  1.00  0.00     0.000 C 
BRANCH   8   9
ATOM      9  C   UNL     1      46.274  29.888  -2.932  1.00  0.00     0.000 C 
BRANCH   9  10
ATOM     10  C   UNL     1      47.125  29.682  -1.670  1.00  0.00     0.000 C 
BRANCH  10  11
ATOM     11  C   UNL     1      46.996  28.255  -1.107  1.00  0.00     0.000 C 
BRANCH  11  12
ATOM     12  C   UNL     1      47.058  28.216   0.428  1.00  0.00     0.000 C 
BRANCH  12  13
ATOM     13  C   UNL     1      46.815  26.804   0.994  1.00  0.00     0.006 C 
BRANCH  13  14
ATOM     14  C   UNL     1      45.904  26.823   2.229  1.00  0.00     0.053 C 
BRANCH  14  15
ATOM     15  C   UNL     1      46.213  25.690   3.163  1.00  0.00     0.041 C 
ATOM     16  O   UNL     1      47.068  25.839   4.079  1.00  0.00    -0.550 OA
ATOM     17  O   UNL     1      45.590  24.460   2.995  1.00  0.00    -0.550 OA
ENDBRANCH  14  15
ENDBRANCH  13  14
ENDBRANCH  12  13
ENDBRANCH  11  12
ENDBRANCH  10  11
ENDBRANCH   9  10
ENDBRANCH   8   9
ENDBRANCH   7   8
ENDBRANCH   6   7
ENDBRANCH   5   6
ENDBRANCH   4   5
ENDBRANCH   3   4
ENDBRANCH   2   3
ENDBRANCH   1   2
BRANCH   1  18
ATOM     18  C   UNL     1      43.343  26.525  -1.706  1.00  0.00     0.000 C 
BRANCH  18  19
ATOM     19  C   UNL     1      43.317  27.883  -0.986  1.00  0.00     0.000 C 
BRANCH  19  20
ATOM     20  C   UNL     1      42.069  28.014  -0.101  1.00  0.00     0.000 C 
BRANCH  20  21
ATOM     21  C   UNL     1      42.385  27.909   1.399  1.00  0.00     0.000 C 
BRANCH  21  22
ATOM     22  C   UNL     1      42.667  29.275   2.045  1.00  0.00     0.000 C 
BRANCH  22  23
ATOM     23  C   UNL     1      44.136  29.699   1.889  1.00  0.00     0.000 C 
BRANCH  23  24
ATOM     24  C   UNL     1      44.769  30.124   3.222  1.00  0.00    -0.000 C 
BRANCH  24  25
ATOM     25  C   UNL     1      46.299  30.087   3.131  1.00  0.00    -0.000 C 
BRANCH  25  26
ATOM     26  C   UNL     1      46.935  29.866   4.513  1.00  0.00    -0.000 C 
BRANCH  26  27
ATOM     27  C   UNL     1      45.959  29.193   5.502  1.00  0.00    -0.000 C 
BRANCH  27  28
ATOM     28  C   UNL     1      46.609  28.783   6.837  1.00  0.00    -0.000 C 
BRANCH  28  29
ATOM     29  C   UNL     1      45.645  28.878   8.031  1.00  0.00    -0.000 C 
BRANCH  29  30
ATOM     30  C   UNL     1      45.502  27.550   8.796  1.00  0.00    -0.000 C 
BRANCH  30  31
ATOM     31  C   UNL     1      45.576  26.288   7.918  1.00  0.00    -0.003 C 
ATOM     32  C   UNL     1      46.999  25.755   7.757  1.00  0.00     0.004 C 
ENDBRANCH  30  31
ENDBRANCH  29  30
ENDBRANCH  28  29
ENDBRANCH  27  28
ENDBRANCH  26  27
ENDBRANCH  25  26
ENDBRANCH  24  25
ENDBRANCH  23  24
ENDBRANCH  22  23
ENDBRANCH  21  22
ENDBRANCH  20  21
ENDBRANCH  19  20
ENDBRANCH  18  19
ENDBRANCH   1  18
TORSDOF 28
ENDMDL
MODEL 6
REMARK VINA RESULT:    -2.795      1.738      3.006
REMARK INTER + INTRA:          -9.155
REMARK INTER:                  -7.740
REMARK INTRA:                  -1.415
REMARK UNBOUND:                -1.786
REMARK SMILES CCCCCCCCCCCCCCCCCCCCCCCCCCCCCC(=O)[O-]
REMARK SMILES IDX 16 1 17 2 18 3 19 4 20 5 21 6 22 7 23 8 24 9 25 10 26 11
REMARK SMILES IDX 27 12 28 13 29 14 30 15 31 16 32 17 15 18 14 19 13 20 12 21
REMARK SMILES IDX 11 22 10 23 9 24 8 25 7 26 6 27 5 28 4 29 3 30 2 31 1 32
REMARK H PARENT
REMARK Flexibility Score: inf
ROOT
ATOM      1  C   UNL     1      42.642  29.521   1.188  1.00  0.00     0.000 C 
ENDROOT
BRANCH   1   2
ATOM      2  C   UNL     1      41.886  28.184   1.248  1.00  0.00     0.000 C 
BRANCH   2   3
ATOM      3  C   UNL     1      42.652  27.057   0.539  1.00  0.00     0.000 C 
BRANCH   3   4
ATOM      4  C   UNL     1      43.342  27.527  -0.760  1.00  0.00     0.000 C 
BRANCH   4   5
ATOM      5  C   UNL     1      42.426  28.276  -1.751  1.00  0.00     0.000 C 
BRANCH   5   6
ATOM      6  C   UNL     1      42.756  29.762  -1.982  1.00  0.00     0.000 C 
BRANCH   6   7
ATOM      7  C   UNL     1      43.038  30.098  -3.459  1.00  0.00     0.000 C 
BRANCH   7   8
ATOM      8  C   UNL     1      44.537  30.066  -3.801  1.00  0.00     0.000 C 
BRANCH   8   9
ATOM      9  C   UNL     1      45.378  29.441  -2.672  1.00  0.00     0.000 C 
BRANCH   9  10
ATOM     10  C   UNL     1      46.005  28.096  -3.069  1.00  0.00     0.000 C 
BRANCH  10  11
ATOM     11  C   UNL     1      45.693  27.717  -4.529  1.00  0.00     0.000 C 
BRANCH  11  12
ATOM     12  C   UNL     1      44.562  26.682  -4.642  1.00  0.00     0.000 C 
BRANCH  12  13
ATOM     13  C   UNL     1      43.250  27.295  -5.169  1.00  0.00     0.006 C 
BRANCH  13  14
ATOM     14  C   UNL     1      43.295  27.548  -6.682  1.00  0.00     0.053 C 
BRANCH  14  15
ATOM     15  C   UNL     1      43.521  28.997  -6.995  1.00  0.00     0.041 C 
ATOM     16  O   UNL     1      44.694  29.447  -7.106  1.00  0.00    -0.550 OA
ATOM     17  O   UNL     1      42.437  29.859  -7.121  1.00  0.00    -0.550 OA
ENDBRANCH  14  15
ENDBRANCH  13  14
ENDBRANCH  12  13
ENDBRANCH  11  12
ENDBRANCH  10  11
ENDBRANCH   9  10
ENDBRANCH   8   9
ENDBRANCH   7   8
ENDBRANCH   6   7
ENDBRANCH   5   6
ENDBRANCH   4   5
ENDBRANCH   3   4
ENDBRANCH   2   3
ENDBRANCH   1   2
BRANCH   1  18
ATOM     18  C   UNL     1      43.137  29.980   2.571  1.00  0.00     0.000 C 
BRANCH  18  19
ATOM     19  C   UNL     1      44.668  30.101   2.647  1.00  0.00     0.000 C 
BRANCH  19  20
ATOM     20  C   UNL     1      45.295  30.058   1.245  1.00  0.00     0.000 C 
BRANCH  20  21
ATOM     21  C   UNL     1      45.705  28.639   0.818  1.00  0.00     0.000 C 
BRANCH  21  22
ATOM     22  C   UNL     1      47.125  28.268   1.276  1.00  0.00     0.000 C 
BRANCH  22  23
ATOM     23  C   UNL     1      47.116  27.383   2.533  1.00  0.00     0.000 C 
BRANCH  23  24
ATOM     24  C   UNL     1      45.695  27.074   3.025  1.00  0.00    -0.000 C 
BRANCH  24  25
ATOM     25  C   UNL     1      45.546  25.582   3.346  1.00  0.00    -0.000 C 
BRANCH  25  26
ATOM     26  C   UNL     1      46.790  25.041   4.068  1.00  0.00    -0.000 C 
BRANCH  26  27
ATOM     27  C   UNL     1      46.727  25.276   5.593  1.00  0.00    -0.000 C 
BRANCH  27  28
ATOM     28  C   UNL     1      46.027  26.589   5.992  1.00  0.00    -0.000 C 
BRANCH  28  29
ATOM     29  C   UNL     1      46.920  27.516   6.833  1.00  0.00    -0.000 C 
BRANCH  29  30
ATOM     30  C   UNL     1      46.621  27.434   8.340  1.00  0.00    -0.000 C 
BRANCH  30  31
ATOM     31  C   UNL     1      46.354  28.790   9.020  1.00  0.00    -0.003 C 
ATOM     32  C   UNL     1      44.960  29.343   8.722  1.00  0.00     0.004 C 
ENDBRANCH  30  31
ENDBRANCH  29  30
ENDBRANCH  28  29
ENDBRANCH  27  28
ENDBRANCH  26  27
ENDBRANCH  25  26
ENDBRANCH  24  25
ENDBRANCH  23  24
ENDBRANCH  22  23
ENDBRANCH  21  22
ENDBRANCH  20  21
ENDBRANCH  19  20
ENDBRANCH  18  19
ENDBRANCH   1  18
TORSDOF 28
ENDMDL
MODEL 7
REMARK VINA RESULT:    -2.778      1.494      2.107
REMARK INTER + INTRA:          -9.112
REMARK INTER:                  -7.004
REMARK INTRA:                  -2.108
REMARK UNBOUND:                -1.786
REMARK SMILES CCCCCCCCCCCCCCCCCCCCCCCCCCCCCC(=O)[O-]
REMARK SMILES IDX 16 1 17 2 18 3 19 4 20 5 21 6 22 7 23 8 24 9 25 10 26 11
REMARK SMILES IDX 27 12 28 13 29 14 30 15 31 16 32 17 15 18 14 19 13 20 12 21
REMARK SMILES IDX 11 22 10 23 9 24 8 25 7 26 6 27 5 28 4 29 3 30 2 31 1 32
REMARK H PARENT
REMARK Flexibility Score: inf
ROOT
ATOM      1  C   UNL     1      42.872  26.631   0.735  1.00  0.00     0.000 C 
ENDROOT
BRANCH   1   2
ATOM      2  C   UNL     1      42.263  27.621  -0.271  1.00  0.00     0.000 C 
BRANCH   2   3
ATOM      3  C   UNL     1      42.955  27.548  -1.641  1.00  0.00     0.000 C 
BRANCH   3   4
ATOM      4  C   UNL     1      44.489  27.695  -1.545  1.00  0.00     0.000 C 
BRANCH   4   5
ATOM      5  C   UNL     1      45.029  29.109  -1.850  1.00  0.00     0.000 C 
BRANCH   5   6
ATOM      6  C   UNL     1      46.560  29.265  -1.823  1.00  0.00     0.000 C 
BRANCH   6   7
ATOM      7  C   UNL     1      47.103  30.125  -2.980  1.00  0.00     0.000 C 
BRANCH   7   8
ATOM      8  C   UNL     1      47.081  29.389  -4.330  1.00  0.00     0.000 C 
BRANCH   8   9
ATOM      9  C   UNL     1      46.923  27.866  -4.159  1.00  0.00     0.000 C 
BRANCH   9  10
ATOM     10  C   UNL     1      46.082  27.225  -5.273  1.00  0.00     0.000 C 
BRANCH  10  11
ATOM     11  C   UNL     1      46.499  27.714  -6.672  1.00  0.00     0.000 C 
BRANCH  11  12
ATOM     12  C   UNL     1      45.799  29.021  -7.075  1.00  0.00     0.000 C 
BRANCH  12  13
ATOM     13  C   UNL     1      44.263  28.896  -7.068  1.00  0.00     0.006 C 
BRANCH  13  14
ATOM     14  C   UNL     1      43.602  29.931  -6.148  1.00  0.00     0.053 C 
BRANCH  14  15
ATOM     15  C   UNL     1      42.833  29.276  -5.039  1.00  0.00     0.041 C 
ATOM     16  O   UNL     1      42.307  29.977  -4.132  1.00  0.00    -0.550 OA
ATOM     17  O   UNL     1      42.734  27.891  -4.985  1.00  0.00    -0.550 OA
ENDBRANCH  14  15
ENDBRANCH  13  14
ENDBRANCH  12  13
ENDBRANCH  11  12
ENDBRANCH  10  11
ENDBRANCH   9  10
ENDBRANCH   8   9
ENDBRANCH   7   8
ENDBRANCH   6   7
ENDBRANCH   5   6
ENDBRANCH   4   5
ENDBRANCH   3   4
ENDBRANCH   2   3
ENDBRANCH   1   2
BRANCH   1  18
ATOM     18  C   UNL     1      43.696  27.334   1.829  1.00  0.00     0.000 C 
BRANCH  18  19
ATOM     19  C   UNL     1      43.239  28.779   2.085  1.00  0.00     0.000 C 
BRANCH  19  20
ATOM     20  C   UNL     1      44.440  29.694   2.368  1.00  0.00     0.000 C 
BRANCH  20  21
ATOM     21  C   UNL     1      45.739  29.195   1.716  1.00  0.00     0.000 C 
BRANCH  21  22
ATOM     22  C   UNL     1      46.999  29.751   2.399  1.00  0.00     0.000 C 
BRANCH  22  23
ATOM     23  C   UNL     1      46.807  29.930   3.914  1.00  0.00     0.000 C 
BRANCH  23  24
ATOM     24  C   UNL     1      46.000  28.785   4.544  1.00  0.00    -0.000 C 
BRANCH  24  25
ATOM     25  C   UNL     1      46.935  27.767   5.207  1.00  0.00    -0.000 C 
BRANCH  25  26
ATOM     26  C   UNL     1      47.122  28.075   6.702  1.00  0.00    -0.000 C 
BRANCH  26  27
ATOM     27  C   UNL     1      45.778  28.334   7.416  1.00  0.00    -0.000 C 
BRANCH  27  28
ATOM     28  C   UNL     1      45.912  28.552   8.935  1.00  0.00    -0.000 C 
BRANCH  28  29
ATOM     29  C   UNL     1      47.064  27.746   9.559  1.00  0.00    -0.000 C 
BRANCH  29  30
ATOM     30  C   UNL     1      46.581  26.701  10.580  1.00  0.00    -0.000 C 
BRANCH  30  31
ATOM     31  C   UNL     1      46.800  25.237  10.157  1.00  0.00    -0.003 C 
ATOM     32  C   UNL     1      47.124  25.086   8.671  1.00  0.00     0.004 C 
ENDBRANCH  30  31
ENDBRANCH  29  30
ENDBRANCH  28  29
ENDBRANCH  27  28
ENDBRANCH  26  27
ENDBRANCH  25  26
ENDBRANCH  24  25
ENDBRANCH  23  24
ENDBRANCH  22  23
ENDBRANCH  21  22
ENDBRANCH  20  21
ENDBRANCH  19  20
ENDBRANCH  18  19
ENDBRANCH   1  18
TORSDOF 28
ENDMDL
MODEL 8
REMARK VINA RESULT:    -2.429      3.233      6.244
REMARK INTER + INTRA:          -8.191
REMARK INTER:                  -5.946
REMARK INTRA:                  -2.245
REMARK UNBOUND:                -1.786
REMARK SMILES CCCCCCCCCCCCCCCCCCCCCCCCCCCCCC(=O)[O-]
REMARK SMILES IDX 16 1 17 2 18 3 19 4 20 5 21 6 22 7 23 8 24 9 25 10 26 11
REMARK SMILES IDX 27 12 28 13 29 14 30 15 31 16 32 17 15 18 14 19 13 20 12 21
REMARK SMILES IDX 11 22 10 23 9 24 8 25 7 26 6 27 5 28 4 29 3 30 2 31 1 32
REMARK H PARENT
REMARK Flexibility Score: inf
ROOT
ATOM      1  C   UNL     1      43.467  25.740  -3.066  1.00  0.00     0.000 C 
ENDROOT
BRANCH   1   2
ATOM      2  C   UNL     1      43.309  26.143  -4.540  1.00  0.00     0.000 C 
BRANCH   2   3
ATOM      3  C   UNL     1      44.248  27.298  -4.925  1.00  0.00     0.000 C 
BRANCH   3   4
ATOM      4  C   UNL     1      43.521  28.438  -5.670  1.00  0.00     0.000 C 
BRANCH   4   5
ATOM      5  C   UNL     1      42.050  28.655  -5.253  1.00  0.00     0.000 C 
BRANCH   5   6
ATOM      6  C   UNL     1      41.830  29.424  -3.938  1.00  0.00     0.000 C 
BRANCH   6   7
ATOM      7  C   UNL     1      43.109  30.102  -3.411  1.00  0.00     0.000 C 
BRANCH   7   8
ATOM      8  C   UNL     1      43.554  29.554  -2.045  1.00  0.00     0.000 C 
BRANCH   8   9
ATOM      9  C   UNL     1      42.712  30.125  -0.888  1.00  0.00     0.000 C 
BRANCH   9  10
ATOM     10  C   UNL     1      42.221  29.041   0.083  1.00  0.00     0.000 C 
BRANCH  10  11
ATOM     11  C   UNL     1      43.220  27.877   0.211  1.00  0.00     0.000 C 
BRANCH  11  12
ATOM     12  C   UNL     1      43.268  27.289   1.630  1.00  0.00     0.000 C 
BRANCH  12  13
ATOM     13  C   UNL     1      44.619  26.619   1.947  1.00  0.00     0.006 C 
BRANCH  13  14
ATOM     14  C   UNL     1      44.716  26.174   3.412  1.00  0.00     0.053 C 
BRANCH  14  15
ATOM     15  C   UNL     1      46.099  25.709   3.760  1.00  0.00     0.041 C 
ATOM     16  O   UNL     1      46.637  26.072   4.841  1.00  0.00    -0.550 OA
ATOM     17  O   UNL     1      46.809  24.910   2.870  1.00  0.00    -0.550 OA
ENDBRANCH  14  15
ENDBRANCH  13  14
ENDBRANCH  12  13
ENDBRANCH  11  12
ENDBRANCH  10  11
ENDBRANCH   9  10
ENDBRANCH   8   9
ENDBRANCH   7   8
ENDBRANCH   6   7
ENDBRANCH   5   6
ENDBRANCH   4   5
ENDBRANCH   3   4
ENDBRANCH   2   3
ENDBRANCH   1   2
BRANCH   1  18
ATOM     18  C   UNL     1      44.468  26.635  -2.313  1.00  0.00     0.000 C 
BRANCH  18  19
ATOM     19  C   UNL     1      45.886  26.572  -2.902  1.00  0.00     0.000 C 
BRANCH  19  20
ATOM     20  C   UNL     1      46.592  27.931  -2.785  1.00  0.00     0.000 C 
BRANCH  20  21
ATOM     21  C   UNL     1      47.101  28.221  -1.364  1.00  0.00     0.000 C 
BRANCH  21  22
ATOM     22  C   UNL     1      46.677  29.606  -0.851  1.00  0.00     0.000 C 
BRANCH  22  23
ATOM     23  C   UNL     1      46.081  29.543   0.565  1.00  0.00     0.000 C 
BRANCH  23  24
ATOM     24  C   UNL     1      47.056  30.053   1.636  1.00  0.00    -0.000 C 
BRANCH  24  25
ATOM     25  C   UNL     1      46.982  29.180   2.894  1.00  0.00    -0.000 C 
BRANCH  25  26
ATOM     26  C   UNL     1      45.942  29.723   3.888  1.00  0.00    -0.000 C 
BRANCH  26  27
ATOM     27  C   UNL     1      46.565  30.045   5.264  1.00  0.00    -0.000 C 
BRANCH  27  28
ATOM     28  C   UNL     1      45.584  29.894   6.442  1.00  0.00    -0.000 C 
BRANCH  28  29
ATOM     29  C   UNL     1      45.564  28.473   7.030  1.00  0.00    -0.000 C 
BRANCH  29  30
ATOM     30  C   UNL     1      45.072  28.433   8.488  1.00  0.00    -0.000 C 
BRANCH  30  31
ATOM     31  C   UNL     1      45.203  27.062   9.176  1.00  0.00    -0.003 C 
ATOM     32  C   UNL     1      45.739  25.975   8.245  1.00  0.00     0.004 C 
ENDBRANCH  30  31
ENDBRANCH  29  30
ENDBRANCH  28  29
ENDBRANCH  27  28
ENDBRANCH  26  27
ENDBRANCH  25  26
ENDBRANCH  24  25
ENDBRANCH  23  24
ENDBRANCH  22  23
ENDBRANCH  21  22
ENDBRANCH  20  21
ENDBRANCH  19  20
ENDBRANCH  18  19
ENDBRANCH   1  18
TORSDOF 28
ENDMDL
