MODEL 1
REMARK VINA RESULT:    -4.361      0.000      0.000
REMARK INTER + INTRA:          -8.177
REMARK INTER:                  -6.910
REMARK INTRA:                  -1.267
REMARK UNBOUND:                -1.267
REMARK SMILES CCCCCCCCCCCC(=O)[O-]
REMARK SMILES IDX 7 1 8 2 9 3 10 4 11 5 12 6 13 7 14 8 6 9 5 10 4 11 3 12 2 13
REMARK SMILES IDX 1 14
REMARK H PARENT
REMARK Flexibility Score: inf
ROOT
ATOM      1  C   UNL     1      57.723  -3.873  30.475  1.00  0.00     0.000 C 
ENDROOT
BRANCH   1   2
ATOM      2  C   UNL     1      56.857  -3.973  31.746  1.00  0.00     0.000 C 
BRANCH   2   3
ATOM      3  C   UNL     1      55.374  -4.312  31.504  1.00  0.00     0.000 C 
BRANCH   3   4
ATOM      4  C   UNL     1      54.436  -3.129  31.799  1.00  0.00     0.006 C 
BRANCH   4   5
ATOM      5  C   UNL     1      54.961  -1.813  31.211  1.00  0.00     0.053 C 
BRANCH   5   6
ATOM      6  C   UNL     1      54.516  -1.619  29.794  1.00  0.00     0.041 C 
ATOM      7  O   UNL     1      53.337  -1.251  29.544  1.00  0.00    -0.550 OA
ATOM      8  O   UNL     1      55.411  -1.815  28.750  1.00  0.00    -0.550 OA
ENDBRANCH   5   6
ENDBRANCH   4   5
ENDBRANCH   3   4
ENDBRANCH   2   3
ENDBRANCH   1   2
BRANCH   1   9
ATOM      9  C   UNL     1      58.828  -2.802  30.517  1.00  0.00     0.000 C 
BRANCH   9  10
ATOM     10  C   UNL     1      58.958  -2.132  31.893  1.00  0.00    -0.000 C 
BRANCH  10  11
ATOM     11  C   UNL     1      58.502  -0.667  31.836  1.00  0.00    -0.000 C 
BRANCH  11  12
ATOM     12  C   UNL     1      58.372  -0.135  30.398  1.00  0.00    -0.000 C 
BRANCH  12  13
ATOM     13  C   UNL     1      57.333   0.986  30.212  1.00  0.00    -0.003 C 
ATOM     14  C   UNL     1      57.125   1.374  28.749  1.00  0.00     0.004 C 
ENDBRANCH  12  13
ENDBRANCH  11  12
ENDBRANCH  10  11
ENDBRANCH   9  10
ENDBRANCH   1   9
TORSDOF 10
ENDMDL
MODEL 2
REMARK VINA RESULT:    -4.201      1.315      3.822
REMARK INTER + INTRA:          -7.924
REMARK INTER:                  -6.596
REMARK INTRA:                  -1.328
REMARK UNBOUND:                -1.267
REMARK SMILES CCCCCCCCCCCC(=O)[O-]
REMARK SMILES IDX 7 1 8 2 9 3 10 4 11 5 12 6 13 7 14 8 6 9 5 10 4 11 3 12 2 13
REMARK SMILES IDX 1 14
REMARK H PARENT
REMARK Flexibility Score: inf
ROOT
ATOM      1  C   UNL     1      60.119  -1.282  29.463  1.00  0.00     0.000 C 
ENDROOT
BRANCH   1   2
ATOM      2  C   UNL     1      58.873  -0.386  29.320  1.00  0.00     0.000 C 
BRANCH   2   3
ATOM      3  C   UNL     1      58.164  -0.033  30.641  1.00  0.00     0.000 C 
BRANCH   3   4
ATOM      4  C   UNL     1      56.649  -0.291  30.593  1.00  0.00     0.006 C 
BRANCH   4   5
ATOM      5  C   UNL     1      56.135  -0.453  29.157  1.00  0.00     0.053 C 
BRANCH   5   6
ATOM      6  C   UNL     1      55.048  -1.479  29.065  1.00  0.00     0.041 C 
ATOM      7  O   UNL     1      53.923  -1.260  29.586  1.00  0.00    -0.550 OA
ATOM      8  O   UNL     1      55.269  -2.667  28.379  1.00  0.00    -0.550 OA
ENDBRANCH   5   6
ENDBRANCH   4   5
ENDBRANCH   3   4
ENDBRANCH   2   3
ENDBRANCH   1   2
BRANCH   1   9
ATOM      9  C   UNL     1      59.991  -2.424  30.488  1.00  0.00     0.000 C 
BRANCH   9  10
ATOM     10  C   UNL     1      59.523  -3.743  29.858  1.00  0.00    -0.000 C 
BRANCH  10  11
ATOM     11  C   UNL     1      58.010  -3.932  30.040  1.00  0.00    -0.000 C 
BRANCH  11  12
ATOM     12  C   UNL     1      57.574  -3.895  31.516  1.00  0.00    -0.000 C 
BRANCH  12  13
ATOM     13  C   UNL     1      56.068  -3.669  31.742  1.00  0.00    -0.003 C 
ATOM     14  C   UNL     1      55.274  -4.972  31.826  1.00  0.00     0.004 C 
ENDBRANCH  12  13
ENDBRANCH  11  12
ENDBRANCH  10  11
ENDBRANCH   9  10
ENDBRANCH   1   9
TORSDOF 10
ENDMDL
MODEL 3
REMARK VINA RESULT:    -4.087      2.149      5.103
REMARK INTER + INTRA:          -7.743
REMARK INTER:                  -6.387
REMARK INTRA:                  -1.356
REMARK UNBOUND:                -1.267
REMARK SMILES CCCCCCCCCCCC(=O)[O-]
REMARK SMILES IDX 7 1 8 2 9 3 10 4 11 5 12 6 13 7 14 8 6 9 5 10 4 11 3 12 2 13
REMARK SMILES IDX 1 14
REMARK H PARENT
REMARK Flexibility Score: inf
ROOT
ATOM      1  C   UNL     1      55.582  -0.068  28.181  1.00  0.00     0.000 C 
ENDROOT
BRANCH   1   2
ATOM      2  C   UNL     1      56.948   0.511  28.603  1.00  0.00     0.000 C 
BRANCH   2   3
ATOM      3  C   UNL     1      57.044   0.957  30.074  1.00  0.00     0.000 C 
BRANCH   3   4
ATOM      4  C   UNL     1      58.056   0.129  30.883  1.00  0.00     0.006 C 
BRANCH   4   5
ATOM      5  C   UNL     1      58.995  -0.682  29.980  1.00  0.00     0.053 C 
BRANCH   5   6
ATOM      6  C   UNL     1      58.945  -2.146  30.294  1.00  0.00     0.041 C 
ATOM      7  O   UNL     1      59.012  -2.996  29.368  1.00  0.00    -0.550 OA
ATOM      8  O   UNL     1      58.855  -2.572  31.614  1.00  0.00    -0.550 OA
ENDBRANCH   5   6
ENDBRANCH   4   5
ENDBRANCH   3   4
ENDBRANCH   2   3
ENDBRANCH   1   2
BRANCH   1   9
ATOM      9  C   UNL     1      55.221  -1.423  28.817  1.00  0.00     0.000 C 
BRANCH   9  10
ATOM     10  C   UNL     1      53.853  -1.409  29.516  1.00  0.00    -0.000 C 
BRANCH  10  11
ATOM     11  C   UNL     1      53.981  -1.854  30.980  1.00  0.00    -0.000 C 
BRANCH  11  12
ATOM     12  C   UNL     1      55.400  -2.326  31.342  1.00  0.00    -0.000 C 
BRANCH  12  13
ATOM     13  C   UNL     1      55.501  -3.796  31.790  1.00  0.00    -0.003 C 
ATOM     14  C   UNL     1      56.007  -4.725  30.688  1.00  0.00     0.004 C 
ENDBRANCH  12  13
ENDBRANCH  11  12
ENDBRANCH  10  11
ENDBRANCH   9  10
ENDBRANCH   1   9
TORSDOF 10
ENDMDL
MODEL 4
REMARK VINA RESULT:    -3.974      1.803      3.899
REMARK INTER + INTRA:          -7.564
REMARK INTER:                  -6.609
REMARK INTRA:                  -0.955
REMARK UNBOUND:                -1.267
REMARK SMILES CCCCCCCCCCCC(=O)[O-]
REMARK SMILES IDX 7 1 8 2 9 3 10 4 11 5 12 6 13 7 14 8 6 9 5 10 4 11 3 12 2 13
REMARK SMILES IDX 1 14
REMARK H PARENT
REMARK Flexibility Score: inf
ROOT
ATOM      1  C   UNL     1      57.857  -4.228  30.642  1.00  0.00     0.000 C 
ENDROOT
BRANCH   1   2
ATOM      2  C   UNL     1      58.324  -3.347  31.818  1.00  0.00     0.000 C 
BRANCH   2   3
ATOM      3  C   UNL     1      59.527  -2.435  31.517  1.00  0.00     0.000 C 
BRANCH   3   4
ATOM      4  C   UNL     1      59.307  -0.985  31.979  1.00  0.00     0.006 C 
BRANCH   4   5
ATOM      5  C   UNL     1      57.896  -0.480  31.649  1.00  0.00     0.053 C 
BRANCH   5   6
ATOM      6  C   UNL     1      57.860   0.269  30.353  1.00  0.00     0.041 C 
ATOM      7  O   UNL     1      57.038   1.208  30.185  1.00  0.00    -0.550 OA
ATOM      8  O   UNL     1      58.756  -0.051  29.340  1.00  0.00    -0.550 OA
ENDBRANCH   5   6
ENDBRANCH   4   5
ENDBRANCH   3   4
ENDBRANCH   2   3
ENDBRANCH   1   2
BRANCH   1   9
ATOM      9  C   UNL     1      56.338  -4.235  30.390  1.00  0.00     0.000 C 
BRANCH   9  10
ATOM     10  C   UNL     1      55.524  -4.531  31.658  1.00  0.00    -0.000 C 
BRANCH  10  11
ATOM     11  C   UNL     1      54.454  -3.454  31.888  1.00  0.00    -0.000 C 
BRANCH  11  12
ATOM     12  C   UNL     1      54.870  -2.072  31.354  1.00  0.00    -0.000 C 
BRANCH  12  13
ATOM     13  C   UNL     1      53.883  -1.437  30.358  1.00  0.00    -0.003 C 
ATOM     14  C   UNL     1      54.375  -1.487  28.913  1.00  0.00     0.004 C 
ENDBRANCH  12  13
ENDBRANCH  11  12
ENDBRANCH  10  11
ENDBRANCH   9  10
ENDBRANCH   1   9
TORSDOF 10
ENDMDL
MODEL 5
REMARK VINA RESULT:    -3.925      2.691      4.435
REMARK INTER + INTRA:          -7.486
REMARK INTER:                  -6.468
REMARK INTRA:                  -1.018
REMARK UNBOUND:                -1.267
REMARK SMILES CCCCCCCCCCCC(=O)[O-]
REMARK SMILES IDX 7 1 8 2 9 3 10 4 11 5 12 6 13 7 14 8 6 9 5 10 4 11 3 12 2 13
REMARK SMILES IDX 1 14
REMARK H PARENT
REMARK Flexibility Score: inf
ROOT
ATOM      1  C   UNL     1      55.653  -4.428  31.616  1.00  0.00     0.000 C 
ENDROOT
BRANCH   1   2
ATOM      2  C   UNL     1      57.112  -3.932  31.577  1.00  0.00     0.000 C 
BRANCH   2   3
ATOM      3  C   UNL     1      57.854  -4.179  30.251  1.00  0.00     0.000 C 
BRANCH   3   4
ATOM      4  C   UNL     1      58.802  -3.029  29.874  1.00  0.00     0.006 C 
BRANCH   4   5
ATOM      5  C   UNL     1      60.208  -3.531  29.516  1.00  0.00     0.053 C 
BRANCH   5   6
ATOM      6  C   UNL     1      60.832  -2.712  28.429  1.00  0.00     0.041 C 
ATOM      7  O   UNL     1      60.686  -1.461  28.413  1.00  0.00    -0.550 OA
ATOM      8  O   UNL     1      61.602  -3.327  27.449  1.00  0.00    -0.550 OA
ENDBRANCH   5   6
ENDBRANCH   4   5
ENDBRANCH   3   4
ENDBRANCH   2   3
ENDBRANCH   1   2
BRANCH   1   9
ATOM      9  C   UNL     1      54.592  -3.329  31.803  1.00  0.00     0.000 C 
BRANCH   9  10
ATOM     10  C   UNL     1      55.095  -1.937  31.394  1.00  0.00    -0.000 C 
BRANCH  10  11
ATOM     11  C   UNL     1      54.653  -1.591  29.965  1.00  0.00    -0.000 C 
BRANCH  11  12
ATOM     12  C   UNL     1      55.784  -0.978  29.119  1.00  0.00    -0.000 C 
BRANCH  12  13
ATOM     13  C   UNL     1      56.711  -0.012  29.878  1.00  0.00    -0.003 C 
ATOM     14  C   UNL     1      57.161   1.176  29.029  1.00  0.00     0.004 C 
ENDBRANCH  12  13
ENDBRANCH  11  12
ENDBRANCH  10  11
ENDBRANCH   9  10
ENDBRANCH   1   9
TORSDOF 10
ENDMDL
MODEL 6
REMARK VINA RESULT:    -3.846      1.779      3.294
REMARK INTER + INTRA:          -7.362
REMARK INTER:                  -6.303
REMARK INTRA:                  -1.059
REMARK UNBOUND:                -1.267
REMARK SMILES CCCCCCCCCCCC(=O)[O-]
REMARK SMILES IDX 7 1 8 2 9 3 10 4 11 5 12 6 13 7 14 8 6 9 5 10 4 11 3 12 2 13
REMARK SMILES IDX 1 14
REMARK H PARENT
REMARK Flexibility Score: inf
ROOT
ATOM      1  C   UNL     1      59.903  -1.590  31.773  1.00  0.00     0.000 C 
ENDROOT
BRANCH   1   2
ATOM      2  C   UNL     1      59.602  -2.223  30.400  1.00  0.00     0.000 C 
BRANCH   2   3
ATOM      3  C   UNL     1      59.259  -3.724  30.432  1.00  0.00     0.000 C 
BRANCH   3   4
ATOM      4  C   UNL     1      57.744  -3.990  30.441  1.00  0.00     0.006 C 
BRANCH   4   5
ATOM      5  C   UNL     1      57.162  -3.969  31.860  1.00  0.00     0.053 C 
BRANCH   5   6
ATOM      6  C   UNL     1      55.666  -4.036  31.850  1.00  0.00     0.041 C 
ATOM      7  O   UNL     1      55.081  -5.150  31.908  1.00  0.00    -0.550 OA
ATOM      8  O   UNL     1      54.916  -2.867  31.807  1.00  0.00    -0.550 OA
ENDBRANCH   5   6
ENDBRANCH   4   5
ENDBRANCH   3   4
ENDBRANCH   2   3
ENDBRANCH   1   2
BRANCH   1   9
ATOM      9  C   UNL     1      59.073  -0.339  32.113  1.00  0.00     0.000 C 
BRANCH   9  10
ATOM     10  C   UNL     1      57.739  -0.283  31.355  1.00  0.00    -0.000 C 
BRANCH  10  11
ATOM     11  C   UNL     1      57.836   0.653  30.141  1.00  0.00    -0.000 C 
BRANCH  11  12
ATOM     12  C   UNL     1      56.703   0.433  29.122  1.00  0.00    -0.000 C 
BRANCH  12  13
ATOM     13  C   UNL     1      56.152  -1.003  29.065  1.00  0.00    -0.003 C 
ATOM     14  C   UNL     1      54.847  -1.112  28.277  1.00  0.00     0.004 C 
ENDBRANCH  12  13
ENDBRANCH  11  12
ENDBRANCH  10  11
ENDBRANCH   9  10
ENDBRANCH   1   9
TORSDOF 10
ENDMDL
MODEL 7
REMARK VINA RESULT:    -3.816      1.657      3.737
REMARK INTER + INTRA:          -7.314
REMARK INTER:                  -5.975
REMARK INTRA:                  -1.339
REMARK UNBOUND:                -1.267
REMARK SMILES CCCCCCCCCCCC(=O)[O-]
REMARK SMILES IDX 7 1 8 2 9 3 10 4 11 5 12 6 13 7 14 8 6 9 5 10 4 11 3 12 2 13
REMARK SMILES IDX 1 14
REMARK H PARENT
REMARK Flexibility Score: inf
ROOT
ATOM      1  C   UNL     1      59.413  -1.022  31.602  1.00  0.00     0.000 C 
ENDROOT
BRANCH   1   2
ATOM      2  C   UNL     1      57.971  -0.489  31.722  1.00  0.00     0.000 C 
BRANCH   2   3
ATOM      3  C   UNL     1      57.538   0.487  30.613  1.00  0.00     0.000 C 
BRANCH   3   4
ATOM      4  C   UNL     1      57.507  -0.167  29.221  1.00  0.00     0.006 C 
BRANCH   4   5
ATOM      5  C   UNL     1      56.079  -0.291  28.672  1.00  0.00     0.053 C 
BRANCH   5   6
ATOM      6  C   UNL     1      55.350  -1.454  29.271  1.00  0.00     0.041 C 
ATOM      7  O   UNL     1      55.605  -2.627  28.889  1.00  0.00    -0.550 OA
ATOM      8  O   UNL     1      54.409  -1.245  30.271  1.00  0.00    -0.550 OA
ENDBRANCH   5   6
ENDBRANCH   4   5
ENDBRANCH   3   4
ENDBRANCH   2   3
ENDBRANCH   1   2
BRANCH   1   9
ATOM      9  C   UNL     1      59.566  -2.544  31.778  1.00  0.00     0.000 C 
BRANCH   9  10
ATOM     10  C   UNL     1      58.437  -3.339  31.107  1.00  0.00    -0.000 C 
BRANCH  10  11
ATOM     11  C   UNL     1      58.837  -3.771  29.689  1.00  0.00    -0.000 C 
BRANCH  11  12
ATOM     12  C   UNL     1      60.361  -3.864  29.498  1.00  0.00    -0.000 C 
BRANCH  12  13
ATOM     13  C   UNL     1      60.904  -3.141  28.253  1.00  0.00    -0.003 C 
ATOM     14  C   UNL     1      60.883  -1.619  28.388  1.00  0.00     0.004 C 
ENDBRANCH  12  13
ENDBRANCH  11  12
ENDBRANCH  10  11
ENDBRANCH   9  10
ENDBRANCH   1   9
TORSDOF 10
ENDMDL
MODEL 8
REMARK VINA RESULT:    -3.730      2.935      5.272
REMARK INTER + INTRA:          -7.178
REMARK INTER:                  -5.807
REMARK INTRA:                  -1.370
REMARK UNBOUND:                -1.267
REMARK SMILES CCCCCCCCCCCC(=O)[O-]
REMARK SMILES IDX 7 1 8 2 9 3 10 4 11 5 12 6 13 7 14 8 6 9 5 10 4 11 3 12 2 13
REMARK SMILES IDX 1 14
REMARK H PARENT
REMARK Flexibility Score: inf
ROOT
ATOM      1  C   UNL     1      58.859  -0.568  31.243  1.00  0.00     0.000 C 
ENDROOT
BRANCH   1   2
ATOM      2  C   UNL     1      59.968  -1.640  31.261  1.00  0.00     0.000 C 
BRANCH   2   3
ATOM      3  C   UNL     1      59.482  -3.089  31.075  1.00  0.00     0.000 C 
BRANCH   3   4
ATOM      4  C   UNL     1      59.643  -3.592  29.631  1.00  0.00     0.006 C 
BRANCH   4   5
ATOM      5  C   UNL     1      61.117  -3.709  29.219  1.00  0.00     0.053 C 
BRANCH   5   6
ATOM      6  C   UNL     1      61.424  -2.887  28.006  1.00  0.00     0.041 C 
ATOM      7  O   UNL     1      61.122  -1.665  27.974  1.00  0.00    -0.550 OA
ATOM      8  O   UNL     1      62.073  -3.464  26.921  1.00  0.00    -0.550 OA
ENDBRANCH   5   6
ENDBRANCH   4   5
ENDBRANCH   3   4
ENDBRANCH   2   3
ENDBRANCH   1   2
BRANCH   1   9
ATOM      9  C   UNL     1      58.366  -0.159  29.843  1.00  0.00     0.000 C 
BRANCH   9  10
ATOM     10  C   UNL     1      56.899  -0.538  29.593  1.00  0.00    -0.000 C 
BRANCH  10  11
ATOM     11  C   UNL     1      56.158  -0.771  30.917  1.00  0.00    -0.000 C 
BRANCH  11  12
ATOM     12  C   UNL     1      55.393  -2.105  30.950  1.00  0.00    -0.000 C 
BRANCH  12  13
ATOM     13  C   UNL     1      55.955  -3.198  30.022  1.00  0.00    -0.003 C 
ATOM     14  C   UNL     1      56.056  -4.564  30.699  1.00  0.00     0.004 C 
ENDBRANCH  12  13
ENDBRANCH  11  12
ENDBRANCH  10  11
ENDBRANCH   9  10
ENDBRANCH   1   9
TORSDOF 10
ENDMDL
MODEL 9
REMARK VINA RESULT:    -3.662      1.899      2.875
REMARK INTER + INTRA:          -7.070
REMARK INTER:                  -6.108
REMARK INTRA:                  -0.962
REMARK UNBOUND:                -1.267
REMARK SMILES CCCCCCCCCCCC(=O)[O-]
REMARK SMILES IDX 7 1 8 2 9 3 10 4 11 5 12 6 13 7 14 8 6 9 5 10 4 11 3 12 2 13
REMARK SMILES IDX 1 14
REMARK H PARENT
REMARK Flexibility Score: inf
ROOT
ATOM      1  C   UNL     1      55.992  -3.974  30.560  1.00  0.00     0.000 C 
ENDROOT
BRANCH   1   2
ATOM      2  C   UNL     1      55.039  -3.840  31.765  1.00  0.00     0.000 C 
BRANCH   2   3
ATOM      3  C   UNL     1      54.155  -2.579  31.764  1.00  0.00     0.000 C 
BRANCH   3   4
ATOM      4  C   UNL     1      54.590  -1.546  30.711  1.00  0.00     0.006 C 
BRANCH   4   5
ATOM      5  C   UNL     1      55.554  -0.502  31.288  1.00  0.00     0.053 C 
BRANCH   5   6
ATOM      6  C   UNL     1      56.612  -0.114  30.301  1.00  0.00     0.041 C 
ATOM      7  O   UNL     1      56.691  -0.704  29.192  1.00  0.00    -0.550 OA
ATOM      8  O   UNL     1      57.491   0.921  30.595  1.00  0.00    -0.550 OA
ENDBRANCH   5   6
ENDBRANCH   4   5
ENDBRANCH   3   4
ENDBRANCH   2   3
ENDBRANCH   1   2
BRANCH   1   9
ATOM      9  C   UNL     1      57.444  -4.346  30.911  1.00  0.00     0.000 C 
BRANCH   9  10
ATOM     10  C   UNL     1      58.292  -3.130  31.314  1.00  0.00    -0.000 C 
BRANCH  10  11
ATOM     11  C   UNL     1      59.557  -3.034  30.449  1.00  0.00    -0.000 C 
BRANCH  11  12
ATOM     12  C   UNL     1      60.051  -1.587  30.269  1.00  0.00    -0.000 C 
BRANCH  12  13
ATOM     13  C   UNL     1      60.303  -1.165  28.810  1.00  0.00    -0.003 C 
ATOM     14  C   UNL     1      61.465  -1.916  28.162  1.00  0.00     0.004 C 
ENDBRANCH  12  13
ENDBRANCH  11  12
ENDBRANCH  10  11
ENDBRANCH   9  10
ENDBRANCH   1   9
TORSDOF 10
ENDMDL
