MODEL 1
REMARK VINA RESULT:    -5.167      0.000      0.000
REMARK INTER + INTRA:          -5.319
REMARK INTER:                  -5.319
REMARK INTRA:                   0.000
REMARK UNBOUND:                 0.000
REMARK SMILES CC1(C)CC[C@]2(C)CC[C@]3(C)C(=CC[C@H]4[C@]5(C)CC[C@H](O)C(C)(C)[C@@H]5CC[C@]43C)[C@@H]2C1
REMARK SMILES IDX 1 1 2 2 4 3 5 4 6 5 8 6 9 7 10 8 12 9 13 10 14 11 15 12
REMARK SMILES IDX 28 13 27 14 26 15 25 16 16 17 18 18 19 19 20 20 22 21 23 22
REMARK SMILES IDX 24 23 17 24 29 25 30 26 31 27 11 28 7 29 3 30 21 31
REMARK H PARENT 21 32
REMARK Flexibility Score: inf
ROOT
ATOM      1  C   UNL     1      43.465  46.005 139.963  1.00  0.00     0.011 C 
ATOM      2  C   UNL     1      44.245  47.226 140.508  1.00  0.00    -0.035 C 
ATOM      3  C   UNL     1      44.069  47.368 142.043  1.00  0.00     0.007 C 
ATOM      4  C   UNL     1      44.777  46.257 142.840  1.00  0.00     0.008 C 
ATOM      5  C   UNL     1      46.287  46.054 142.479  1.00  0.00    -0.026 C 
ATOM      6  C   UNL     1      47.124  47.229 143.044  1.00  0.00     0.008 C 
ATOM      7  C   UNL     1      48.638  47.110 142.771  1.00  0.00     0.012 C 
ATOM      8  C   UNL     1      49.070  46.849 141.264  1.00  0.00    -0.006 C 
ATOM      9  C   UNL     1      47.990  45.988 140.555  1.00  0.00    -0.064 C 
ATOM     10  C   UNL     1      48.298  45.360 139.408  1.00  0.00    -0.027 C 
ATOM     11  C   UNL     1      49.661  45.421 138.805  1.00  0.00     0.032 C 
ATOM     12  C   UNL     1      50.751  45.149 139.878  1.00  0.00     0.006 C 
ATOM     13  C   UNL     1      50.568  46.130 141.142  1.00  0.00    -0.020 C 
ATOM     14  C   UNL     1      51.717  47.200 141.115  1.00  0.00     0.008 C 
ATOM     15  C   UNL     1      52.108  47.630 139.684  1.00  0.00     0.005 C 
ATOM     16  C   UNL     1      52.809  46.495 138.873  1.00  0.00     0.003 C 
ATOM     17  C   UNL     1      52.236  45.053 139.241  1.00  0.00    -0.025 C 
ATOM     18  C   UNL     1      53.241  44.345 140.208  1.00  0.00     0.010 C 
ATOM     19  C   UNL     1      54.681  44.192 139.649  1.00  0.00     0.033 C 
ATOM     20  C   UNL     1      55.084  45.253 138.584  1.00  0.00     0.120 C 
ATOM     21  C   UNL     1      54.414  46.641 138.837  1.00  0.00    -0.006 C 
ATOM     22  C   UNL     1      55.037  47.268 140.125  1.00  0.00     0.014 C 
ATOM     23  C   UNL     1      54.790  47.566 137.644  1.00  0.00     0.014 C 
ATOM     24  C   UNL     1      52.130  44.123 137.981  1.00  0.00     0.012 C 
ATOM     25  C   UNL     1      50.817  45.230 142.404  1.00  0.00     0.012 C 
ATOM     26  C   UNL     1      46.501  46.000 140.941  1.00  0.00     0.022 C 
ATOM     27  C   UNL     1      45.750  47.116 140.160  1.00  0.00     0.015 C 
ATOM     28  C   UNL     1      49.015  48.256 140.554  1.00  0.00     0.017 C 
ATOM     29  C   UNL     1      46.729  44.709 143.125  1.00  0.00     0.012 C 
ATOM     30  C   UNL     1      43.671  48.496 139.833  1.00  0.00     0.011 C 
ENDROOT
BRANCH  20  31
ATOM     31  O   UNL     1      56.486  45.377 138.531  1.00  0.00    -0.393 OA
ATOM     32  H   UNL     1      56.762  46.041 139.212  1.00  0.00     0.210 HD
ENDBRANCH  20  31
TORSDOF 1
ENDMDL
MODEL 2
REMARK VINA RESULT:    -4.899      7.882     11.540
REMARK INTER + INTRA:          -5.042
REMARK INTER:                  -5.042
REMARK INTRA:                   0.000
REMARK UNBOUND:                 0.000
REMARK SMILES CC1(C)CC[C@]2(C)CC[C@]3(C)C(=CC[C@H]4[C@]5(C)CC[C@H](O)C(C)(C)[C@@H]5CC[C@]43C)[C@@H]2C1
REMARK SMILES IDX 1 1 2 2 4 3 5 4 6 5 8 6 9 7 10 8 12 9 13 10 14 11 15 12
REMARK SMILES IDX 28 13 27 14 26 15 25 16 16 17 18 18 19 19 20 20 22 21 23 22
REMARK SMILES IDX 24 23 17 24 29 25 30 26 31 27 11 28 7 29 3 30 21 31
REMARK H PARENT 21 32
REMARK Flexibility Score: inf
ROOT
ATOM      1  C   UNL     1      53.689  38.018 137.820  1.00  0.00     0.011 C 
ATOM      2  C   UNL     1      53.231  37.351 136.501  1.00  0.00    -0.035 C 
ATOM      3  C   UNL     1      52.707  35.911 136.748  1.00  0.00     0.007 C 
ATOM      4  C   UNL     1      51.370  35.875 137.510  1.00  0.00     0.008 C 
ATOM      5  C   UNL     1      50.242  36.770 136.894  1.00  0.00    -0.026 C 
ATOM      6  C   UNL     1      49.712  36.122 135.591  1.00  0.00     0.008 C 
ATOM      7  C   UNL     1      48.569  36.911 134.917  1.00  0.00     0.012 C 
ATOM      8  C   UNL     1      48.831  38.456 134.654  1.00  0.00    -0.006 C 
ATOM      9  C   UNL     1      49.735  39.028 135.778  1.00  0.00    -0.064 C 
ATOM     10  C   UNL     1      49.799  40.359 135.958  1.00  0.00    -0.027 C 
ATOM     11  C   UNL     1      48.997  41.314 135.140  1.00  0.00     0.032 C 
ATOM     12  C   UNL     1      47.516  40.854 135.051  1.00  0.00     0.006 C 
ATOM     13  C   UNL     1      47.419  39.332 134.531  1.00  0.00    -0.020 C 
ATOM     14  C   UNL     1      46.876  39.341 133.058  1.00  0.00     0.008 C 
ATOM     15  C   UNL     1      47.378  40.548 132.236  1.00  0.00     0.005 C 
ATOM     16  C   UNL     1      46.789  41.909 132.724  1.00  0.00     0.003 C 
ATOM     17  C   UNL     1      46.574  41.938 134.304  1.00  0.00    -0.025 C 
ATOM     18  C   UNL     1      45.058  41.704 134.609  1.00  0.00     0.010 C 
ATOM     19  C   UNL     1      44.097  42.727 133.947  1.00  0.00     0.033 C 
ATOM     20  C   UNL     1      44.641  43.386 132.647  1.00  0.00     0.120 C 
ATOM     21  C   UNL     1      45.555  42.424 131.824  1.00  0.00    -0.006 C 
ATOM     22  C   UNL     1      44.669  41.285 131.226  1.00  0.00     0.014 C 
ATOM     23  C   UNL     1      46.131  43.235 130.628  1.00  0.00     0.014 C 
ATOM     24  C   UNL     1      46.921  43.341 134.919  1.00  0.00     0.012 C 
ATOM     25  C   UNL     1      46.311  38.662 135.418  1.00  0.00     0.012 C 
ATOM     26  C   UNL     1      50.767  38.192 136.553  1.00  0.00     0.022 C 
ATOM     27  C   UNL     1      52.134  38.198 135.810  1.00  0.00     0.015 C 
ATOM     28  C   UNL     1      49.702  38.525 133.341  1.00  0.00     0.017 C 
ATOM     29  C   UNL     1      49.109  36.862 137.957  1.00  0.00     0.012 C 
ATOM     30  C   UNL     1      54.459  37.268 135.561  1.00  0.00     0.011 C 
ENDROOT
BRANCH  20  31
ATOM     31  O   UNL     1      43.572  43.856 131.859  1.00  0.00    -0.393 OA
ATOM     32  H   UNL     1      43.725  43.562 130.925  1.00  0.00     0.210 HD
ENDBRANCH  20  31
TORSDOF 1
ENDMDL
MODEL 3
REMARK VINA RESULT:    -4.853     15.661     18.018
REMARK INTER + INTRA:          -4.995
REMARK INTER:                  -4.995
REMARK INTRA:                   0.000
REMARK UNBOUND:                 0.000
REMARK SMILES CC1(C)CC[C@]2(C)CC[C@]3(C)C(=CC[C@H]4[C@]5(C)CC[C@H](O)C(C)(C)[C@@H]5CC[C@]43C)[C@@H]2C1
REMARK SMILES IDX 1 1 2 2 4 3 5 4 6 5 8 6 9 7 10 8 12 9 13 10 14 11 15 12
REMARK SMILES IDX 28 13 27 14 26 15 25 16 16 17 18 18 19 19 20 20 22 21 23 22
REMARK SMILES IDX 24 23 17 24 29 25 30 26 31 27 11 28 7 29 3 30 21 31
REMARK H PARENT 21 32
REMARK Flexibility Score: inf
ROOT
ATOM      1  C   UNL     1      48.485  38.494 124.859  1.00  0.00     0.011 C 
ATOM      2  C   UNL     1      49.390  37.826 125.923  1.00  0.00    -0.035 C 
ATOM      3  C   UNL     1      49.473  36.291 125.710  1.00  0.00     0.007 C 
ATOM      4  C   UNL     1      50.258  35.896 124.447  1.00  0.00     0.008 C 
ATOM      5  C   UNL     1      51.681  36.542 124.333  1.00  0.00    -0.026 C 
ATOM      6  C   UNL     1      52.643  35.875 125.347  1.00  0.00     0.008 C 
ATOM      7  C   UNL     1      54.086  36.419 125.294  1.00  0.00     0.012 C 
ATOM      8  C   UNL     1      54.255  37.996 125.385  1.00  0.00    -0.006 C 
ATOM      9  C   UNL     1      53.042  38.689 124.709  1.00  0.00    -0.064 C 
ATOM     10  C   UNL     1      53.134  39.984 124.359  1.00  0.00    -0.027 C 
ATOM     11  C   UNL     1      54.381  40.777 124.558  1.00  0.00     0.032 C 
ATOM     12  C   UNL     1      55.621  39.992 124.048  1.00  0.00     0.006 C 
ATOM     13  C   UNL     1      55.685  38.527 124.714  1.00  0.00    -0.020 C 
ATOM     14  C   UNL     1      56.854  38.504 125.762  1.00  0.00     0.008 C 
ATOM     15  C   UNL     1      57.022  39.846 126.508  1.00  0.00     0.005 C 
ATOM     16  C   UNL     1      57.536  40.999 125.589  1.00  0.00     0.003 C 
ATOM     17  C   UNL     1      56.977  40.874 124.100  1.00  0.00    -0.025 C 
ATOM     18  C   UNL     1      58.100  40.274 123.191  1.00  0.00     0.010 C 
ATOM     19  C   UNL     1      59.422  41.087 123.171  1.00  0.00     0.033 C 
ATOM     20  C   UNL     1      59.685  41.938 124.447  1.00  0.00     0.120 C 
ATOM     21  C   UNL     1      59.118  41.270 125.740  1.00  0.00    -0.006 C 
ATOM     22  C   UNL     1      59.967  39.997 126.056  1.00  0.00     0.014 C 
ATOM     23  C   UNL     1      59.329  42.269 126.913  1.00  0.00     0.014 C 
ATOM     24  C   UNL     1      56.631  42.276 123.483  1.00  0.00     0.012 C 
ATOM     25  C   UNL     1      56.103  37.561 123.549  1.00  0.00     0.012 C 
ATOM     26  C   UNL     1      51.638  38.066 124.631  1.00  0.00     0.022 C 
ATOM     27  C   UNL     1      50.812  38.438 125.897  1.00  0.00     0.015 C 
ATOM     28  C   UNL     1      54.138  38.351 126.918  1.00  0.00     0.017 C 
ATOM     29  C   UNL     1      52.170  36.299 122.875  1.00  0.00     0.012 C 
ATOM     30  C   UNL     1      48.762  38.091 127.313  1.00  0.00     0.011 C 
ENDROOT
BRANCH  20  31
ATOM     31  O   UNL     1      61.063  42.196 124.580  1.00  0.00    -0.393 OA
ATOM     32  H   UNL     1      61.225  42.541 125.495  1.00  0.00     0.210 HD
ENDBRANCH  20  31
TORSDOF 1
ENDMDL
MODEL 4
REMARK VINA RESULT:    -4.785     15.884     19.385
REMARK INTER + INTRA:          -4.925
REMARK INTER:                  -4.925
REMARK INTRA:                   0.000
REMARK UNBOUND:                 0.000
REMARK SMILES CC1(C)CC[C@]2(C)CC[C@]3(C)C(=CC[C@H]4[C@]5(C)CC[C@H](O)C(C)(C)[C@@H]5CC[C@]43C)[C@@H]2C1
REMARK SMILES IDX 1 1 2 2 4 3 5 4 6 5 8 6 9 7 10 8 12 9 13 10 14 11 15 12
REMARK SMILES IDX 28 13 27 14 26 15 25 16 16 17 18 18 19 19 20 20 22 21 23 22
REMARK SMILES IDX 24 23 17 24 29 25 30 26 31 27 11 28 7 29 3 30 21 31
REMARK H PARENT 21 32
REMARK Flexibility Score: inf
ROOT
ATOM      1  C   UNL     1      60.161  44.393 126.220  1.00  0.00     0.011 C 
ATOM      2  C   UNL     1      59.702  44.009 124.792  1.00  0.00    -0.035 C 
ATOM      3  C   UNL     1      60.829  43.278 124.014  1.00  0.00     0.007 C 
ATOM      4  C   UNL     1      61.125  41.869 124.557  1.00  0.00     0.008 C 
ATOM      5  C   UNL     1      59.868  40.945 124.696  1.00  0.00    -0.026 C 
ATOM      6  C   UNL     1      59.393  40.491 123.293  1.00  0.00     0.008 C 
ATOM      7  C   UNL     1      58.173  39.545 123.318  1.00  0.00     0.012 C 
ATOM      8  C   UNL     1      56.914  40.033 124.155  1.00  0.00    -0.006 C 
ATOM      9  C   UNL     1      57.391  40.866 125.374  1.00  0.00    -0.064 C 
ATOM     10  C   UNL     1      56.545  41.081 126.397  1.00  0.00    -0.027 C 
ATOM     11  C   UNL     1      55.168  40.509 126.427  1.00  0.00     0.032 C 
ATOM     12  C   UNL     1      55.189  39.001 126.052  1.00  0.00     0.006 C 
ATOM     13  C   UNL     1      55.945  38.770 124.649  1.00  0.00    -0.020 C 
ATOM     14  C   UNL     1      54.876  38.407 123.558  1.00  0.00     0.008 C 
ATOM     15  C   UNL     1      53.537  39.153 123.754  1.00  0.00     0.005 C 
ATOM     16  C   UNL     1      52.759  38.692 125.026  1.00  0.00     0.003 C 
ATOM     17  C   UNL     1      53.740  38.300 126.221  1.00  0.00    -0.025 C 
ATOM     18  C   UNL     1      53.849  36.741 126.291  1.00  0.00     0.010 C 
ATOM     19  C   UNL     1      52.497  36.004 126.482  1.00  0.00     0.033 C 
ATOM     20  C   UNL     1      51.252  36.776 125.955  1.00  0.00     0.120 C 
ATOM     21  C   UNL     1      51.575  37.647 124.700  1.00  0.00    -0.006 C 
ATOM     22  C   UNL     1      51.863  36.697 123.494  1.00  0.00     0.014 C 
ATOM     23  C   UNL     1      50.294  38.459 124.352  1.00  0.00     0.014 C 
ATOM     24  C   UNL     1      53.177  38.751 127.616  1.00  0.00     0.012 C 
ATOM     25  C   UNL     1      56.828  37.489 124.861  1.00  0.00     0.012 C 
ATOM     26  C   UNL     1      58.693  41.684 125.392  1.00  0.00     0.022 C 
ATOM     27  C   UNL     1      58.437  43.118 124.843  1.00  0.00     0.015 C 
ATOM     28  C   UNL     1      56.151  41.052 123.225  1.00  0.00     0.017 C 
ATOM     29  C   UNL     1      60.303  39.717 125.548  1.00  0.00     0.012 C 
ATOM     30  C   UNL     1      59.358  45.316 124.037  1.00  0.00     0.011 C 
ENDROOT
BRANCH  20  31
ATOM     31  O   UNL     1      50.205  35.875 125.682  1.00  0.00    -0.393 OA
ATOM     32  H   UNL     1      49.653  35.786 126.501  1.00  0.00     0.210 HD
ENDBRANCH  20  31
TORSDOF 1
ENDMDL
MODEL 5
REMARK VINA RESULT:    -4.780     16.136     17.942
REMARK INTER + INTRA:          -4.919
REMARK INTER:                  -4.919
REMARK INTRA:                   0.000
REMARK UNBOUND:                 0.000
REMARK SMILES CC1(C)CC[C@]2(C)CC[C@]3(C)C(=CC[C@H]4[C@]5(C)CC[C@H](O)C(C)(C)[C@@H]5CC[C@]43C)[C@@H]2C1
REMARK SMILES IDX 1 1 2 2 4 3 5 4 6 5 8 6 9 7 10 8 12 9 13 10 14 11 15 12
REMARK SMILES IDX 28 13 27 14 26 15 25 16 16 17 18 18 19 19 20 20 22 21 23 22
REMARK SMILES IDX 24 23 17 24 29 25 30 26 31 27 11 28 7 29 3 30 21 31
REMARK H PARENT 21 32
REMARK Flexibility Score: inf
ROOT
ATOM      1  C   UNL     1      52.987  37.037 123.023  1.00  0.00     0.011 C 
ATOM      2  C   UNL     1      52.845  37.683 124.422  1.00  0.00    -0.035 C 
ATOM      3  C   UNL     1      53.215  36.680 125.547  1.00  0.00     0.007 C 
ATOM      4  C   UNL     1      54.716  36.344 125.590  1.00  0.00     0.008 C 
ATOM      5  C   UNL     1      55.664  37.590 125.635  1.00  0.00    -0.026 C 
ATOM      6  C   UNL     1      55.597  38.250 127.034  1.00  0.00     0.008 C 
ATOM      7  C   UNL     1      56.523  39.474 127.196  1.00  0.00     0.012 C 
ATOM      8  C   UNL     1      56.405  40.606 126.087  1.00  0.00    -0.006 C 
ATOM      9  C   UNL     1      56.052  39.960 124.721  1.00  0.00    -0.064 C 
ATOM     10  C   UNL     1      56.243  40.663 123.591  1.00  0.00    -0.027 C 
ATOM     11  C   UNL     1      56.827  42.036 123.595  1.00  0.00     0.032 C 
ATOM     12  C   UNL     1      58.098  42.092 124.486  1.00  0.00     0.006 C 
ATOM     13  C   UNL     1      57.788  41.527 125.963  1.00  0.00    -0.020 C 
ATOM     14  C   UNL     1      57.765  42.735 126.965  1.00  0.00     0.008 C 
ATOM     15  C   UNL     1      57.178  44.023 126.346  1.00  0.00     0.005 C 
ATOM     16  C   UNL     1      58.088  44.640 125.237  1.00  0.00     0.003 C 
ATOM     17  C   UNL     1      58.854  43.520 124.398  1.00  0.00    -0.025 C 
ATOM     18  C   UNL     1      60.330  43.433 124.908  1.00  0.00     0.010 C 
ATOM     19  C   UNL     1      61.125  44.763 124.825  1.00  0.00     0.033 C 
ATOM     20  C   UNL     1      60.251  46.050 124.877  1.00  0.00     0.120 C 
ATOM     21  C   UNL     1      58.979  45.875 125.765  1.00  0.00    -0.006 C 
ATOM     22  C   UNL     1      59.424  45.763 127.258  1.00  0.00     0.014 C 
ATOM     23  C   UNL     1      58.133  47.174 125.631  1.00  0.00     0.014 C 
ATOM     24  C   UNL     1      58.950  43.890 122.876  1.00  0.00     0.012 C 
ATOM     25  C   UNL     1      59.033  40.649 126.340  1.00  0.00     0.012 C 
ATOM     26  C   UNL     1      55.258  38.652 124.576  1.00  0.00     0.022 C 
ATOM     27  C   UNL     1      53.730  38.949 124.534  1.00  0.00     0.015 C 
ATOM     28  C   UNL     1      55.142  41.463 126.484  1.00  0.00     0.017 C 
ATOM     29  C   UNL     1      57.103  37.073 125.344  1.00  0.00     0.012 C 
ATOM     30  C   UNL     1      51.364  38.096 124.605  1.00  0.00     0.011 C 
ENDROOT
BRANCH  20  31
ATOM     31  O   UNL     1      61.024  47.141 125.320  1.00  0.00    -0.393 OA
ATOM     32  H   UNL     1      61.819  46.785 125.792  1.00  0.00     0.210 HD
ENDBRANCH  20  31
TORSDOF 1
ENDMDL
MODEL 6
REMARK VINA RESULT:    -4.709     15.983     19.495
REMARK INTER + INTRA:          -4.847
REMARK INTER:                  -4.847
REMARK INTRA:                   0.000
REMARK UNBOUND:                 0.000
REMARK SMILES CC1(C)CC[C@]2(C)CC[C@]3(C)C(=CC[C@H]4[C@]5(C)CC[C@H](O)C(C)(C)[C@@H]5CC[C@]43C)[C@@H]2C1
REMARK SMILES IDX 1 1 2 2 4 3 5 4 6 5 8 6 9 7 10 8 12 9 13 10 14 11 15 12
REMARK SMILES IDX 28 13 27 14 26 15 25 16 16 17 18 18 19 19 20 20 22 21 23 22
REMARK SMILES IDX 24 23 17 24 29 25 30 26 31 27 11 28 7 29 3 30 21 31
REMARK H PARENT 21 32
REMARK Flexibility Score: inf
ROOT
ATOM      1  C   UNL     1      58.220  41.837 125.908  1.00  0.00     0.011 C 
ATOM      2  C   UNL     1      57.826  41.324 124.502  1.00  0.00    -0.035 C 
ATOM      3  C   UNL     1      58.777  40.194 124.026  1.00  0.00     0.007 C 
ATOM      4  C   UNL     1      58.605  38.884 124.816  1.00  0.00     0.008 C 
ATOM      5  C   UNL     1      57.131  38.360 124.899  1.00  0.00    -0.026 C 
ATOM      6  C   UNL     1      56.700  37.788 123.525  1.00  0.00     0.008 C 
ATOM      7  C   UNL     1      55.268  37.213 123.506  1.00  0.00     0.012 C 
ATOM      8  C   UNL     1      54.115  38.158 124.056  1.00  0.00    -0.006 C 
ATOM      9  C   UNL     1      54.675  39.054 125.193  1.00  0.00    -0.064 C 
ATOM     10  C   UNL     1      53.820  39.668 126.028  1.00  0.00    -0.027 C 
ATOM     11  C   UNL     1      52.342  39.488 125.933  1.00  0.00     0.032 C 
ATOM     12  C   UNL     1      51.978  37.984 125.800  1.00  0.00     0.006 C 
ATOM     13  C   UNL     1      52.783  37.305 124.581  1.00  0.00    -0.020 C 
ATOM     14  C   UNL     1      51.777  37.033 123.407  1.00  0.00     0.008 C 
ATOM     15  C   UNL     1      50.690  38.122 123.279  1.00  0.00     0.005 C 
ATOM     16  C   UNL     1      49.682  38.126 124.471  1.00  0.00     0.003 C 
ATOM     17  C   UNL     1      50.381  37.726 125.848  1.00  0.00    -0.025 C 
ATOM     18  C   UNL     1      50.039  36.234 126.170  1.00  0.00     0.010 C 
ATOM     19  C   UNL     1      48.521  35.922 126.261  1.00  0.00     0.033 C 
ATOM     20  C   UNL     1      47.608  36.875 125.438  1.00  0.00     0.120 C 
ATOM     21  C   UNL     1      48.294  37.381 124.130  1.00  0.00    -0.006 C 
ATOM     22  C   UNL     1      48.429  36.180 123.141  1.00  0.00     0.014 C 
ATOM     23  C   UNL     1      47.338  38.416 123.470  1.00  0.00     0.014 C 
ATOM     24  C   UNL     1      49.823  38.562 127.055  1.00  0.00     0.012 C 
ATOM     25  C   UNL     1      53.242  35.903 125.118  1.00  0.00     0.012 C 
ATOM     26  C   UNL     1      56.145  39.496 125.286  1.00  0.00     0.022 C 
ATOM     27  C   UNL     1      56.362  40.817 124.493  1.00  0.00     0.015 C 
ATOM     28  C   UNL     1      53.773  39.146 122.875  1.00  0.00     0.017 C 
ATOM     29  C   UNL     1      57.110  37.244 125.985  1.00  0.00     0.012 C 
ATOM     30  C   UNL     1      57.946  42.509 123.513  1.00  0.00     0.011 C 
ENDROOT
BRANCH  20  31
ATOM     31  O   UNL     1      46.384  36.242 125.147  1.00  0.00    -0.393 OA
ATOM     32  H   UNL     1      46.011  35.889 125.995  1.00  0.00     0.210 HD
ENDBRANCH  20  31
TORSDOF 1
ENDMDL
MODEL 7
REMARK VINA RESULT:    -4.662      3.206      8.377
REMARK INTER + INTRA:          -4.798
REMARK INTER:                  -4.798
REMARK INTRA:                   0.000
REMARK UNBOUND:                 0.000
REMARK SMILES CC1(C)CC[C@]2(C)CC[C@]3(C)C(=CC[C@H]4[C@]5(C)CC[C@H](O)C(C)(C)[C@@H]5CC[C@]43C)[C@@H]2C1
REMARK SMILES IDX 1 1 2 2 4 3 5 4 6 5 8 6 9 7 10 8 12 9 13 10 14 11 15 12
REMARK SMILES IDX 28 13 27 14 26 15 25 16 16 17 18 18 19 19 20 20 22 21 23 22
REMARK SMILES IDX 24 23 17 24 29 25 30 26 31 27 11 28 7 29 3 30 21 31
REMARK H PARENT 21 32
REMARK Flexibility Score: inf
ROOT
ATOM      1  C   UNL     1      53.337  43.623 140.113  1.00  0.00     0.011 C 
ATOM      2  C   UNL     1      53.119  45.010 139.461  1.00  0.00    -0.035 C 
ATOM      3  C   UNL     1      53.180  44.922 137.913  1.00  0.00     0.007 C 
ATOM      4  C   UNL     1      51.980  44.178 137.300  1.00  0.00     0.008 C 
ATOM      5  C   UNL     1      50.579  44.703 137.764  1.00  0.00    -0.026 C 
ATOM      6  C   UNL     1      50.287  46.072 137.101  1.00  0.00     0.008 C 
ATOM      7  C   UNL     1      48.910  46.667 137.467  1.00  0.00     0.012 C 
ATOM      8  C   UNL     1      48.566  46.760 139.016  1.00  0.00    -0.006 C 
ATOM      9  C   UNL     1      49.227  45.574 139.768  1.00  0.00    -0.064 C 
ATOM     10  C   UNL     1      48.795  45.253 141.000  1.00  0.00    -0.027 C 
ATOM     11  C   UNL     1      47.667  45.970 141.662  1.00  0.00     0.032 C 
ATOM     12  C   UNL     1      46.463  46.119 140.691  1.00  0.00     0.006 C 
ATOM     13  C   UNL     1      46.925  46.800 139.306  1.00  0.00    -0.020 C 
ATOM     14  C   UNL     1      46.370  48.267 139.260  1.00  0.00     0.008 C 
ATOM     15  C   UNL     1      46.356  48.951 140.645  1.00  0.00     0.005 C 
ATOM     16  C   UNL     1      45.317  48.325 141.628  1.00  0.00     0.003 C 
ATOM     17  C   UNL     1      45.160  46.752 141.412  1.00  0.00    -0.025 C 
ATOM     18  C   UNL     1      43.853  46.485 140.596  1.00  0.00     0.010 C 
ATOM     19  C   UNL     1      42.557  47.041 141.246  1.00  0.00     0.033 C 
ATOM     20  C   UNL     1      42.772  48.260 142.190  1.00  0.00     0.120 C 
ATOM     21  C   UNL     1      43.951  49.174 141.730  1.00  0.00    -0.006 C 
ATOM     22  C   UNL     1      43.536  49.897 140.409  1.00  0.00     0.014 C 
ATOM     23  C   UNL     1      44.143  50.271 142.816  1.00  0.00     0.014 C 
ATOM     24  C   UNL     1      44.978  45.988 142.772  1.00  0.00     0.012 C 
ATOM     25  C   UNL     1      46.179  45.998 138.181  1.00  0.00     0.012 C 
ATOM     26  C   UNL     1      50.522  44.886 139.305  1.00  0.00     0.022 C 
ATOM     27  C   UNL     1      51.762  45.614 139.900  1.00  0.00     0.015 C 
ATOM     28  C   UNL     1      49.304  48.052 139.540  1.00  0.00     0.017 C 
ATOM     29  C   UNL     1      49.529  43.645 137.315  1.00  0.00     0.012 C 
ATOM     30  C   UNL     1      54.256  45.944 139.941  1.00  0.00     0.011 C 
ENDROOT
BRANCH  20  31
ATOM     31  O   UNL     1      41.579  49.001 142.301  1.00  0.00    -0.393 OA
ATOM     32  H   UNL     1      41.577  49.451 143.184  1.00  0.00     0.210 HD
ENDBRANCH  20  31
TORSDOF 1
ENDMDL
MODEL 8
REMARK VINA RESULT:    -4.611     11.926     15.056
REMARK INTER + INTRA:          -4.746
REMARK INTER:                  -4.746
REMARK INTRA:                   0.000
REMARK UNBOUND:                 0.000
REMARK SMILES CC1(C)CC[C@]2(C)CC[C@]3(C)C(=CC[C@H]4[C@]5(C)CC[C@H](O)C(C)(C)[C@@H]5CC[C@]43C)[C@@H]2C1
REMARK SMILES IDX 1 1 2 2 4 3 5 4 6 5 8 6 9 7 10 8 12 9 13 10 14 11 15 12
REMARK SMILES IDX 28 13 27 14 26 15 25 16 16 17 18 18 19 19 20 20 22 21 23 22
REMARK SMILES IDX 24 23 17 24 29 25 30 26 31 27 11 28 7 29 3 30 21 31
REMARK H PARENT 21 32
REMARK Flexibility Score: inf
ROOT
ATOM      1  C   UNL     1      49.228  41.123 132.528  1.00  0.00     0.011 C 
ATOM      2  C   UNL     1      50.456  40.303 132.993  1.00  0.00    -0.035 C 
ATOM      3  C   UNL     1      50.025  38.959 133.637  1.00  0.00     0.007 C 
ATOM      4  C   UNL     1      49.441  37.959 132.623  1.00  0.00     0.008 C 
ATOM      5  C   UNL     1      50.341  37.701 131.367  1.00  0.00    -0.026 C 
ATOM      6  C   UNL     1      51.566  36.841 131.767  1.00  0.00     0.008 C 
ATOM      7  C   UNL     1      52.505  36.500 130.591  1.00  0.00     0.012 C 
ATOM      8  C   UNL     1      53.001  37.719 129.701  1.00  0.00    -0.006 C 
ATOM      9  C   UNL     1      51.892  38.803 129.640  1.00  0.00    -0.064 C 
ATOM     10  C   UNL     1      51.944  39.744 128.681  1.00  0.00    -0.027 C 
ATOM     11  C   UNL     1      53.010  39.764 127.639  1.00  0.00     0.032 C 
ATOM     12  C   UNL     1      53.201  38.352 127.019  1.00  0.00     0.006 C 
ATOM     13  C   UNL     1      53.452  37.251 128.167  1.00  0.00    -0.020 C 
ATOM     14  C   UNL     1      54.959  36.814 128.120  1.00  0.00     0.008 C 
ATOM     15  C   UNL     1      55.912  37.973 127.752  1.00  0.00     0.005 C 
ATOM     16  C   UNL     1      55.749  38.456 126.277  1.00  0.00     0.003 C 
ATOM     17  C   UNL     1      54.238  38.356 125.776  1.00  0.00    -0.025 C 
ATOM     18  C   UNL     1      54.088  37.079 124.885  1.00  0.00     0.010 C 
ATOM     19  C   UNL     1      55.035  37.031 123.656  1.00  0.00     0.033 C 
ATOM     20  C   UNL     1      56.353  37.842 123.815  1.00  0.00     0.120 C 
ATOM     21  C   UNL     1      56.873  37.858 125.287  1.00  0.00    -0.006 C 
ATOM     22  C   UNL     1      57.365  36.423 125.658  1.00  0.00     0.014 C 
ATOM     23  C   UNL     1      58.111  38.798 125.336  1.00  0.00     0.014 C 
ATOM     24  C   UNL     1      53.842  39.566 124.858  1.00  0.00     0.012 C 
ATOM     25  C   UNL     1      52.605  36.002 127.735  1.00  0.00     0.012 C 
ATOM     26  C   UNL     1      50.860  39.032 130.756  1.00  0.00     0.022 C 
ATOM     27  C   UNL     1      51.416  40.035 131.808  1.00  0.00     0.015 C 
ATOM     28  C   UNL     1      54.187  38.380 130.505  1.00  0.00     0.017 C 
ATOM     29  C   UNL     1      49.460  36.947 130.328  1.00  0.00     0.012 C 
ATOM     30  C   UNL     1      51.205  41.137 134.061  1.00  0.00     0.011 C 
ENDROOT
BRANCH  20  31
ATOM     31  O   UNL     1      57.338  37.340 122.943  1.00  0.00    -0.393 OA
ATOM     32  H   UNL     1      57.006  37.437 122.014  1.00  0.00     0.210 HD
ENDBRANCH  20  31
TORSDOF 1
ENDMDL
MODEL 9
REMARK VINA RESULT:    -4.466     15.828     17.636
REMARK INTER + INTRA:          -4.597
REMARK INTER:                  -4.597
REMARK INTRA:                   0.000
REMARK UNBOUND:                 0.000
REMARK SMILES CC1(C)CC[C@]2(C)CC[C@]3(C)C(=CC[C@H]4[C@]5(C)CC[C@H](O)C(C)(C)[C@@H]5CC[C@]43C)[C@@H]2C1
REMARK SMILES IDX 1 1 2 2 4 3 5 4 6 5 8 6 9 7 10 8 12 9 13 10 14 11 15 12
REMARK SMILES IDX 28 13 27 14 26 15 25 16 16 17 18 18 19 19 20 20 22 21 23 22
REMARK SMILES IDX 24 23 17 24 29 25 30 26 31 27 11 28 7 29 3 30 21 31
REMARK H PARENT 21 32
REMARK Flexibility Score: inf
ROOT
ATOM      1  C   UNL     1      48.268  35.875 123.197  1.00  0.00     0.011 C 
ATOM      2  C   UNL     1      48.282  37.294 123.816  1.00  0.00    -0.035 C 
ATOM      3  C   UNL     1      47.725  37.283 125.264  1.00  0.00     0.007 C 
ATOM      4  C   UNL     1      48.655  36.576 126.266  1.00  0.00     0.008 C 
ATOM      5  C   UNL     1      50.137  37.083 126.254  1.00  0.00    -0.026 C 
ATOM      6  C   UNL     1      50.217  38.484 126.908  1.00  0.00     0.008 C 
ATOM      7  C   UNL     1      51.646  39.065 126.976  1.00  0.00     0.012 C 
ATOM      8  C   UNL     1      52.471  39.082 125.618  1.00  0.00    -0.006 C 
ATOM      9  C   UNL     1      52.072  37.857 124.752  1.00  0.00    -0.064 C 
ATOM     10  C   UNL     1      52.874  37.477 123.742  1.00  0.00    -0.027 C 
ATOM     11  C   UNL     1      54.164  38.163 123.444  1.00  0.00     0.032 C 
ATOM     12  C   UNL     1      54.993  38.366 124.743  1.00  0.00     0.006 C 
ATOM     13  C   UNL     1      54.118  39.113 125.870  1.00  0.00    -0.020 C 
ATOM     14  C   UNL     1      54.647  40.583 126.021  1.00  0.00     0.008 C 
ATOM     15  C   UNL     1      55.115  41.197 124.683  1.00  0.00     0.005 C 
ATOM     16  C   UNL     1      56.407  40.526 124.119  1.00  0.00     0.003 C 
ATOM     17  C   UNL     1      56.467  38.967 124.450  1.00  0.00    -0.025 C 
ATOM     18  C   UNL     1      57.438  38.746 125.655  1.00  0.00     0.010 C 
ATOM     19  C   UNL     1      58.881  39.274 125.431  1.00  0.00     0.033 C 
ATOM     20  C   UNL     1      58.997  40.443 124.410  1.00  0.00     0.120 C 
ATOM     21  C   UNL     1      57.744  41.374 124.420  1.00  0.00    -0.006 C 
ATOM     22  C   UNL     1      57.721  42.164 125.768  1.00  0.00     0.014 C 
ATOM     23  C   UNL     1      57.926  42.415 123.279  1.00  0.00     0.014 C 
ATOM     24  C   UNL     1      57.067  38.136 123.260  1.00  0.00     0.012 C 
ATOM     25  C   UNL     1      54.453  38.371 127.213  1.00  0.00     0.012 C 
ATOM     26  C   UNL     1      50.689  37.188 124.806  1.00  0.00     0.022 C 
ATOM     27  C   UNL     1      49.715  37.881 123.808  1.00  0.00     0.015 C 
ATOM     28  C   UNL     1      51.957  40.342 124.822  1.00  0.00     0.017 C 
ATOM     29  C   UNL     1      50.973  36.052 127.068  1.00  0.00     0.012 C 
ATOM     30  C   UNL     1      47.371  38.198 122.950  1.00  0.00     0.011 C 
ENDROOT
BRANCH  20  31
ATOM     31  O   UNL     1      60.171  41.181 124.653  1.00  0.00    -0.393 OA
ATOM     32  H   UNL     1      60.564  41.433 123.778  1.00  0.00     0.210 HD
ENDBRANCH  20  31
TORSDOF 1
ENDMDL
