MODEL 1
REMARK VINA RESULT:    -4.981      0.000      0.000
REMARK INTER + INTRA:          -6.128
REMARK INTER:                  -5.855
REMARK INTRA:                  -0.273
REMARK UNBOUND:                -0.273
REMARK SMILES O=C([O-])C=Cc1ccc(O)c(O)c1
REMARK SMILES IDX 6 1 13 2 7 3 11 4 8 5 9 6 5 7 4 8 2 9 1 10 3 11 12 12 10 14
REMARK H PARENT 12 13 10 15
REMARK Flexibility Score: inf
ROOT
ATOM      1  C   UNL     1       9.475  -6.923  -8.149  1.00  0.00    -0.022 A 
ATOM      2  C   UNL     1      10.246  -6.029  -7.387  1.00  0.00     0.058 A 
ATOM      3  C   UNL     1       8.142  -7.162  -7.787  1.00  0.00     0.012 A 
ATOM      4  C   UNL     1       9.706  -5.420  -6.245  1.00  0.00     0.157 A 
ATOM      5  C   UNL     1       7.602  -6.556  -6.649  1.00  0.00     0.051 A 
ATOM      6  C   UNL     1       8.378  -5.690  -5.872  1.00  0.00     0.157 A 
ENDROOT
BRANCH   1   7
ATOM      7  C   UNL     1      10.008  -7.533  -9.384  1.00  0.00     0.010 C 
ATOM      8  C   UNL     1       9.829  -7.057 -10.626  1.00  0.00     0.025 C 
BRANCH   8   9
ATOM      9  C   UNL     1       9.236  -5.749 -10.963  1.00  0.00     0.064 C 
ATOM     10  O   UNL     1       7.999  -5.671 -11.178  1.00  0.00    -0.545 OA
ATOM     11  O   UNL     1      10.022  -4.614 -11.120  1.00  0.00    -0.545 OA
ENDBRANCH   8   9
ENDBRANCH   1   7
BRANCH   4  12
ATOM     12  O   UNL     1      10.481  -4.547  -5.484  1.00  0.00    -0.504 OA
ATOM     13  H   UNL     1      10.864  -3.695  -5.878  1.00  0.00     0.293 HD
ENDBRANCH   4  12
BRANCH   6  14
ATOM     14  O   UNL     1       7.813  -5.104  -4.740  1.00  0.00    -0.504 OA
ATOM     15  H   UNL     1       8.052  -5.404  -3.804  1.00  0.00     0.293 HD
ENDBRANCH   6  14
TORSDOF 4
ENDMDL
MODEL 2
REMARK VINA RESULT:    -4.825      1.990      2.751
REMARK INTER + INTRA:          -5.945
REMARK INTER:                  -5.678
REMARK INTRA:                  -0.266
REMARK UNBOUND:                -0.273
REMARK SMILES O=C([O-])C=Cc1ccc(O)c(O)c1
REMARK SMILES IDX 6 1 13 2 7 3 11 4 8 5 9 6 5 7 4 8 2 9 1 10 3 11 12 12 10 14
REMARK H PARENT 12 13 10 15
REMARK Flexibility Score: inf
ROOT
ATOM      1  C   UNL     1       8.559  -7.799  -9.368  1.00  0.00    -0.022 A 
ATOM      2  C   UNL     1       7.960  -6.595  -8.962  1.00  0.00     0.058 A 
ATOM      3  C   UNL     1       9.796  -8.169  -8.823  1.00  0.00     0.012 A 
ATOM      4  C   UNL     1       8.615  -5.744  -8.060  1.00  0.00     0.157 A 
ATOM      5  C   UNL     1      10.452  -7.322  -7.925  1.00  0.00     0.051 A 
ATOM      6  C   UNL     1       9.870  -6.108  -7.543  1.00  0.00     0.157 A 
ENDROOT
BRANCH   1   7
ATOM      7  C   UNL     1       7.861  -8.734 -10.275  1.00  0.00     0.010 C 
ATOM      8  C   UNL     1       7.745  -8.586 -11.603  1.00  0.00     0.025 C 
BRANCH   8   9
ATOM      9  C   UNL     1       8.448  -7.575 -12.416  1.00  0.00     0.064 C 
ATOM     10  O   UNL     1       9.600  -7.829 -12.852  1.00  0.00    -0.545 OA
ATOM     11  O   UNL     1       7.897  -6.321 -12.651  1.00  0.00    -0.545 OA
ENDBRANCH   8   9
ENDBRANCH   1   7
BRANCH   4  12
ATOM     12  O   UNL     1       8.023  -4.542  -7.674  1.00  0.00    -0.504 OA
ATOM     13  H   UNL     1       7.927  -3.766  -8.319  1.00  0.00     0.293 HD
ENDBRANCH   4  12
BRANCH   6  14
ATOM     14  O   UNL     1      10.550  -5.282  -6.649  1.00  0.00    -0.504 OA
ATOM     15  H   UNL     1      11.075  -4.474  -6.956  1.00  0.00     0.293 HD
ENDBRANCH   6  14
TORSDOF 4
ENDMDL
MODEL 3
REMARK VINA RESULT:    -4.766      1.886      2.296
REMARK INTER + INTRA:          -5.875
REMARK INTER:                  -5.597
REMARK INTRA:                  -0.277
REMARK UNBOUND:                -0.273
REMARK SMILES O=C([O-])C=Cc1ccc(O)c(O)c1
REMARK SMILES IDX 6 1 13 2 7 3 11 4 8 5 9 6 5 7 4 8 2 9 1 10 3 11 12 12 10 14
REMARK H PARENT 12 13 10 15
REMARK Flexibility Score: inf
ROOT
ATOM      1  C   UNL     1       8.355  -7.586  -8.955  1.00  0.00    -0.022 A 
ATOM      2  C   UNL     1       9.701  -7.809  -8.620  1.00  0.00     0.058 A 
ATOM      3  C   UNL     1       7.691  -6.472  -8.424  1.00  0.00     0.012 A 
ATOM      4  C   UNL     1      10.361  -6.957  -7.723  1.00  0.00     0.157 A 
ATOM      5  C   UNL     1       8.346  -5.621  -7.529  1.00  0.00     0.051 A 
ATOM      6  C   UNL     1       9.677  -5.860  -7.171  1.00  0.00     0.157 A 
ENDROOT
BRANCH   1   7
ATOM      7  C   UNL     1       7.659  -8.441  -9.939  1.00  0.00     0.010 C 
ATOM      8  C   UNL     1       7.626  -8.232 -11.263  1.00  0.00     0.025 C 
BRANCH   8   9
ATOM      9  C   UNL     1       8.427  -7.231 -11.992  1.00  0.00     0.064 C 
ATOM     10  O   UNL     1       7.923  -6.106 -12.247  1.00  0.00    -0.545 OA
ATOM     11  O   UNL     1       9.699  -7.525 -12.467  1.00  0.00    -0.545 OA
ENDBRANCH   8   9
ENDBRANCH   1   7
BRANCH   4  12
ATOM     12  O   UNL     1      11.692  -7.193  -7.381  1.00  0.00    -0.504 OA
ATOM     13  H   UNL     1      12.192  -6.586  -6.742  1.00  0.00     0.293 HD
ENDBRANCH   4  12
BRANCH   6  14
ATOM     14  O   UNL     1      10.303  -4.996  -6.273  1.00  0.00    -0.504 OA
ATOM     15  H   UNL     1       9.946  -4.842  -5.339  1.00  0.00     0.293 HD
ENDBRANCH   6  14
TORSDOF 4
ENDMDL
MODEL 4
REMARK VINA RESULT:    -4.668      2.173      2.564
REMARK INTER + INTRA:          -5.760
REMARK INTER:                  -5.495
REMARK INTRA:                  -0.265
REMARK UNBOUND:                -0.273
REMARK SMILES O=C([O-])C=Cc1ccc(O)c(O)c1
REMARK SMILES IDX 6 1 13 2 7 3 11 4 8 5 9 6 5 7 4 8 2 9 1 10 3 11 12 12 10 14
REMARK H PARENT 12 13 10 15
REMARK Flexibility Score: inf
ROOT
ATOM      1  C   UNL     1      10.227  -7.990  -8.828  1.00  0.00    -0.022 A 
ATOM      2  C   UNL     1      10.769  -7.119  -7.867  1.00  0.00     0.058 A 
ATOM      3  C   UNL     1       8.974  -7.703  -9.385  1.00  0.00     0.012 A 
ATOM      4  C   UNL     1      10.042  -6.003  -7.430  1.00  0.00     0.157 A 
ATOM      5  C   UNL     1       8.247  -6.591  -8.951  1.00  0.00     0.051 A 
ATOM      6  C   UNL     1       8.772  -5.740  -7.972  1.00  0.00     0.157 A 
ENDROOT
BRANCH   1   7
ATOM      7  C   UNL     1      10.999  -9.141  -9.339  1.00  0.00     0.010 C 
ATOM      8  C   UNL     1      11.695  -9.162 -10.486  1.00  0.00     0.025 C 
BRANCH   8   9
ATOM      9  C   UNL     1      11.972  -7.991 -11.340  1.00  0.00     0.064 C 
ATOM     10  O   UNL     1      11.372  -7.876 -12.440  1.00  0.00    -0.545 OA
ATOM     11  O   UNL     1      12.933  -7.049 -10.992  1.00  0.00    -0.545 OA
ENDBRANCH   8   9
ENDBRANCH   1   7
BRANCH   4  12
ATOM     12  O   UNL     1      10.578  -5.152  -6.464  1.00  0.00    -0.504 OA
ATOM     13  H   UNL     1      11.555  -5.200  -6.198  1.00  0.00     0.293 HD
ENDBRANCH   4  12
BRANCH   6  14
ATOM     14  O   UNL     1       8.023  -4.641  -7.556  1.00  0.00    -0.504 OA
ATOM     15  H   UNL     1       8.339  -4.022  -6.820  1.00  0.00     0.293 HD
ENDBRANCH   6  14
TORSDOF 4
ENDMDL
MODEL 5
REMARK VINA RESULT:    -4.651      2.325      4.327
REMARK INTER + INTRA:          -5.740
REMARK INTER:                  -5.471
REMARK INTRA:                  -0.269
REMARK UNBOUND:                -0.273
REMARK SMILES O=C([O-])C=Cc1ccc(O)c(O)c1
REMARK SMILES IDX 6 1 13 2 7 3 11 4 8 5 9 6 5 7 4 8 2 9 1 10 3 11 12 12 10 14
REMARK H PARENT 12 13 10 15
REMARK Flexibility Score: inf
ROOT
ATOM      1  C   UNL     1       7.981  -6.350  -9.430  1.00  0.00    -0.022 A 
ATOM      2  C   UNL     1       7.246  -5.339  -8.789  1.00  0.00     0.058 A 
ATOM      3  C   UNL     1       8.320  -6.200 -10.782  1.00  0.00     0.012 A 
ATOM      4  C   UNL     1       6.809  -4.215  -9.504  1.00  0.00     0.157 A 
ATOM      5  C   UNL     1       7.886  -5.080 -11.498  1.00  0.00     0.051 A 
ATOM      6  C   UNL     1       7.128  -4.088 -10.867  1.00  0.00     0.157 A 
ENDROOT
BRANCH   1   7
ATOM      7  C   UNL     1       8.495  -7.516  -8.682  1.00  0.00     0.010 C 
ATOM      8  C   UNL     1       9.675  -7.572  -8.047  1.00  0.00     0.025 C 
BRANCH   8   9
ATOM      9  C   UNL     1      10.580  -6.429  -7.820  1.00  0.00     0.064 C 
ATOM     10  O   UNL     1      10.325  -5.616  -6.895  1.00  0.00    -0.545 OA
ATOM     11  O   UNL     1      11.668  -6.189  -8.651  1.00  0.00    -0.545 OA
ENDBRANCH   8   9
ENDBRANCH   1   7
BRANCH   4  12
ATOM     12  O   UNL     1       6.065  -3.224  -8.866  1.00  0.00    -0.504 OA
ATOM     13  H   UNL     1       5.302  -2.748  -9.334  1.00  0.00     0.293 HD
ENDBRANCH   4  12
BRANCH   6  14
ATOM     14  O   UNL     1       6.705  -2.985 -11.607  1.00  0.00    -0.504 OA
ATOM     15  H   UNL     1       6.968  -2.854 -12.576  1.00  0.00     0.293 HD
ENDBRANCH   6  14
TORSDOF 4
ENDMDL
MODEL 6
REMARK VINA RESULT:    -4.632      2.500      3.470
REMARK INTER + INTRA:          -5.718
REMARK INTER:                  -5.452
REMARK INTRA:                  -0.265
REMARK UNBOUND:                -0.273
REMARK SMILES O=C([O-])C=Cc1ccc(O)c(O)c1
REMARK SMILES IDX 6 1 13 2 7 3 11 4 8 5 9 6 5 7 4 8 2 9 1 10 3 11 12 12 10 14
REMARK H PARENT 12 13 10 15
REMARK Flexibility Score: inf
ROOT
ATOM      1  C   UNL     1       8.703  -6.013 -10.649  1.00  0.00    -0.022 A 
ATOM      2  C   UNL     1       8.473  -6.090  -9.265  1.00  0.00     0.058 A 
ATOM      3  C   UNL     1       8.088  -4.997 -11.392  1.00  0.00     0.012 A 
ATOM      4  C   UNL     1       7.595  -5.191  -8.640  1.00  0.00     0.157 A 
ATOM      5  C   UNL     1       7.213  -4.100 -10.772  1.00  0.00     0.051 A 
ATOM      6  C   UNL     1       6.959  -4.194  -9.400  1.00  0.00     0.157 A 
ENDROOT
BRANCH   1   7
ATOM      7  C   UNL     1       9.663  -6.916 -11.316  1.00  0.00     0.010 C 
ATOM      8  C   UNL     1      10.978  -6.690 -11.449  1.00  0.00     0.025 C 
BRANCH   8   9
ATOM      9  C   UNL     1      11.730  -5.602 -10.793  1.00  0.00     0.064 C 
ATOM     10  O   UNL     1      11.813  -4.483 -11.361  1.00  0.00    -0.545 OA
ATOM     11  O   UNL     1      12.409  -5.807  -9.599  1.00  0.00    -0.545 OA
ENDBRANCH   8   9
ENDBRANCH   1   7
BRANCH   4  12
ATOM     12  O   UNL     1       7.358  -5.283  -7.269  1.00  0.00    -0.504 OA
ATOM     13  H   UNL     1       7.834  -4.681  -6.606  1.00  0.00     0.293 HD
ENDBRANCH   4  12
BRANCH   6  14
ATOM     14  O   UNL     1       6.079  -3.289  -8.809  1.00  0.00    -0.504 OA
ATOM     15  H   UNL     1       5.078  -3.343  -8.948  1.00  0.00     0.293 HD
ENDBRANCH   6  14
TORSDOF 4
ENDMDL
MODEL 7
REMARK VINA RESULT:    -4.561     13.533     16.071
REMARK INTER + INTRA:          -5.634
REMARK INTER:                  -5.434
REMARK INTRA:                  -0.200
REMARK UNBOUND:                -0.273
REMARK SMILES O=C([O-])C=Cc1ccc(O)c(O)c1
REMARK SMILES IDX 6 1 13 2 7 3 11 4 8 5 9 6 5 7 4 8 2 9 1 10 3 11 12 12 10 14
REMARK H PARENT 12 13 10 15
REMARK Flexibility Score: inf
ROOT
ATOM      1  C   UNL     1      19.325  -1.055 -18.264  1.00  0.00    -0.022 A 
ATOM      2  C   UNL     1      20.536  -0.382 -18.030  1.00  0.00     0.058 A 
ATOM      3  C   UNL     1      18.676  -0.891 -19.495  1.00  0.00     0.012 A 
ATOM      4  C   UNL     1      21.064   0.487 -18.996  1.00  0.00     0.157 A 
ATOM      5  C   UNL     1      19.200  -0.025 -20.459  1.00  0.00     0.051 A 
ATOM      6  C   UNL     1      20.389   0.669 -20.215  1.00  0.00     0.157 A 
ENDROOT
BRANCH   1   7
ATOM      7  C   UNL     1      18.780  -2.014 -17.282  1.00  0.00     0.010 C 
ATOM      8  C   UNL     1      18.137  -1.687 -16.151  1.00  0.00     0.025 C 
BRANCH   8   9
ATOM      9  C   UNL     1      17.693  -0.328 -15.782  1.00  0.00     0.064 C 
ATOM     10  O   UNL     1      16.478  -0.025 -15.899  1.00  0.00    -0.545 OA
ATOM     11  O   UNL     1      18.597   0.645 -15.375  1.00  0.00    -0.545 OA
ENDBRANCH   8   9
ENDBRANCH   1   7
BRANCH   4  12
ATOM     12  O   UNL     1      22.258   1.165 -18.750  1.00  0.00    -0.504 OA
ATOM     13  H   UNL     1      22.291   2.176 -18.685  1.00  0.00     0.293 HD
ENDBRANCH   4  12
BRANCH   6  14
ATOM     14  O   UNL     1      20.886   1.528 -21.194  1.00  0.00    -0.504 OA
ATOM     15  H   UNL     1      21.050   1.223 -22.145  1.00  0.00     0.293 HD
ENDBRANCH   6  14
TORSDOF 4
ENDMDL
MODEL 8
REMARK VINA RESULT:    -4.492      1.787      2.310
REMARK INTER + INTRA:          -5.553
REMARK INTER:                  -5.268
REMARK INTRA:                  -0.285
REMARK UNBOUND:                -0.273
REMARK SMILES O=C([O-])C=Cc1ccc(O)c(O)c1
REMARK SMILES IDX 6 1 13 2 7 3 11 4 8 5 9 6 5 7 4 8 2 9 1 10 3 11 12 12 10 14
REMARK H PARENT 12 13 10 15
REMARK Flexibility Score: inf
ROOT
ATOM      1  C   UNL     1      10.528  -6.805  -8.164  1.00  0.00    -0.022 A 
ATOM      2  C   UNL     1       9.676  -5.923  -7.479  1.00  0.00     0.058 A 
ATOM      3  C   UNL     1      10.150  -8.146  -8.315  1.00  0.00     0.012 A 
ATOM      4  C   UNL     1       8.484  -6.389  -6.905  1.00  0.00     0.157 A 
ATOM      5  C   UNL     1       8.963  -8.613  -7.743  1.00  0.00     0.051 A 
ATOM      6  C   UNL     1       8.129  -7.742  -7.035  1.00  0.00     0.157 A 
ENDROOT
BRANCH   1   7
ATOM      7  C   UNL     1      11.761  -6.324  -8.821  1.00  0.00     0.010 C 
ATOM      8  C   UNL     1      11.867  -5.971 -10.111  1.00  0.00     0.025 C 
BRANCH   8   9
ATOM      9  C   UNL     1      10.740  -5.817 -11.051  1.00  0.00     0.064 C 
ATOM     10  O   UNL     1      10.117  -4.725 -11.092  1.00  0.00    -0.545 OA
ATOM     11  O   UNL     1      10.305  -6.874 -11.841  1.00  0.00    -0.545 OA
ENDBRANCH   8   9
ENDBRANCH   1   7
BRANCH   4  12
ATOM     12  O   UNL     1       7.651  -5.511  -6.212  1.00  0.00    -0.504 OA
ATOM     13  H   UNL     1       6.681  -5.739  -6.020  1.00  0.00     0.293 HD
ENDBRANCH   4  12
BRANCH   6  14
ATOM     14  O   UNL     1       6.953  -8.237  -6.472  1.00  0.00    -0.504 OA
ATOM     15  H   UNL     1       6.397  -7.693  -5.824  1.00  0.00     0.293 HD
ENDBRANCH   6  14
TORSDOF 4
ENDMDL
MODEL 9
REMARK VINA RESULT:    -4.420      2.040      2.830
REMARK INTER + INTRA:          -5.468
REMARK INTER:                  -5.196
REMARK INTRA:                  -0.272
REMARK UNBOUND:                -0.273
REMARK SMILES O=C([O-])C=Cc1ccc(O)c(O)c1
REMARK SMILES IDX 6 1 13 2 7 3 11 4 8 5 9 6 5 7 4 8 2 9 1 10 3 11 12 12 10 14
REMARK H PARENT 12 13 10 15
REMARK Flexibility Score: inf
ROOT
ATOM      1  C   UNL     1       9.297  -5.695  -9.751  1.00  0.00    -0.022 A 
ATOM      2  C   UNL     1       7.983  -5.233  -9.574  1.00  0.00     0.058 A 
ATOM      3  C   UNL     1      10.041  -6.098  -8.633  1.00  0.00     0.012 A 
ATOM      4  C   UNL     1       7.435  -5.125  -8.287  1.00  0.00     0.157 A 
ATOM      5  C   UNL     1       9.497  -5.991  -7.350  1.00  0.00     0.051 A 
ATOM      6  C   UNL     1       8.199  -5.502  -7.169  1.00  0.00     0.157 A 
ENDROOT
BRANCH   1   7
ATOM      7  C   UNL     1       9.873  -5.865 -11.101  1.00  0.00     0.010 C 
ATOM      8  C   UNL     1       9.727  -6.950 -11.877  1.00  0.00     0.025 C 
BRANCH   8   9
ATOM      9  C   UNL     1       8.818  -8.080 -11.605  1.00  0.00     0.064 C 
ATOM     10  O   UNL     1       7.644  -8.047 -12.058  1.00  0.00    -0.545 OA
ATOM     11  O   UNL     1       9.203  -9.146 -10.801  1.00  0.00    -0.545 OA
ENDBRANCH   8   9
ENDBRANCH   1   7
BRANCH   4  12
ATOM     12  O   UNL     1       6.135  -4.650  -8.116  1.00  0.00    -0.504 OA
ATOM     13  H   UNL     1       5.337  -5.134  -8.512  1.00  0.00     0.293 HD
ENDBRANCH   4  12
BRANCH   6  14
ATOM     14  O   UNL     1       7.685  -5.404  -5.877  1.00  0.00    -0.504 OA
ATOM     15  H   UNL     1       8.110  -5.880  -5.092  1.00  0.00     0.293 HD
ENDBRANCH   6  14
TORSDOF 4
ENDMDL
