MODEL 1
REMARK VINA RESULT:    -2.843      0.000      0.000
REMARK INTER + INTRA:         -10.497
REMARK INTER:                  -6.500
REMARK INTRA:                  -3.997
REMARK UNBOUND:                -3.997
REMARK SMILES CCCCCCCCCCCCCCCCCCCCCCCC(=O)[O-]
REMARK SMILES IDX 13 1 14 2 15 3 16 4 17 5 18 6 19 7 20 8 21 9 22 10 23 11
REMARK SMILES IDX 24 12 25 13 26 14 12 15 11 16 10 17 9 18 8 19 7 20 6 21 5 22
REMARK SMILES IDX 4 23 3 24 2 25 1 26
REMARK H PARENT
REMARK Flexibility Score: inf
ROOT
ATOM      1  C   UNL     1      96.215  64.071 226.051  1.00  0.00     0.000 C 
ENDROOT
BRANCH   1   2
ATOM      2  C   UNL     1      94.829  64.736 226.037  1.00  0.00     0.000 C 
BRANCH   2   3
ATOM      3  C   UNL     1      94.420  65.208 224.632  1.00  0.00     0.000 C 
BRANCH   3   4
ATOM      4  C   UNL     1      94.197  66.730 224.570  1.00  0.00     0.000 C 
BRANCH   4   5
ATOM      5  C   UNL     1      95.027  67.497 225.612  1.00  0.00     0.000 C 
BRANCH   5   6
ATOM      6  C   UNL     1      96.379  67.978 225.060  1.00  0.00     0.000 C 
BRANCH   6   7
ATOM      7  C   UNL     1      97.525  67.810 226.071  1.00  0.00     0.000 C 
BRANCH   7   8
ATOM      8  C   UNL     1      97.045  67.591 227.523  1.00  0.00     0.000 C 
BRANCH   8   9
ATOM      9  C   UNL     1      97.652  66.329 228.151  1.00  0.00     0.000 C 
BRANCH   9  10
ATOM     10  C   UNL     1      97.844  66.505 229.666  1.00  0.00     0.006 C 
BRANCH  10  11
ATOM     11  C   UNL     1      96.511  66.492 230.425  1.00  0.00     0.053 C 
BRANCH  11  12
ATOM     12  C   UNL     1      95.702  65.273 230.103  1.00  0.00     0.041 C 
ATOM     13  O   UNL     1      96.075  64.139 230.505  1.00  0.00    -0.550 OA
ATOM     14  O   UNL     1      94.560  65.383 229.319  1.00  0.00    -0.550 OA
ENDBRANCH  11  12
ENDBRANCH  10  11
ENDBRANCH   9  10
ENDBRANCH   8   9
ENDBRANCH   7   8
ENDBRANCH   6   7
ENDBRANCH   5   6
ENDBRANCH   4   5
ENDBRANCH   3   4
ENDBRANCH   2   3
ENDBRANCH   1   2
BRANCH   1  15
ATOM     15  C   UNL     1      96.821  64.031 224.643  1.00  0.00     0.000 C 
BRANCH  15  16
ATOM     16  C   UNL     1      98.339  63.806 224.708  1.00  0.00     0.000 C 
BRANCH  16  17
ATOM     17  C   UNL     1      99.141  65.041 224.268  1.00  0.00     0.000 C 
BRANCH  17  18
ATOM     18  C   UNL     1     100.566  64.687 223.816  1.00  0.00    -0.000 C 
BRANCH  18  19
ATOM     19  C   UNL     1     101.375  64.075 224.970  1.00  0.00    -0.000 C 
BRANCH  19  20
ATOM     20  C   UNL     1     102.153  62.818 224.545  1.00  0.00    -0.000 C 
BRANCH  20  21
ATOM     21  C   UNL     1     101.283  61.549 224.565  1.00  0.00    -0.000 C 
BRANCH  21  22
ATOM     22  C   UNL     1     101.062  61.013 225.997  1.00  0.00    -0.000 C 
BRANCH  22  23
ATOM     23  C   UNL     1      99.583  60.995 226.434  1.00  0.00    -0.000 C 
BRANCH  23  24
ATOM     24  C   UNL     1      99.346  61.248 227.935  1.00  0.00    -0.000 C 
BRANCH  24  25
ATOM     25  C   UNL     1      98.867  62.669 228.284  1.00  0.00    -0.003 C 
ATOM     26  C   UNL     1     100.000  63.697 228.290  1.00  0.00     0.004 C 
ENDBRANCH  24  25
ENDBRANCH  23  24
ENDBRANCH  22  23
ENDBRANCH  21  22
ENDBRANCH  20  21
ENDBRANCH  19  20
ENDBRANCH  18  19
ENDBRANCH  17  18
ENDBRANCH  16  17
ENDBRANCH  15  16
ENDBRANCH   1  15
TORSDOF 22
ENDMDL
MODEL 2
REMARK VINA RESULT:    -2.833     14.625     17.554
REMARK INTER + INTRA:         -10.474
REMARK INTER:                  -6.174
REMARK INTRA:                  -4.299
REMARK UNBOUND:                -3.997
REMARK SMILES CCCCCCCCCCCCCCCCCCCCCCCC(=O)[O-]
REMARK SMILES IDX 13 1 14 2 15 3 16 4 17 5 18 6 19 7 20 8 21 9 22 10 23 11
REMARK SMILES IDX 24 12 25 13 26 14 12 15 11 16 10 17 9 18 8 19 7 20 6 21 5 22
REMARK SMILES IDX 4 23 3 24 2 25 1 26
REMARK H PARENT
REMARK Flexibility Score: inf
ROOT
ATOM      1  C   UNL     1     112.604  53.573 230.755  1.00  0.00     0.000 C 
ENDROOT
BRANCH   1   2
ATOM      2  C   UNL     1     113.189  53.126 232.104  1.00  0.00     0.000 C 
BRANCH   2   3
ATOM      3  C   UNL     1     112.097  52.800 233.136  1.00  0.00     0.000 C 
BRANCH   3   4
ATOM      4  C   UNL     1     110.768  52.397 232.472  1.00  0.00     0.000 C 
BRANCH   4   5
ATOM      5  C   UNL     1     109.574  53.222 232.979  1.00  0.00     0.000 C 
BRANCH   5   6
ATOM      6  C   UNL     1     110.003  54.452 233.795  1.00  0.00     0.000 C 
BRANCH   6   7
ATOM      7  C   UNL     1     110.117  55.723 232.936  1.00  0.00     0.000 C 
BRANCH   7   8
ATOM      8  C   UNL     1     109.167  55.737 231.719  1.00  0.00     0.000 C 
BRANCH   8   9
ATOM      9  C   UNL     1     109.895  56.107 230.419  1.00  0.00     0.000 C 
BRANCH   9  10
ATOM     10  C   UNL     1     109.437  57.481 229.904  1.00  0.00     0.006 C 
BRANCH  10  11
ATOM     11  C   UNL     1     110.611  58.451 229.716  1.00  0.00     0.053 C 
BRANCH  11  12
ATOM     12  C   UNL     1     111.399  58.619 230.979  1.00  0.00     0.041 C 
ATOM     13  O   UNL     1     112.600  58.245 231.032  1.00  0.00    -0.550 OA
ATOM     14  O   UNL     1     110.792  59.146 232.113  1.00  0.00    -0.550 OA
ENDBRANCH  11  12
ENDBRANCH  10  11
ENDBRANCH   9  10
ENDBRANCH   8   9
ENDBRANCH   7   8
ENDBRANCH   6   7
ENDBRANCH   5   6
ENDBRANCH   4   5
ENDBRANCH   3   4
ENDBRANCH   2   3
ENDBRANCH   1   2
BRANCH   1  15
ATOM     15  C   UNL     1     113.308  54.835 230.240  1.00  0.00     0.000 C 
BRANCH  15  16
ATOM     16  C   UNL     1     113.351  54.849 228.705  1.00  0.00     0.000 C 
BRANCH  16  17
ATOM     17  C   UNL     1     112.955  53.499 228.087  1.00  0.00     0.000 C 
BRANCH  17  18
ATOM     18  C   UNL     1     113.604  53.266 226.714  1.00  0.00    -0.000 C 
BRANCH  18  19
ATOM     19  C   UNL     1     112.592  53.487 225.580  1.00  0.00    -0.000 C 
BRANCH  19  20
ATOM     20  C   UNL     1     111.135  53.384 226.060  1.00  0.00    -0.000 C 
BRANCH  20  21
ATOM     21  C   UNL     1     110.282  54.590 225.626  1.00  0.00    -0.000 C 
BRANCH  21  22
ATOM     22  C   UNL     1     110.256  55.705 226.696  1.00  0.00    -0.000 C 
BRANCH  22  23
ATOM     23  C   UNL     1     110.697  57.085 226.168  1.00  0.00    -0.000 C 
BRANCH  23  24
ATOM     24  C   UNL     1     112.114  57.520 226.589  1.00  0.00    -0.000 C 
BRANCH  24  25
ATOM     25  C   UNL     1     113.242  57.036 225.658  1.00  0.00    -0.003 C 
ATOM     26  C   UNL     1     112.819  56.972 224.189  1.00  0.00     0.004 C 
ENDBRANCH  24  25
ENDBRANCH  23  24
ENDBRANCH  22  23
ENDBRANCH  21  22
ENDBRANCH  20  21
ENDBRANCH  19  20
ENDBRANCH  18  19
ENDBRANCH  17  18
ENDBRANCH  16  17
ENDBRANCH  15  16
ENDBRANCH   1  15
TORSDOF 22
ENDMDL
MODEL 3
REMARK VINA RESULT:    -2.814      3.021      6.756
REMARK INTER + INTRA:         -10.430
REMARK INTER:                  -6.095
REMARK INTRA:                  -4.335
REMARK UNBOUND:                -3.997
REMARK SMILES CCCCCCCCCCCCCCCCCCCCCCCC(=O)[O-]
REMARK SMILES IDX 13 1 14 2 15 3 16 4 17 5 18 6 19 7 20 8 21 9 22 10 23 11
REMARK SMILES IDX 24 12 25 13 26 14 12 15 11 16 10 17 9 18 8 19 7 20 6 21 5 22
REMARK SMILES IDX 4 23 3 24 2 25 1 26
REMARK H PARENT
REMARK Flexibility Score: inf
ROOT
ATOM      1  C   UNL     1      98.690  63.614 225.283  1.00  0.00     0.000 C 
ENDROOT
BRANCH   1   2
ATOM      2  C   UNL     1      99.113  64.140 226.665  1.00  0.00     0.000 C 
BRANCH   2   3
ATOM      3  C   UNL     1      98.609  63.246 227.811  1.00  0.00     0.000 C 
BRANCH   3   4
ATOM      4  C   UNL     1      97.221  62.649 227.518  1.00  0.00     0.000 C 
BRANCH   4   5
ATOM      5  C   UNL     1      97.120  61.162 227.892  1.00  0.00     0.000 C 
BRANCH   5   6
ATOM      6  C   UNL     1      97.946  60.256 226.963  1.00  0.00     0.000 C 
BRANCH   6   7
ATOM      7  C   UNL     1      99.124  59.582 227.686  1.00  0.00     0.000 C 
BRANCH   7   8
ATOM      8  C   UNL     1     100.327  59.283 226.765  1.00  0.00     0.000 C 
BRANCH   8   9
ATOM      9  C   UNL     1     100.426  60.275 225.598  1.00  0.00     0.000 C 
BRANCH   9  10
ATOM     10  C   UNL     1     101.881  60.711 225.367  1.00  0.00     0.006 C 
BRANCH  10  11
ATOM     11  C   UNL     1     102.147  62.137 225.867  1.00  0.00     0.053 C 
BRANCH  11  12
ATOM     12  C   UNL     1     102.730  63.002 224.791  1.00  0.00     0.041 C 
ATOM     13  O   UNL     1     103.971  63.210 224.749  1.00  0.00    -0.550 OA
ATOM     14  O   UNL     1     101.897  63.615 223.863  1.00  0.00    -0.550 OA
ENDBRANCH  11  12
ENDBRANCH  10  11
ENDBRANCH   9  10
ENDBRANCH   8   9
ENDBRANCH   7   8
ENDBRANCH   6   7
ENDBRANCH   5   6
ENDBRANCH   4   5
ENDBRANCH   3   4
ENDBRANCH   2   3
ENDBRANCH   1   2
BRANCH   1  15
ATOM     15  C   UNL     1      98.679  64.742 224.245  1.00  0.00     0.000 C 
BRANCH  15  16
ATOM     16  C   UNL     1      97.352  65.515 224.293  1.00  0.00     0.000 C 
BRANCH  16  17
ATOM     17  C   UNL     1      96.125  64.595 224.203  1.00  0.00     0.000 C 
BRANCH  17  18
ATOM     18  C   UNL     1      95.101  64.869 225.316  1.00  0.00    -0.000 C 
BRANCH  18  19
ATOM     19  C   UNL     1      95.464  66.140 226.099  1.00  0.00    -0.000 C 
BRANCH  19  20
ATOM     20  C   UNL     1      95.561  65.893 227.614  1.00  0.00    -0.000 C 
BRANCH  20  21
ATOM     21  C   UNL     1      96.783  66.581 228.248  1.00  0.00    -0.000 C 
BRANCH  21  22
ATOM     22  C   UNL     1      97.182  65.942 229.597  1.00  0.00    -0.000 C 
BRANCH  22  23
ATOM     23  C   UNL     1      96.002  65.303 230.356  1.00  0.00    -0.000 C 
BRANCH  23  24
ATOM     24  C   UNL     1      96.402  64.396 231.535  1.00  0.00    -0.000 C 
BRANCH  24  25
ATOM     25  C   UNL     1      96.786  62.957 231.144  1.00  0.00    -0.003 C 
ATOM     26  C   UNL     1      98.225  62.598 231.518  1.00  0.00     0.004 C 
ENDBRANCH  24  25
ENDBRANCH  23  24
ENDBRANCH  22  23
ENDBRANCH  21  22
ENDBRANCH  20  21
ENDBRANCH  19  20
ENDBRANCH  18  19
ENDBRANCH  17  18
ENDBRANCH  16  17
ENDBRANCH  15  16
ENDBRANCH   1  15
TORSDOF 22
ENDMDL
MODEL 4
REMARK VINA RESULT:    -2.813     12.768     17.524
REMARK INTER + INTRA:         -10.426
REMARK INTER:                  -6.723
REMARK INTRA:                  -3.703
REMARK UNBOUND:                -3.997
REMARK SMILES CCCCCCCCCCCCCCCCCCCCCCCC(=O)[O-]
REMARK SMILES IDX 13 1 14 2 15 3 16 4 17 5 18 6 19 7 20 8 21 9 22 10 23 11
REMARK SMILES IDX 24 12 25 13 26 14 12 15 11 16 10 17 9 18 8 19 7 20 6 21 5 22
REMARK SMILES IDX 4 23 3 24 2 25 1 26
REMARK H PARENT
REMARK Flexibility Score: inf
ROOT
ATOM      1  C   UNL     1     109.640  53.996 232.819  1.00  0.00     0.000 C 
ENDROOT
BRANCH   1   2
ATOM      2  C   UNL     1     110.631  52.832 232.656  1.00  0.00     0.000 C 
BRANCH   2   3
ATOM      3  C   UNL     1     111.976  53.107 233.348  1.00  0.00     0.000 C 
BRANCH   3   4
ATOM      4  C   UNL     1     113.163  53.025 232.371  1.00  0.00     0.000 C 
BRANCH   4   5
ATOM      5  C   UNL     1     113.816  54.392 232.111  1.00  0.00     0.000 C 
BRANCH   5   6
ATOM      6  C   UNL     1     113.654  54.864 230.656  1.00  0.00     0.000 C 
BRANCH   6   7
ATOM      7  C   UNL     1     112.782  53.914 229.819  1.00  0.00     0.000 C 
BRANCH   7   8
ATOM      8  C   UNL     1     112.633  54.347 228.344  1.00  0.00     0.000 C 
BRANCH   8   9
ATOM      9  C   UNL     1     113.392  53.418 227.386  1.00  0.00     0.000 C 
BRANCH   9  10
ATOM     10  C   UNL     1     112.611  53.218 226.078  1.00  0.00     0.006 C 
BRANCH  10  11
ATOM     11  C   UNL     1     111.228  53.881 226.120  1.00  0.00     0.053 C 
BRANCH  11  12
ATOM     12  C   UNL     1     110.268  53.220 225.179  1.00  0.00     0.041 C 
ATOM     13  O   UNL     1     109.993  53.756 224.073  1.00  0.00    -0.550 OA
ATOM     14  O   UNL     1     109.641  52.035 225.544  1.00  0.00    -0.550 OA
ENDBRANCH  11  12
ENDBRANCH  10  11
ENDBRANCH   9  10
ENDBRANCH   8   9
ENDBRANCH   7   8
ENDBRANCH   6   7
ENDBRANCH   5   6
ENDBRANCH   4   5
ENDBRANCH   3   4
ENDBRANCH   2   3
ENDBRANCH   1   2
BRANCH   1  15
ATOM     15  C   UNL     1     110.361  55.275 233.262  1.00  0.00     0.000 C 
BRANCH  15  16
ATOM     16  C   UNL     1     110.527  56.245 232.084  1.00  0.00     0.000 C 
BRANCH  16  17
ATOM     17  C   UNL     1     109.476  56.029 230.983  1.00  0.00     0.000 C 
BRANCH  17  18
ATOM     18  C   UNL     1     109.988  56.434 229.593  1.00  0.00    -0.000 C 
BRANCH  18  19
ATOM     19  C   UNL     1     110.422  57.907 229.572  1.00  0.00    -0.000 C 
BRANCH  19  20
ATOM     20  C   UNL     1     109.251  58.872 229.820  1.00  0.00    -0.000 C 
BRANCH  20  21
ATOM     21  C   UNL     1     108.703  59.485 228.519  1.00  0.00    -0.000 C 
BRANCH  21  22
ATOM     22  C   UNL     1     107.202  59.183 228.315  1.00  0.00    -0.000 C 
BRANCH  22  23
ATOM     23  C   UNL     1     106.906  58.298 227.088  1.00  0.00    -0.000 C 
BRANCH  23  24
ATOM     24  C   UNL     1     107.362  56.832 227.217  1.00  0.00    -0.000 C 
BRANCH  24  25
ATOM     25  C   UNL     1     108.212  56.312 226.043  1.00  0.00    -0.003 C 
ATOM     26  C   UNL     1     109.543  57.052 225.895  1.00  0.00     0.004 C 
ENDBRANCH  24  25
ENDBRANCH  23  24
ENDBRANCH  22  23
ENDBRANCH  21  22
ENDBRANCH  20  21
ENDBRANCH  19  20
ENDBRANCH  18  19
ENDBRANCH  17  18
ENDBRANCH  16  17
ENDBRANCH  15  16
ENDBRANCH   1  15
TORSDOF 22
ENDMDL
MODEL 5
REMARK VINA RESULT:    -2.809      8.795     11.783
REMARK INTER + INTRA:         -10.419
REMARK INTER:                  -4.910
REMARK INTRA:                  -5.509
REMARK UNBOUND:                -3.997
REMARK SMILES CCCCCCCCCCCCCCCCCCCCCCCC(=O)[O-]
REMARK SMILES IDX 13 1 14 2 15 3 16 4 17 5 18 6 19 7 20 8 21 9 22 10 23 11
REMARK SMILES IDX 24 12 25 13 26 14 12 15 11 16 10 17 9 18 8 19 7 20 6 21 5 22
REMARK SMILES IDX 4 23 3 24 2 25 1 26
REMARK H PARENT
REMARK Flexibility Score: inf
ROOT
ATOM      1  C   UNL     1      95.983  53.747 224.749  1.00  0.00     0.000 C 
ENDROOT
BRANCH   1   2
ATOM      2  C   UNL     1      94.601  53.743 224.076  1.00  0.00     0.000 C 
BRANCH   2   3
ATOM      3  C   UNL     1      94.637  53.135 222.664  1.00  0.00     0.000 C 
BRANCH   3   4
ATOM      4  C   UNL     1      94.409  54.192 221.568  1.00  0.00     0.000 C 
BRANCH   4   5
ATOM      5  C   UNL     1      95.082  53.824 220.236  1.00  0.00     0.000 C 
BRANCH   5   6
ATOM      6  C   UNL     1      95.425  55.056 219.382  1.00  0.00     0.000 C 
BRANCH   6   7
ATOM      7  C   UNL     1      96.502  54.762 218.324  1.00  0.00     0.000 C 
BRANCH   7   8
ATOM      8  C   UNL     1      97.792  55.592 218.504  1.00  0.00     0.000 C 
BRANCH   8   9
ATOM      9  C   UNL     1      97.495  57.072 218.783  1.00  0.00     0.000 C 
BRANCH   9  10
ATOM     10  C   UNL     1      98.764  57.813 219.233  1.00  0.00     0.006 C 
BRANCH  10  11
ATOM     11  C   UNL     1      99.983  56.884 219.307  1.00  0.00     0.053 C 
BRANCH  11  12
ATOM     12  C   UNL     1     100.784  57.120 220.551  1.00  0.00     0.041 C 
ATOM     13  O   UNL     1     101.738  56.353 220.846  1.00  0.00    -0.550 OA
ATOM     14  O   UNL     1     100.447  58.161 221.408  1.00  0.00    -0.550 OA
ENDBRANCH  11  12
ENDBRANCH  10  11
ENDBRANCH   9  10
ENDBRANCH   8   9
ENDBRANCH   7   8
ENDBRANCH   6   7
ENDBRANCH   5   6
ENDBRANCH   4   5
ENDBRANCH   3   4
ENDBRANCH   2   3
ENDBRANCH   1   2
BRANCH   1  15
ATOM     15  C   UNL     1      96.185  55.015 225.586  1.00  0.00     0.000 C 
BRANCH  15  16
ATOM     16  C   UNL     1      95.106  56.060 225.265  1.00  0.00     0.000 C 
BRANCH  16  17
ATOM     17  C   UNL     1      95.689  57.356 224.681  1.00  0.00     0.000 C 
BRANCH  17  18
ATOM     18  C   UNL     1      95.059  57.729 223.330  1.00  0.00    -0.000 C 
BRANCH  18  19
ATOM     19  C   UNL     1      96.013  57.410 222.169  1.00  0.00    -0.000 C 
BRANCH  19  20
ATOM     20  C   UNL     1      97.410  56.986 222.651  1.00  0.00    -0.000 C 
BRANCH  20  21
ATOM     21  C   UNL     1      97.827  55.604 222.117  1.00  0.00    -0.000 C 
BRANCH  21  22
ATOM     22  C   UNL     1      98.948  54.962 222.963  1.00  0.00    -0.000 C 
BRANCH  22  23
ATOM     23  C   UNL     1      99.134  53.453 222.709  1.00  0.00    -0.000 C 
BRANCH  23  24
ATOM     24  C   UNL     1      98.174  52.845 221.669  1.00  0.00    -0.000 C 
BRANCH  24  25
ATOM     25  C   UNL     1      98.858  52.276 220.412  1.00  0.00    -0.003 C 
ATOM     26  C   UNL     1     100.066  53.101 219.963  1.00  0.00     0.004 C 
ENDBRANCH  24  25
ENDBRANCH  23  24
ENDBRANCH  22  23
ENDBRANCH  21  22
ENDBRANCH  20  21
ENDBRANCH  19  20
ENDBRANCH  18  19
ENDBRANCH  17  18
ENDBRANCH  16  17
ENDBRANCH  15  16
ENDBRANCH   1  15
TORSDOF 22
ENDMDL
MODEL 6
REMARK VINA RESULT:    -2.809      2.020      3.580
REMARK INTER + INTRA:         -10.417
REMARK INTER:                  -5.596
REMARK INTRA:                  -4.822
REMARK UNBOUND:                -3.997
REMARK SMILES CCCCCCCCCCCCCCCCCCCCCCCC(=O)[O-]
REMARK SMILES IDX 13 1 14 2 15 3 16 4 17 5 18 6 19 7 20 8 21 9 22 10 23 11
REMARK SMILES IDX 24 12 25 13 26 14 12 15 11 16 10 17 9 18 8 19 7 20 6 21 5 22
REMARK SMILES IDX 4 23 3 24 2 25 1 26
REMARK H PARENT
REMARK Flexibility Score: inf
ROOT
ATOM      1  C   UNL     1      96.608  65.056 224.280  1.00  0.00     0.000 C 
ENDROOT
BRANCH   1   2
ATOM      2  C   UNL     1      95.195  65.333 224.818  1.00  0.00     0.000 C 
BRANCH   2   3
ATOM      3  C   UNL     1      95.107  66.669 225.575  1.00  0.00     0.000 C 
BRANCH   3   4
ATOM      4  C   UNL     1      96.494  67.205 225.973  1.00  0.00     0.000 C 
BRANCH   4   5
ATOM      5  C   UNL     1      96.742  67.152 227.489  1.00  0.00     0.000 C 
BRANCH   5   6
ATOM      6  C   UNL     1      95.517  66.658 228.277  1.00  0.00     0.000 C 
BRANCH   6   7
ATOM      7  C   UNL     1      95.795  65.361 229.054  1.00  0.00     0.000 C 
BRANCH   7   8
ATOM      8  C   UNL     1      97.286  65.153 229.399  1.00  0.00     0.000 C 
BRANCH   8   9
ATOM      9  C   UNL     1      97.475  64.379 230.712  1.00  0.00     0.000 C 
BRANCH   9  10
ATOM     10  C   UNL     1      97.945  62.941 230.441  1.00  0.00     0.006 C 
BRANCH  10  11
ATOM     11  C   UNL     1      96.832  61.912 230.678  1.00  0.00     0.053 C 
BRANCH  11  12
ATOM     12  C   UNL     1      97.201  60.563 230.139  1.00  0.00     0.041 C 
ATOM     13  O   UNL     1      98.397  60.173 230.170  1.00  0.00    -0.550 OA
ATOM     14  O   UNL     1      96.228  59.756 229.560  1.00  0.00    -0.550 OA
ENDBRANCH  11  12
ENDBRANCH  10  11
ENDBRANCH   9  10
ENDBRANCH   8   9
ENDBRANCH   7   8
ENDBRANCH   6   7
ENDBRANCH   5   6
ENDBRANCH   4   5
ENDBRANCH   3   4
ENDBRANCH   2   3
ENDBRANCH   1   2
BRANCH   1  15
ATOM     15  C   UNL     1      97.082  63.652 224.673  1.00  0.00     0.000 C 
BRANCH  15  16
ATOM     16  C   UNL     1      97.590  63.632 226.123  1.00  0.00     0.000 C 
BRANCH  16  17
ATOM     17  C   UNL     1      97.367  62.277 226.812  1.00  0.00     0.000 C 
BRANCH  17  18
ATOM     18  C   UNL     1      98.618  61.387 226.779  1.00  0.00    -0.000 C 
BRANCH  18  19
ATOM     19  C   UNL     1      99.837  62.126 227.353  1.00  0.00    -0.000 C 
BRANCH  19  20
ATOM     20  C   UNL     1     101.113  61.893 226.526  1.00  0.00    -0.000 C 
BRANCH  20  21
ATOM     21  C   UNL     1     100.858  61.975 225.010  1.00  0.00    -0.000 C 
BRANCH  21  22
ATOM     22  C   UNL     1     101.561  63.189 224.363  1.00  0.00    -0.000 C 
BRANCH  22  23
ATOM     23  C   UNL     1     100.591  64.206 223.731  1.00  0.00    -0.000 C 
BRANCH  23  24
ATOM     24  C   UNL     1     100.333  65.470 224.574  1.00  0.00    -0.000 C 
BRANCH  24  25
ATOM     25  C   UNL     1     101.130  65.544 225.889  1.00  0.00    -0.003 C 
ATOM     26  C   UNL     1     100.286  66.017 227.074  1.00  0.00     0.004 C 
ENDBRANCH  24  25
ENDBRANCH  23  24
ENDBRANCH  22  23
ENDBRANCH  21  22
ENDBRANCH  20  21
ENDBRANCH  19  20
ENDBRANCH  18  19
ENDBRANCH  17  18
ENDBRANCH  16  17
ENDBRANCH  15  16
ENDBRANCH   1  15
TORSDOF 22
ENDMDL
MODEL 7
REMARK VINA RESULT:    -2.752     13.207     16.869
REMARK INTER + INTRA:         -10.288
REMARK INTER:                  -6.198
REMARK INTRA:                  -4.091
REMARK UNBOUND:                -3.997
REMARK SMILES CCCCCCCCCCCCCCCCCCCCCCCC(=O)[O-]
REMARK SMILES IDX 13 1 14 2 15 3 16 4 17 5 18 6 19 7 20 8 21 9 22 10 23 11
REMARK SMILES IDX 24 12 25 13 26 14 12 15 11 16 10 17 9 18 8 19 7 20 6 21 5 22
REMARK SMILES IDX 4 23 3 24 2 25 1 26
REMARK H PARENT
REMARK Flexibility Score: inf
ROOT
ATOM      1  C   UNL     1     112.638  53.463 230.692  1.00  0.00     0.000 C 
ENDROOT
BRANCH   1   2
ATOM      2  C   UNL     1     113.112  53.082 232.104  1.00  0.00     0.000 C 
BRANCH   2   3
ATOM      3  C   UNL     1     111.989  53.189 233.149  1.00  0.00     0.000 C 
BRANCH   3   4
ATOM      4  C   UNL     1     110.603  52.897 232.547  1.00  0.00     0.000 C 
BRANCH   4   5
ATOM      5  C   UNL     1     109.655  54.104 232.618  1.00  0.00     0.000 C 
BRANCH   5   6
ATOM      6  C   UNL     1     110.361  55.391 233.077  1.00  0.00     0.000 C 
BRANCH   6   7
ATOM      7  C   UNL     1     110.551  56.403 231.935  1.00  0.00     0.000 C 
BRANCH   7   8
ATOM      8  C   UNL     1     109.897  55.968 230.605  1.00  0.00     0.000 C 
BRANCH   8   9
ATOM      9  C   UNL     1     109.013  57.071 230.005  1.00  0.00     0.000 C 
BRANCH   9  10
ATOM     10  C   UNL     1     107.529  56.676 230.055  1.00  0.00     0.006 C 
BRANCH  10  11
ATOM     11  C   UNL     1     106.873  57.052 231.390  1.00  0.00     0.053 C 
BRANCH  11  12
ATOM     12  C   UNL     1     105.925  55.991 231.860  1.00  0.00     0.041 C 
ATOM     13  O   UNL     1     106.318  55.097 232.655  1.00  0.00    -0.550 OA
ATOM     14  O   UNL     1     104.620  55.964 231.383  1.00  0.00    -0.550 OA
ENDBRANCH  11  12
ENDBRANCH  10  11
ENDBRANCH   9  10
ENDBRANCH   8   9
ENDBRANCH   7   8
ENDBRANCH   6   7
ENDBRANCH   5   6
ENDBRANCH   4   5
ENDBRANCH   3   4
ENDBRANCH   2   3
ENDBRANCH   1   2
BRANCH   1  15
ATOM     15  C   UNL     1     113.384  54.700 230.176  1.00  0.00     0.000 C 
BRANCH  15  16
ATOM     16  C   UNL     1     113.334  54.766 228.642  1.00  0.00     0.000 C 
BRANCH  16  17
ATOM     17  C   UNL     1     112.988  53.414 227.999  1.00  0.00     0.000 C 
BRANCH  17  18
ATOM     18  C   UNL     1     113.604  53.252 226.601  1.00  0.00    -0.000 C 
BRANCH  18  19
ATOM     19  C   UNL     1     112.613  53.683 225.508  1.00  0.00    -0.000 C 
BRANCH  19  20
ATOM     20  C   UNL     1     111.156  53.346 225.866  1.00  0.00    -0.000 C 
BRANCH  20  21
ATOM     21  C   UNL     1     110.197  54.523 225.611  1.00  0.00    -0.000 C 
BRANCH  21  22
ATOM     22  C   UNL     1     110.097  55.472 226.826  1.00  0.00    -0.000 C 
BRANCH  22  23
ATOM     23  C   UNL     1     110.282  56.960 226.471  1.00  0.00    -0.000 C 
BRANCH  23  24
ATOM     24  C   UNL     1     111.588  57.595 226.988  1.00  0.00    -0.000 C 
BRANCH  24  25
ATOM     25  C   UNL     1     112.832  57.308 226.126  1.00  0.00    -0.003 C 
ATOM     26  C   UNL     1     112.539  57.340 224.625  1.00  0.00     0.004 C 
ENDBRANCH  24  25
ENDBRANCH  23  24
ENDBRANCH  22  23
ENDBRANCH  21  22
ENDBRANCH  20  21
ENDBRANCH  19  20
ENDBRANCH  18  19
ENDBRANCH  17  18
ENDBRANCH  16  17
ENDBRANCH  15  16
ENDBRANCH   1  15
TORSDOF 22
ENDMDL
MODEL 8
REMARK VINA RESULT:    -2.725     14.986     17.890
REMARK INTER + INTRA:         -10.227
REMARK INTER:                  -6.371
REMARK INTRA:                  -3.856
REMARK UNBOUND:                -3.997
REMARK SMILES CCCCCCCCCCCCCCCCCCCCCCCC(=O)[O-]
REMARK SMILES IDX 13 1 14 2 15 3 16 4 17 5 18 6 19 7 20 8 21 9 22 10 23 11
REMARK SMILES IDX 24 12 25 13 26 14 12 15 11 16 10 17 9 18 8 19 7 20 6 21 5 22
REMARK SMILES IDX 4 23 3 24 2 25 1 26
REMARK H PARENT
REMARK Flexibility Score: inf
ROOT
ATOM      1  C   UNL     1     113.570  54.853 228.725  1.00  0.00     0.000 C 
ENDROOT
BRANCH   1   2
ATOM      2  C   UNL     1     113.500  55.021 230.251  1.00  0.00     0.000 C 
BRANCH   2   3
ATOM      3  C   UNL     1     112.600  53.966 230.916  1.00  0.00     0.000 C 
BRANCH   3   4
ATOM      4  C   UNL     1     113.358  53.130 231.963  1.00  0.00     0.000 C 
BRANCH   4   5
ATOM      5  C   UNL     1     112.549  52.912 233.252  1.00  0.00     0.000 C 
BRANCH   5   6
ATOM      6  C   UNL     1     113.195  53.575 234.480  1.00  0.00     0.000 C 
BRANCH   6   7
ATOM      7  C   UNL     1     112.288  54.637 235.125  1.00  0.00     0.000 C 
BRANCH   7   8
ATOM      8  C   UNL     1     111.858  55.758 234.154  1.00  0.00     0.000 C 
BRANCH   8   9
ATOM      9  C   UNL     1     110.338  55.975 234.155  1.00  0.00     0.000 C 
BRANCH   9  10
ATOM     10  C   UNL     1     109.736  55.659 232.777  1.00  0.00     0.006 C 
BRANCH  10  11
ATOM     11  C   UNL     1     109.337  54.184 232.642  1.00  0.00     0.053 C 
BRANCH  11  12
ATOM     12  C   UNL     1     108.661  53.677 233.879  1.00  0.00     0.041 C 
ATOM     13  O   UNL     1     109.214  52.796 234.588  1.00  0.00    -0.550 OA
ATOM     14  O   UNL     1     107.398  54.144 234.222  1.00  0.00    -0.550 OA
ENDBRANCH  11  12
ENDBRANCH  10  11
ENDBRANCH   9  10
ENDBRANCH   8   9
ENDBRANCH   7   8
ENDBRANCH   6   7
ENDBRANCH   5   6
ENDBRANCH   4   5
ENDBRANCH   3   4
ENDBRANCH   2   3
ENDBRANCH   1   2
BRANCH   1  15
ATOM     15  C   UNL     1     112.979  53.506 228.292  1.00  0.00     0.000 C 
BRANCH  15  16
ATOM     16  C   UNL     1     113.424  53.148 226.866  1.00  0.00     0.000 C 
BRANCH  16  17
ATOM     17  C   UNL     1     112.571  53.835 225.787  1.00  0.00     0.000 C 
BRANCH  17  18
ATOM     18  C   UNL     1     111.073  53.529 225.938  1.00  0.00    -0.000 C 
BRANCH  18  19
ATOM     19  C   UNL     1     110.231  54.803 225.775  1.00  0.00    -0.000 C 
BRANCH  19  20
ATOM     20  C   UNL     1     110.663  55.924 226.735  1.00  0.00    -0.000 C 
BRANCH  20  21
ATOM     21  C   UNL     1     109.640  56.169 227.858  1.00  0.00    -0.000 C 
BRANCH  21  22
ATOM     22  C   UNL     1     110.307  56.659 229.162  1.00  0.00    -0.000 C 
BRANCH  22  23
ATOM     23  C   UNL     1     110.663  58.159 229.154  1.00  0.00    -0.000 C 
BRANCH  23  24
ATOM     24  C   UNL     1     110.978  58.761 230.537  1.00  0.00    -0.000 C 
BRANCH  24  25
ATOM     25  C   UNL     1     112.141  58.086 231.287  1.00  0.00    -0.003 C 
ATOM     26  C   UNL     1     112.749  58.975 232.373  1.00  0.00     0.004 C 
ENDBRANCH  24  25
ENDBRANCH  23  24
ENDBRANCH  22  23
ENDBRANCH  21  22
ENDBRANCH  20  21
ENDBRANCH  19  20
ENDBRANCH  18  19
ENDBRANCH  17  18
ENDBRANCH  16  17
ENDBRANCH  15  16
ENDBRANCH   1  15
TORSDOF 22
ENDMDL
MODEL 9
REMARK VINA RESULT:    -2.702      2.301      5.579
REMARK INTER + INTRA:         -10.173
REMARK INTER:                  -5.602
REMARK INTRA:                  -4.571
REMARK UNBOUND:                -3.997
REMARK SMILES CCCCCCCCCCCCCCCCCCCCCCCC(=O)[O-]
REMARK SMILES IDX 13 1 14 2 15 3 16 4 17 5 18 6 19 7 20 8 21 9 22 10 23 11
REMARK SMILES IDX 24 12 25 13 26 14 12 15 11 16 10 17 9 18 8 19 7 20 6 21 5 22
REMARK SMILES IDX 4 23 3 24 2 25 1 26
REMARK H PARENT
REMARK Flexibility Score: inf
ROOT
ATOM      1  C   UNL     1      96.447  64.380 223.970  1.00  0.00     0.000 C 
ENDROOT
BRANCH   1   2
ATOM      2  C   UNL     1      97.862  64.165 224.530  1.00  0.00     0.000 C 
BRANCH   2   3
ATOM      3  C   UNL     1      98.804  65.336 224.206  1.00  0.00     0.000 C 
BRANCH   3   4
ATOM      4  C   UNL     1     100.212  64.859 223.806  1.00  0.00     0.000 C 
BRANCH   4   5
ATOM      5  C   UNL     1     100.529  63.444 224.316  1.00  0.00     0.000 C 
BRANCH   5   6
ATOM      6  C   UNL     1     101.760  63.403 225.235  1.00  0.00     0.000 C 
BRANCH   6   7
ATOM      7  C   UNL     1     102.188  61.969 225.591  1.00  0.00     0.000 C 
BRANCH   7   8
ATOM      8  C   UNL     1     101.396  60.880 224.834  1.00  0.00     0.000 C 
BRANCH   8   9
ATOM      9  C   UNL     1     100.570  59.999 225.782  1.00  0.00     0.000 C 
BRANCH   9  10
ATOM     10  C   UNL     1      99.948  60.837 226.910  1.00  0.00     0.006 C 
BRANCH  10  11
ATOM     11  C   UNL     1      98.417  60.889 226.818  1.00  0.00     0.053 C 
BRANCH  11  12
ATOM     12  C   UNL     1      97.795  59.572 227.169  1.00  0.00     0.041 C 
ATOM     13  O   UNL     1      98.123  58.979 228.230  1.00  0.00    -0.550 OA
ATOM     14  O   UNL     1      96.889  58.977 226.299  1.00  0.00    -0.550 OA
ENDBRANCH  11  12
ENDBRANCH  10  11
ENDBRANCH   9  10
ENDBRANCH   8   9
ENDBRANCH   7   8
ENDBRANCH   6   7
ENDBRANCH   5   6
ENDBRANCH   4   5
ENDBRANCH   3   4
ENDBRANCH   2   3
ENDBRANCH   1   2
BRANCH   1  15
ATOM     15  C   UNL     1      95.510  64.947 225.044  1.00  0.00     0.000 C 
BRANCH  15  16
ATOM     16  C   UNL     1      95.838  64.356 226.423  1.00  0.00     0.000 C 
BRANCH  16  17
ATOM     17  C   UNL     1      95.802  65.407 227.543  1.00  0.00     0.000 C 
BRANCH  17  18
ATOM     18  C   UNL     1      96.832  66.527 227.334  1.00  0.00    -0.000 C 
BRANCH  18  19
ATOM     19  C   UNL     1      97.952  66.451 228.383  1.00  0.00    -0.000 C 
BRANCH  19  20
ATOM     20  C   UNL     1      99.270  65.911 227.803  1.00  0.00    -0.000 C 
BRANCH  20  21
ATOM     21  C   UNL     1      99.354  64.375 227.855  1.00  0.00    -0.000 C 
BRANCH  21  22
ATOM     22  C   UNL     1     100.076  63.870 229.124  1.00  0.00    -0.000 C 
BRANCH  22  23
ATOM     23  C   UNL     1      99.124  63.324 230.207  1.00  0.00    -0.000 C 
BRANCH  23  24
ATOM     24  C   UNL     1      97.721  62.935 229.704  1.00  0.00    -0.000 C 
BRANCH  24  25
ATOM     25  C   UNL     1      96.581  63.186 230.708  1.00  0.00    -0.003 C 
ATOM     26  C   UNL     1      96.518  64.636 231.190  1.00  0.00     0.004 C 
ENDBRANCH  24  25
ENDBRANCH  23  24
ENDBRANCH  22  23
ENDBRANCH  21  22
ENDBRANCH  20  21
ENDBRANCH  19  20
ENDBRANCH  18  19
ENDBRANCH  17  18
ENDBRANCH  16  17
ENDBRANCH  15  16
ENDBRANCH   1  15
TORSDOF 22
ENDMDL
