MODEL 1
REMARK VINA RESULT:    -5.797      0.000      0.000
REMARK INTER + INTRA:          -8.448
REMARK INTER:                  -7.661
REMARK INTRA:                  -0.788
REMARK UNBOUND:                -0.788
REMARK SMILES CC[C@@H](C=C[C@@H](C)[C@H]1CC[C@H]2C3=CC[C@H]4C[C@H](O)CC[C@]4(C)[C@@H]3CC[C@@]12C)C(C)C
REMARK SMILES IDX 6 1 7 2 5 3 4 4 3 5 2 6 1 7 28 8 29 9 30 10 8 11 9 12 26 13
REMARK SMILES IDX 10 14 11 15 25 16 27 17 12 18 24 19 23 20 13 21 21 22 14 23
REMARK SMILES IDX 15 24 20 25 22 26 16 27 19 28 17 29 18 30
REMARK H PARENT 18 31
REMARK Flexibility Score: inf
ROOT
ATOM      1  C   UNL     1       7.000  -6.870  -4.132  1.00  0.00     0.012 C 
ATOM      2  C   UNL     1       6.180  -6.723  -2.839  1.00  0.00     0.012 C 
ENDROOT
BRANCH   1   3
ATOM      3  C   UNL     1       7.911  -5.665  -4.283  1.00  0.00    -0.028 C 
ATOM      4  C   UNL     1       8.159  -4.813  -3.271  1.00  0.00    -0.027 C 
BRANCH   4   5
ATOM      5  C   UNL     1       9.168  -3.678  -3.348  1.00  0.00     0.014 C 
BRANCH   5   6
ATOM      6  C   UNL     1      10.110  -3.618  -2.117  1.00  0.00     0.004 C 
ATOM      7  C   UNL     1       9.588  -4.456  -0.949  1.00  0.00     0.004 C 
ENDBRANCH   5   6
BRANCH   5   8
ATOM      8  C   UNL     1       8.471  -2.322  -3.688  1.00  0.00    -0.011 C 
ATOM      9  C   UNL     1       8.399  -2.010  -5.192  1.00  0.00     0.008 C 
ATOM     10  C   UNL     1       7.067  -2.231  -3.066  1.00  0.00     0.008 C 
ENDBRANCH   5   8
ENDBRANCH   4   5
ENDBRANCH   1   3
BRANCH   1  11
ATOM     11  C   UNL     1       6.115  -7.080  -5.407  1.00  0.00     0.002 C 
ATOM     12  C   UNL     1       4.715  -7.619  -5.049  1.00  0.00     0.005 C 
ATOM     13  C   UNL     1       5.843  -5.844  -6.323  1.00  0.00    -0.023 C 
ATOM     14  C   UNL     1       3.732  -7.071  -6.082  1.00  0.00     0.009 C 
ATOM     15  C   UNL     1       4.574  -6.291  -7.086  1.00  0.00     0.021 C 
ATOM     16  C   UNL     1       5.567  -4.550  -5.491  1.00  0.00     0.008 C 
ATOM     17  C   UNL     1       6.990  -5.604  -7.337  1.00  0.00     0.012 C 
ATOM     18  C   UNL     1       3.840  -5.129  -7.738  1.00  0.00    -0.067 C 
ATOM     19  C   UNL     1       4.886  -3.424  -6.290  1.00  0.00     0.009 C 
ATOM     20  C   UNL     1       3.541  -3.902  -6.879  1.00  0.00     0.021 C 
ATOM     21  C   UNL     1       3.705  -5.122  -9.085  1.00  0.00    -0.027 C 
ATOM     22  C   UNL     1       2.683  -2.810  -7.635  1.00  0.00    -0.023 C 
ATOM     23  C   UNL     1       3.134  -3.971  -9.864  1.00  0.00     0.031 C 
ATOM     24  C   UNL     1       3.225  -2.648  -9.090  1.00  0.00     0.002 C 
ATOM     25  C   UNL     1       2.748  -1.421  -6.925  1.00  0.00     0.010 C 
ATOM     26  C   UNL     1       1.203  -3.302  -7.623  1.00  0.00     0.012 C 
ATOM     27  C   UNL     1       2.525  -1.516  -9.877  1.00  0.00     0.036 C 
ATOM     28  C   UNL     1       2.018  -0.314  -7.703  1.00  0.00     0.032 C 
ATOM     29  C   UNL     1       2.572  -0.172  -9.128  1.00  0.00     0.114 C 
BRANCH  29  30
ATOM     30  O   UNL     1       3.891   0.312  -9.074  1.00  0.00    -0.393 OA
ATOM     31  H   UNL     1       3.878   1.115  -8.491  1.00  0.00     0.210 HD
ENDBRANCH  29  30
ENDBRANCH   1  11
TORSDOF 6
ENDMDL
MODEL 2
REMARK VINA RESULT:    -5.740     14.638     16.967
REMARK INTER + INTRA:          -8.374
REMARK INTER:                  -7.075
REMARK INTRA:                  -1.299
REMARK UNBOUND:                -0.788
REMARK SMILES CC[C@@H](C=C[C@@H](C)[C@H]1CC[C@H]2C3=CC[C@H]4C[C@H](O)CC[C@]4(C)[C@@H]3CC[C@@]12C)C(C)C
REMARK SMILES IDX 6 1 7 2 5 3 4 4 3 5 2 6 1 7 28 8 29 9 30 10 8 11 9 12 26 13
REMARK SMILES IDX 10 14 11 15 25 16 27 17 12 18 24 19 23 20 13 21 21 22 14 23
REMARK SMILES IDX 15 24 20 25 22 26 16 27 19 28 17 29 18 30
REMARK H PARENT 18 31
REMARK Flexibility Score: inf
ROOT
ATOM      1  C   UNL     1      -2.548   8.448   1.270  1.00  0.00     0.012 C 
ATOM      2  C   UNL     1      -1.639   9.055   2.353  1.00  0.00     0.012 C 
ENDROOT
BRANCH   1   3
ATOM      3  C   UNL     1      -2.353   9.213  -0.027  1.00  0.00    -0.028 C 
ATOM      4  C   UNL     1      -1.751   8.673  -1.103  1.00  0.00    -0.027 C 
BRANCH   4   5
ATOM      5  C   UNL     1      -1.660   9.359  -2.457  1.00  0.00     0.014 C 
BRANCH   5   6
ATOM      6  C   UNL     1      -2.297   8.530  -3.603  1.00  0.00     0.004 C 
ATOM      7  C   UNL     1      -3.022   7.288  -3.083  1.00  0.00     0.004 C 
ENDBRANCH   5   6
BRANCH   5   8
ATOM      8  C   UNL     1      -0.205   9.845  -2.750  1.00  0.00    -0.011 C 
ATOM      9  C   UNL     1       0.886   9.058  -2.005  1.00  0.00     0.008 C 
ATOM     10  C   UNL     1       0.098   9.861  -4.259  1.00  0.00     0.008 C 
ENDBRANCH   5   8
ENDBRANCH   4   5
ENDBRANCH   1   3
BRANCH   1  11
ATOM     11  C   UNL     1      -4.058   8.398   1.682  1.00  0.00     0.002 C 
ATOM     12  C   UNL     1      -4.961   9.061   0.622  1.00  0.00     0.005 C 
ATOM     13  C   UNL     1      -4.703   6.998   1.935  1.00  0.00    -0.023 C 
ATOM     14  C   UNL     1      -6.304   8.333   0.641  1.00  0.00     0.009 C 
ATOM     15  C   UNL     1      -6.208   7.311   1.769  1.00  0.00     0.021 C 
ATOM     16  C   UNL     1      -4.234   5.940   0.884  1.00  0.00     0.008 C 
ATOM     17  C   UNL     1      -4.444   6.486   3.375  1.00  0.00     0.012 C 
ATOM     18  C   UNL     1      -7.048   6.062   1.544  1.00  0.00    -0.067 C 
ATOM     19  C   UNL     1      -5.130   4.690   0.809  1.00  0.00     0.009 C 
ATOM     20  C   UNL     1      -6.587   5.076   0.472  1.00  0.00     0.021 C 
ATOM     21  C   UNL     1      -8.006   5.754   2.449  1.00  0.00    -0.027 C 
ATOM     22  C   UNL     1      -7.594   3.877   0.258  1.00  0.00    -0.023 C 
ATOM     23  C   UNL     1      -8.802   4.480   2.425  1.00  0.00     0.031 C 
ATOM     24  C   UNL     1      -8.086   3.365   1.648  1.00  0.00     0.002 C 
ATOM     25  C   UNL     1      -6.931   2.685  -0.502  1.00  0.00     0.010 C 
ATOM     26  C   UNL     1      -8.773   4.419  -0.607  1.00  0.00     0.012 C 
ATOM     27  C   UNL     1      -8.988   2.113   1.551  1.00  0.00     0.036 C 
ATOM     28  C   UNL     1      -7.854   1.461  -0.620  1.00  0.00     0.032 C 
ATOM     29  C   UNL     1      -8.319   0.975   0.760  1.00  0.00     0.114 C 
BRANCH  29  30
ATOM     30  O   UNL     1      -7.223   0.463   1.474  1.00  0.00    -0.393 OA
ATOM     31  H   UNL     1      -6.484   1.119   1.376  1.00  0.00     0.210 HD
ENDBRANCH  29  30
ENDBRANCH   1  11
TORSDOF 6
ENDMDL
MODEL 3
REMARK VINA RESULT:    -5.563      2.623      7.382
REMARK INTER + INTRA:          -8.140
REMARK INTER:                  -6.637
REMARK INTRA:                  -1.503
REMARK UNBOUND:                -0.788
REMARK SMILES CC[C@@H](C=C[C@@H](C)[C@H]1CC[C@H]2C3=CC[C@H]4C[C@H](O)CC[C@]4(C)[C@@H]3CC[C@@]12C)C(C)C
REMARK SMILES IDX 6 1 7 2 5 3 4 4 3 5 2 6 1 7 28 8 29 9 30 10 8 11 9 12 26 13
REMARK SMILES IDX 10 14 11 15 25 16 27 17 12 18 24 19 23 20 13 21 21 22 14 23
REMARK SMILES IDX 15 24 20 25 22 26 16 27 19 28 17 29 18 30
REMARK H PARENT 18 31
REMARK Flexibility Score: inf
ROOT
ATOM      1  C   UNL     1       2.843  -6.726  -6.667  1.00  0.00     0.012 C 
ATOM      2  C   UNL     1       1.709  -7.688  -7.062  1.00  0.00     0.012 C 
ENDROOT
BRANCH   1   3
ATOM      3  C   UNL     1       2.762  -5.481  -7.533  1.00  0.00    -0.028 C 
ATOM      4  C   UNL     1       2.644  -4.244  -7.015  1.00  0.00    -0.027 C 
BRANCH   4   5
ATOM      5  C   UNL     1       2.696  -2.970  -7.843  1.00  0.00     0.014 C 
BRANCH   5   6
ATOM      6  C   UNL     1       4.082  -2.275  -7.803  1.00  0.00     0.004 C 
ATOM      7  C   UNL     1       4.939  -2.765  -6.635  1.00  0.00     0.004 C 
ENDBRANCH   5   6
BRANCH   5   8
ATOM      8  C   UNL     1       1.496  -2.027  -7.509  1.00  0.00    -0.011 C 
ATOM      9  C   UNL     1       1.903  -0.584  -7.166  1.00  0.00     0.008 C 
ATOM     10  C   UNL     1       0.446  -2.021  -8.633  1.00  0.00     0.008 C 
ENDBRANCH   5   8
ENDBRANCH   4   5
ENDBRANCH   1   3
BRANCH   1  11
ATOM     11  C   UNL     1       4.265  -7.378  -6.737  1.00  0.00     0.002 C 
ATOM     12  C   UNL     1       5.119  -6.767  -7.866  1.00  0.00     0.005 C 
ATOM     13  C   UNL     1       5.170  -7.300  -5.466  1.00  0.00    -0.023 C 
ATOM     14  C   UNL     1       6.578  -6.810  -7.416  1.00  0.00     0.009 C 
ATOM     15  C   UNL     1       6.576  -7.526  -6.069  1.00  0.00     0.021 C 
ATOM     16  C   UNL     1       5.080  -5.905  -4.769  1.00  0.00     0.008 C 
ATOM     17  C   UNL     1       4.860  -8.434  -4.456  1.00  0.00     0.012 C 
ATOM     18  C   UNL     1       7.695  -7.087  -5.135  1.00  0.00    -0.067 C 
ATOM     19  C   UNL     1       6.235  -5.615  -3.792  1.00  0.00     0.009 C 
ATOM     20  C   UNL     1       7.598  -5.695  -4.512  1.00  0.00     0.021 C 
ATOM     21  C   UNL     1       8.581  -8.015  -4.703  1.00  0.00    -0.027 C 
ATOM     22  C   UNL     1       8.866  -5.313  -3.649  1.00  0.00    -0.023 C 
ATOM     23  C   UNL     1       9.638  -7.747  -3.670  1.00  0.00     0.031 C 
ATOM     24  C   UNL     1       9.288  -6.542  -2.784  1.00  0.00     0.002 C 
ATOM     25  C   UNL     1       8.583  -4.110  -2.695  1.00  0.00     0.010 C 
ATOM     26  C   UNL     1       9.991  -4.897  -4.647  1.00  0.00     0.012 C 
ATOM     27  C   UNL     1      10.452  -6.232  -1.814  1.00  0.00     0.036 C 
ATOM     28  C   UNL     1       9.763  -3.793  -1.761  1.00  0.00     0.032 C 
ATOM     29  C   UNL     1      10.154  -5.016  -0.919  1.00  0.00     0.114 C 
BRANCH  29  30
ATOM     30  O   UNL     1       9.122  -5.316  -0.014  1.00  0.00    -0.393 OA
ATOM     31  H   UNL     1       8.593  -6.053  -0.417  1.00  0.00     0.210 HD
ENDBRANCH  29  30
ENDBRANCH   1  11
TORSDOF 6
ENDMDL
MODEL 4
REMARK VINA RESULT:    -5.532     14.469     16.743
REMARK INTER + INTRA:          -8.099
REMARK INTER:                  -6.631
REMARK INTRA:                  -1.467
REMARK UNBOUND:                -0.788
REMARK SMILES CC[C@@H](C=C[C@@H](C)[C@H]1CC[C@H]2C3=CC[C@H]4C[C@H](O)CC[C@]4(C)[C@@H]3CC[C@@]12C)C(C)C
REMARK SMILES IDX 6 1 7 2 5 3 4 4 3 5 2 6 1 7 28 8 29 9 30 10 8 11 9 12 26 13
REMARK SMILES IDX 10 14 11 15 25 16 27 17 12 18 24 19 23 20 13 21 21 22 14 23
REMARK SMILES IDX 15 24 20 25 22 26 16 27 19 28 17 29 18 30
REMARK H PARENT 18 31
REMARK Flexibility Score: inf
ROOT
ATOM      1  C   UNL     1      -2.636   7.965  -1.074  1.00  0.00     0.012 C 
ATOM      2  C   UNL     1      -1.588   8.969  -0.564  1.00  0.00     0.012 C 
ENDROOT
BRANCH   1   3
ATOM      3  C   UNL     1      -2.811   8.148  -2.571  1.00  0.00    -0.028 C 
ATOM      4  C   UNL     1      -2.704   7.129  -3.444  1.00  0.00    -0.027 C 
BRANCH   4   5
ATOM      5  C   UNL     1      -3.005   7.249  -4.929  1.00  0.00     0.014 C 
BRANCH   5   6
ATOM      6  C   UNL     1      -3.078   8.720  -5.418  1.00  0.00     0.004 C 
ATOM      7  C   UNL     1      -1.691   9.324  -5.638  1.00  0.00     0.004 C 
ENDBRANCH   5   6
BRANCH   5   8
ATOM      8  C   UNL     1      -4.238   6.379  -5.330  1.00  0.00    -0.011 C 
ATOM      9  C   UNL     1      -5.527   6.716  -4.561  1.00  0.00     0.008 C 
ATOM     10  C   UNL     1      -4.504   6.430  -6.845  1.00  0.00     0.008 C 
ENDBRANCH   5   8
ENDBRANCH   4   5
ENDBRANCH   1   3
BRANCH   1  11
ATOM     11  C   UNL     1      -4.006   8.062  -0.323  1.00  0.00     0.002 C 
ATOM     12  C   UNL     1      -5.135   8.552  -1.254  1.00  0.00     0.005 C 
ATOM     13  C   UNL     1      -4.573   6.766   0.340  1.00  0.00    -0.023 C 
ATOM     14  C   UNL     1      -6.435   7.902  -0.784  1.00  0.00     0.009 C 
ATOM     15  C   UNL     1      -6.075   7.109   0.469  1.00  0.00     0.021 C 
ATOM     16  C   UNL     1      -4.363   5.508  -0.564  1.00  0.00     0.008 C 
ATOM     17  C   UNL     1      -3.981   6.525   1.752  1.00  0.00     0.012 C 
ATOM     18  C   UNL     1      -6.943   5.880   0.692  1.00  0.00    -0.067 C 
ATOM     19  C   UNL     1      -5.251   4.308  -0.185  1.00  0.00     0.009 C 
ATOM     20  C   UNL     1      -6.746   4.688  -0.245  1.00  0.00     0.021 C 
ATOM     21  C   UNL     1      -7.661   5.792   1.836  1.00  0.00    -0.027 C 
ATOM     22  C   UNL     1      -7.775   3.517   0.018  1.00  0.00    -0.023 C 
ATOM     23  C   UNL     1      -8.439   4.573   2.246  1.00  0.00     0.031 C 
ATOM     24  C   UNL     1      -7.925   3.301   1.557  1.00  0.00     0.002 C 
ATOM     25  C   UNL     1      -7.308   2.174  -0.627  1.00  0.00     0.010 C 
ATOM     26  C   UNL     1      -9.125   3.938  -0.640  1.00  0.00     0.012 C 
ATOM     27  C   UNL     1      -8.824   2.095   1.917  1.00  0.00     0.036 C 
ATOM     28  C   UNL     1      -8.232   0.992  -0.288  1.00  0.00     0.032 C 
ATOM     29  C   UNL     1      -8.358   0.798   1.230  1.00  0.00     0.114 C 
BRANCH  29  30
ATOM     30  O   UNL     1      -7.124   0.382   1.757  1.00  0.00    -0.393 OA
ATOM     31  H   UNL     1      -6.861   1.055   2.437  1.00  0.00     0.210 HD
ENDBRANCH  29  30
ENDBRANCH   1  11
TORSDOF 6
ENDMDL
MODEL 5
REMARK VINA RESULT:    -5.442      1.620      3.864
REMARK INTER + INTRA:          -7.979
REMARK INTER:                  -6.338
REMARK INTRA:                  -1.641
REMARK UNBOUND:                -0.788
REMARK SMILES CC[C@@H](C=C[C@@H](C)[C@H]1CC[C@H]2C3=CC[C@H]4C[C@H](O)CC[C@]4(C)[C@@H]3CC[C@@]12C)C(C)C
REMARK SMILES IDX 6 1 7 2 5 3 4 4 3 5 2 6 1 7 28 8 29 9 30 10 8 11 9 12 26 13
REMARK SMILES IDX 10 14 11 15 25 16 27 17 12 18 24 19 23 20 13 21 21 22 14 23
REMARK SMILES IDX 15 24 20 25 22 26 16 27 19 28 17 29 18 30
REMARK H PARENT 18 31
REMARK Flexibility Score: inf
ROOT
ATOM      1  C   UNL     1       8.169  -4.802  -3.560  1.00  0.00     0.012 C 
ATOM      2  C   UNL     1       9.517  -4.718  -2.826  1.00  0.00     0.012 C 
ENDROOT
BRANCH   1   3
ATOM      3  C   UNL     1       7.592  -6.195  -3.383  1.00  0.00    -0.028 C 
ATOM      4  C   UNL     1       6.290  -6.412  -3.117  1.00  0.00    -0.027 C 
BRANCH   4   5
ATOM      5  C   UNL     1       5.654  -7.793  -3.067  1.00  0.00     0.014 C 
BRANCH   5   6
ATOM      6  C   UNL     1       6.552  -8.851  -2.375  1.00  0.00     0.004 C 
ATOM      7  C   UNL     1       5.910  -9.412  -1.106  1.00  0.00     0.004 C 
ENDBRANCH   5   6
BRANCH   5   8
ATOM      8  C   UNL     1       5.122  -8.223  -4.471  1.00  0.00    -0.011 C 
ATOM      9  C   UNL     1       4.086  -9.359  -4.433  1.00  0.00     0.008 C 
ATOM     10  C   UNL     1       4.557  -7.027  -5.258  1.00  0.00     0.008 C 
ENDBRANCH   5   8
ENDBRANCH   4   5
ENDBRANCH   1   3
BRANCH   1  11
ATOM     11  C   UNL     1       8.260  -4.410  -5.074  1.00  0.00     0.002 C 
ATOM     12  C   UNL     1       8.008  -5.623  -5.993  1.00  0.00     0.005 C 
ATOM     13  C   UNL     1       7.295  -3.302  -5.604  1.00  0.00    -0.023 C 
ATOM     14  C   UNL     1       7.345  -5.104  -7.268  1.00  0.00     0.009 C 
ATOM     15  C   UNL     1       7.295  -3.586  -7.124  1.00  0.00     0.021 C 
ATOM     16  C   UNL     1       5.857  -3.444  -5.009  1.00  0.00     0.008 C 
ATOM     17  C   UNL     1       7.849  -1.876  -5.352  1.00  0.00     0.012 C 
ATOM     18  C   UNL     1       6.123  -2.936  -7.844  1.00  0.00    -0.067 C 
ATOM     19  C   UNL     1       4.775  -2.677  -5.790  1.00  0.00     0.009 C 
ATOM     20  C   UNL     1       4.725  -3.141  -7.262  1.00  0.00     0.021 C 
ATOM     21  C   UNL     1       6.381  -2.016  -8.803  1.00  0.00    -0.027 C 
ATOM     22  C   UNL     1       3.583  -2.509  -8.154  1.00  0.00    -0.023 C 
ATOM     23  C   UNL     1       5.323  -1.196  -9.485  1.00  0.00     0.031 C 
ATOM     24  C   UNL     1       4.038  -1.099  -8.648  1.00  0.00     0.002 C 
ATOM     25  C   UNL     1       2.246  -2.348  -7.365  1.00  0.00     0.010 C 
ATOM     26  C   UNL     1       3.339  -3.486  -9.345  1.00  0.00     0.012 C 
ATOM     27  C   UNL     1       2.941  -0.347  -9.435  1.00  0.00     0.036 C 
ATOM     28  C   UNL     1       1.154  -1.628  -8.174  1.00  0.00     0.032 C 
ATOM     29  C   UNL     1       1.625  -0.244  -8.643  1.00  0.00     0.114 C 
BRANCH  29  30
ATOM     30  O   UNL     1       1.788   0.600  -7.532  1.00  0.00    -0.393 OA
ATOM     31  H   UNL     1       1.050   0.391  -6.902  1.00  0.00     0.210 HD
ENDBRANCH  29  30
ENDBRANCH   1  11
TORSDOF 6
ENDMDL
MODEL 6
REMARK VINA RESULT:    -5.376      2.364      6.973
REMARK INTER + INTRA:          -7.893
REMARK INTER:                  -6.420
REMARK INTRA:                  -1.472
REMARK UNBOUND:                -0.788
REMARK SMILES CC[C@@H](C=C[C@@H](C)[C@H]1CC[C@H]2C3=CC[C@H]4C[C@H](O)CC[C@]4(C)[C@@H]3CC[C@@]12C)C(C)C
REMARK SMILES IDX 6 1 7 2 5 3 4 4 3 5 2 6 1 7 28 8 29 9 30 10 8 11 9 12 26 13
REMARK SMILES IDX 10 14 11 15 25 16 27 17 12 18 24 19 23 20 13 21 21 22 14 23
REMARK SMILES IDX 15 24 20 25 22 26 16 27 19 28 17 29 18 30
REMARK H PARENT 18 31
REMARK Flexibility Score: inf
ROOT
ATOM      1  C   UNL     1       2.308  -6.179  -7.291  1.00  0.00     0.012 C 
ATOM      2  C   UNL     1       1.344  -7.356  -7.514  1.00  0.00     0.012 C 
ENDROOT
BRANCH   1   3
ATOM      3  C   UNL     1       1.749  -4.942  -7.970  1.00  0.00    -0.028 C 
ATOM      4  C   UNL     1       1.493  -3.801  -7.303  1.00  0.00    -0.027 C 
BRANCH   4   5
ATOM      5  C   UNL     1       1.062  -2.506  -7.972  1.00  0.00     0.014 C 
BRANCH   5   6
ATOM      6  C   UNL     1       0.345  -2.732  -9.328  1.00  0.00     0.004 C 
ATOM      7  C   UNL     1      -1.148  -2.411  -9.253  1.00  0.00     0.004 C 
ENDBRANCH   5   6
BRANCH   5   8
ATOM      8  C   UNL     1       2.237  -1.479  -8.031  1.00  0.00    -0.011 C 
ATOM      9  C   UNL     1       1.797  -0.029  -8.295  1.00  0.00     0.008 C 
ATOM     10  C   UNL     1       3.111  -1.539  -6.766  1.00  0.00     0.008 C 
ENDBRANCH   5   8
ENDBRANCH   4   5
ENDBRANCH   1   3
BRANCH   1  11
ATOM     11  C   UNL     1       3.772  -6.477  -7.764  1.00  0.00     0.002 C 
ATOM     12  C   UNL     1       4.108  -5.743  -9.078  1.00  0.00     0.005 C 
ATOM     13  C   UNL     1       4.943  -6.114  -6.796  1.00  0.00    -0.023 C 
ATOM     14  C   UNL     1       5.599  -5.413  -9.053  1.00  0.00     0.009 C 
ATOM     15  C   UNL     1       6.141  -6.032  -7.769  1.00  0.00     0.021 C 
ATOM     16  C   UNL     1       4.709  -4.744  -6.082  1.00  0.00     0.008 C 
ATOM     17  C   UNL     1       5.208  -7.231  -5.754  1.00  0.00     0.012 C 
ATOM     18  C   UNL     1       7.330  -5.287  -7.179  1.00  0.00    -0.067 C 
ATOM     19  C   UNL     1       5.979  -4.133  -5.462  1.00  0.00     0.009 C 
ATOM     20  C   UNL     1       7.070  -3.926  -6.535  1.00  0.00     0.021 C 
ATOM     21  C   UNL     1       8.499  -5.952  -7.023  1.00  0.00    -0.027 C 
ATOM     22  C   UNL     1       8.393  -3.205  -6.055  1.00  0.00    -0.023 C 
ATOM     23  C   UNL     1       9.700  -5.382  -6.323  1.00  0.00     0.031 C 
ATOM     24  C   UNL     1       9.322  -4.248  -5.358  1.00  0.00     0.002 C 
ATOM     25  C   UNL     1       8.097  -2.053  -5.044  1.00  0.00     0.010 C 
ATOM     26  C   UNL     1       9.064  -2.590  -7.322  1.00  0.00     0.012 C 
ATOM     27  C   UNL     1      10.595  -3.616  -4.748  1.00  0.00     0.036 C 
ATOM     28  C   UNL     1       9.372  -1.413  -4.473  1.00  0.00     0.032 C 
ATOM     29  C   UNL     1      10.265  -2.458  -3.789  1.00  0.00     0.114 C 
BRANCH  29  30
ATOM     30  O   UNL     1       9.626  -2.944  -2.637  1.00  0.00    -0.393 OA
ATOM     31  H   UNL     1       8.650  -2.834  -2.782  1.00  0.00     0.210 HD
ENDBRANCH  29  30
ENDBRANCH   1  11
TORSDOF 6
ENDMDL
MODEL 7
REMARK VINA RESULT:    -5.369      1.800      3.586
REMARK INTER + INTRA:          -7.883
REMARK INTER:                  -6.789
REMARK INTRA:                  -1.094
REMARK UNBOUND:                -0.788
REMARK SMILES CC[C@@H](C=C[C@@H](C)[C@H]1CC[C@H]2C3=CC[C@H]4C[C@H](O)CC[C@]4(C)[C@@H]3CC[C@@]12C)C(C)C
REMARK SMILES IDX 6 1 7 2 5 3 4 4 3 5 2 6 1 7 28 8 29 9 30 10 8 11 9 12 26 13
REMARK SMILES IDX 10 14 11 15 25 16 27 17 12 18 24 19 23 20 13 21 21 22 14 23
REMARK SMILES IDX 15 24 20 25 22 26 16 27 19 28 17 29 18 30
REMARK H PARENT 18 31
REMARK Flexibility Score: inf
ROOT
ATOM      1  C   UNL     1       6.968  -6.143  -3.743  1.00  0.00     0.012 C 
ATOM      2  C   UNL     1       8.500  -6.246  -3.842  1.00  0.00     0.012 C 
ENDROOT
BRANCH   1   3
ATOM      3  C   UNL     1       6.481  -7.038  -2.617  1.00  0.00    -0.028 C 
ATOM      4  C   UNL     1       7.120  -8.168  -2.262  1.00  0.00    -0.027 C 
BRANCH   4   5
ATOM      5  C   UNL     1       6.740  -9.014  -1.057  1.00  0.00     0.014 C 
BRANCH   5   6
ATOM      6  C   UNL     1       5.232  -9.378  -1.022  1.00  0.00     0.004 C 
ATOM      7  C   UNL     1       4.789 -10.125  -2.280  1.00  0.00     0.004 C 
ENDBRANCH   5   6
BRANCH   5   8
ATOM      8  C   UNL     1       7.279  -8.388   0.268  1.00  0.00    -0.011 C 
ATOM      9  C   UNL     1       7.092  -9.277   1.509  1.00  0.00     0.008 C 
ATOM     10  C   UNL     1       8.755  -7.970   0.142  1.00  0.00     0.008 C 
ENDBRANCH   5   8
ENDBRANCH   4   5
ENDBRANCH   1   3
BRANCH   1  11
ATOM     11  C   UNL     1       6.235  -6.469  -5.088  1.00  0.00     0.002 C 
ATOM     12  C   UNL     1       4.856  -7.116  -4.845  1.00  0.00     0.005 C 
ATOM     13  C   UNL     1       5.953  -5.290  -6.074  1.00  0.00    -0.023 C 
ATOM     14  C   UNL     1       3.938  -6.688  -5.989  1.00  0.00     0.009 C 
ATOM     15  C   UNL     1       4.808  -5.870  -6.937  1.00  0.00     0.021 C 
ATOM     16  C   UNL     1       5.488  -4.000  -5.324  1.00  0.00     0.008 C 
ATOM     17  C   UNL     1       7.171  -4.982  -6.981  1.00  0.00     0.012 C 
ATOM     18  C   UNL     1       4.047  -4.797  -7.703  1.00  0.00    -0.067 C 
ATOM     19  C   UNL     1       4.798  -2.962  -6.229  1.00  0.00     0.009 C 
ATOM     20  C   UNL     1       3.563  -3.574  -6.926  1.00  0.00     0.021 C 
ATOM     21  C   UNL     1       4.047  -4.843  -9.056  1.00  0.00    -0.027 C 
ATOM     22  C   UNL     1       2.696  -2.585  -7.803  1.00  0.00    -0.023 C 
ATOM     23  C   UNL     1       3.462  -3.771  -9.931  1.00  0.00     0.031 C 
ATOM     24  C   UNL     1       3.365  -2.421  -9.204  1.00  0.00     0.002 C 
ATOM     25  C   UNL     1       2.574  -1.174  -7.146  1.00  0.00     0.010 C 
ATOM     26  C   UNL     1       1.269  -3.204  -7.914  1.00  0.00     0.012 C 
ATOM     27  C   UNL     1       2.654  -1.380 -10.099  1.00  0.00     0.036 C 
ATOM     28  C   UNL     1       1.835  -0.160  -8.034  1.00  0.00     0.032 C 
ATOM     29  C   UNL     1       2.514  -0.014  -9.403  1.00  0.00     0.114 C 
BRANCH  29  30
ATOM     30  O   UNL     1       3.776   0.584  -9.242  1.00  0.00    -0.393 OA
ATOM     31  H   UNL     1       4.426   0.019  -9.735  1.00  0.00     0.210 HD
ENDBRANCH  29  30
ENDBRANCH   1  11
TORSDOF 6
ENDMDL
MODEL 8
REMARK VINA RESULT:    -5.357      2.657      7.562
REMARK INTER + INTRA:          -7.867
REMARK INTER:                  -6.160
REMARK INTRA:                  -1.708
REMARK UNBOUND:                -0.788
REMARK SMILES CC[C@@H](C=C[C@@H](C)[C@H]1CC[C@H]2C3=CC[C@H]4C[C@H](O)CC[C@]4(C)[C@@H]3CC[C@@]12C)C(C)C
REMARK SMILES IDX 6 1 7 2 5 3 4 4 3 5 2 6 1 7 28 8 29 9 30 10 8 11 9 12 26 13
REMARK SMILES IDX 10 14 11 15 25 16 27 17 12 18 24 19 23 20 13 21 21 22 14 23
REMARK SMILES IDX 15 24 20 25 22 26 16 27 19 28 17 29 18 30
REMARK H PARENT 18 31
REMARK Flexibility Score: inf
ROOT
ATOM      1  C   UNL     1       0.830  -4.721  -9.763  1.00  0.00     0.012 C 
ATOM      2  C   UNL     1      -0.158  -5.177 -10.850  1.00  0.00     0.012 C 
ENDROOT
BRANCH   1   3
ATOM      3  C   UNL     1       0.774  -3.208  -9.643  1.00  0.00    -0.028 C 
ATOM      4  C   UNL     1       0.622  -2.580  -8.462  1.00  0.00    -0.027 C 
BRANCH   4   5
ATOM      5  C   UNL     1       0.696  -1.071  -8.289  1.00  0.00     0.014 C 
BRANCH   5   6
ATOM      6  C   UNL     1       0.143  -0.291  -9.511  1.00  0.00     0.004 C 
ATOM      7  C   UNL     1      -1.385  -0.297  -9.555  1.00  0.00     0.004 C 
ENDBRANCH   5   6
BRANCH   5   8
ATOM      8  C   UNL     1       2.121  -0.622  -7.833  1.00  0.00    -0.011 C 
ATOM      9  C   UNL     1       2.803  -1.587  -6.849  1.00  0.00     0.008 C 
ATOM     10  C   UNL     1       3.047  -0.358  -9.033  1.00  0.00     0.008 C 
ENDBRANCH   5   8
ENDBRANCH   4   5
ENDBRANCH   1   3
BRANCH   1  11
ATOM     11  C   UNL     1       2.295  -5.220 -10.005  1.00  0.00     0.002 C 
ATOM     12  C   UNL     1       3.228  -4.067 -10.429  1.00  0.00     0.005 C 
ATOM     13  C   UNL     1       3.037  -5.918  -8.821  1.00  0.00    -0.023 C 
ATOM     14  C   UNL     1       4.623  -4.384  -9.894  1.00  0.00     0.009 C 
ATOM     15  C   UNL     1       4.517  -5.758  -9.240  1.00  0.00     0.021 C 
ATOM     16  C   UNL     1       2.763  -5.205  -7.457  1.00  0.00     0.008 C 
ATOM     17  C   UNL     1       2.695  -7.426  -8.724  1.00  0.00     0.012 C 
ATOM     18  C   UNL     1       5.482  -5.967  -8.083  1.00  0.00    -0.067 C 
ATOM     19  C   UNL     1       3.770  -5.560  -6.349  1.00  0.00     0.009 C 
ATOM     20  C   UNL     1       5.211  -5.212  -6.782  1.00  0.00     0.021 C 
ATOM     21  C   UNL     1       6.378  -6.979  -8.160  1.00  0.00    -0.027 C 
ATOM     22  C   UNL     1       6.338  -5.428  -5.694  1.00  0.00    -0.023 C 
ATOM     23  C   UNL     1       7.284  -7.385  -7.032  1.00  0.00     0.031 C 
ATOM     24  C   UNL     1       6.744  -6.935  -5.667  1.00  0.00     0.002 C 
ATOM     25  C   UNL     1       5.857  -5.020  -4.266  1.00  0.00     0.010 C 
ATOM     26  C   UNL     1       7.537  -4.513  -6.090  1.00  0.00     0.012 C 
ATOM     27  C   UNL     1       7.761  -7.271  -4.551  1.00  0.00     0.036 C 
ATOM     28  C   UNL     1       6.892  -5.329  -3.172  1.00  0.00     0.032 C 
ATOM     29  C   UNL     1       7.271  -6.817  -3.164  1.00  0.00     0.114 C 
BRANCH  29  30
ATOM     30  O   UNL     1       6.164  -7.583  -2.761  1.00  0.00    -0.393 OA
ATOM     31  H   UNL     1       6.386  -7.961  -1.870  1.00  0.00     0.210 HD
ENDBRANCH  29  30
ENDBRANCH   1  11
TORSDOF 6
ENDMDL
