MODEL 1
REMARK VINA RESULT:    -1.264      0.000      0.000
REMARK INTER + INTRA:          -9.797
REMARK INTER:                  -3.185
REMARK INTRA:                  -6.612
REMARK UNBOUND:                -6.612
REMARK SMILES CCCCCCCCCCCCCCCCCCCCCCCCCCCC(=O)[O-]
REMARK SMILES IDX 15 1 16 2 17 3 18 4 19 5 20 6 21 7 22 8 23 9 24 10 25 11
REMARK SMILES IDX 26 12 27 13 28 14 29 15 30 16 14 17 13 18 12 19 11 20 10 21
REMARK SMILES IDX 9 22 8 23 7 24 6 25 5 26 4 27 3 28 2 29 1 30
REMARK H PARENT
REMARK Flexibility Score: inf
ROOT
ATOM      1  C   UNL     1     115.557  11.974  23.214  1.00  0.00     0.000 C 
ENDROOT
BRANCH   1   2
ATOM      2  C   UNL     1     115.347  12.217  24.718  1.00  0.00     0.000 C 
BRANCH   2   3
ATOM      3  C   UNL     1     116.218  13.362  25.264  1.00  0.00     0.000 C 
BRANCH   3   4
ATOM      4  C   UNL     1     115.963  13.736  26.738  1.00  0.00     0.000 C 
BRANCH   4   5
ATOM      5  C   UNL     1     115.301  15.110  26.964  1.00  0.00     0.000 C 
BRANCH   5   6
ATOM      6  C   UNL     1     116.203  16.321  26.669  1.00  0.00     0.000 C 
BRANCH   6   7
ATOM      7  C   UNL     1     117.478  16.339  27.530  1.00  0.00     0.000 C 
BRANCH   7   8
ATOM      8  C   UNL     1     118.769  16.351  26.690  1.00  0.00     0.000 C 
BRANCH   8   9
ATOM      9  C   UNL     1     118.549  16.349  25.166  1.00  0.00     0.000 C 
BRANCH   9  10
ATOM     10  C   UNL     1     119.619  17.153  24.406  1.00  0.00     0.000 C 
BRANCH  10  11
ATOM     11  C   UNL     1     119.017  18.302  23.584  1.00  0.00     0.000 C 
BRANCH  11  12
ATOM     12  C   UNL     1     117.555  18.595  23.964  1.00  0.00     0.006 C 
BRANCH  12  13
ATOM     13  C   UNL     1     117.386  19.986  24.588  1.00  0.00     0.053 C 
BRANCH  13  14
ATOM     14  C   UNL     1     117.315  19.917  26.083  1.00  0.00     0.041 C 
ATOM     15  O   UNL     1     118.370  19.829  26.765  1.00  0.00    -0.550 OA
ATOM     16  O   UNL     1     116.081  19.922  26.721  1.00  0.00    -0.550 OA
ENDBRANCH  13  14
ENDBRANCH  12  13
ENDBRANCH  11  12
ENDBRANCH  10  11
ENDBRANCH   9  10
ENDBRANCH   8   9
ENDBRANCH   7   8
ENDBRANCH   6   7
ENDBRANCH   5   6
ENDBRANCH   4   5
ENDBRANCH   3   4
ENDBRANCH   2   3
ENDBRANCH   1   2
BRANCH   1  17
ATOM     17  C   UNL     1     117.025  12.140  22.791  1.00  0.00     0.000 C 
BRANCH  17  18
ATOM     18  C   UNL     1     117.203  13.154  21.647  1.00  0.00     0.000 C 
BRANCH  18  19
ATOM     19  C   UNL     1     117.810  14.483  22.121  1.00  0.00     0.000 C 
BRANCH  19  20
ATOM     20  C   UNL     1     116.929  15.694  21.765  1.00  0.00     0.000 C 
BRANCH  20  21
ATOM     21  C   UNL     1     115.628  15.738  22.582  1.00  0.00     0.000 C 
BRANCH  21  22
ATOM     22  C   UNL     1     114.376  15.542  21.714  1.00  0.00    -0.000 C 
BRANCH  22  23
ATOM     23  C   UNL     1     113.310  14.732  22.466  1.00  0.00    -0.000 C 
BRANCH  23  24
ATOM     24  C   UNL     1     113.189  15.139  23.944  1.00  0.00    -0.000 C 
BRANCH  24  25
ATOM     25  C   UNL     1     111.793  15.674  24.297  1.00  0.00    -0.000 C 
BRANCH  25  26
ATOM     26  C   UNL     1     111.838  17.177  24.598  1.00  0.00    -0.000 C 
BRANCH  26  27
ATOM     27  C   UNL     1     113.224  17.593  25.114  1.00  0.00    -0.000 C 
BRANCH  27  28
ATOM     28  C   UNL     1     113.888  18.665  24.237  1.00  0.00    -0.000 C 
BRANCH  28  29
ATOM     29  C   UNL     1     113.173  18.853  22.891  1.00  0.00    -0.003 C 
ATOM     30  C   UNL     1     114.151  19.298  21.807  1.00  0.00     0.004 C 
ENDBRANCH  28  29
ENDBRANCH  27  28
ENDBRANCH  26  27
ENDBRANCH  25  26
ENDBRANCH  24  25
ENDBRANCH  23  24
ENDBRANCH  22  23
ENDBRANCH  21  22
ENDBRANCH  20  21
ENDBRANCH  19  20
ENDBRANCH  18  19
ENDBRANCH  17  18
ENDBRANCH   1  17
TORSDOF 26
ENDMDL
MODEL 2
REMARK VINA RESULT:    -1.252      1.911      4.621
REMARK INTER + INTRA:          -9.766
REMARK INTER:                  -3.809
REMARK INTRA:                  -5.957
REMARK UNBOUND:                -6.612
REMARK SMILES CCCCCCCCCCCCCCCCCCCCCCCCCCCC(=O)[O-]
REMARK SMILES IDX 15 1 16 2 17 3 18 4 19 5 20 6 21 7 22 8 23 9 24 10 25 11
REMARK SMILES IDX 26 12 27 13 28 14 29 15 30 16 14 17 13 18 12 19 11 20 10 21
REMARK SMILES IDX 9 22 8 23 7 24 6 25 5 26 4 27 3 28 2 29 1 30
REMARK H PARENT
REMARK Flexibility Score: inf
ROOT
ATOM      1  C   UNL     1     113.750  16.432  25.695  1.00  0.00     0.000 C 
ENDROOT
BRANCH   1   2
ATOM      2  C   UNL     1     114.644  17.218  26.669  1.00  0.00     0.000 C 
BRANCH   2   3
ATOM      3  C   UNL     1     114.145  17.149  28.123  1.00  0.00     0.000 C 
BRANCH   3   4
ATOM      4  C   UNL     1     112.909  16.256  28.352  1.00  0.00     0.000 C 
BRANCH   4   5
ATOM      5  C   UNL     1     113.176  14.945  29.118  1.00  0.00     0.000 C 
BRANCH   5   6
ATOM      6  C   UNL     1     113.052  13.665  28.273  1.00  0.00     0.000 C 
BRANCH   6   7
ATOM      7  C   UNL     1     114.417  13.082  27.870  1.00  0.00     0.000 C 
BRANCH   7   8
ATOM      8  C   UNL     1     115.560  13.537  28.796  1.00  0.00     0.000 C 
BRANCH   8   9
ATOM      9  C   UNL     1     116.792  14.109  28.071  1.00  0.00     0.000 C 
BRANCH   9  10
ATOM     10  C   UNL     1     117.336  15.387  28.733  1.00  0.00     0.000 C 
BRANCH  10  11
ATOM     11  C   UNL     1     118.535  15.977  27.976  1.00  0.00     0.000 C 
BRANCH  11  12
ATOM     12  C   UNL     1     118.188  17.294  27.259  1.00  0.00     0.006 C 
BRANCH  12  13
ATOM     13  C   UNL     1     119.006  17.489  25.977  1.00  0.00     0.053 C 
BRANCH  13  14
ATOM     14  C   UNL     1     118.398  18.526  25.083  1.00  0.00     0.041 C 
ATOM     15  O   UNL     1     117.399  19.189  25.469  1.00  0.00    -0.550 OA
ATOM     16  O   UNL     1     118.917  18.741  23.813  1.00  0.00    -0.550 OA
ENDBRANCH  13  14
ENDBRANCH  12  13
ENDBRANCH  11  12
ENDBRANCH  10  11
ENDBRANCH   9  10
ENDBRANCH   8   9
ENDBRANCH   7   8
ENDBRANCH   6   7
ENDBRANCH   5   6
ENDBRANCH   4   5
ENDBRANCH   3   4
ENDBRANCH   2   3
ENDBRANCH   1   2
BRANCH   1  17
ATOM     17  C   UNL     1     114.511  15.306  24.977  1.00  0.00     0.000 C 
BRANCH  17  18
ATOM     18  C   UNL     1     115.989  15.654  24.727  1.00  0.00     0.000 C 
BRANCH  18  19
ATOM     19  C   UNL     1     116.855  14.411  24.473  1.00  0.00     0.000 C 
BRANCH  19  20
ATOM     20  C   UNL     1     116.068  13.099  24.639  1.00  0.00     0.000 C 
BRANCH  20  21
ATOM     21  C   UNL     1     116.645  11.954  23.790  1.00  0.00     0.000 C 
BRANCH  21  22
ATOM     22  C   UNL     1     116.605  12.255  22.284  1.00  0.00    -0.000 C 
BRANCH  22  23
ATOM     23  C   UNL     1     115.156  12.364  21.787  1.00  0.00    -0.000 C 
BRANCH  23  24
ATOM     24  C   UNL     1     114.966  13.489  20.756  1.00  0.00    -0.000 C 
BRANCH  24  25
ATOM     25  C   UNL     1     114.721  14.856  21.412  1.00  0.00    -0.000 C 
BRANCH  25  26
ATOM     26  C   UNL     1     115.762  15.883  20.952  1.00  0.00    -0.000 C 
BRANCH  26  27
ATOM     27  C   UNL     1     116.636  15.312  19.825  1.00  0.00    -0.000 C 
BRANCH  27  28
ATOM     28  C   UNL     1     118.107  15.741  19.940  1.00  0.00    -0.000 C 
BRANCH  28  29
ATOM     29  C   UNL     1     118.895  14.887  20.944  1.00  0.00    -0.003 C 
ATOM     30  C   UNL     1     119.297  15.709  22.166  1.00  0.00     0.004 C 
ENDBRANCH  28  29
ENDBRANCH  27  28
ENDBRANCH  26  27
ENDBRANCH  25  26
ENDBRANCH  24  25
ENDBRANCH  23  24
ENDBRANCH  22  23
ENDBRANCH  21  22
ENDBRANCH  20  21
ENDBRANCH  19  20
ENDBRANCH  18  19
ENDBRANCH  17  18
ENDBRANCH   1  17
TORSDOF 26
ENDMDL
MODEL 3
REMARK VINA RESULT:    -1.221      3.251      5.696
REMARK INTER + INTRA:          -9.688
REMARK INTER:                  -4.125
REMARK INTRA:                  -5.563
REMARK UNBOUND:                -6.612
REMARK SMILES CCCCCCCCCCCCCCCCCCCCCCCCCCCC(=O)[O-]
REMARK SMILES IDX 15 1 16 2 17 3 18 4 19 5 20 6 21 7 22 8 23 9 24 10 25 11
REMARK SMILES IDX 26 12 27 13 28 14 29 15 30 16 14 17 13 18 12 19 11 20 10 21
REMARK SMILES IDX 9 22 8 23 7 24 6 25 5 26 4 27 3 28 2 29 1 30
REMARK H PARENT
REMARK Flexibility Score: inf
ROOT
ATOM      1  C   UNL     1     115.918  13.427  26.934  1.00  0.00     0.000 C 
ENDROOT
BRANCH   1   2
ATOM      2  C   UNL     1     116.283  13.793  25.485  1.00  0.00     0.000 C 
BRANCH   2   3
ATOM      3  C   UNL     1     116.277  12.577  24.543  1.00  0.00     0.000 C 
BRANCH   3   4
ATOM      4  C   UNL     1     116.003  12.896  23.059  1.00  0.00     0.000 C 
BRANCH   4   5
ATOM      5  C   UNL     1     117.133  13.649  22.328  1.00  0.00     0.000 C 
BRANCH   5   6
ATOM      6  C   UNL     1     116.690  14.927  21.595  1.00  0.00     0.000 C 
BRANCH   6   7
ATOM      7  C   UNL     1     117.038  16.210  22.369  1.00  0.00     0.000 C 
BRANCH   7   8
ATOM      8  C   UNL     1     118.223  16.024  23.336  1.00  0.00     0.000 C 
BRANCH   8   9
ATOM      9  C   UNL     1     119.401  16.989  23.110  1.00  0.00     0.000 C 
BRANCH   9  10
ATOM     10  C   UNL     1     120.626  16.301  22.482  1.00  0.00     0.000 C 
BRANCH  10  11
ATOM     11  C   UNL     1     120.660  16.441  20.953  1.00  0.00     0.000 C 
BRANCH  11  12
ATOM     12  C   UNL     1     120.222  15.152  20.234  1.00  0.00     0.006 C 
BRANCH  12  13
ATOM     13  C   UNL     1     119.278  15.436  19.060  1.00  0.00     0.053 C 
BRANCH  13  14
ATOM     14  C   UNL     1     118.699  14.174  18.496  1.00  0.00     0.041 C 
ATOM     15  O   UNL     1     119.443  13.187  18.255  1.00  0.00    -0.550 OA
ATOM     16  O   UNL     1     117.342  14.098  18.211  1.00  0.00    -0.550 OA
ENDBRANCH  13  14
ENDBRANCH  12  13
ENDBRANCH  11  12
ENDBRANCH  10  11
ENDBRANCH   9  10
ENDBRANCH   8   9
ENDBRANCH   7   8
ENDBRANCH   6   7
ENDBRANCH   5   6
ENDBRANCH   4   5
ENDBRANCH   3   4
ENDBRANCH   2   3
ENDBRANCH   1   2
BRANCH   1  17
ATOM     17  C   UNL     1     115.101  14.526  27.630  1.00  0.00     0.000 C 
BRANCH  17  18
ATOM     18  C   UNL     1     115.931  15.329  28.648  1.00  0.00     0.000 C 
BRANCH  18  19
ATOM     19  C   UNL     1     117.376  14.822  28.766  1.00  0.00     0.000 C 
BRANCH  19  20
ATOM     20  C   UNL     1     118.413  15.915  28.452  1.00  0.00     0.000 C 
BRANCH  20  21
ATOM     21  C   UNL     1     118.482  16.247  26.952  1.00  0.00     0.000 C 
BRANCH  21  22
ATOM     22  C   UNL     1     118.524  17.759  26.682  1.00  0.00    -0.000 C 
BRANCH  22  23
ATOM     23  C   UNL     1     117.116  18.368  26.764  1.00  0.00    -0.000 C 
BRANCH  23  24
ATOM     24  C   UNL     1     116.119  17.684  25.814  1.00  0.00    -0.000 C 
BRANCH  24  25
ATOM     25  C   UNL     1     114.761  18.400  25.768  1.00  0.00    -0.000 C 
BRANCH  25  26
ATOM     26  C   UNL     1     113.837  17.763  24.724  1.00  0.00    -0.000 C 
BRANCH  26  27
ATOM     27  C   UNL     1     114.083  16.250  24.622  1.00  0.00    -0.000 C 
BRANCH  27  28
ATOM     28  C   UNL     1     113.504  15.640  23.337  1.00  0.00    -0.000 C 
BRANCH  28  29
ATOM     29  C   UNL     1     112.310  14.712  23.609  1.00  0.00    -0.003 C 
ATOM     30  C   UNL     1     112.661  13.662  24.660  1.00  0.00     0.004 C 
ENDBRANCH  28  29
ENDBRANCH  27  28
ENDBRANCH  26  27
ENDBRANCH  25  26
ENDBRANCH  24  25
ENDBRANCH  23  24
ENDBRANCH  22  23
ENDBRANCH  21  22
ENDBRANCH  20  21
ENDBRANCH  19  20
ENDBRANCH  18  19
ENDBRANCH  17  18
ENDBRANCH   1  17
TORSDOF 26
ENDMDL
MODEL 4
REMARK VINA RESULT:    -1.188      2.275      4.897
REMARK INTER + INTRA:          -9.606
REMARK INTER:                  -3.340
REMARK INTRA:                  -6.266
REMARK UNBOUND:                -6.612
REMARK SMILES CCCCCCCCCCCCCCCCCCCCCCCCCCCC(=O)[O-]
REMARK SMILES IDX 15 1 16 2 17 3 18 4 19 5 20 6 21 7 22 8 23 9 24 10 25 11
REMARK SMILES IDX 26 12 27 13 28 14 29 15 30 16 14 17 13 18 12 19 11 20 10 21
REMARK SMILES IDX 9 22 8 23 7 24 6 25 5 26 4 27 3 28 2 29 1 30
REMARK H PARENT
REMARK Flexibility Score: inf
ROOT
ATOM      1  C   UNL     1     117.888  16.228  26.840  1.00  0.00     0.000 C 
ENDROOT
BRANCH   1   2
ATOM      2  C   UNL     1     117.070  15.725  28.042  1.00  0.00     0.000 C 
BRANCH   2   3
ATOM      3  C   UNL     1     117.161  14.201  28.228  1.00  0.00     0.000 C 
BRANCH   3   4
ATOM      4  C   UNL     1     115.807  13.468  28.322  1.00  0.00     0.000 C 
BRANCH   4   5
ATOM      5  C   UNL     1     114.578  14.302  27.907  1.00  0.00     0.000 C 
BRANCH   5   6
ATOM      6  C   UNL     1     113.599  13.586  26.960  1.00  0.00     0.000 C 
BRANCH   6   7
ATOM      7  C   UNL     1     114.074  13.592  25.496  1.00  0.00     0.000 C 
BRANCH   7   8
ATOM      8  C   UNL     1     114.642  12.233  25.045  1.00  0.00     0.000 C 
BRANCH   8   9
ATOM      9  C   UNL     1     116.098  12.274  24.547  1.00  0.00     0.000 C 
BRANCH   9  10
ATOM     10  C   UNL     1     116.204  12.417  23.019  1.00  0.00     0.000 C 
BRANCH  10  11
ATOM     11  C   UNL     1     117.318  13.386  22.594  1.00  0.00     0.000 C 
BRANCH  11  12
ATOM     12  C   UNL     1     116.878  14.324  21.456  1.00  0.00     0.006 C 
BRANCH  12  13
ATOM     13  C   UNL     1     117.555  15.698  21.544  1.00  0.00     0.053 C 
BRANCH  13  14
ATOM     14  C   UNL     1     119.045  15.576  21.633  1.00  0.00     0.041 C 
ATOM     15  O   UNL     1     119.706  15.139  20.655  1.00  0.00    -0.550 OA
ATOM     16  O   UNL     1     119.702  15.920  22.808  1.00  0.00    -0.550 OA
ENDBRANCH  13  14
ENDBRANCH  12  13
ENDBRANCH  11  12
ENDBRANCH  10  11
ENDBRANCH   9  10
ENDBRANCH   8   9
ENDBRANCH   7   8
ENDBRANCH   6   7
ENDBRANCH   5   6
ENDBRANCH   4   5
ENDBRANCH   3   4
ENDBRANCH   2   3
ENDBRANCH   1   2
BRANCH   1  17
ATOM     17  C   UNL     1     117.405  15.629  25.509  1.00  0.00     0.000 C 
BRANCH  17  18
ATOM     18  C   UNL     1     116.175  16.358  24.941  1.00  0.00     0.000 C 
BRANCH  18  19
ATOM     19  C   UNL     1     116.403  17.869  24.778  1.00  0.00     0.000 C 
BRANCH  19  20
ATOM     20  C   UNL     1     115.238  18.705  25.337  1.00  0.00     0.000 C 
BRANCH  20  21
ATOM     21  C   UNL     1     114.939  18.388  26.811  1.00  0.00     0.000 C 
BRANCH  21  22
ATOM     22  C   UNL     1     113.554  17.753  27.011  1.00  0.00    -0.000 C 
BRANCH  22  23
ATOM     23  C   UNL     1     112.657  18.002  25.788  1.00  0.00    -0.000 C 
BRANCH  23  24
ATOM     24  C   UNL     1     111.708  16.827  25.500  1.00  0.00    -0.000 C 
BRANCH  24  25
ATOM     25  C   UNL     1     111.919  16.227  24.102  1.00  0.00    -0.000 C 
BRANCH  25  26
ATOM     26  C   UNL     1     112.763  17.158  23.224  1.00  0.00    -0.000 C 
BRANCH  26  27
ATOM     27  C   UNL     1     113.506  16.366  22.137  1.00  0.00    -0.000 C 
BRANCH  27  28
ATOM     28  C   UNL     1     113.521  14.854  22.410  1.00  0.00    -0.000 C 
BRANCH  28  29
ATOM     29  C   UNL     1     112.858  14.044  21.286  1.00  0.00    -0.003 C 
ATOM     30  C   UNL     1     112.958  12.545  21.557  1.00  0.00     0.004 C 
ENDBRANCH  28  29
ENDBRANCH  27  28
ENDBRANCH  26  27
ENDBRANCH  25  26
ENDBRANCH  24  25
ENDBRANCH  23  24
ENDBRANCH  22  23
ENDBRANCH  21  22
ENDBRANCH  20  21
ENDBRANCH  19  20
ENDBRANCH  18  19
ENDBRANCH  17  18
ENDBRANCH   1  17
TORSDOF 26
ENDMDL
MODEL 5
REMARK VINA RESULT:    -1.171      2.247      5.830
REMARK INTER + INTRA:          -9.563
REMARK INTER:                  -4.159
REMARK INTRA:                  -5.404
REMARK UNBOUND:                -6.612
REMARK SMILES CCCCCCCCCCCCCCCCCCCCCCCCCCCC(=O)[O-]
REMARK SMILES IDX 15 1 16 2 17 3 18 4 19 5 20 6 21 7 22 8 23 9 24 10 25 11
REMARK SMILES IDX 26 12 27 13 28 14 29 15 30 16 14 17 13 18 12 19 11 20 10 21
REMARK SMILES IDX 9 22 8 23 7 24 6 25 5 26 4 27 3 28 2 29 1 30
REMARK H PARENT
REMARK Flexibility Score: inf
ROOT
ATOM      1  C   UNL     1     113.768  13.084  24.383  1.00  0.00     0.000 C 
ENDROOT
BRANCH   1   2
ATOM      2  C   UNL     1     114.825  11.985  24.583  1.00  0.00     0.000 C 
BRANCH   2   3
ATOM      3  C   UNL     1     116.265  12.513  24.459  1.00  0.00     0.000 C 
BRANCH   3   4
ATOM      4  C   UNL     1     116.957  12.226  23.112  1.00  0.00     0.000 C 
BRANCH   4   5
ATOM      5  C   UNL     1     116.631  13.220  21.979  1.00  0.00     0.000 C 
BRANCH   5   6
ATOM      6  C   UNL     1     117.777  14.179  21.611  1.00  0.00     0.000 C 
BRANCH   6   7
ATOM      7  C   UNL     1     117.277  15.486  20.970  1.00  0.00     0.000 C 
BRANCH   7   8
ATOM      8  C   UNL     1     115.828  15.831  21.364  1.00  0.00     0.000 C 
BRANCH   8   9
ATOM      9  C   UNL     1     115.694  16.863  22.498  1.00  0.00     0.000 C 
BRANCH   9  10
ATOM     10  C   UNL     1     115.251  16.235  23.830  1.00  0.00     0.000 C 
BRANCH  10  11
ATOM     11  C   UNL     1     116.337  16.326  24.913  1.00  0.00     0.000 C 
BRANCH  11  12
ATOM     12  C   UNL     1     117.524  17.206  24.484  1.00  0.00     0.006 C 
BRANCH  12  13
ATOM     13  C   UNL     1     118.841  16.423  24.444  1.00  0.00     0.053 C 
BRANCH  13  14
ATOM     14  C   UNL     1     119.766  16.949  23.389  1.00  0.00     0.041 C 
ATOM     15  O   UNL     1     119.744  18.168  23.076  1.00  0.00    -0.550 OA
ATOM     16  O   UNL     1     120.633  16.085  22.732  1.00  0.00    -0.550 OA
ENDBRANCH  13  14
ENDBRANCH  12  13
ENDBRANCH  11  12
ENDBRANCH  10  11
ENDBRANCH   9  10
ENDBRANCH   8   9
ENDBRANCH   7   8
ENDBRANCH   6   7
ENDBRANCH   5   6
ENDBRANCH   4   5
ENDBRANCH   3   4
ENDBRANCH   2   3
ENDBRANCH   1   2
BRANCH   1  17
ATOM     17  C   UNL     1     113.038  13.441  25.688  1.00  0.00     0.000 C 
BRANCH  17  18
ATOM     18  C   UNL     1     113.964  14.098  26.726  1.00  0.00     0.000 C 
BRANCH  18  19
ATOM     19  C   UNL     1     114.088  13.274  28.017  1.00  0.00     0.000 C 
BRANCH  19  20
ATOM     20  C   UNL     1     115.551  13.084  28.457  1.00  0.00     0.000 C 
BRANCH  20  21
ATOM     21  C   UNL     1     116.513  14.039  27.733  1.00  0.00     0.000 C 
BRANCH  21  22
ATOM     22  C   UNL     1     117.079  15.126  28.660  1.00  0.00    -0.000 C 
BRANCH  22  23
ATOM     23  C   UNL     1     118.371  15.720  28.082  1.00  0.00    -0.000 C 
BRANCH  23  24
ATOM     24  C   UNL     1     118.819  16.995  28.817  1.00  0.00    -0.000 C 
BRANCH  24  25
ATOM     25  C   UNL     1     117.667  17.988  29.031  1.00  0.00    -0.000 C 
BRANCH  25  26
ATOM     26  C   UNL     1     117.358  18.760  27.743  1.00  0.00    -0.000 C 
BRANCH  26  27
ATOM     27  C   UNL     1     118.284  19.976  27.594  1.00  0.00    -0.000 C 
BRANCH  27  28
ATOM     28  C   UNL     1     119.089  19.953  26.286  1.00  0.00    -0.000 C 
BRANCH  28  29
ATOM     29  C   UNL     1     120.437  19.230  26.434  1.00  0.00    -0.003 C 
ATOM     30  C   UNL     1     121.125  19.615  27.740  1.00  0.00     0.004 C 
ENDBRANCH  28  29
ENDBRANCH  27  28
ENDBRANCH  26  27
ENDBRANCH  25  26
ENDBRANCH  24  25
ENDBRANCH  23  24
ENDBRANCH  22  23
ENDBRANCH  21  22
ENDBRANCH  20  21
ENDBRANCH  19  20
ENDBRANCH  18  19
ENDBRANCH  17  18
ENDBRANCH   1  17
TORSDOF 26
ENDMDL
MODEL 6
REMARK VINA RESULT:    -1.157      2.806      5.401
REMARK INTER + INTRA:          -9.527
REMARK INTER:                  -3.266
REMARK INTRA:                  -6.261
REMARK UNBOUND:                -6.612
REMARK SMILES CCCCCCCCCCCCCCCCCCCCCCCCCCCC(=O)[O-]
REMARK SMILES IDX 15 1 16 2 17 3 18 4 19 5 20 6 21 7 22 8 23 9 24 10 25 11
REMARK SMILES IDX 26 12 27 13 28 14 29 15 30 16 14 17 13 18 12 19 11 20 10 21
REMARK SMILES IDX 9 22 8 23 7 24 6 25 5 26 4 27 3 28 2 29 1 30
REMARK H PARENT
REMARK Flexibility Score: inf
ROOT
ATOM      1  C   UNL     1     115.523  13.282  27.026  1.00  0.00     0.000 C 
ENDROOT
BRANCH   1   2
ATOM      2  C   UNL     1     115.294  12.702  25.619  1.00  0.00     0.000 C 
BRANCH   2   3
ATOM      3  C   UNL     1     116.429  13.048  24.640  1.00  0.00     0.000 C 
BRANCH   3   4
ATOM      4  C   UNL     1     116.016  13.919  23.436  1.00  0.00     0.000 C 
BRANCH   4   5
ATOM      5  C   UNL     1     114.534  14.345  23.410  1.00  0.00     0.000 C 
BRANCH   5   6
ATOM      6  C   UNL     1     114.286  15.842  23.664  1.00  0.00     0.000 C 
BRANCH   6   7
ATOM      7  C   UNL     1     115.590  16.645  23.817  1.00  0.00     0.000 C 
BRANCH   7   8
ATOM      8  C   UNL     1     115.424  17.895  24.702  1.00  0.00     0.000 C 
BRANCH   8   9
ATOM      9  C   UNL     1     116.191  19.138  24.216  1.00  0.00     0.000 C 
BRANCH   9  10
ATOM     10  C   UNL     1     116.836  18.941  22.834  1.00  0.00     0.000 C 
BRANCH  10  11
ATOM     11  C   UNL     1     117.825  20.062  22.481  1.00  0.00     0.000 C 
BRANCH  11  12
ATOM     12  C   UNL     1     118.246  20.031  21.001  1.00  0.00     0.006 C 
BRANCH  12  13
ATOM     13  C   UNL     1     119.533  19.228  20.781  1.00  0.00     0.053 C 
BRANCH  13  14
ATOM     14  C   UNL     1     119.986  19.286  19.354  1.00  0.00     0.041 C 
ATOM     15  O   UNL     1     120.931  20.047  19.019  1.00  0.00    -0.550 OA
ATOM     16  O   UNL     1     119.345  18.520  18.390  1.00  0.00    -0.550 OA
ENDBRANCH  13  14
ENDBRANCH  12  13
ENDBRANCH  11  12
ENDBRANCH  10  11
ENDBRANCH   9  10
ENDBRANCH   8   9
ENDBRANCH   7   8
ENDBRANCH   6   7
ENDBRANCH   5   6
ENDBRANCH   4   5
ENDBRANCH   3   4
ENDBRANCH   2   3
ENDBRANCH   1   2
BRANCH   1  17
ATOM     17  C   UNL     1     114.888  14.670  27.199  1.00  0.00     0.000 C 
BRANCH  17  18
ATOM     18  C   UNL     1     115.908  15.742  27.623  1.00  0.00     0.000 C 
BRANCH  18  19
ATOM     19  C   UNL     1     117.339  15.191  27.722  1.00  0.00     0.000 C 
BRANCH  19  20
ATOM     20  C   UNL     1     118.399  16.225  27.303  1.00  0.00     0.000 C 
BRANCH  20  21
ATOM     21  C   UNL     1     118.547  16.332  25.776  1.00  0.00     0.000 C 
BRANCH  21  22
ATOM     22  C   UNL     1     119.761  17.175  25.356  1.00  0.00    -0.000 C 
BRANCH  22  23
ATOM     23  C   UNL     1     119.950  17.139  23.832  1.00  0.00    -0.000 C 
BRANCH  23  24
ATOM     24  C   UNL     1     119.119  16.035  23.157  1.00  0.00    -0.000 C 
BRANCH  24  25
ATOM     25  C   UNL     1     119.630  15.687  21.752  1.00  0.00    -0.000 C 
BRANCH  25  26
ATOM     26  C   UNL     1     118.508  15.104  20.886  1.00  0.00    -0.000 C 
BRANCH  26  27
ATOM     27  C   UNL     1     117.427  16.159  20.604  1.00  0.00    -0.000 C 
BRANCH  27  28
ATOM     28  C   UNL     1     116.111  15.543  20.105  1.00  0.00    -0.000 C 
BRANCH  28  29
ATOM     29  C   UNL     1     114.952  16.551  20.096  1.00  0.00    -0.003 C 
ATOM     30  C   UNL     1     115.424  17.924  19.625  1.00  0.00     0.004 C 
ENDBRANCH  28  29
ENDBRANCH  27  28
ENDBRANCH  26  27
ENDBRANCH  25  26
ENDBRANCH  24  25
ENDBRANCH  23  24
ENDBRANCH  22  23
ENDBRANCH  21  22
ENDBRANCH  20  21
ENDBRANCH  19  20
ENDBRANCH  18  19
ENDBRANCH  17  18
ENDBRANCH   1  17
TORSDOF 26
ENDMDL
MODEL 7
REMARK VINA RESULT:    -1.148      2.080      4.109
REMARK INTER + INTRA:          -9.505
REMARK INTER:                  -3.409
REMARK INTRA:                  -6.096
REMARK UNBOUND:                -6.612
REMARK SMILES CCCCCCCCCCCCCCCCCCCCCCCCCCCC(=O)[O-]
REMARK SMILES IDX 15 1 16 2 17 3 18 4 19 5 20 6 21 7 22 8 23 9 24 10 25 11
REMARK SMILES IDX 26 12 27 13 28 14 29 15 30 16 14 17 13 18 12 19 11 20 10 21
REMARK SMILES IDX 9 22 8 23 7 24 6 25 5 26 4 27 3 28 2 29 1 30
REMARK H PARENT
REMARK Flexibility Score: inf
ROOT
ATOM      1  C   UNL     1     116.910  12.977  23.030  1.00  0.00     0.000 C 
ENDROOT
BRANCH   1   2
ATOM      2  C   UNL     1     116.215  12.344  24.247  1.00  0.00     0.000 C 
BRANCH   2   3
ATOM      3  C   UNL     1     116.227  13.259  25.483  1.00  0.00     0.000 C 
BRANCH   3   4
ATOM      4  C   UNL     1     115.075  13.030  26.482  1.00  0.00     0.000 C 
BRANCH   4   5
ATOM      5  C   UNL     1     115.497  12.925  27.962  1.00  0.00     0.000 C 
BRANCH   5   6
ATOM      6  C   UNL     1     115.281  14.205  28.788  1.00  0.00     0.000 C 
BRANCH   6   7
ATOM      7  C   UNL     1     114.744  15.375  27.947  1.00  0.00     0.000 C 
BRANCH   7   8
ATOM      8  C   UNL     1     115.790  16.485  27.728  1.00  0.00     0.000 C 
BRANCH   8   9
ATOM      9  C   UNL     1     117.151  16.234  28.402  1.00  0.00     0.000 C 
BRANCH   9  10
ATOM     10  C   UNL     1     118.279  15.964  27.391  1.00  0.00     0.000 C 
BRANCH  10  11
ATOM     11  C   UNL     1     117.879  16.326  25.953  1.00  0.00     0.000 C 
BRANCH  11  12
ATOM     12  C   UNL     1     119.095  16.658  25.070  1.00  0.00     0.006 C 
BRANCH  12  13
ATOM     13  C   UNL     1     118.690  17.362  23.769  1.00  0.00     0.053 C 
BRANCH  13  14
ATOM     14  C   UNL     1     118.523  16.389  22.642  1.00  0.00     0.041 C 
ATOM     15  O   UNL     1     119.384  15.492  22.445  1.00  0.00    -0.550 OA
ATOM     16  O   UNL     1     117.430  16.492  21.791  1.00  0.00    -0.550 OA
ENDBRANCH  13  14
ENDBRANCH  12  13
ENDBRANCH  11  12
ENDBRANCH  10  11
ENDBRANCH   9  10
ENDBRANCH   8   9
ENDBRANCH   7   8
ENDBRANCH   6   7
ENDBRANCH   5   6
ENDBRANCH   4   5
ENDBRANCH   3   4
ENDBRANCH   2   3
ENDBRANCH   1   2
BRANCH   1  17
ATOM     17  C   UNL     1     115.964  13.134  21.828  1.00  0.00     0.000 C 
BRANCH  17  18
ATOM     18  C   UNL     1     114.490  12.896  22.198  1.00  0.00     0.000 C 
BRANCH  18  19
ATOM     19  C   UNL     1     113.690  14.202  22.317  1.00  0.00     0.000 C 
BRANCH  19  20
ATOM     20  C   UNL     1     112.928  14.308  23.651  1.00  0.00     0.000 C 
BRANCH  20  21
ATOM     21  C   UNL     1     113.312  15.564  24.451  1.00  0.00     0.000 C 
BRANCH  21  22
ATOM     22  C   UNL     1     114.662  16.154  24.015  1.00  0.00    -0.000 C 
BRANCH  22  23
ATOM     23  C   UNL     1     114.495  17.602  23.533  1.00  0.00    -0.000 C 
BRANCH  23  24
ATOM     24  C   UNL     1     115.451  18.577  24.242  1.00  0.00    -0.000 C 
BRANCH  24  25
ATOM     25  C   UNL     1     114.861  19.140  25.544  1.00  0.00    -0.000 C 
BRANCH  25  26
ATOM     26  C   UNL     1     115.904  19.961  26.311  1.00  0.00    -0.000 C 
BRANCH  26  27
ATOM     27  C   UNL     1     117.105  20.300  25.414  1.00  0.00    -0.000 C 
BRANCH  27  28
ATOM     28  C   UNL     1     118.441  20.262  26.171  1.00  0.00    -0.000 C 
BRANCH  28  29
ATOM     29  C   UNL     1     118.316  19.615  27.559  1.00  0.00    -0.003 C 
ATOM     30  C   UNL     1     119.268  20.268  28.557  1.00  0.00     0.004 C 
ENDBRANCH  28  29
ENDBRANCH  27  28
ENDBRANCH  26  27
ENDBRANCH  25  26
ENDBRANCH  24  25
ENDBRANCH  23  24
ENDBRANCH  22  23
ENDBRANCH  21  22
ENDBRANCH  20  21
ENDBRANCH  19  20
ENDBRANCH  18  19
ENDBRANCH  17  18
ENDBRANCH   1  17
TORSDOF 26
ENDMDL
MODEL 8
REMARK VINA RESULT:    -1.134      2.987      5.200
REMARK INTER + INTRA:          -9.468
REMARK INTER:                  -3.706
REMARK INTRA:                  -5.762
REMARK UNBOUND:                -6.612
REMARK SMILES CCCCCCCCCCCCCCCCCCCCCCCCCCCC(=O)[O-]
REMARK SMILES IDX 15 1 16 2 17 3 18 4 19 5 20 6 21 7 22 8 23 9 24 10 25 11
REMARK SMILES IDX 26 12 27 13 28 14 29 15 30 16 14 17 13 18 12 19 11 20 10 21
REMARK SMILES IDX 9 22 8 23 7 24 6 25 5 26 4 27 3 28 2 29 1 30
REMARK H PARENT
REMARK Flexibility Score: inf
ROOT
ATOM      1  C   UNL     1     117.087  16.292  27.111  1.00  0.00     0.000 C 
ENDROOT
BRANCH   1   2
ATOM      2  C   UNL     1     118.509  15.996  27.616  1.00  0.00     0.000 C 
BRANCH   2   3
ATOM      3  C   UNL     1     118.918  16.886  28.803  1.00  0.00     0.000 C 
BRANCH   3   4
ATOM      4  C   UNL     1     118.411  18.341  28.737  1.00  0.00     0.000 C 
BRANCH   4   5
ATOM      5  C   UNL     1     119.138  19.246  27.722  1.00  0.00     0.000 C 
BRANCH   5   6
ATOM      6  C   UNL     1     118.277  19.708  26.534  1.00  0.00     0.000 C 
BRANCH   6   7
ATOM      7  C   UNL     1     118.810  19.207  25.180  1.00  0.00     0.000 C 
BRANCH   7   8
ATOM      8  C   UNL     1     120.256  18.679  25.264  1.00  0.00     0.000 C 
BRANCH   8   9
ATOM      9  C   UNL     1     120.460  17.261  24.701  1.00  0.00     0.000 C 
BRANCH   9  10
ATOM     10  C   UNL     1     119.204  16.706  24.007  1.00  0.00     0.000 C 
BRANCH  10  11
ATOM     11  C   UNL     1     119.540  15.888  22.751  1.00  0.00     0.000 C 
BRANCH  11  12
ATOM     12  C   UNL     1     118.588  16.192  21.580  1.00  0.00     0.006 C 
BRANCH  12  13
ATOM     13  C   UNL     1     119.234  15.907  20.219  1.00  0.00     0.053 C 
BRANCH  13  14
ATOM     14  C   UNL     1     118.965  14.506  19.761  1.00  0.00     0.041 C 
ATOM     15  O   UNL     1     118.090  13.807  20.336  1.00  0.00    -0.550 OA
ATOM     16  O   UNL     1     119.702  13.963  18.716  1.00  0.00    -0.550 OA
ENDBRANCH  13  14
ENDBRANCH  12  13
ENDBRANCH  11  12
ENDBRANCH  10  11
ENDBRANCH   9  10
ENDBRANCH   8   9
ENDBRANCH   7   8
ENDBRANCH   6   7
ENDBRANCH   5   6
ENDBRANCH   4   5
ENDBRANCH   3   4
ENDBRANCH   2   3
ENDBRANCH   1   2
BRANCH   1  17
ATOM     17  C   UNL     1     116.021  15.446  27.826  1.00  0.00     0.000 C 
BRANCH  17  18
ATOM     18  C   UNL     1     116.468  13.990  28.046  1.00  0.00     0.000 C 
BRANCH  18  19
ATOM     19  C   UNL     1     115.453  12.971  27.508  1.00  0.00     0.000 C 
BRANCH  19  20
ATOM     20  C   UNL     1     115.026  13.270  26.060  1.00  0.00     0.000 C 
BRANCH  20  21
ATOM     21  C   UNL     1     116.077  12.820  25.031  1.00  0.00     0.000 C 
BRANCH  21  22
ATOM     22  C   UNL     1     116.606  13.983  24.178  1.00  0.00    -0.000 C 
BRANCH  22  23
ATOM     23  C   UNL     1     115.740  14.181  22.925  1.00  0.00    -0.000 C 
BRANCH  23  24
ATOM     24  C   UNL     1     115.098  15.577  22.862  1.00  0.00    -0.000 C 
BRANCH  24  25
ATOM     25  C   UNL     1     115.489  16.461  24.055  1.00  0.00    -0.000 C 
BRANCH  25  26
ATOM     26  C   UNL     1     115.745  17.905  23.610  1.00  0.00    -0.000 C 
BRANCH  26  27
ATOM     27  C   UNL     1     114.742  18.868  24.264  1.00  0.00    -0.000 C 
BRANCH  27  28
ATOM     28  C   UNL     1     114.382  18.465  25.702  1.00  0.00    -0.000 C 
BRANCH  28  29
ATOM     29  C   UNL     1     114.592  19.608  26.706  1.00  0.00    -0.003 C 
ATOM     30  C   UNL     1     114.810  19.066  28.116  1.00  0.00     0.004 C 
ENDBRANCH  28  29
ENDBRANCH  27  28
ENDBRANCH  26  27
ENDBRANCH  25  26
ENDBRANCH  24  25
ENDBRANCH  23  24
ENDBRANCH  22  23
ENDBRANCH  21  22
ENDBRANCH  20  21
ENDBRANCH  19  20
ENDBRANCH  18  19
ENDBRANCH  17  18
ENDBRANCH   1  17
TORSDOF 26
ENDMDL
MODEL 9
REMARK VINA RESULT:    -1.119      1.814      4.423
REMARK INTER + INTRA:          -9.430
REMARK INTER:                  -3.615
REMARK INTRA:                  -5.815
REMARK UNBOUND:                -6.612
REMARK SMILES CCCCCCCCCCCCCCCCCCCCCCCCCCCC(=O)[O-]
REMARK SMILES IDX 15 1 16 2 17 3 18 4 19 5 20 6 21 7 22 8 23 9 24 10 25 11
REMARK SMILES IDX 26 12 27 13 28 14 29 15 30 16 14 17 13 18 12 19 11 20 10 21
REMARK SMILES IDX 9 22 8 23 7 24 6 25 5 26 4 27 3 28 2 29 1 30
REMARK H PARENT
REMARK Flexibility Score: inf
ROOT
ATOM      1  C   UNL     1     115.089  12.418  23.343  1.00  0.00     0.000 C 
ENDROOT
BRANCH   1   2
ATOM      2  C   UNL     1     116.617  12.429  23.166  1.00  0.00     0.000 C 
BRANCH   2   3
ATOM      3  C   UNL     1     117.058  11.962  21.767  1.00  0.00     0.000 C 
BRANCH   3   4
ATOM      4  C   UNL     1     116.178  12.458  20.602  1.00  0.00     0.000 C 
BRANCH   4   5
ATOM      5  C   UNL     1     116.727  13.679  19.836  1.00  0.00     0.000 C 
BRANCH   5   6
ATOM      6  C   UNL     1     118.251  13.873  19.934  1.00  0.00     0.000 C 
BRANCH   6   7
ATOM      7  C   UNL     1     118.641  15.257  20.480  1.00  0.00     0.000 C 
BRANCH   7   8
ATOM      8  C   UNL     1     118.860  15.260  22.005  1.00  0.00     0.000 C 
BRANCH   8   9
ATOM      9  C   UNL     1     120.104  16.034  22.478  1.00  0.00     0.000 C 
BRANCH   9  10
ATOM     10  C   UNL     1     119.764  17.181  23.445  1.00  0.00     0.000 C 
BRANCH  10  11
ATOM     11  C   UNL     1     119.560  18.520  22.721  1.00  0.00     0.000 C 
BRANCH  11  12
ATOM     12  C   UNL     1     118.083  18.954  22.692  1.00  0.00     0.006 C 
BRANCH  12  13
ATOM     13  C   UNL     1     117.774  20.027  23.742  1.00  0.00     0.053 C 
BRANCH  13  14
ATOM     14  C   UNL     1     116.306  20.118  24.027  1.00  0.00     0.041 C 
ATOM     15  O   UNL     1     115.468  19.804  23.142  1.00  0.00    -0.550 OA
ATOM     16  O   UNL     1     115.864  20.576  25.262  1.00  0.00    -0.550 OA
ENDBRANCH  13  14
ENDBRANCH  12  13
ENDBRANCH  11  12
ENDBRANCH  10  11
ENDBRANCH   9  10
ENDBRANCH   8   9
ENDBRANCH   7   8
ENDBRANCH   6   7
ENDBRANCH   5   6
ENDBRANCH   4   5
ENDBRANCH   3   4
ENDBRANCH   2   3
ENDBRANCH   1   2
BRANCH   1  17
ATOM     17  C   UNL     1     114.664  12.704  24.793  1.00  0.00     0.000 C 
BRANCH  17  18
ATOM     18  C   UNL     1     115.860  13.005  25.713  1.00  0.00     0.000 C 
BRANCH  18  19
ATOM     19  C   UNL     1     115.429  13.538  27.089  1.00  0.00     0.000 C 
BRANCH  19  20
ATOM     20  C   UNL     1     116.623  14.005  27.940  1.00  0.00     0.000 C 
BRANCH  20  21
ATOM     21  C   UNL     1     116.802  15.532  27.918  1.00  0.00     0.000 C 
BRANCH  21  22
ATOM     22  C   UNL     1     117.802  15.995  26.847  1.00  0.00    -0.000 C 
BRANCH  22  23
ATOM     23  C   UNL     1     117.166  17.043  25.921  1.00  0.00    -0.000 C 
BRANCH  23  24
ATOM     24  C   UNL     1     115.637  17.114  26.069  1.00  0.00    -0.000 C 
BRANCH  24  25
ATOM     25  C   UNL     1     114.898  16.540  24.851  1.00  0.00    -0.000 C 
BRANCH  25  26
ATOM     26  C   UNL     1     115.881  16.176  23.732  1.00  0.00    -0.000 C 
BRANCH  26  27
ATOM     27  C   UNL     1     115.135  15.864  22.425  1.00  0.00    -0.000 C 
BRANCH  27  28
ATOM     28  C   UNL     1     115.466  16.856  21.301  1.00  0.00    -0.000 C 
BRANCH  28  29
ATOM     29  C   UNL     1     114.256  17.157  20.404  1.00  0.00    -0.003 C 
ATOM     30  C   UNL     1     114.385  16.455  19.055  1.00  0.00     0.004 C 
ENDBRANCH  28  29
ENDBRANCH  27  28
ENDBRANCH  26  27
ENDBRANCH  25  26
ENDBRANCH  24  25
ENDBRANCH  23  24
ENDBRANCH  22  23
ENDBRANCH  21  22
ENDBRANCH  20  21
ENDBRANCH  19  20
ENDBRANCH  18  19
ENDBRANCH  17  18
ENDBRANCH   1  17
TORSDOF 26
ENDMDL
