MODEL 1
REMARK VINA RESULT:    27.810      0.000      0.000
REMARK INTER + INTRA:          39.416
REMARK INTER:                  38.378
REMARK INTRA:                   1.038
REMARK UNBOUND:                 1.038
REMARK SMILES CC[C@H](CC[C@@H](C)[C@@H]1CC[C@H]2[C@H]3CC=C4C[C@@H](O)CC[C@@]4(C)[C@@H]3CC[C@]21C)C(C)C
REMARK SMILES IDX 5 1 4 2 3 3 2 4 1 5 28 6 29 7 30 8 6 9 7 10 8 11 9 12 26 13
REMARK SMILES IDX 10 14 11 15 25 16 27 17 12 18 24 19 23 20 13 21 21 22 14 23
REMARK SMILES IDX 15 24 20 25 22 26 16 27 19 28 17 29 18 30
REMARK H PARENT 18 31
REMARK Flexibility Score: inf
ROOT
ATOM      1  C   UNL     1       3.309  78.912   8.832  1.00  0.00     0.004 C 
ENDROOT
BRANCH   1   2
ATOM      2  C   UNL     1       3.935  78.001   9.914  1.00  0.00     0.004 C 
BRANCH   2   3
ATOM      3  C   UNL     1       4.301  78.692  11.262  1.00  0.00    -0.009 C 
BRANCH   3   4
ATOM      4  C   UNL     1       3.036  79.111  12.060  1.00  0.00     0.000 C 
ATOM      5  C   UNL     1       1.860  78.150  11.893  1.00  0.00     0.004 C 
ENDBRANCH   3   4
BRANCH   3   6
ATOM      6  C   UNL     1       5.394  77.969  12.125  1.00  0.00    -0.014 C 
ATOM      7  C   UNL     1       6.768  78.654  12.026  1.00  0.00     0.007 C 
ATOM      8  C   UNL     1       5.543  76.461  11.872  1.00  0.00     0.007 C 
ENDBRANCH   3   6
ENDBRANCH   2   3
ENDBRANCH   1   2
BRANCH   1   9
ATOM      9  C   UNL     1       2.370  78.128   7.868  1.00  0.00    -0.011 C 
ATOM     10  C   UNL     1       1.624  79.122   6.950  1.00  0.00     0.008 C 
BRANCH   9  11
ATOM     11  C   UNL     1       3.157  76.993   7.104  1.00  0.00    -0.002 C 
ATOM     12  C   UNL     1       4.674  77.007   7.383  1.00  0.00     0.005 C 
ATOM     13  C   UNL     1       3.038  76.920   5.543  1.00  0.00    -0.026 C 
ATOM     14  C   UNL     1       5.378  77.387   6.081  1.00  0.00     0.005 C 
ATOM     15  C   UNL     1       4.284  77.680   5.042  1.00  0.00    -0.001 C 
ATOM     16  C   UNL     1       3.129  75.416   5.125  1.00  0.00     0.007 C 
ATOM     17  C   UNL     1       1.726  77.528   4.987  1.00  0.00     0.012 C 
ATOM     18  C   UNL     1       4.668  77.401   3.552  1.00  0.00     0.000 C 
ATOM     19  C   UNL     1       3.411  75.202   3.638  1.00  0.00     0.005 C 
ATOM     20  C   UNL     1       4.723  75.895   3.198  1.00  0.00     0.003 C 
ATOM     21  C   UNL     1       5.995  78.093   3.192  1.00  0.00     0.031 C 
ATOM     22  C   UNL     1       5.069  75.655   1.672  1.00  0.00    -0.008 C 
ATOM     23  C   UNL     1       6.500  77.734   1.828  1.00  0.00    -0.027 C 
ATOM     24  C   UNL     1       6.219  76.566   1.213  1.00  0.00    -0.065 C 
ATOM     25  C   UNL     1       5.511  74.169   1.488  1.00  0.00     0.014 C 
ATOM     26  C   UNL     1       3.844  75.942   0.757  1.00  0.00     0.016 C 
ATOM     27  C   UNL     1       6.927  76.256  -0.094  1.00  0.00     0.063 C 
ATOM     28  C   UNL     1       6.132  73.870   0.114  1.00  0.00     0.033 C 
ATOM     29  C   UNL     1       7.335  74.783  -0.169  1.00  0.00     0.118 C 
BRANCH  29  30
ATOM     30  O   UNL     1       8.367  74.535   0.752  1.00  0.00    -0.393 OA
ATOM     31  H   UNL     1       8.067  73.782   1.326  1.00  0.00     0.210 HD
ENDBRANCH  29  30
ENDBRANCH   9  11
ENDBRANCH   1   9
TORSDOF 7
ENDMDL
