MODEL 1
REMARK VINA RESULT:    -3.588      0.000      0.000
REMARK INTER + INTRA:          -8.614
REMARK INTER:                  -6.525
REMARK INTRA:                  -2.089
REMARK UNBOUND:                -2.089
REMARK SMILES CCCCCCCCCCCCCCCC(=O)[O-]
REMARK SMILES IDX 9 1 10 2 11 3 12 4 13 5 14 6 15 7 16 8 17 9 18 10 8 11 7 12
REMARK SMILES IDX 6 13 5 14 4 15 3 16 2 17 1 18
REMARK H PARENT
REMARK Flexibility Score: inf
ROOT
ATOM      1  C   UNL     1     -42.498  27.043 -11.101  1.00  0.00     0.000 C 
ENDROOT
BRANCH   1   2
ATOM      2  C   UNL     1     -43.730  27.611 -10.386  1.00  0.00     0.000 C 
BRANCH   2   3
ATOM      3  C   UNL     1     -43.362  28.850  -9.556  1.00  0.00     0.000 C 
BRANCH   3   4
ATOM      4  C   UNL     1     -43.039  28.509  -8.093  1.00  0.00     0.000 C 
BRANCH   4   5
ATOM      5  C   UNL     1     -43.620  27.155  -7.658  1.00  0.00     0.000 C 
BRANCH   5   6
ATOM      6  C   UNL     1     -42.571  26.317  -6.918  1.00  0.00     0.006 C 
BRANCH   6   7
ATOM      7  C   UNL     1     -41.226  26.350  -7.650  1.00  0.00     0.053 C 
BRANCH   7   8
ATOM      8  C   UNL     1     -40.119  26.680  -6.700  1.00  0.00     0.041 C 
ATOM      9  O   UNL     1     -39.588  27.821  -6.721  1.00  0.00    -0.550 OA
ATOM     10  O   UNL     1     -39.640  25.714  -5.826  1.00  0.00    -0.550 OA
ENDBRANCH   7   8
ENDBRANCH   6   7
ENDBRANCH   5   6
ENDBRANCH   4   5
ENDBRANCH   3   4
ENDBRANCH   2   3
ENDBRANCH   1   2
BRANCH   1  11
ATOM     11  C   UNL     1     -42.526  25.510 -11.113  1.00  0.00     0.000 C 
BRANCH  11  12
ATOM     12  C   UNL     1     -43.898  24.981 -10.668  1.00  0.00    -0.000 C 
BRANCH  12  13
ATOM     13  C   UNL     1     -43.798  23.967  -9.519  1.00  0.00    -0.000 C 
BRANCH  13  14
ATOM     14  C   UNL     1     -42.375  23.409  -9.340  1.00  0.00    -0.000 C 
BRANCH  14  15
ATOM     15  C   UNL     1     -42.301  22.355  -8.215  1.00  0.00    -0.000 C 
BRANCH  15  16
ATOM     16  C   UNL     1     -40.864  21.932  -7.864  1.00  0.00    -0.000 C 
BRANCH  16  17
ATOM     17  C   UNL     1     -40.213  21.069  -8.953  1.00  0.00    -0.003 C 
ATOM     18  C   UNL     1     -41.065  19.842  -9.264  1.00  0.00     0.004 C 
ENDBRANCH  16  17
ENDBRANCH  15  16
ENDBRANCH  14  15
ENDBRANCH  13  14
ENDBRANCH  12  13
ENDBRANCH  11  12
ENDBRANCH   1  11
TORSDOF 14
ENDMDL
MODEL 2
REMARK VINA RESULT:    -3.572      2.005      3.176
REMARK INTER + INTRA:          -8.585
REMARK INTER:                  -6.456
REMARK INTRA:                  -2.129
REMARK UNBOUND:                -2.089
REMARK SMILES CCCCCCCCCCCCCCCC(=O)[O-]
REMARK SMILES IDX 9 1 10 2 11 3 12 4 13 5 14 6 15 7 16 8 17 9 18 10 8 11 7 12
REMARK SMILES IDX 6 13 5 14 4 15 3 16 2 17 1 18
REMARK H PARENT
REMARK Flexibility Score: inf
ROOT
ATOM      1  C   UNL     1     -43.929  24.225  -9.269  1.00  0.00     0.000 C 
ENDROOT
BRANCH   1   2
ATOM      2  C   UNL     1     -45.014  25.124  -9.872  1.00  0.00     0.000 C 
BRANCH   2   3
ATOM      3  C   UNL     1     -44.620  25.596 -11.279  1.00  0.00     0.000 C 
BRANCH   3   4
ATOM      4  C   UNL     1     -44.242  27.085 -11.321  1.00  0.00     0.000 C 
BRANCH   4   5
ATOM      5  C   UNL     1     -42.723  27.312 -11.280  1.00  0.00     0.000 C 
BRANCH   5   6
ATOM      6  C   UNL     1     -42.261  27.698  -9.869  1.00  0.00     0.006 C 
BRANCH   6   7
ATOM      7  C   UNL     1     -43.093  28.859  -9.318  1.00  0.00     0.053 C 
BRANCH   7   8
ATOM      8  C   UNL     1     -43.655  28.510  -7.976  1.00  0.00     0.041 C 
ATOM      9  O   UNL     1     -44.266  29.381  -7.302  1.00  0.00    -0.550 OA
ATOM     10  O   UNL     1     -43.462  27.241  -7.448  1.00  0.00    -0.550 OA
ENDBRANCH   7   8
ENDBRANCH   6   7
ENDBRANCH   5   6
ENDBRANCH   4   5
ENDBRANCH   3   4
ENDBRANCH   2   3
ENDBRANCH   1   2
BRANCH   1  11
ATOM     11  C   UNL     1     -43.043  23.620 -10.366  1.00  0.00     0.000 C 
BRANCH  11  12
ATOM     12  C   UNL     1     -41.559  23.904 -10.094  1.00  0.00    -0.000 C 
BRANCH  12  13
ATOM     13  C   UNL     1     -41.298  24.362  -8.651  1.00  0.00    -0.000 C 
BRANCH  13  14
ATOM     14  C   UNL     1     -40.277  23.474  -7.919  1.00  0.00    -0.000 C 
BRANCH  14  15
ATOM     15  C   UNL     1     -40.716  21.996  -7.878  1.00  0.00    -0.000 C 
BRANCH  15  16
ATOM     16  C   UNL     1     -39.613  21.015  -8.312  1.00  0.00    -0.000 C 
BRANCH  16  17
ATOM     17  C   UNL     1     -40.113  19.953  -9.299  1.00  0.00    -0.003 C 
ATOM     18  C   UNL     1     -41.582  20.177  -9.649  1.00  0.00     0.004 C 
ENDBRANCH  16  17
ENDBRANCH  15  16
ENDBRANCH  14  15
ENDBRANCH  13  14
ENDBRANCH  12  13
ENDBRANCH  11  12
ENDBRANCH   1  11
TORSDOF 14
ENDMDL
MODEL 3
REMARK VINA RESULT:    -3.558      2.097      3.211
REMARK INTER + INTRA:          -8.559
REMARK INTER:                  -6.110
REMARK INTRA:                  -2.449
REMARK UNBOUND:                -2.089
REMARK SMILES CCCCCCCCCCCCCCCC(=O)[O-]
REMARK SMILES IDX 9 1 10 2 11 3 12 4 13 5 14 6 15 7 16 8 17 9 18 10 8 11 7 12
REMARK SMILES IDX 6 13 5 14 4 15 3 16 2 17 1 18
REMARK H PARENT
REMARK Flexibility Score: inf
ROOT
ATOM      1  C   UNL     1     -39.962  25.230  -9.363  1.00  0.00     0.000 C 
ENDROOT
BRANCH   1   2
ATOM      2  C   UNL     1     -40.329  26.338  -8.369  1.00  0.00     0.000 C 
BRANCH   2   3
ATOM      3  C   UNL     1     -40.724  25.747  -7.008  1.00  0.00     0.000 C 
BRANCH   3   4
ATOM      4  C   UNL     1     -42.245  25.729  -6.788  1.00  0.00     0.000 C 
BRANCH   4   5
ATOM      5  C   UNL     1     -42.949  26.938  -7.423  1.00  0.00     0.000 C 
BRANCH   5   6
ATOM      6  C   UNL     1     -44.110  26.490  -8.320  1.00  0.00     0.006 C 
BRANCH   6   7
ATOM      7  C   UNL     1     -43.936  27.020  -9.747  1.00  0.00     0.053 C 
BRANCH   7   8
ATOM      8  C   UNL     1     -43.423  28.424  -9.727  1.00  0.00     0.041 C 
ATOM      9  O   UNL     1     -44.115  29.343  -9.214  1.00  0.00    -0.550 OA
ATOM     10  O   UNL     1     -42.203  28.729 -10.316  1.00  0.00    -0.550 OA
ENDBRANCH   7   8
ENDBRANCH   6   7
ENDBRANCH   5   6
ENDBRANCH   4   5
ENDBRANCH   3   4
ENDBRANCH   2   3
ENDBRANCH   1   2
BRANCH   1  11
ATOM     11  C   UNL     1     -40.979  25.159 -10.509  1.00  0.00     0.000 C 
BRANCH  11  12
ATOM     12  C   UNL     1     -41.182  23.709 -10.974  1.00  0.00    -0.000 C 
BRANCH  12  13
ATOM     13  C   UNL     1     -42.587  23.176 -10.652  1.00  0.00    -0.000 C 
BRANCH  13  14
ATOM     14  C   UNL     1     -42.867  23.112  -9.141  1.00  0.00    -0.000 C 
BRANCH  14  15
ATOM     15  C   UNL     1     -42.273  21.845  -8.491  1.00  0.00    -0.000 C 
BRANCH  15  16
ATOM     16  C   UNL     1     -40.944  22.097  -7.757  1.00  0.00    -0.000 C 
BRANCH  16  17
ATOM     17  C   UNL     1     -39.803  21.209  -8.269  1.00  0.00    -0.003 C 
ATOM     18  C   UNL     1     -40.325  20.137  -9.222  1.00  0.00     0.004 C 
ENDBRANCH  16  17
ENDBRANCH  15  16
ENDBRANCH  14  15
ENDBRANCH  13  14
ENDBRANCH  12  13
ENDBRANCH  11  12
ENDBRANCH   1  11
TORSDOF 14
ENDMDL
MODEL 4
REMARK VINA RESULT:    -3.531      2.516      3.118
REMARK INTER + INTRA:          -8.509
REMARK INTER:                  -6.369
REMARK INTRA:                  -2.140
REMARK UNBOUND:                -2.089
REMARK SMILES CCCCCCCCCCCCCCCC(=O)[O-]
REMARK SMILES IDX 9 1 10 2 11 3 12 4 13 5 14 6 15 7 16 8 17 9 18 10 8 11 7 12
REMARK SMILES IDX 6 13 5 14 4 15 3 16 2 17 1 18
REMARK H PARENT
REMARK Flexibility Score: inf
ROOT
ATOM      1  C   UNL     1     -44.396  26.902 -11.084  1.00  0.00     0.000 C 
ENDROOT
BRANCH   1   2
ATOM      2  C   UNL     1     -43.326  26.507 -12.109  1.00  0.00     0.000 C 
BRANCH   2   3
ATOM      3  C   UNL     1     -41.923  26.882 -11.612  1.00  0.00     0.000 C 
BRANCH   3   4
ATOM      4  C   UNL     1     -41.939  28.056 -10.621  1.00  0.00     0.000 C 
BRANCH   4   5
ATOM      5  C   UNL     1     -41.395  27.670  -9.237  1.00  0.00     0.000 C 
BRANCH   5   6
ATOM      6  C   UNL     1     -41.917  28.622  -8.154  1.00  0.00     0.006 C 
BRANCH   6   7
ATOM      7  C   UNL     1     -43.368  28.294  -7.787  1.00  0.00     0.053 C 
BRANCH   7   8
ATOM      8  C   UNL     1     -44.208  29.530  -7.812  1.00  0.00     0.041 C 
ATOM      9  O   UNL     1     -44.180  30.294  -8.813  1.00  0.00    -0.550 OA
ATOM     10  O   UNL     1     -44.985  29.867  -6.712  1.00  0.00    -0.550 OA
ENDBRANCH   7   8
ENDBRANCH   6   7
ENDBRANCH   5   6
ENDBRANCH   4   5
ENDBRANCH   3   4
ENDBRANCH   2   3
ENDBRANCH   1   2
BRANCH   1  11
ATOM     11  C   UNL     1     -45.191  25.677 -10.616  1.00  0.00     0.000 C 
BRANCH  11  12
ATOM     12  C   UNL     1     -44.674  25.170  -9.262  1.00  0.00    -0.000 C 
BRANCH  12  13
ATOM     13  C   UNL     1     -43.689  23.999  -9.404  1.00  0.00    -0.000 C 
BRANCH  13  14
ATOM     14  C   UNL     1     -42.427  24.175  -8.541  1.00  0.00    -0.000 C 
BRANCH  14  15
ATOM     15  C   UNL     1     -41.133  23.985  -9.358  1.00  0.00    -0.000 C 
BRANCH  15  16
ATOM     16  C   UNL     1     -40.163  22.961  -8.744  1.00  0.00    -0.000 C 
BRANCH  16  17
ATOM     17  C   UNL     1     -40.884  21.804  -8.039  1.00  0.00    -0.003 C 
ATOM     18  C   UNL     1     -41.134  20.645  -9.001  1.00  0.00     0.004 C 
ENDBRANCH  16  17
ENDBRANCH  15  16
ENDBRANCH  14  15
ENDBRANCH  13  14
ENDBRANCH  12  13
ENDBRANCH  11  12
ENDBRANCH   1  11
TORSDOF 14
ENDMDL
MODEL 5
REMARK VINA RESULT:    -3.518      2.294      5.155
REMARK INTER + INTRA:          -8.487
REMARK INTER:                  -6.265
REMARK INTRA:                  -2.222
REMARK UNBOUND:                -2.089
REMARK SMILES CCCCCCCCCCCCCCCC(=O)[O-]
REMARK SMILES IDX 9 1 10 2 11 3 12 4 13 5 14 6 15 7 16 8 17 9 18 10 8 11 7 12
REMARK SMILES IDX 6 13 5 14 4 15 3 16 2 17 1 18
REMARK H PARENT
REMARK Flexibility Score: inf
ROOT
ATOM      1  C   UNL     1     -43.562  27.688  -7.752  1.00  0.00     0.000 C 
ENDROOT
BRANCH   1   2
ATOM      2  C   UNL     1     -42.998  26.312  -7.375  1.00  0.00     0.000 C 
BRANCH   2   3
ATOM      3  C   UNL     1     -41.508  26.212  -7.732  1.00  0.00     0.000 C 
BRANCH   3   4
ATOM      4  C   UNL     1     -41.012  24.759  -7.803  1.00  0.00     0.000 C 
BRANCH   4   5
ATOM      5  C   UNL     1     -41.908  23.869  -8.678  1.00  0.00     0.000 C 
BRANCH   5   6
ATOM      6  C   UNL     1     -42.257  22.561  -7.957  1.00  0.00     0.006 C 
BRANCH   6   7
ATOM      7  C   UNL     1     -41.973  21.350  -8.849  1.00  0.00     0.053 C 
BRANCH   7   8
ATOM      8  C   UNL     1     -40.505  21.211  -9.093  1.00  0.00     0.041 C 
ATOM      9  O   UNL     1     -39.715  21.059  -8.124  1.00  0.00    -0.550 OA
ATOM     10  O   UNL     1     -40.002  21.296 -10.384  1.00  0.00    -0.550 OA
ENDBRANCH   7   8
ENDBRANCH   6   7
ENDBRANCH   5   6
ENDBRANCH   4   5
ENDBRANCH   3   4
ENDBRANCH   2   3
ENDBRANCH   1   2
BRANCH   1  11
ATOM     11  C   UNL     1     -42.495  28.551  -8.436  1.00  0.00     0.000 C 
BRANCH  11  12
ATOM     12  C   UNL     1     -42.847  28.794  -9.911  1.00  0.00    -0.000 C 
BRANCH  12  13
ATOM     13  C   UNL     1     -41.716  28.382 -10.866  1.00  0.00    -0.000 C 
BRANCH  13  14
ATOM     14  C   UNL     1     -41.993  27.044 -11.574  1.00  0.00    -0.000 C 
BRANCH  14  15
ATOM     15  C   UNL     1     -43.503  26.770 -11.729  1.00  0.00    -0.000 C 
BRANCH  15  16
ATOM     16  C   UNL     1     -43.989  25.542 -10.940  1.00  0.00    -0.000 C 
BRANCH  16  17
ATOM     17  C   UNL     1     -45.490  25.591 -10.626  1.00  0.00    -0.003 C 
ATOM     18  C   UNL     1     -45.797  24.905  -9.298  1.00  0.00     0.004 C 
ENDBRANCH  16  17
ENDBRANCH  15  16
ENDBRANCH  14  15
ENDBRANCH  13  14
ENDBRANCH  12  13
ENDBRANCH  11  12
ENDBRANCH   1  11
TORSDOF 14
ENDMDL
MODEL 6
REMARK VINA RESULT:    -3.507      2.783      4.111
REMARK INTER + INTRA:          -8.465
REMARK INTER:                  -6.205
REMARK INTRA:                  -2.261
REMARK UNBOUND:                -2.089
REMARK SMILES CCCCCCCCCCCCCCCC(=O)[O-]
REMARK SMILES IDX 9 1 10 2 11 3 12 4 13 5 14 6 15 7 16 8 17 9 18 10 8 11 7 12
REMARK SMILES IDX 6 13 5 14 4 15 3 16 2 17 1 18
REMARK H PARENT
REMARK Flexibility Score: inf
ROOT
ATOM      1  C   UNL     1     -43.388  26.514  -7.528  1.00  0.00     0.000 C 
ENDROOT
BRANCH   1   2
ATOM      2  C   UNL     1     -43.690  28.005  -7.723  1.00  0.00     0.000 C 
BRANCH   2   3
ATOM      3  C   UNL     1     -42.501  28.726  -8.376  1.00  0.00     0.000 C 
BRANCH   3   4
ATOM      4  C   UNL     1     -42.644  28.843  -9.901  1.00  0.00     0.000 C 
BRANCH   4   5
ATOM      5  C   UNL     1     -41.795  27.809 -10.656  1.00  0.00     0.000 C 
BRANCH   5   6
ATOM      6  C   UNL     1     -42.663  26.967 -11.599  1.00  0.00     0.006 C 
BRANCH   6   7
ATOM      7  C   UNL     1     -44.145  27.078 -11.227  1.00  0.00     0.053 C 
BRANCH   7   8
ATOM      8  C   UNL     1     -44.807  25.739 -11.305  1.00  0.00     0.041 C 
ATOM      9  O   UNL     1     -45.569  25.356 -10.379  1.00  0.00    -0.550 OA
ATOM     10  O   UNL     1     -44.544  24.894 -12.375  1.00  0.00    -0.550 OA
ENDBRANCH   7   8
ENDBRANCH   6   7
ENDBRANCH   5   6
ENDBRANCH   4   5
ENDBRANCH   3   4
ENDBRANCH   2   3
ENDBRANCH   1   2
BRANCH   1  11
ATOM     11  C   UNL     1     -41.922  26.297  -7.131  1.00  0.00     0.000 C 
BRANCH  11  12
ATOM     12  C   UNL     1     -41.306  25.133  -7.921  1.00  0.00    -0.000 C 
BRANCH  12  13
ATOM     13  C   UNL     1     -42.340  24.385  -8.777  1.00  0.00    -0.000 C 
BRANCH  13  14
ATOM     14  C   UNL     1     -41.734  23.800 -10.065  1.00  0.00    -0.000 C 
BRANCH  14  15
ATOM     15  C   UNL     1     -42.552  22.607 -10.602  1.00  0.00    -0.000 C 
BRANCH  15  16
ATOM     16  C   UNL     1     -41.820  21.258 -10.484  1.00  0.00    -0.000 C 
BRANCH  16  17
ATOM     17  C   UNL     1     -41.683  20.779  -9.033  1.00  0.00    -0.003 C 
ATOM     18  C   UNL     1     -40.234  20.863  -8.561  1.00  0.00     0.004 C 
ENDBRANCH  16  17
ENDBRANCH  15  16
ENDBRANCH  14  15
ENDBRANCH  13  14
ENDBRANCH  12  13
ENDBRANCH  11  12
ENDBRANCH   1  11
TORSDOF 14
ENDMDL
MODEL 7
REMARK VINA RESULT:    -3.505      2.483      5.558
REMARK INTER + INTRA:          -8.463
REMARK INTER:                  -5.853
REMARK INTRA:                  -2.610
REMARK UNBOUND:                -2.089
REMARK SMILES CCCCCCCCCCCCCCCC(=O)[O-]
REMARK SMILES IDX 9 1 10 2 11 3 12 4 13 5 14 6 15 7 16 8 17 9 18 10 8 11 7 12
REMARK SMILES IDX 6 13 5 14 4 15 3 16 2 17 1 18
REMARK H PARENT
REMARK Flexibility Score: inf
ROOT
ATOM      1  C   UNL     1     -40.111  26.062  -9.665  1.00  0.00     0.000 C 
ENDROOT
BRANCH   1   2
ATOM      2  C   UNL     1     -40.842  25.731 -10.971  1.00  0.00     0.000 C 
BRANCH   2   3
ATOM      3  C   UNL     1     -41.550  24.372 -10.876  1.00  0.00     0.000 C 
BRANCH   3   4
ATOM      4  C   UNL     1     -41.372  23.706  -9.502  1.00  0.00     0.000 C 
BRANCH   4   5
ATOM      5  C   UNL     1     -42.601  22.888  -9.077  1.00  0.00     0.000 C 
BRANCH   5   6
ATOM      6  C   UNL     1     -42.190  21.500  -8.569  1.00  0.00     0.006 C 
BRANCH   6   7
ATOM      7  C   UNL     1     -41.316  20.776  -9.596  1.00  0.00     0.053 C 
BRANCH   7   8
ATOM      8  C   UNL     1     -40.093  20.215  -8.943  1.00  0.00     0.041 C 
ATOM      9  O   UNL     1     -39.814  18.993  -9.066  1.00  0.00    -0.550 OA
ATOM     10  O   UNL     1     -39.288  21.029  -8.157  1.00  0.00    -0.550 OA
ENDBRANCH   7   8
ENDBRANCH   6   7
ENDBRANCH   5   6
ENDBRANCH   4   5
ENDBRANCH   3   4
ENDBRANCH   2   3
ENDBRANCH   1   2
BRANCH   1  11
ATOM     11  C   UNL     1     -40.231  27.554  -9.329  1.00  0.00     0.000 C 
BRANCH  11  12
ATOM     12  C   UNL     1     -41.006  27.762  -8.020  1.00  0.00    -0.000 C 
BRANCH  12  13
ATOM     13  C   UNL     1     -41.129  26.473  -7.193  1.00  0.00    -0.000 C 
BRANCH  13  14
ATOM     14  C   UNL     1     -42.590  26.044  -6.973  1.00  0.00    -0.000 C 
BRANCH  14  15
ATOM     15  C   UNL     1     -43.574  26.868  -7.831  1.00  0.00    -0.000 C 
BRANCH  15  16
ATOM     16  C   UNL     1     -44.460  26.007  -8.747  1.00  0.00    -0.000 C 
BRANCH  16  17
ATOM     17  C   UNL     1     -44.434  26.470 -10.209  1.00  0.00    -0.003 C 
ATOM     18  C   UNL     1     -43.890  27.891 -10.326  1.00  0.00     0.004 C 
ENDBRANCH  16  17
ENDBRANCH  15  16
ENDBRANCH  14  15
ENDBRANCH  13  14
ENDBRANCH  12  13
ENDBRANCH  11  12
ENDBRANCH   1  11
TORSDOF 14
ENDMDL
MODEL 8
REMARK VINA RESULT:    -3.496      3.045      5.701
REMARK INTER + INTRA:          -8.446
REMARK INTER:                  -5.870
REMARK INTRA:                  -2.576
REMARK UNBOUND:                -2.089
REMARK SMILES CCCCCCCCCCCCCCCC(=O)[O-]
REMARK SMILES IDX 9 1 10 2 11 3 12 4 13 5 14 6 15 7 16 8 17 9 18 10 8 11 7 12
REMARK SMILES IDX 6 13 5 14 4 15 3 16 2 17 1 18
REMARK H PARENT
REMARK Flexibility Score: inf
ROOT
ATOM      1  C   UNL     1     -43.696  24.916 -10.611  1.00  0.00     0.000 C 
ENDROOT
BRANCH   1   2
ATOM      2  C   UNL     1     -43.770  23.863  -9.499  1.00  0.00     0.000 C 
BRANCH   2   3
ATOM      3  C   UNL     1     -42.571  22.905  -9.569  1.00  0.00     0.000 C 
BRANCH   3   4
ATOM      4  C   UNL     1     -42.272  22.231  -8.221  1.00  0.00     0.000 C 
BRANCH   4   5
ATOM      5  C   UNL     1     -40.767  22.050  -7.971  1.00  0.00     0.000 C 
BRANCH   5   6
ATOM      6  C   UNL     1     -40.125  21.192  -9.068  1.00  0.00     0.006 C 
BRANCH   6   7
ATOM      7  C   UNL     1     -40.671  19.762  -9.036  1.00  0.00     0.053 C 
BRANCH   7   8
ATOM      8  C   UNL     1     -41.126  19.343 -10.398  1.00  0.00     0.041 C 
ATOM      9  O   UNL     1     -41.407  18.137 -10.628  1.00  0.00    -0.550 OA
ATOM     10  O   UNL     1     -41.192  20.273 -11.427  1.00  0.00    -0.550 OA
ENDBRANCH   7   8
ENDBRANCH   6   7
ENDBRANCH   5   6
ENDBRANCH   4   5
ENDBRANCH   3   4
ENDBRANCH   2   3
ENDBRANCH   1   2
BRANCH   1  11
ATOM     11  C   UNL     1     -43.959  26.322 -10.057  1.00  0.00     0.000 C 
BRANCH  11  12
ATOM     12  C   UNL     1     -44.256  26.273  -8.551  1.00  0.00    -0.000 C 
BRANCH  12  13
ATOM     13  C   UNL     1     -43.148  26.923  -7.707  1.00  0.00    -0.000 C 
BRANCH  13  14
ATOM     14  C   UNL     1     -42.476  25.931  -6.741  1.00  0.00    -0.000 C 
BRANCH  14  15
ATOM     15  C   UNL     1     -40.997  25.681  -7.102  1.00  0.00    -0.000 C 
BRANCH  15  16
ATOM     16  C   UNL     1     -40.562  26.353  -8.415  1.00  0.00    -0.000 C 
BRANCH  16  17
ATOM     17  C   UNL     1     -39.877  25.381  -9.385  1.00  0.00    -0.003 C 
ATOM     18  C   UNL     1     -40.138  25.776 -10.836  1.00  0.00     0.004 C 
ENDBRANCH  16  17
ENDBRANCH  15  16
ENDBRANCH  14  15
ENDBRANCH  13  14
ENDBRANCH  12  13
ENDBRANCH  11  12
ENDBRANCH   1  11
TORSDOF 14
ENDMDL
MODEL 9
REMARK VINA RESULT:    -3.474      2.438      3.663
REMARK INTER + INTRA:          -8.406
REMARK INTER:                  -6.621
REMARK INTRA:                  -1.785
REMARK UNBOUND:                -2.089
REMARK SMILES CCCCCCCCCCCCCCCC(=O)[O-]
REMARK SMILES IDX 9 1 10 2 11 3 12 4 13 5 14 6 15 7 16 8 17 9 18 10 8 11 7 12
REMARK SMILES IDX 6 13 5 14 4 15 3 16 2 17 1 18
REMARK H PARENT
REMARK Flexibility Score: inf
ROOT
ATOM      1  C   UNL     1     -42.213  25.675  -6.994  1.00  0.00     0.000 C 
ENDROOT
BRANCH   1   2
ATOM      2  C   UNL     1     -40.706  25.610  -7.269  1.00  0.00     0.000 C 
BRANCH   2   3
ATOM      3  C   UNL     1     -39.975  26.785  -6.604  1.00  0.00     0.000 C 
BRANCH   3   4
ATOM      4  C   UNL     1     -40.021  28.067  -7.451  1.00  0.00     0.000 C 
BRANCH   4   5
ATOM      5  C   UNL     1     -40.050  27.779  -8.960  1.00  0.00     0.000 C 
BRANCH   5   6
ATOM      6  C   UNL     1     -41.298  28.386  -9.612  1.00  0.00     0.006 C 
BRANCH   6   7
ATOM      7  C   UNL     1     -42.256  28.941  -8.554  1.00  0.00     0.053 C 
BRANCH   7   8
ATOM      8  C   UNL     1     -43.615  29.157  -9.139  1.00  0.00     0.041 C 
ATOM      9  O   UNL     1     -44.316  30.134  -8.764  1.00  0.00    -0.550 OA
ATOM     10  O   UNL     1     -44.129  28.255 -10.060  1.00  0.00    -0.550 OA
ENDBRANCH   7   8
ENDBRANCH   6   7
ENDBRANCH   5   6
ENDBRANCH   4   5
ENDBRANCH   3   4
ENDBRANCH   2   3
ENDBRANCH   1   2
BRANCH   1  11
ATOM     11  C   UNL     1     -43.018  25.340  -8.256  1.00  0.00     0.000 C 
BRANCH  11  12
ATOM     12  C   UNL     1     -42.218  24.421  -9.191  1.00  0.00    -0.000 C 
BRANCH  12  13
ATOM     13  C   UNL     1     -42.784  22.993  -9.245  1.00  0.00    -0.000 C 
BRANCH  13  14
ATOM     14  C   UNL     1     -42.216  22.086  -8.139  1.00  0.00    -0.000 C 
BRANCH  14  15
ATOM     15  C   UNL     1     -40.678  21.988  -8.200  1.00  0.00    -0.000 C 
BRANCH  15  16
ATOM     16  C   UNL     1     -40.165  20.581  -8.549  1.00  0.00    -0.000 C 
BRANCH  16  17
ATOM     17  C   UNL     1     -40.514  20.157  -9.982  1.00  0.00    -0.003 C 
ATOM     18  C   UNL     1     -41.039  18.724 -10.018  1.00  0.00     0.004 C 
ENDBRANCH  16  17
ENDBRANCH  15  16
ENDBRANCH  14  15
ENDBRANCH  13  14
ENDBRANCH  12  13
ENDBRANCH  11  12
ENDBRANCH   1  11
TORSDOF 14
ENDMDL
