MODEL 1
REMARK VINA RESULT:    -0.622      0.000      0.000
REMARK INTER + INTRA:          -1.630
REMARK INTER:                  -1.641
REMARK INTRA:                   0.010
REMARK UNBOUND:                 0.010
REMARK SMILES CCCCCCCCCCCCCCCCCCCCCCCCCCCCCC(=O)[O-]
REMARK SMILES IDX 16 1 17 2 18 3 19 4 20 5 21 6 22 7 23 8 24 9 25 10 26 11
REMARK SMILES IDX 27 12 28 13 29 14 30 15 31 16 32 17 15 18 14 19 13 20 12 21
REMARK SMILES IDX 11 22 10 23 9 24 8 25 7 26 6 27 5 28 4 29 3 30 2 31 1 32
REMARK H PARENT
REMARK Flexibility Score: inf
ROOT
ATOM      1  C   UNL     1      16.929  17.353   9.373  1.00  0.00     0.000 C 
ENDROOT
BRANCH   1   2
ATOM      2  C   UNL     1      16.329  16.267   8.462  1.00  0.00     0.000 C 
BRANCH   2   3
ATOM      3  C   UNL     1      17.029  16.168   7.096  1.00  0.00     0.000 C 
BRANCH   3   4
ATOM      4  C   UNL     1      16.240  16.891   5.983  1.00  0.00     0.000 C 
BRANCH   4   5
ATOM      5  C   UNL     1      17.124  17.652   4.979  1.00  0.00     0.000 C 
BRANCH   5   6
ATOM      6  C   UNL     1      16.783  17.324   3.516  1.00  0.00     0.000 C 
BRANCH   6   7
ATOM      7  C   UNL     1      16.921  18.537   2.578  1.00  0.00     0.000 C 
BRANCH   7   8
ATOM      8  C   UNL     1      15.972  18.537   1.365  1.00  0.00     0.000 C 
BRANCH   8   9
ATOM      9  C   UNL     1      15.866  19.912   0.683  1.00  0.00     0.000 C 
BRANCH   9  10
ATOM     10  C   UNL     1      17.125  20.268  -0.125  1.00  0.00     0.000 C 
BRANCH  10  11
ATOM     11  C   UNL     1      16.853  21.349  -1.186  1.00  0.00     0.000 C 
BRANCH  11  12
ATOM     12  C   UNL     1      15.403  21.857  -1.156  1.00  0.00     0.000 C 
BRANCH  12  13
ATOM     13  C   UNL     1      14.388  20.770  -1.542  1.00  0.00     0.006 C 
BRANCH  13  14
ATOM     14  C   UNL     1      13.198  20.763  -0.573  1.00  0.00     0.053 C 
BRANCH  14  15
ATOM     15  C   UNL     1      12.650  19.382  -0.360  1.00  0.00     0.041 C 
ATOM     16  O   UNL     1      13.211  18.580   0.436  1.00  0.00    -0.550 OA
ATOM     17  O   UNL     1      11.558  18.953  -1.105  1.00  0.00    -0.550 OA
ENDBRANCH  14  15
ENDBRANCH  13  14
ENDBRANCH  12  13
ENDBRANCH  11  12
ENDBRANCH  10  11
ENDBRANCH   9  10
ENDBRANCH   8   9
ENDBRANCH   7   8
ENDBRANCH   6   7
ENDBRANCH   5   6
ENDBRANCH   4   5
ENDBRANCH   3   4
ENDBRANCH   2   3
ENDBRANCH   1   2
BRANCH   1  18
ATOM     18  C   UNL     1      16.138  17.631  10.663  1.00  0.00     0.000 C 
BRANCH  18  19
ATOM     19  C   UNL     1      17.038  17.798  11.900  1.00  0.00     0.000 C 
BRANCH  19  20
ATOM     20  C   UNL     1      16.728  16.751  12.992  1.00  0.00     0.000 C 
BRANCH  20  21
ATOM     21  C   UNL     1      15.470  15.911  12.705  1.00  0.00     0.000 C 
BRANCH  21  22
ATOM     22  C   UNL     1      15.604  14.418  13.050  1.00  0.00     0.000 C 
BRANCH  22  23
ATOM     23  C   UNL     1      14.284  13.647  12.870  1.00  0.00     0.000 C 
BRANCH  23  24
ATOM     24  C   UNL     1      14.486  12.124  12.942  1.00  0.00    -0.000 C 
BRANCH  24  25
ATOM     25  C   UNL     1      15.967  11.736  13.108  1.00  0.00    -0.000 C 
BRANCH  25  26
ATOM     26  C   UNL     1      16.572  11.157  11.821  1.00  0.00    -0.000 C 
BRANCH  26  27
ATOM     27  C   UNL     1      15.810  11.590  10.557  1.00  0.00    -0.000 C 
BRANCH  27  28
ATOM     28  C   UNL     1      16.210  12.996  10.083  1.00  0.00    -0.000 C 
BRANCH  28  29
ATOM     29  C   UNL     1      15.290  13.528   8.970  1.00  0.00    -0.000 C 
BRANCH  29  30
ATOM     30  C   UNL     1      13.996  12.713   8.827  1.00  0.00    -0.000 C 
BRANCH  30  31
ATOM     31  C   UNL     1      13.549  12.562   7.364  1.00  0.00    -0.003 C 
ATOM     32  C   UNL     1      14.296  13.538   6.458  1.00  0.00     0.004 C 
ENDBRANCH  30  31
ENDBRANCH  29  30
ENDBRANCH  28  29
ENDBRANCH  27  28
ENDBRANCH  26  27
ENDBRANCH  25  26
ENDBRANCH  24  25
ENDBRANCH  23  24
ENDBRANCH  22  23
ENDBRANCH  21  22
ENDBRANCH  20  21
ENDBRANCH  19  20
ENDBRANCH  18  19
ENDBRANCH   1  18
TORSDOF 28
ENDMDL
MODEL 2
REMARK VINA RESULT:     0.132      3.613     11.066
REMARK INTER + INTRA:           0.357
REMARK INTER:                   2.221
REMARK INTRA:                  -1.864
REMARK UNBOUND:                 0.010
REMARK SMILES CCCCCCCCCCCCCCCCCCCCCCCCCCCCCC(=O)[O-]
REMARK SMILES IDX 16 1 17 2 18 3 19 4 20 5 21 6 22 7 23 8 24 9 25 10 26 11
REMARK SMILES IDX 27 12 28 13 29 14 30 15 31 16 32 17 15 18 14 19 13 20 12 21
REMARK SMILES IDX 11 22 10 23 9 24 8 25 7 26 6 27 5 28 4 29 3 30 2 31 1 32
REMARK H PARENT
REMARK Flexibility Score: inf
ROOT
ATOM      1  C   UNL     1      14.852  14.554   8.295  1.00  0.00     0.000 C 
ENDROOT
BRANCH   1   2
ATOM      2  C   UNL     1      15.849  15.461   9.040  1.00  0.00     0.000 C 
BRANCH   2   3
ATOM      3  C   UNL     1      15.207  16.750   9.580  1.00  0.00     0.000 C 
BRANCH   3   4
ATOM      4  C   UNL     1      15.373  17.937   8.606  1.00  0.00     0.000 C 
BRANCH   4   5
ATOM      5  C   UNL     1      16.808  18.485   8.522  1.00  0.00     0.000 C 
BRANCH   5   6
ATOM      6  C   UNL     1      16.966  19.852   9.209  1.00  0.00     0.000 C 
BRANCH   6   7
ATOM      7  C   UNL     1      15.827  20.165  10.197  1.00  0.00     0.000 C 
BRANCH   7   8
ATOM      8  C   UNL     1      16.178  19.966  11.683  1.00  0.00     0.000 C 
BRANCH   8   9
ATOM      9  C   UNL     1      16.998  18.690  11.941  1.00  0.00     0.000 C 
BRANCH   9  10
ATOM     10  C   UNL     1      16.272  17.698  12.864  1.00  0.00     0.000 C 
BRANCH  10  11
ATOM     11  C   UNL     1      17.100  16.427  13.125  1.00  0.00     0.000 C 
BRANCH  11  12
ATOM     12  C   UNL     1      17.124  15.479  11.916  1.00  0.00     0.000 C 
BRANCH  12  13
ATOM     13  C   UNL     1      16.923  14.008  12.313  1.00  0.00     0.006 C 
BRANCH  13  14
ATOM     14  C   UNL     1      16.256  13.220  11.178  1.00  0.00     0.053 C 
BRANCH  14  15
ATOM     15  C   UNL     1      15.135  12.354  11.673  1.00  0.00     0.041 C 
ATOM     16  O   UNL     1      15.278  11.636  12.701  1.00  0.00    -0.550 OA
ATOM     17  O   UNL     1      13.952  12.279  10.949  1.00  0.00    -0.550 OA
ENDBRANCH  14  15
ENDBRANCH  13  14
ENDBRANCH  12  13
ENDBRANCH  11  12
ENDBRANCH  10  11
ENDBRANCH   9  10
ENDBRANCH   8   9
ENDBRANCH   7   8
ENDBRANCH   6   7
ENDBRANCH   5   6
ENDBRANCH   4   5
ENDBRANCH   3   4
ENDBRANCH   2   3
ENDBRANCH   1   2
BRANCH   1  18
ATOM     18  C   UNL     1      15.206  14.269   6.825  1.00  0.00     0.000 C 
BRANCH  18  19
ATOM     19  C   UNL     1      15.690  15.519   6.067  1.00  0.00     0.000 C 
BRANCH  19  20
ATOM     20  C   UNL     1      14.519  16.433   5.643  1.00  0.00     0.000 C 
BRANCH  20  21
ATOM     21  C   UNL     1      14.236  16.415   4.130  1.00  0.00     0.000 C 
BRANCH  21  22
ATOM     22  C   UNL     1      14.867  17.578   3.346  1.00  0.00     0.000 C 
BRANCH  22  23
ATOM     23  C   UNL     1      16.366  17.754   3.650  1.00  0.00     0.000 C 
BRANCH  23  24
ATOM     24  C   UNL     1      17.122  18.415   2.485  1.00  0.00    -0.000 C 
BRANCH  24  25
ATOM     25  C   UNL     1      16.283  18.463   1.194  1.00  0.00    -0.000 C 
BRANCH  25  26
ATOM     26  C   UNL     1      16.890  19.390   0.131  1.00  0.00    -0.000 C 
BRANCH  26  27
ATOM     27  C   UNL     1      16.525  20.868   0.352  1.00  0.00    -0.000 C 
BRANCH  27  28
ATOM     28  C   UNL     1      16.210  21.598  -0.963  1.00  0.00    -0.000 C 
BRANCH  28  29
ATOM     29  C   UNL     1      14.755  21.391  -1.420  1.00  0.00    -0.000 C 
BRANCH  29  30
ATOM     30  C   UNL     1      13.846  20.874  -0.295  1.00  0.00    -0.000 C 
BRANCH  30  31
ATOM     31  C   UNL     1      12.620  20.116  -0.826  1.00  0.00    -0.003 C 
ATOM     32  C   UNL     1      12.496  18.743  -0.169  1.00  0.00     0.004 C 
ENDBRANCH  30  31
ENDBRANCH  29  30
ENDBRANCH  28  29
ENDBRANCH  27  28
ENDBRANCH  26  27
ENDBRANCH  25  26
ENDBRANCH  24  25
ENDBRANCH  23  24
ENDBRANCH  22  23
ENDBRANCH  21  22
ENDBRANCH  20  21
ENDBRANCH  19  20
ENDBRANCH  18  19
ENDBRANCH   1  18
TORSDOF 28
ENDMDL
MODEL 3
REMARK VINA RESULT:     0.592      1.225      4.000
REMARK INTER + INTRA:           1.572
REMARK INTER:                   3.295
REMARK INTRA:                  -1.723
REMARK UNBOUND:                 0.010
REMARK SMILES CCCCCCCCCCCCCCCCCCCCCCCCCCCCCC(=O)[O-]
REMARK SMILES IDX 16 1 17 2 18 3 19 4 20 5 21 6 22 7 23 8 24 9 25 10 26 11
REMARK SMILES IDX 27 12 28 13 29 14 30 15 31 16 32 17 15 18 14 19 13 20 12 21
REMARK SMILES IDX 11 22 10 23 9 24 8 25 7 26 6 27 5 28 4 29 3 30 2 31 1 32
REMARK H PARENT
REMARK Flexibility Score: inf
ROOT
ATOM      1  C   UNL     1      15.245  14.676   6.286  1.00  0.00     0.000 C 
ENDROOT
BRANCH   1   2
ATOM      2  C   UNL     1      15.785  15.476   7.486  1.00  0.00     0.000 C 
BRANCH   2   3
ATOM      3  C   UNL     1      17.124  16.174   7.194  1.00  0.00     0.000 C 
BRANCH   3   4
ATOM      4  C   UNL     1      16.959  17.373   6.234  1.00  0.00     0.000 C 
BRANCH   4   5
ATOM      5  C   UNL     1      16.903  16.982   4.746  1.00  0.00     0.000 C 
BRANCH   5   6
ATOM      6  C   UNL     1      15.528  17.248   4.111  1.00  0.00     0.000 C 
BRANCH   6   7
ATOM      7  C   UNL     1      15.623  17.881   2.711  1.00  0.00     0.000 C 
BRANCH   7   8
ATOM      8  C   UNL     1      17.048  18.237   2.250  1.00  0.00     0.000 C 
BRANCH   8   9
ATOM      9  C   UNL     1      17.121  19.575   1.495  1.00  0.00     0.000 C 
BRANCH   9  10
ATOM     10  C   UNL     1      16.380  19.535   0.149  1.00  0.00     0.000 C 
BRANCH  10  11
ATOM     11  C   UNL     1      16.617  20.804  -0.689  1.00  0.00     0.000 C 
BRANCH  11  12
ATOM     12  C   UNL     1      15.337  21.629  -0.889  1.00  0.00     0.000 C 
BRANCH  12  13
ATOM     13  C   UNL     1      14.082  20.908  -0.372  1.00  0.00     0.006 C 
BRANCH  13  14
ATOM     14  C   UNL     1      13.477  20.013  -1.462  1.00  0.00     0.053 C 
BRANCH  14  15
ATOM     15  C   UNL     1      12.248  19.295  -0.987  1.00  0.00     0.041 C 
ATOM     16  O   UNL     1      12.184  18.827   0.183  1.00  0.00    -0.550 OA
ATOM     17  O   UNL     1      11.197  19.074  -1.868  1.00  0.00    -0.550 OA
ENDBRANCH  14  15
ENDBRANCH  13  14
ENDBRANCH  12  13
ENDBRANCH  11  12
ENDBRANCH  10  11
ENDBRANCH   9  10
ENDBRANCH   8   9
ENDBRANCH   7   8
ENDBRANCH   6   7
ENDBRANCH   5   6
ENDBRANCH   4   5
ENDBRANCH   3   4
ENDBRANCH   2   3
ENDBRANCH   1   2
BRANCH   1  18
ATOM     18  C   UNL     1      14.892  13.210   6.588  1.00  0.00     0.000 C 
BRANCH  18  19
ATOM     19  C   UNL     1      13.714  13.061   7.567  1.00  0.00     0.000 C 
BRANCH  19  20
ATOM     20  C   UNL     1      14.185  12.725   8.999  1.00  0.00     0.000 C 
BRANCH  20  21
ATOM     21  C   UNL     1      15.716  12.659   9.148  1.00  0.00     0.000 C 
BRANCH  21  22
ATOM     22  C   UNL     1      16.234  12.921  10.572  1.00  0.00     0.000 C 
BRANCH  22  23
ATOM     23  C   UNL     1      15.111  12.894  11.625  1.00  0.00     0.000 C 
BRANCH  23  24
ATOM     24  C   UNL     1      15.160  14.114  12.559  1.00  0.00    -0.000 C 
BRANCH  24  25
ATOM     25  C   UNL     1      16.571  14.362  13.125  1.00  0.00    -0.000 C 
BRANCH  25  26
ATOM     26  C   UNL     1      16.960  15.847  13.109  1.00  0.00    -0.000 C 
BRANCH  26  27
ATOM     27  C   UNL     1      15.740  16.781  13.028  1.00  0.00    -0.000 C 
BRANCH  27  28
ATOM     28  C   UNL     1      15.785  17.702  11.798  1.00  0.00    -0.000 C 
BRANCH  28  29
ATOM     29  C   UNL     1      16.170  19.148  12.158  1.00  0.00    -0.000 C 
BRANCH  29  30
ATOM     30  C   UNL     1      15.900  20.138  11.014  1.00  0.00    -0.000 C 
BRANCH  30  31
ATOM     31  C   UNL     1      15.800  19.448   9.645  1.00  0.00    -0.003 C 
ATOM     32  C   UNL     1      16.949  19.870   8.732  1.00  0.00     0.004 C 
ENDBRANCH  30  31
ENDBRANCH  29  30
ENDBRANCH  28  29
ENDBRANCH  27  28
ENDBRANCH  26  27
ENDBRANCH  25  26
ENDBRANCH  24  25
ENDBRANCH  23  24
ENDBRANCH  22  23
ENDBRANCH  21  22
ENDBRANCH  20  21
ENDBRANCH  19  20
ENDBRANCH  18  19
ENDBRANCH   1  18
TORSDOF 28
ENDMDL
MODEL 4
REMARK VINA RESULT:     1.009      3.437     11.540
REMARK INTER + INTRA:           2.672
REMARK INTER:                   4.307
REMARK INTRA:                  -1.635
REMARK UNBOUND:                 0.010
REMARK SMILES CCCCCCCCCCCCCCCCCCCCCCCCCCCCCC(=O)[O-]
REMARK SMILES IDX 16 1 17 2 18 3 19 4 20 5 21 6 22 7 23 8 24 9 25 10 26 11
REMARK SMILES IDX 27 12 28 13 29 14 30 15 31 16 32 17 15 18 14 19 13 20 12 21
REMARK SMILES IDX 11 22 10 23 9 24 8 25 7 26 6 27 5 28 4 29 3 30 2 31 1 32
REMARK H PARENT
REMARK Flexibility Score: inf
ROOT
ATOM      1  C   UNL     1      13.514  14.198   5.607  1.00  0.00     0.000 C 
ENDROOT
BRANCH   1   2
ATOM      2  C   UNL     1      14.310  14.263   6.923  1.00  0.00     0.000 C 
BRANCH   2   3
ATOM      3  C   UNL     1      15.404  15.345   6.916  1.00  0.00     0.000 C 
BRANCH   3   4
ATOM      4  C   UNL     1      15.830  15.752   8.344  1.00  0.00     0.000 C 
BRANCH   4   5
ATOM      5  C   UNL     1      15.242  17.093   8.817  1.00  0.00     0.000 C 
BRANCH   5   6
ATOM      6  C   UNL     1      16.203  18.274   8.606  1.00  0.00     0.000 C 
BRANCH   6   7
ATOM      7  C   UNL     1      15.865  19.492   9.486  1.00  0.00     0.000 C 
BRANCH   7   8
ATOM      8  C   UNL     1      15.177  19.161  10.822  1.00  0.00     0.000 C 
BRANCH   8   9
ATOM      9  C   UNL     1      16.039  19.513  12.047  1.00  0.00     0.000 C 
BRANCH   9  10
ATOM     10  C   UNL     1      16.130  18.359  13.058  1.00  0.00     0.000 C 
BRANCH  10  11
ATOM     11  C   UNL     1      16.935  17.165  12.513  1.00  0.00     0.000 C 
BRANCH  11  12
ATOM     12  C   UNL     1      16.214  15.824  12.715  1.00  0.00     0.000 C 
BRANCH  12  13
ATOM     13  C   UNL     1      16.586  14.785  11.645  1.00  0.00     0.006 C 
BRANCH  13  14
ATOM     14  C   UNL     1      16.332  13.360  12.153  1.00  0.00     0.053 C 
BRANCH  14  15
ATOM     15  C   UNL     1      16.279  12.361  11.035  1.00  0.00     0.041 C 
ATOM     16  O   UNL     1      16.821  11.228  11.153  1.00  0.00    -0.550 OA
ATOM     17  O   UNL     1      15.694  12.715   9.824  1.00  0.00    -0.550 OA
ENDBRANCH  14  15
ENDBRANCH  13  14
ENDBRANCH  12  13
ENDBRANCH  11  12
ENDBRANCH  10  11
ENDBRANCH   9  10
ENDBRANCH   8   9
ENDBRANCH   7   8
ENDBRANCH   6   7
ENDBRANCH   5   6
ENDBRANCH   4   5
ENDBRANCH   3   4
ENDBRANCH   2   3
ENDBRANCH   1   2
BRANCH   1  18
ATOM     18  C   UNL     1      13.058  15.560   5.055  1.00  0.00     0.000 C 
BRANCH  18  19
ATOM     19  C   UNL     1      14.231  16.489   4.694  1.00  0.00     0.000 C 
BRANCH  19  20
ATOM     20  C   UNL     1      14.168  16.964   3.226  1.00  0.00     0.000 C 
BRANCH  20  21
ATOM     21  C   UNL     1      15.234  18.016   2.869  1.00  0.00     0.000 C 
BRANCH  21  22
ATOM     22  C   UNL     1      15.794  17.902   1.442  1.00  0.00     0.000 C 
BRANCH  22  23
ATOM     23  C   UNL     1      17.071  18.737   1.237  1.00  0.00     0.000 C 
BRANCH  23  24
ATOM     24  C   UNL     1      16.956  19.690   0.035  1.00  0.00    -0.000 C 
BRANCH  24  25
ATOM     25  C   UNL     1      17.121  21.167   0.441  1.00  0.00    -0.000 C 
BRANCH  25  26
ATOM     26  C   UNL     1      16.027  22.067  -0.153  1.00  0.00    -0.000 C 
BRANCH  26  27
ATOM     27  C   UNL     1      15.561  21.599  -1.543  1.00  0.00    -0.000 C 
BRANCH  27  28
ATOM     28  C   UNL     1      14.250  20.800  -1.485  1.00  0.00    -0.000 C 
BRANCH  28  29
ATOM     29  C   UNL     1      13.728  20.626  -0.048  1.00  0.00    -0.000 C 
BRANCH  29  30
ATOM     30  C   UNL     1      12.867  19.365   0.125  1.00  0.00    -0.000 C 
BRANCH  30  31
ATOM     31  C   UNL     1      12.505  18.707  -1.215  1.00  0.00    -0.003 C 
ATOM     32  C   UNL     1      11.026  18.900  -1.540  1.00  0.00     0.004 C 
ENDBRANCH  30  31
ENDBRANCH  29  30
ENDBRANCH  28  29
ENDBRANCH  27  28
ENDBRANCH  26  27
ENDBRANCH  25  26
ENDBRANCH  24  25
ENDBRANCH  23  24
ENDBRANCH  22  23
ENDBRANCH  21  22
ENDBRANCH  20  21
ENDBRANCH  19  20
ENDBRANCH  18  19
ENDBRANCH   1  18
TORSDOF 28
ENDMDL
MODEL 5
REMARK VINA RESULT:     1.245      1.296      3.564
REMARK INTER + INTRA:           3.293
REMARK INTER:                   4.494
REMARK INTRA:                  -1.202
REMARK UNBOUND:                 0.010
REMARK SMILES CCCCCCCCCCCCCCCCCCCCCCCCCCCCCC(=O)[O-]
REMARK SMILES IDX 16 1 17 2 18 3 19 4 20 5 21 6 22 7 23 8 24 9 25 10 26 11
REMARK SMILES IDX 27 12 28 13 29 14 30 15 31 16 32 17 15 18 14 19 13 20 12 21
REMARK SMILES IDX 11 22 10 23 9 24 8 25 7 26 6 27 5 28 4 29 3 30 2 31 1 32
REMARK H PARENT
REMARK Flexibility Score: inf
ROOT
ATOM      1  C   UNL     1      14.149  15.913   5.050  1.00  0.00     0.000 C 
ENDROOT
BRANCH   1   2
ATOM      2  C   UNL     1      14.034  17.248   4.292  1.00  0.00     0.000 C 
BRANCH   2   3
ATOM      3  C   UNL     1      14.900  17.300   3.023  1.00  0.00     0.000 C 
BRANCH   3   4
ATOM      4  C   UNL     1      16.360  17.705   3.329  1.00  0.00     0.000 C 
BRANCH   4   5
ATOM      5  C   UNL     1      17.095  18.351   2.142  1.00  0.00     0.000 C 
BRANCH   5   6
ATOM      6  C   UNL     1      16.154  18.706   0.979  1.00  0.00     0.000 C 
BRANCH   6   7
ATOM      7  C   UNL     1      16.798  19.650  -0.052  1.00  0.00     0.000 C 
BRANCH   7   8
ATOM      8  C   UNL     1      17.103  21.069   0.463  1.00  0.00     0.000 C 
BRANCH   8   9
ATOM      9  C   UNL     1      17.125  22.124  -0.656  1.00  0.00     0.000 C 
BRANCH   9  10
ATOM     10  C   UNL     1      16.968  21.505  -2.054  1.00  0.00     0.000 C 
BRANCH  10  11
ATOM     11  C   UNL     1      15.685  21.976  -2.763  1.00  0.00     0.000 C 
BRANCH  11  12
ATOM     12  C   UNL     1      14.469  22.010  -1.824  1.00  0.00     0.000 C 
BRANCH  12  13
ATOM     13  C   UNL     1      14.186  20.647  -1.174  1.00  0.00     0.006 C 
BRANCH  13  14
ATOM     14  C   UNL     1      12.685  20.466  -0.911  1.00  0.00     0.053 C 
BRANCH  14  15
ATOM     15  C   UNL     1      12.356  19.083  -0.430  1.00  0.00     0.041 C 
ATOM     16  O   UNL     1      13.082  18.507   0.426  1.00  0.00    -0.550 OA
ATOM     17  O   UNL     1      11.286  18.396  -0.990  1.00  0.00    -0.550 OA
ENDBRANCH  14  15
ENDBRANCH  13  14
ENDBRANCH  12  13
ENDBRANCH  11  12
ENDBRANCH  10  11
ENDBRANCH   9  10
ENDBRANCH   8   9
ENDBRANCH   7   8
ENDBRANCH   6   7
ENDBRANCH   5   6
ENDBRANCH   4   5
ENDBRANCH   3   4
ENDBRANCH   2   3
ENDBRANCH   1   2
BRANCH   1  18
ATOM     18  C   UNL     1      15.050  15.947   6.296  1.00  0.00     0.000 C 
BRANCH  18  19
ATOM     19  C   UNL     1      16.473  16.451   5.998  1.00  0.00     0.000 C 
BRANCH  19  20
ATOM     20  C   UNL     1      16.817  17.730   6.793  1.00  0.00     0.000 C 
BRANCH  20  21
ATOM     21  C   UNL     1      15.984  17.905   8.076  1.00  0.00     0.000 C 
BRANCH  21  22
ATOM     22  C   UNL     1      16.763  17.676   9.382  1.00  0.00     0.000 C 
BRANCH  22  23
ATOM     23  C   UNL     1      15.842  17.556  10.609  1.00  0.00     0.000 C 
BRANCH  23  24
ATOM     24  C   UNL     1      16.630  17.314  11.907  1.00  0.00    -0.000 C 
BRANCH  24  25
ATOM     25  C   UNL     1      15.731  16.822  13.056  1.00  0.00    -0.000 C 
BRANCH  25  26
ATOM     26  C   UNL     1      15.611  15.292  13.097  1.00  0.00    -0.000 C 
BRANCH  26  27
ATOM     27  C   UNL     1      16.414  14.602  11.980  1.00  0.00    -0.000 C 
BRANCH  27  28
ATOM     28  C   UNL     1      15.554  13.639  11.147  1.00  0.00    -0.000 C 
BRANCH  28  29
ATOM     29  C   UNL     1      15.408  14.092   9.684  1.00  0.00    -0.000 C 
BRANCH  29  30
ATOM     30  C   UNL     1      15.044  12.940   8.736  1.00  0.00    -0.000 C 
BRANCH  30  31
ATOM     31  C   UNL     1      13.714  13.173   8.003  1.00  0.00    -0.003 C 
ATOM     32  C   UNL     1      13.629  12.324   6.736  1.00  0.00     0.004 C 
ENDBRANCH  30  31
ENDBRANCH  29  30
ENDBRANCH  28  29
ENDBRANCH  27  28
ENDBRANCH  26  27
ENDBRANCH  25  26
ENDBRANCH  24  25
ENDBRANCH  23  24
ENDBRANCH  22  23
ENDBRANCH  21  22
ENDBRANCH  20  21
ENDBRANCH  19  20
ENDBRANCH  18  19
ENDBRANCH   1  18
TORSDOF 28
ENDMDL
MODEL 6
REMARK VINA RESULT:     1.433      3.695      9.881
REMARK INTER + INTRA:           3.789
REMARK INTER:                   5.197
REMARK INTRA:                  -1.407
REMARK UNBOUND:                 0.010
REMARK SMILES CCCCCCCCCCCCCCCCCCCCCCCCCCCCCC(=O)[O-]
REMARK SMILES IDX 16 1 17 2 18 3 19 4 20 5 21 6 22 7 23 8 24 9 25 10 26 11
REMARK SMILES IDX 27 12 28 13 29 14 30 15 31 16 32 17 15 18 14 19 13 20 12 21
REMARK SMILES IDX 11 22 10 23 9 24 8 25 7 26 6 27 5 28 4 29 3 30 2 31 1 32
REMARK H PARENT
REMARK Flexibility Score: inf
ROOT
ATOM      1  C   UNL     1      13.853  12.719   8.414  1.00  0.00     0.000 C 
ENDROOT
BRANCH   1   2
ATOM      2  C   UNL     1      13.342  12.003   9.678  1.00  0.00     0.000 C 
BRANCH   2   3
ATOM      3  C   UNL     1      13.478  12.855  10.952  1.00  0.00     0.000 C 
BRANCH   3   4
ATOM      4  C   UNL     1      14.910  13.402  11.138  1.00  0.00     0.000 C 
BRANCH   4   5
ATOM      5  C   UNL     1      15.312  13.624  12.606  1.00  0.00     0.000 C 
BRANCH   5   6
ATOM      6  C   UNL     1      16.273  14.810  12.789  1.00  0.00     0.000 C 
BRANCH   6   7
ATOM      7  C   UNL     1      16.641  15.499  11.462  1.00  0.00     0.000 C 
BRANCH   7   8
ATOM      8  C   UNL     1      16.881  17.017  11.558  1.00  0.00     0.000 C 
BRANCH   8   9
ATOM      9  C   UNL     1      16.976  17.520  13.009  1.00  0.00     0.000 C 
BRANCH   9  10
ATOM     10  C   UNL     1      16.744  19.035  13.125  1.00  0.00     0.000 C 
BRANCH  10  11
ATOM     11  C   UNL     1      15.811  19.571  12.024  1.00  0.00     0.000 C 
BRANCH  11  12
ATOM     12  C   UNL     1      16.473  20.662  11.167  1.00  0.00     0.000 C 
BRANCH  12  13
ATOM     13  C   UNL     1      15.747  22.012  11.265  1.00  0.00     0.006 C 
BRANCH  13  14
ATOM     14  C   UNL     1      14.819  22.049  12.486  1.00  0.00     0.053 C 
BRANCH  14  15
ATOM     15  C   UNL     1      13.420  21.626  12.147  1.00  0.00     0.041 C 
ATOM     16  O   UNL     1      12.616  21.267  13.050  1.00  0.00    -0.550 OA
ATOM     17  O   UNL     1      13.027  21.553  10.815  1.00  0.00    -0.550 OA
ENDBRANCH  14  15
ENDBRANCH  13  14
ENDBRANCH  12  13
ENDBRANCH  11  12
ENDBRANCH  10  11
ENDBRANCH   9  10
ENDBRANCH   8   9
ENDBRANCH   7   8
ENDBRANCH   6   7
ENDBRANCH   5   6
ENDBRANCH   4   5
ENDBRANCH   3   4
ENDBRANCH   2   3
ENDBRANCH   1   2
BRANCH   1  18
ATOM     18  C   UNL     1      15.107  12.097   7.776  1.00  0.00     0.000 C 
BRANCH  18  19
ATOM     19  C   UNL     1      15.492  12.754   6.437  1.00  0.00     0.000 C 
BRANCH  19  20
ATOM     20  C   UNL     1      16.798  13.571   6.544  1.00  0.00     0.000 C 
BRANCH  20  21
ATOM     21  C   UNL     1      16.743  14.693   7.597  1.00  0.00     0.000 C 
BRANCH  21  22
ATOM     22  C   UNL     1      15.332  15.232   7.885  1.00  0.00     0.000 C 
BRANCH  22  23
ATOM     23  C   UNL     1      15.138  16.679   7.398  1.00  0.00     0.000 C 
BRANCH  23  24
ATOM     24  C   UNL     1      15.500  16.846   5.913  1.00  0.00    -0.000 C 
BRANCH  24  25
ATOM     25  C   UNL     1      14.494  16.145   4.982  1.00  0.00    -0.000 C 
BRANCH  25  26
ATOM     26  C   UNL     1      13.892  17.099   3.939  1.00  0.00    -0.000 C 
BRANCH  26  27
ATOM     27  C   UNL     1      14.672  17.100   2.613  1.00  0.00    -0.000 C 
BRANCH  27  28
ATOM     28  C   UNL     1      13.795  17.500   1.416  1.00  0.00    -0.000 C 
BRANCH  28  29
ATOM     29  C   UNL     1      14.304  18.769   0.709  1.00  0.00    -0.000 C 
BRANCH  29  30
ATOM     30  C   UNL     1      13.249  19.402  -0.211  1.00  0.00    -0.000 C 
BRANCH  30  31
ATOM     31  C   UNL     1      11.963  18.566  -0.301  1.00  0.00    -0.003 C 
ATOM     32  C   UNL     1      11.412  18.557  -1.725  1.00  0.00     0.004 C 
ENDBRANCH  30  31
ENDBRANCH  29  30
ENDBRANCH  28  29
ENDBRANCH  27  28
ENDBRANCH  26  27
ENDBRANCH  25  26
ENDBRANCH  24  25
ENDBRANCH  23  24
ENDBRANCH  22  23
ENDBRANCH  21  22
ENDBRANCH  20  21
ENDBRANCH  19  20
ENDBRANCH  18  19
ENDBRANCH   1  18
TORSDOF 28
ENDMDL
