MODEL 1
REMARK VINA RESULT:    -3.159      0.000      0.000
REMARK INTER + INTRA:          -5.917
REMARK INTER:                  -5.006
REMARK INTRA:                  -0.911
REMARK UNBOUND:                -0.911
REMARK SMILES CCCCCCCCCCCC(=O)[O-]
REMARK SMILES IDX 7 1 8 2 9 3 10 4 11 5 12 6 13 7 14 8 6 9 5 10 4 11 3 12 2 13
REMARK SMILES IDX 1 14
REMARK H PARENT
REMARK Flexibility Score: inf
ROOT
ATOM      1  C   UNL     1      15.925  -7.143   6.547  1.00  0.00     0.000 C 
ENDROOT
BRANCH   1   2
ATOM      2  C   UNL     1      16.183  -6.282   5.305  1.00  0.00     0.000 C 
BRANCH   2   3
ATOM      3  C   UNL     1      17.579  -6.548   4.730  1.00  0.00     0.000 C 
BRANCH   3   4
ATOM      4  C   UNL     1      18.284  -7.675   5.494  1.00  0.00     0.006 C 
BRANCH   4   5
ATOM      5  C   UNL     1      19.529  -7.153   6.218  1.00  0.00     0.053 C 
BRANCH   5   6
ATOM      6  C   UNL     1      19.428  -7.414   7.687  1.00  0.00     0.041 C 
ATOM      7  O   UNL     1      19.871  -8.488   8.172  1.00  0.00    -0.550 OA
ATOM      8  O   UNL     1      18.889  -6.449   8.528  1.00  0.00    -0.550 OA
ENDBRANCH   5   6
ENDBRANCH   4   5
ENDBRANCH   3   4
ENDBRANCH   2   3
ENDBRANCH   1   2
BRANCH   1   9
ATOM      9  C   UNL     1      14.571  -7.863   6.448  1.00  0.00     0.000 C 
BRANCH   9  10
ATOM     10  C   UNL     1      14.483  -8.779   5.210  1.00  0.00    -0.000 C 
BRANCH  10  11
ATOM     11  C   UNL     1      13.260  -8.500   4.316  1.00  0.00    -0.000 C 
BRANCH  11  12
ATOM     12  C   UNL     1      12.779  -7.039   4.316  1.00  0.00    -0.000 C 
BRANCH  12  13
ATOM     13  C   UNL     1      11.289  -6.903   4.663  1.00  0.00    -0.003 C 
ATOM     14  C   UNL     1      11.040  -7.207   6.136  1.00  0.00     0.004 C 
ENDBRANCH  12  13
ENDBRANCH  11  12
ENDBRANCH  10  11
ENDBRANCH   9  10
ENDBRANCH   1   9
TORSDOF 10
ENDMDL
MODEL 2
REMARK VINA RESULT:    -3.123      4.048      7.014
REMARK INTER + INTRA:          -5.860
REMARK INTER:                  -5.096
REMARK INTRA:                  -0.764
REMARK UNBOUND:                -0.911
REMARK SMILES CCCCCCCCCCCC(=O)[O-]
REMARK SMILES IDX 7 1 8 2 9 3 10 4 11 5 12 6 13 7 14 8 6 9 5 10 4 11 3 12 2 13
REMARK SMILES IDX 1 14
REMARK H PARENT
REMARK Flexibility Score: inf
ROOT
ATOM      1  C   UNL     1      15.759  -7.692   6.200  1.00  0.00     0.000 C 
ENDROOT
BRANCH   1   2
ATOM      2  C   UNL     1      14.239  -7.810   6.362  1.00  0.00     0.000 C 
BRANCH   2   3
ATOM      3  C   UNL     1      13.569  -8.165   5.029  1.00  0.00     0.000 C 
BRANCH   3   4
ATOM      4  C   UNL     1      12.489  -7.141   4.665  1.00  0.00     0.006 C 
BRANCH   4   5
ATOM      5  C   UNL     1      11.379  -7.113   5.719  1.00  0.00     0.053 C 
BRANCH   5   6
ATOM      6  C   UNL     1      10.040  -6.974   5.068  1.00  0.00     0.041 C 
ATOM      7  O   UNL     1       9.468  -5.853   5.026  1.00  0.00    -0.550 OA
ATOM      8  O   UNL     1       9.444  -8.074   4.463  1.00  0.00    -0.550 OA
ENDBRANCH   5   6
ENDBRANCH   4   5
ENDBRANCH   3   4
ENDBRANCH   2   3
ENDBRANCH   1   2
BRANCH   1   9
ATOM      9  C   UNL     1      16.143  -6.349   5.561  1.00  0.00     0.000 C 
BRANCH   9  10
ATOM     10  C   UNL     1      17.211  -6.509   4.459  1.00  0.00    -0.000 C 
BRANCH  10  11
ATOM     11  C   UNL     1      18.396  -7.404   4.866  1.00  0.00    -0.000 C 
BRANCH  11  12
ATOM     12  C   UNL     1      19.348  -6.784   5.904  1.00  0.00    -0.000 C 
BRANCH  12  13
ATOM     13  C   UNL     1      19.283  -7.488   7.266  1.00  0.00    -0.003 C 
ATOM     14  C   UNL     1      19.010  -6.490   8.387  1.00  0.00     0.004 C 
ENDBRANCH  12  13
ENDBRANCH  11  12
ENDBRANCH  10  11
ENDBRANCH   9  10
ENDBRANCH   1   9
TORSDOF 10
ENDMDL
MODEL 3
REMARK VINA RESULT:    -3.071      3.954      7.191
REMARK INTER + INTRA:          -5.777
REMARK INTER:                  -5.226
REMARK INTRA:                  -0.551
REMARK UNBOUND:                -0.911
REMARK SMILES CCCCCCCCCCCC(=O)[O-]
REMARK SMILES IDX 7 1 8 2 9 3 10 4 11 5 12 6 13 7 14 8 6 9 5 10 4 11 3 12 2 13
REMARK SMILES IDX 1 14
REMARK H PARENT
REMARK Flexibility Score: inf
ROOT
ATOM      1  C   UNL     1      16.383  -6.760   6.286  1.00  0.00     0.000 C 
ENDROOT
BRANCH   1   2
ATOM      2  C   UNL     1      15.110  -7.581   6.523  1.00  0.00     0.000 C 
BRANCH   2   3
ATOM      3  C   UNL     1      14.134  -7.434   5.349  1.00  0.00     0.000 C 
BRANCH   3   4
ATOM      4  C   UNL     1      12.682  -7.580   5.818  1.00  0.00     0.006 C 
BRANCH   4   5
ATOM      5  C   UNL     1      11.705  -7.117   4.733  1.00  0.00     0.053 C 
BRANCH   5   6
ATOM      6  C   UNL     1      10.344  -6.899   5.313  1.00  0.00     0.041 C 
ATOM      7  O   UNL     1       9.888  -7.693   6.177  1.00  0.00    -0.550 OA
ATOM      8  O   UNL     1       9.597  -5.789   4.935  1.00  0.00    -0.550 OA
ENDBRANCH   5   6
ENDBRANCH   4   5
ENDBRANCH   3   4
ENDBRANCH   2   3
ENDBRANCH   1   2
BRANCH   1   9
ATOM      9  C   UNL     1      16.380  -6.125   4.887  1.00  0.00     0.000 C 
BRANCH   9  10
ATOM     10  C   UNL     1      17.702  -6.367   4.131  1.00  0.00    -0.000 C 
BRANCH  10  11
ATOM     11  C   UNL     1      18.763  -7.119   4.958  1.00  0.00    -0.000 C 
BRANCH  11  12
ATOM     12  C   UNL     1      19.954  -6.261   5.414  1.00  0.00    -0.000 C 
BRANCH  12  13
ATOM     13  C   UNL     1      20.861  -5.835   4.251  1.00  0.00    -0.003 C 
ATOM     14  C   UNL     1      21.162  -4.340   4.308  1.00  0.00     0.004 C 
ENDBRANCH  12  13
ENDBRANCH  11  12
ENDBRANCH  10  11
ENDBRANCH   9  10
ENDBRANCH   1   9
TORSDOF 10
ENDMDL
MODEL 4
REMARK VINA RESULT:    -2.904      1.752      2.061
REMARK INTER + INTRA:          -5.513
REMARK INTER:                  -4.890
REMARK INTRA:                  -0.623
REMARK UNBOUND:                -0.911
REMARK SMILES CCCCCCCCCCCC(=O)[O-]
REMARK SMILES IDX 7 1 8 2 9 3 10 4 11 5 12 6 13 7 14 8 6 9 5 10 4 11 3 12 2 13
REMARK SMILES IDX 1 14
REMARK H PARENT
REMARK Flexibility Score: inf
ROOT
ATOM      1  C   UNL     1      15.718  -7.439   6.483  1.00  0.00     0.000 C 
ENDROOT
BRANCH   1   2
ATOM      2  C   UNL     1      16.205  -6.323   5.550  1.00  0.00     0.000 C 
BRANCH   2   3
ATOM      3  C   UNL     1      17.426  -6.776   4.740  1.00  0.00     0.000 C 
BRANCH   3   4
ATOM      4  C   UNL     1      18.370  -7.628   5.595  1.00  0.00     0.006 C 
BRANCH   4   5
ATOM      5  C   UNL     1      19.422  -6.756   6.287  1.00  0.00     0.053 C 
BRANCH   5   6
ATOM      6  C   UNL     1      20.468  -6.322   5.311  1.00  0.00     0.041 C 
ATOM      7  O   UNL     1      20.922  -7.136   4.465  1.00  0.00    -0.550 OA
ATOM      8  O   UNL     1      20.907  -5.003   5.303  1.00  0.00    -0.550 OA
ENDBRANCH   5   6
ENDBRANCH   4   5
ENDBRANCH   3   4
ENDBRANCH   2   3
ENDBRANCH   1   2
BRANCH   1   9
ATOM      9  C   UNL     1      14.249  -7.790   6.203  1.00  0.00     0.000 C 
BRANCH   9  10
ATOM     10  C   UNL     1      13.838  -7.476   4.750  1.00  0.00    -0.000 C 
BRANCH  10  11
ATOM     11  C   UNL     1      12.376  -7.011   4.604  1.00  0.00    -0.000 C 
BRANCH  11  12
ATOM     12  C   UNL     1      11.499  -7.238   5.847  1.00  0.00    -0.000 C 
BRANCH  12  13
ATOM     13  C   UNL     1       9.997  -7.151   5.539  1.00  0.00    -0.003 C 
ATOM     14  C   UNL     1       9.712  -6.067   4.504  1.00  0.00     0.004 C 
ENDBRANCH  12  13
ENDBRANCH  11  12
ENDBRANCH  10  11
ENDBRANCH   9  10
ENDBRANCH   1   9
TORSDOF 10
ENDMDL
MODEL 5
REMARK VINA RESULT:    -2.832      1.981      3.087
REMARK INTER + INTRA:          -5.399
REMARK INTER:                  -5.016
REMARK INTRA:                  -0.383
REMARK UNBOUND:                -0.911
REMARK SMILES CCCCCCCCCCCC(=O)[O-]
REMARK SMILES IDX 7 1 8 2 9 3 10 4 11 5 12 6 13 7 14 8 6 9 5 10 4 11 3 12 2 13
REMARK SMILES IDX 1 14
REMARK H PARENT
REMARK Flexibility Score: inf
ROOT
ATOM      1  C   UNL     1      13.164  -7.667   4.753  1.00  0.00     0.000 C 
ENDROOT
BRANCH   1   2
ATOM      2  C   UNL     1      14.599  -7.165   4.955  1.00  0.00     0.000 C 
BRANCH   2   3
ATOM      3  C   UNL     1      15.106  -7.497   6.363  1.00  0.00     0.000 C 
BRANCH   3   4
ATOM      4  C   UNL     1      16.381  -6.711   6.689  1.00  0.00     0.006 C 
BRANCH   4   5
ATOM      5  C   UNL     1      17.631  -7.505   6.300  1.00  0.00     0.053 C 
BRANCH   5   6
ATOM      6  C   UNL     1      18.855  -6.877   6.886  1.00  0.00     0.041 C 
ATOM      7  O   UNL     1      19.785  -6.481   6.136  1.00  0.00    -0.550 OA
ATOM      8  O   UNL     1      18.948  -6.684   8.259  1.00  0.00    -0.550 OA
ENDBRANCH   5   6
ENDBRANCH   4   5
ENDBRANCH   3   4
ENDBRANCH   2   3
ENDBRANCH   1   2
BRANCH   1   9
ATOM      9  C   UNL     1      12.322  -7.456   6.022  1.00  0.00     0.000 C 
BRANCH   9  10
ATOM     10  C   UNL     1      10.850  -7.125   5.699  1.00  0.00    -0.000 C 
BRANCH  10  11
ATOM     11  C   UNL     1       9.963  -8.369   5.499  1.00  0.00    -0.000 C 
BRANCH  11  12
ATOM     12  C   UNL     1       8.452  -8.086   5.467  1.00  0.00    -0.000 C 
BRANCH  12  13
ATOM     13  C   UNL     1       7.644  -9.070   6.325  1.00  0.00    -0.003 C 
ATOM     14  C   UNL     1       8.332  -9.324   7.663  1.00  0.00     0.004 C 
ENDBRANCH  12  13
ENDBRANCH  11  12
ENDBRANCH  10  11
ENDBRANCH   9  10
ENDBRANCH   1   9
TORSDOF 10
ENDMDL
MODEL 6
REMARK VINA RESULT:    -2.805      3.309      5.615
REMARK INTER + INTRA:          -5.356
REMARK INTER:                  -4.555
REMARK INTRA:                  -0.801
REMARK UNBOUND:                -0.911
REMARK SMILES CCCCCCCCCCCC(=O)[O-]
REMARK SMILES IDX 7 1 8 2 9 3 10 4 11 5 12 6 13 7 14 8 6 9 5 10 4 11 3 12 2 13
REMARK SMILES IDX 1 14
REMARK H PARENT
REMARK Flexibility Score: inf
ROOT
ATOM      1  C   UNL     1      10.272  -7.731   6.157  1.00  0.00     0.000 C 
ENDROOT
BRANCH   1   2
ATOM      2  C   UNL     1      10.394  -6.728   5.004  1.00  0.00     0.000 C 
BRANCH   2   3
ATOM      3  C   UNL     1      11.786  -6.791   4.364  1.00  0.00     0.000 C 
BRANCH   3   4
ATOM      4  C   UNL     1      12.715  -7.718   5.154  1.00  0.00     0.006 C 
BRANCH   4   5
ATOM      5  C   UNL     1      14.176  -7.281   5.016  1.00  0.00     0.053 C 
BRANCH   5   6
ATOM      6  C   UNL     1      14.930  -7.569   6.275  1.00  0.00     0.041 C 
ATOM      7  O   UNL     1      14.324  -7.986   7.297  1.00  0.00    -0.550 OA
ATOM      8  O   UNL     1      16.312  -7.424   6.306  1.00  0.00    -0.550 OA
ENDBRANCH   5   6
ENDBRANCH   4   5
ENDBRANCH   3   4
ENDBRANCH   2   3
ENDBRANCH   1   2
BRANCH   1   9
ATOM      9  C   UNL     1       9.249  -8.829   5.828  1.00  0.00     0.000 C 
BRANCH   9  10
ATOM     10  C   UNL     1       8.466  -9.293   7.074  1.00  0.00    -0.000 C 
BRANCH  10  11
ATOM     11  C   UNL     1       6.957  -8.993   7.007  1.00  0.00    -0.000 C 
BRANCH  11  12
ATOM     12  C   UNL     1       6.429  -8.644   5.605  1.00  0.00    -0.000 C 
BRANCH  12  13
ATOM     13  C   UNL     1       5.951  -7.189   5.495  1.00  0.00    -0.003 C 
ATOM     14  C   UNL     1       6.650  -6.468   4.347  1.00  0.00     0.004 C 
ENDBRANCH  12  13
ENDBRANCH  11  12
ENDBRANCH  10  11
ENDBRANCH   9  10
ENDBRANCH   1   9
TORSDOF 10
ENDMDL
MODEL 7
REMARK VINA RESULT:    -2.774      2.514      4.374
REMARK INTER + INTRA:          -5.307
REMARK INTER:                  -4.790
REMARK INTRA:                  -0.517
REMARK UNBOUND:                -0.911
REMARK SMILES CCCCCCCCCCCC(=O)[O-]
REMARK SMILES IDX 7 1 8 2 9 3 10 4 11 5 12 6 13 7 14 8 6 9 5 10 4 11 3 12 2 13
REMARK SMILES IDX 1 14
REMARK H PARENT
REMARK Flexibility Score: inf
ROOT
ATOM      1  C   UNL     1      12.213  -6.885   4.193  1.00  0.00     0.000 C 
ENDROOT
BRANCH   1   2
ATOM      2  C   UNL     1      12.935  -7.529   5.382  1.00  0.00     0.000 C 
BRANCH   2   3
ATOM      3  C   UNL     1      13.816  -8.698   4.924  1.00  0.00     0.000 C 
BRANCH   3   4
ATOM      4  C   UNL     1      15.054  -8.838   5.816  1.00  0.00     0.006 C 
BRANCH   4   5
ATOM      5  C   UNL     1      15.182  -7.647   6.770  1.00  0.00     0.053 C 
BRANCH   5   6
ATOM      6  C   UNL     1      16.319  -6.766   6.360  1.00  0.00     0.041 C 
ATOM      7  O   UNL     1      16.213  -6.025   5.348  1.00  0.00    -0.550 OA
ATOM      8  O   UNL     1      17.479  -6.728   7.124  1.00  0.00    -0.550 OA
ENDBRANCH   5   6
ENDBRANCH   4   5
ENDBRANCH   3   4
ENDBRANCH   2   3
ENDBRANCH   1   2
BRANCH   1   9
ATOM      9  C   UNL     1      10.708  -6.748   4.469  1.00  0.00     0.000 C 
BRANCH   9  10
ATOM     10  C   UNL     1      10.286  -7.455   5.774  1.00  0.00    -0.000 C 
BRANCH  10  11
ATOM     11  C   UNL     1       8.853  -8.019   5.740  1.00  0.00    -0.000 C 
BRANCH  11  12
ATOM     12  C   UNL     1       8.664  -9.350   6.487  1.00  0.00    -0.000 C 
BRANCH  12  13
ATOM     13  C   UNL     1       7.257  -9.505   7.081  1.00  0.00    -0.003 C 
ATOM     14  C   UNL     1       7.307  -9.555   8.604  1.00  0.00     0.004 C 
ENDBRANCH  12  13
ENDBRANCH  11  12
ENDBRANCH  10  11
ENDBRANCH   9  10
ENDBRANCH   1   9
TORSDOF 10
ENDMDL
MODEL 8
REMARK VINA RESULT:    -2.701      2.531      3.142
REMARK INTER + INTRA:          -5.191
REMARK INTER:                  -4.626
REMARK INTRA:                  -0.565
REMARK UNBOUND:                -0.911
REMARK SMILES CCCCCCCCCCCC(=O)[O-]
REMARK SMILES IDX 7 1 8 2 9 3 10 4 11 5 12 6 13 7 14 8 6 9 5 10 4 11 3 12 2 13
REMARK SMILES IDX 1 14
REMARK H PARENT
REMARK Flexibility Score: inf
ROOT
ATOM      1  C   UNL     1      17.839  -6.944   7.047  1.00  0.00     0.000 C 
ENDROOT
BRANCH   1   2
ATOM      2  C   UNL     1      18.441  -8.005   6.119  1.00  0.00     0.000 C 
BRANCH   2   3
ATOM      3  C   UNL     1      19.964  -7.855   6.025  1.00  0.00     0.000 C 
BRANCH   3   4
ATOM      4  C   UNL     1      20.384  -7.353   4.639  1.00  0.00     0.006 C 
BRANCH   4   5
ATOM      5  C   UNL     1      20.072  -5.862   4.476  1.00  0.00     0.053 C 
BRANCH   5   6
ATOM      6  C   UNL     1      21.335  -5.063   4.434  1.00  0.00     0.041 C 
ATOM      7  O   UNL     1      21.294  -3.821   4.233  1.00  0.00    -0.550 OA
ATOM      8  O   UNL     1      22.557  -5.683   4.667  1.00  0.00    -0.550 OA
ENDBRANCH   5   6
ENDBRANCH   4   5
ENDBRANCH   3   4
ENDBRANCH   2   3
ENDBRANCH   1   2
BRANCH   1   9
ATOM      9  C   UNL     1      16.389  -6.625   6.653  1.00  0.00     0.000 C 
BRANCH   9  10
ATOM     10  C   UNL     1      15.706  -7.804   5.929  1.00  0.00    -0.000 C 
BRANCH  10  11
ATOM     11  C   UNL     1      15.163  -7.445   4.533  1.00  0.00    -0.000 C 
BRANCH  11  12
ATOM     12  C   UNL     1      13.645  -7.205   4.472  1.00  0.00    -0.000 C 
BRANCH  12  13
ATOM     13  C   UNL     1      12.929  -7.587   5.775  1.00  0.00    -0.003 C 
ATOM     14  C   UNL     1      11.421  -7.395   5.649  1.00  0.00     0.004 C 
ENDBRANCH  12  13
ENDBRANCH  11  12
ENDBRANCH  10  11
ENDBRANCH   9  10
ENDBRANCH   1   9
TORSDOF 10
ENDMDL
MODEL 9
REMARK VINA RESULT:    -2.648      4.982      7.700
REMARK INTER + INTRA:          -5.107
REMARK INTER:                  -4.092
REMARK INTRA:                  -1.015
REMARK UNBOUND:                -0.911
REMARK SMILES CCCCCCCCCCCC(=O)[O-]
REMARK SMILES IDX 7 1 8 2 9 3 10 4 11 5 12 6 13 7 14 8 6 9 5 10 4 11 3 12 2 13
REMARK SMILES IDX 1 14
REMARK H PARENT
REMARK Flexibility Score: inf
ROOT
ATOM      1  C   UNL     1       6.728  -6.375   4.204  1.00  0.00     0.000 C 
ENDROOT
BRANCH   1   2
ATOM      2  C   UNL     1       8.124  -6.943   3.921  1.00  0.00     0.000 C 
BRANCH   2   3
ATOM      3  C   UNL     1       9.204  -6.143   4.660  1.00  0.00     0.000 C 
BRANCH   3   4
ATOM      4  C   UNL     1      10.585  -6.375   4.036  1.00  0.00     0.006 C 
BRANCH   4   5
ATOM      5  C   UNL     1      10.994  -7.847   4.139  1.00  0.00     0.053 C 
BRANCH   5   6
ATOM      6  C   UNL     1      12.222  -7.993   4.981  1.00  0.00     0.041 C 
ATOM      7  O   UNL     1      12.272  -7.468   6.124  1.00  0.00    -0.550 OA
ATOM      8  O   UNL     1      13.293  -8.750   4.523  1.00  0.00    -0.550 OA
ENDBRANCH   5   6
ENDBRANCH   4   5
ENDBRANCH   3   4
ENDBRANCH   2   3
ENDBRANCH   1   2
BRANCH   1   9
ATOM      9  C   UNL     1       6.049  -7.128   5.358  1.00  0.00     0.000 C 
BRANCH   9  10
ATOM     10  C   UNL     1       5.641  -8.562   4.962  1.00  0.00    -0.000 C 
BRANCH  10  11
ATOM     11  C   UNL     1       6.100  -9.638   5.965  1.00  0.00    -0.000 C 
BRANCH  11  12
ATOM     12  C   UNL     1       7.601  -9.970   5.916  1.00  0.00    -0.000 C 
BRANCH  12  13
ATOM     13  C   UNL     1       8.406  -9.248   7.006  1.00  0.00    -0.003 C 
ATOM     14  C   UNL     1       7.750  -9.415   8.373  1.00  0.00     0.004 C 
ENDBRANCH  12  13
ENDBRANCH  11  12
ENDBRANCH  10  11
ENDBRANCH   9  10
ENDBRANCH   1   9
TORSDOF 10
ENDMDL
