MODEL 1
REMARK VINA RESULT:    -5.637      0.000      0.000
REMARK INTER + INTRA:         -14.278
REMARK INTER:                 -12.228
REMARK INTRA:                  -2.050
REMARK UNBOUND:                -2.050
REMARK SMILES CCCCCCCCCCCCCCCCCCCCCC(=O)[O-]
REMARK SMILES IDX 12 1 11 2 10 3 9 4 8 5 7 6 6 7 5 8 4 9 3 10 2 11 1 12 13 13
REMARK SMILES IDX 14 14 15 15 16 16 17 17 18 18 19 19 20 20 21 21 22 22 23 23
REMARK SMILES IDX 24 24
REMARK H PARENT
REMARK Flexibility Score: inf
ROOT
ATOM      1  C   UNL     1      49.477  28.384  16.211  1.00  0.00     0.000 C 
ENDROOT
BRANCH   1   2
ATOM      2  C   UNL     1      48.150  27.613  16.353  1.00  0.00     0.000 C 
BRANCH   2   3
ATOM      3  C   UNL     1      48.339  26.094  16.570  1.00  0.00     0.000 C 
BRANCH   3   4
ATOM      4  C   UNL     1      49.792  25.673  16.860  1.00  0.00    -0.000 C 
BRANCH   4   5
ATOM      5  C   UNL     1      50.072  25.260  18.319  1.00  0.00    -0.000 C 
BRANCH   5   6
ATOM      6  C   UNL     1      48.863  25.338  19.274  1.00  0.00    -0.000 C 
BRANCH   6   7
ATOM      7  C   UNL     1      48.854  26.549  20.225  1.00  0.00    -0.000 C 
BRANCH   7   8
ATOM      8  C   UNL     1      48.520  26.164  21.677  1.00  0.00    -0.000 C 
BRANCH   8   9
ATOM      9  C   UNL     1      49.650  26.526  22.655  1.00  0.00    -0.000 C 
BRANCH   9  10
ATOM     10  C   UNL     1      50.978  25.838  22.305  1.00  0.00    -0.000 C 
BRANCH  10  11
ATOM     11  C   UNL     1      52.098  26.869  22.123  1.00  0.00    -0.003 C 
ATOM     12  C   UNL     1      52.705  26.784  20.725  1.00  0.00     0.004 C 
ENDBRANCH  10  11
ENDBRANCH   9  10
ENDBRANCH   8   9
ENDBRANCH   7   8
ENDBRANCH   6   7
ENDBRANCH   5   6
ENDBRANCH   4   5
ENDBRANCH   3   4
ENDBRANCH   2   3
ENDBRANCH   1   2
BRANCH   1  13
ATOM     13  C   UNL     1      49.408  29.864  16.635  1.00  0.00     0.000 C 
BRANCH  13  14
ATOM     14  C   UNL     1      48.173  30.248  17.476  1.00  0.00     0.000 C 
BRANCH  14  15
ATOM     15  C   UNL     1      48.250  31.627  18.157  1.00  0.00     0.000 C 
BRANCH  15  16
ATOM     16  C   UNL     1      49.234  32.581  17.464  1.00  0.00     0.000 C 
BRANCH  16  17
ATOM     17  C   UNL     1      48.577  33.936  17.173  1.00  0.00     0.000 C 
BRANCH  17  18
ATOM     18  C   UNL     1      47.546  33.813  16.040  1.00  0.00     0.000 C 
BRANCH  18  19
ATOM     19  C   UNL     1      48.144  33.228  14.752  1.00  0.00     0.000 C 
BRANCH  19  20
ATOM     20  C   UNL     1      48.556  34.310  13.743  1.00  0.00     0.006 C 
BRANCH  20  21
ATOM     21  C   UNL     1      48.852  33.693  12.372  1.00  0.00     0.053 C 
BRANCH  21  22
ATOM     22  C   UNL     1      47.698  33.896  11.442  1.00  0.00     0.041 C 
ATOM     23  O   UNL     1      46.666  34.502  11.837  1.00  0.00    -0.550 OA
ATOM     24  O   UNL     1      47.744  33.384  10.151  1.00  0.00    -0.550 OA
ENDBRANCH  21  22
ENDBRANCH  20  21
ENDBRANCH  19  20
ENDBRANCH  18  19
ENDBRANCH  17  18
ENDBRANCH  16  17
ENDBRANCH  15  16
ENDBRANCH  14  15
ENDBRANCH  13  14
ENDBRANCH   1  13
TORSDOF 20
ENDMDL
MODEL 2
REMARK VINA RESULT:    -5.442      2.070      4.890
REMARK INTER + INTRA:         -13.855
REMARK INTER:                 -11.124
REMARK INTRA:                  -2.732
REMARK UNBOUND:                -2.050
REMARK SMILES CCCCCCCCCCCCCCCCCCCCCC(=O)[O-]
REMARK SMILES IDX 12 1 11 2 10 3 9 4 8 5 7 6 6 7 5 8 4 9 3 10 2 11 1 12 13 13
REMARK SMILES IDX 14 14 15 15 16 16 17 17 18 18 19 19 20 20 21 21 22 22 23 23
REMARK SMILES IDX 24 24
REMARK H PARENT
REMARK Flexibility Score: inf
ROOT
ATOM      1  C   UNL     1      49.410  25.170  19.674  1.00  0.00     0.000 C 
ENDROOT
BRANCH   1   2
ATOM      2  C   UNL     1      48.767  25.151  21.074  1.00  0.00     0.000 C 
BRANCH   2   3
ATOM      3  C   UNL     1      48.468  26.561  21.635  1.00  0.00     0.000 C 
BRANCH   3   4
ATOM      4  C   UNL     1      49.519  27.077  22.636  1.00  0.00    -0.000 C 
BRANCH   4   5
ATOM      5  C   UNL     1      50.794  26.216  22.744  1.00  0.00    -0.000 C 
BRANCH   5   6
ATOM      6  C   UNL     1      52.095  26.894  22.269  1.00  0.00    -0.000 C 
BRANCH   6   7
ATOM      7  C   UNL     1      53.203  25.934  21.798  1.00  0.00    -0.000 C 
BRANCH   7   8
ATOM      8  C   UNL     1      53.221  25.748  20.271  1.00  0.00    -0.000 C 
BRANCH   8   9
ATOM      9  C   UNL     1      52.729  26.997  19.520  1.00  0.00    -0.000 C 
BRANCH   9  10
ATOM     10  C   UNL     1      52.539  26.747  18.017  1.00  0.00    -0.000 C 
BRANCH  10  11
ATOM     11  C   UNL     1      52.065  28.020  17.305  1.00  0.00    -0.003 C 
ATOM     12  C   UNL     1      51.915  27.790  15.804  1.00  0.00     0.004 C 
ENDBRANCH  10  11
ENDBRANCH   9  10
ENDBRANCH   8   9
ENDBRANCH   7   8
ENDBRANCH   6   7
ENDBRANCH   5   6
ENDBRANCH   4   5
ENDBRANCH   3   4
ENDBRANCH   2   3
ENDBRANCH   1   2
BRANCH   1  13
ATOM     13  C   UNL     1      48.531  25.787  18.570  1.00  0.00     0.000 C 
BRANCH  13  14
ATOM     14  C   UNL     1      49.096  25.671  17.140  1.00  0.00     0.000 C 
BRANCH  14  15
ATOM     15  C   UNL     1      48.409  26.566  16.091  1.00  0.00     0.000 C 
BRANCH  15  16
ATOM     16  C   UNL     1      48.282  28.028  16.545  1.00  0.00     0.000 C 
BRANCH  16  17
ATOM     17  C   UNL     1      48.089  28.964  15.346  1.00  0.00     0.000 C 
BRANCH  17  18
ATOM     18  C   UNL     1      48.880  30.268  15.537  1.00  0.00     0.000 C 
BRANCH  18  19
ATOM     19  C   UNL     1      49.160  30.583  17.014  1.00  0.00     0.000 C 
BRANCH  19  20
ATOM     20  C   UNL     1      48.177  31.608  17.600  1.00  0.00     0.006 C 
BRANCH  20  21
ATOM     21  C   UNL     1      48.670  33.038  17.356  1.00  0.00     0.053 C 
BRANCH  21  22
ATOM     22  C   UNL     1      47.842  33.708  16.307  1.00  0.00     0.041 C 
ATOM     23  O   UNL     1      48.172  33.629  15.093  1.00  0.00    -0.550 OA
ATOM     24  O   UNL     1      46.727  34.455  16.670  1.00  0.00    -0.550 OA
ENDBRANCH  21  22
ENDBRANCH  20  21
ENDBRANCH  19  20
ENDBRANCH  18  19
ENDBRANCH  17  18
ENDBRANCH  16  17
ENDBRANCH  15  16
ENDBRANCH  14  15
ENDBRANCH  13  14
ENDBRANCH   1  13
TORSDOF 20
ENDMDL
MODEL 3
REMARK VINA RESULT:    -5.349      5.986     12.265
REMARK INTER + INTRA:         -13.653
REMARK INTER:                 -11.305
REMARK INTRA:                  -2.348
REMARK UNBOUND:                -2.050
REMARK SMILES CCCCCCCCCCCCCCCCCCCCCC(=O)[O-]
REMARK SMILES IDX 12 1 11 2 10 3 9 4 8 5 7 6 6 7 5 8 4 9 3 10 2 11 1 12 13 13
REMARK SMILES IDX 14 14 15 15 16 16 17 17 18 18 19 19 20 20 21 21 22 22 23 23
REMARK SMILES IDX 24 24
REMARK H PARENT
REMARK Flexibility Score: inf
ROOT
ATOM      1  C   UNL     1      44.714  35.750  13.119  1.00  0.00     0.000 C 
ENDROOT
BRANCH   1   2
ATOM      2  C   UNL     1      43.760  36.766  12.461  1.00  0.00     0.000 C 
BRANCH   2   3
ATOM      3  C   UNL     1      42.355  36.193  12.166  1.00  0.00     0.000 C 
BRANCH   3   4
ATOM      4  C   UNL     1      42.051  36.009  10.667  1.00  0.00    -0.000 C 
BRANCH   4   5
ATOM      5  C   UNL     1      40.727  35.281  10.355  1.00  0.00    -0.000 C 
BRANCH   5   6
ATOM      6  C   UNL     1      39.737  35.171  11.533  1.00  0.00    -0.000 C 
BRANCH   6   7
ATOM      7  C   UNL     1      38.689  36.295  11.616  1.00  0.00    -0.000 C 
BRANCH   7   8
ATOM      8  C   UNL     1      38.902  37.222  12.826  1.00  0.00    -0.000 C 
BRANCH   8   9
ATOM      9  C   UNL     1      39.150  38.682  12.412  1.00  0.00    -0.000 C 
BRANCH   9  10
ATOM     10  C   UNL     1      39.323  38.844  10.894  1.00  0.00    -0.000 C 
BRANCH  10  11
ATOM     11  C   UNL     1      40.682  39.471  10.562  1.00  0.00    -0.003 C 
ATOM     12  C   UNL     1      41.466  39.793  11.831  1.00  0.00     0.004 C 
ENDBRANCH  10  11
ENDBRANCH   9  10
ENDBRANCH   8   9
ENDBRANCH   7   8
ENDBRANCH   6   7
ENDBRANCH   5   6
ENDBRANCH   4   5
ENDBRANCH   3   4
ENDBRANCH   2   3
ENDBRANCH   1   2
BRANCH   1  13
ATOM     13  C   UNL     1      46.155  35.775  12.575  1.00  0.00     0.000 C 
BRANCH  13  14
ATOM     14  C   UNL     1      46.567  34.535  11.755  1.00  0.00     0.000 C 
BRANCH  14  15
ATOM     15  C   UNL     1      47.886  33.871  12.194  1.00  0.00     0.000 C 
BRANCH  15  16
ATOM     16  C   UNL     1      48.499  34.528  13.439  1.00  0.00     0.000 C 
BRANCH  16  17
ATOM     17  C   UNL     1      48.479  33.570  14.636  1.00  0.00     0.000 C 
BRANCH  17  18
ATOM     18  C   UNL     1      47.323  33.909  15.590  1.00  0.00     0.000 C 
BRANCH  18  19
ATOM     19  C   UNL     1      47.761  33.958  17.062  1.00  0.00     0.000 C 
BRANCH  19  20
ATOM     20  C   UNL     1      48.817  32.896  17.403  1.00  0.00     0.006 C 
BRANCH  20  21
ATOM     21  C   UNL     1      48.159  31.635  17.973  1.00  0.00     0.053 C 
BRANCH  21  22
ATOM     22  C   UNL     1      48.384  30.467  17.067  1.00  0.00     0.041 C 
ATOM     23  O   UNL     1      49.552  30.158  16.711  1.00  0.00    -0.550 OA
ATOM     24  O   UNL     1      47.302  29.741  16.583  1.00  0.00    -0.550 OA
ENDBRANCH  21  22
ENDBRANCH  20  21
ENDBRANCH  19  20
ENDBRANCH  18  19
ENDBRANCH  17  18
ENDBRANCH  16  17
ENDBRANCH  15  16
ENDBRANCH  14  15
ENDBRANCH  13  14
ENDBRANCH   1  13
TORSDOF 20
ENDMDL
MODEL 4
REMARK VINA RESULT:    -5.298      5.860      9.524
REMARK INTER + INTRA:         -13.542
REMARK INTER:                 -11.736
REMARK INTRA:                  -1.806
REMARK UNBOUND:                -2.050
REMARK SMILES CCCCCCCCCCCCCCCCCCCCCC(=O)[O-]
REMARK SMILES IDX 12 1 11 2 10 3 9 4 8 5 7 6 6 7 5 8 4 9 3 10 2 11 1 12 13 13
REMARK SMILES IDX 14 14 15 15 16 16 17 17 18 18 19 19 20 20 21 21 22 22 23 23
REMARK SMILES IDX 24 24
REMARK H PARENT
REMARK Flexibility Score: inf
ROOT
ATOM      1  C   UNL     1      44.726  35.746  13.210  1.00  0.00     0.000 C 
ENDROOT
BRANCH   1   2
ATOM      2  C   UNL     1      46.211  35.796  12.800  1.00  0.00     0.000 C 
BRANCH   2   3
ATOM      3  C   UNL     1      46.675  34.554  12.005  1.00  0.00     0.000 C 
BRANCH   3   4
ATOM      4  C   UNL     1      48.047  34.003  12.437  1.00  0.00    -0.000 C 
BRANCH   4   5
ATOM      5  C   UNL     1      48.494  34.410  13.857  1.00  0.00    -0.000 C 
BRANCH   5   6
ATOM      6  C   UNL     1      47.997  33.498  14.996  1.00  0.00    -0.000 C 
BRANCH   6   7
ATOM      7  C   UNL     1      48.149  34.075  16.415  1.00  0.00    -0.000 C 
BRANCH   7   8
ATOM      8  C   UNL     1      48.846  33.104  17.383  1.00  0.00    -0.000 C 
BRANCH   8   9
ATOM      9  C   UNL     1      48.245  31.689  17.330  1.00  0.00    -0.000 C 
BRANCH   9  10
ATOM     10  C   UNL     1      49.288  30.617  16.981  1.00  0.00    -0.000 C 
BRANCH  10  11
ATOM     11  C   UNL     1      48.742  29.645  15.929  1.00  0.00    -0.003 C 
ATOM     12  C   UNL     1      47.261  29.899  15.658  1.00  0.00     0.004 C 
ENDBRANCH  10  11
ENDBRANCH   9  10
ENDBRANCH   8   9
ENDBRANCH   7   8
ENDBRANCH   6   7
ENDBRANCH   5   6
ENDBRANCH   4   5
ENDBRANCH   3   4
ENDBRANCH   2   3
ENDBRANCH   1   2
BRANCH   1  13
ATOM     13  C   UNL     1      43.817  36.730  12.451  1.00  0.00     0.000 C 
BRANCH  13  14
ATOM     14  C   UNL     1      42.430  36.176  12.066  1.00  0.00     0.000 C 
BRANCH  14  15
ATOM     15  C   UNL     1      42.006  36.431  10.607  1.00  0.00     0.000 C 
BRANCH  15  16
ATOM     16  C   UNL     1      40.969  35.418  10.101  1.00  0.00     0.000 C 
BRANCH  16  17
ATOM     17  C   UNL     1      40.236  34.748  11.271  1.00  0.00     0.000 C 
BRANCH  17  18
ATOM     18  C   UNL     1      38.732  35.060  11.225  1.00  0.00     0.000 C 
BRANCH  18  19
ATOM     19  C   UNL     1      38.438  36.567  11.187  1.00  0.00     0.000 C 
BRANCH  19  20
ATOM     20  C   UNL     1      38.670  37.252  12.542  1.00  0.00     0.006 C 
BRANCH  20  21
ATOM     21  C   UNL     1      38.823  38.767  12.369  1.00  0.00     0.053 C 
BRANCH  21  22
ATOM     22  C   UNL     1      40.110  39.239  12.967  1.00  0.00     0.041 C 
ATOM     23  O   UNL     1      41.103  39.472  12.227  1.00  0.00    -0.550 OA
ATOM     24  O   UNL     1      40.227  39.385  14.344  1.00  0.00    -0.550 OA
ENDBRANCH  21  22
ENDBRANCH  20  21
ENDBRANCH  19  20
ENDBRANCH  18  19
ENDBRANCH  17  18
ENDBRANCH  16  17
ENDBRANCH  15  16
ENDBRANCH  14  15
ENDBRANCH  13  14
ENDBRANCH   1  13
TORSDOF 20
ENDMDL
MODEL 5
REMARK VINA RESULT:    -5.286      3.643      8.238
REMARK INTER + INTRA:         -13.517
REMARK INTER:                 -10.882
REMARK INTRA:                  -2.636
REMARK UNBOUND:                -2.050
REMARK SMILES CCCCCCCCCCCCCCCCCCCCCC(=O)[O-]
REMARK SMILES IDX 12 1 11 2 10 3 9 4 8 5 7 6 6 7 5 8 4 9 3 10 2 11 1 12 13 13
REMARK SMILES IDX 14 14 15 15 16 16 17 17 18 18 19 19 20 20 21 21 22 22 23 23
REMARK SMILES IDX 24 24
REMARK H PARENT
REMARK Flexibility Score: inf
ROOT
ATOM      1  C   UNL     1      49.472  26.087  18.848  1.00  0.00     0.000 C 
ENDROOT
BRANCH   1   2
ATOM      2  C   UNL     1      50.007  25.178  17.724  1.00  0.00     0.000 C 
BRANCH   2   3
ATOM      3  C   UNL     1      49.976  25.839  16.327  1.00  0.00     0.000 C 
BRANCH   3   4
ATOM      4  C   UNL     1      48.575  26.297  15.877  1.00  0.00    -0.000 C 
BRANCH   4   5
ATOM      5  C   UNL     1      48.309  27.810  16.015  1.00  0.00    -0.000 C 
BRANCH   5   6
ATOM      6  C   UNL     1      49.547  28.718  15.865  1.00  0.00    -0.000 C 
BRANCH   6   7
ATOM      7  C   UNL     1      49.516  30.013  16.696  1.00  0.00    -0.000 C 
BRANCH   7   8
ATOM      8  C   UNL     1      48.219  30.171  17.508  1.00  0.00    -0.000 C 
BRANCH   8   9
ATOM      9  C   UNL     1      48.085  31.568  18.136  1.00  0.00    -0.000 C 
BRANCH   9  10
ATOM     10  C   UNL     1      49.250  32.498  17.765  1.00  0.00    -0.000 C 
BRANCH  10  11
ATOM     11  C   UNL     1      48.737  33.881  17.350  1.00  0.00    -0.003 C 
ATOM     12  C   UNL     1      48.063  33.832  15.981  1.00  0.00     0.004 C 
ENDBRANCH  10  11
ENDBRANCH   9  10
ENDBRANCH   8   9
ENDBRANCH   7   8
ENDBRANCH   6   7
ENDBRANCH   5   6
ENDBRANCH   4   5
ENDBRANCH   3   4
ENDBRANCH   2   3
ENDBRANCH   1   2
BRANCH   1  13
ATOM     13  C   UNL     1      48.158  25.607  19.492  1.00  0.00     0.000 C 
BRANCH  13  14
ATOM     14  C   UNL     1      48.202  25.439  21.025  1.00  0.00     0.000 C 
BRANCH  14  15
ATOM     15  C   UNL     1      48.388  26.744  21.821  1.00  0.00     0.000 C 
BRANCH  15  16
ATOM     16  C   UNL     1      49.688  26.763  22.638  1.00  0.00     0.000 C 
BRANCH  16  17
ATOM     17  C   UNL     1      50.350  25.380  22.655  1.00  0.00     0.000 C 
BRANCH  17  18
ATOM     18  C   UNL     1      51.800  25.460  22.150  1.00  0.00     0.000 C 
BRANCH  18  19
ATOM     19  C   UNL     1      52.289  26.906  21.975  1.00  0.00     0.000 C 
BRANCH  19  20
ATOM     20  C   UNL     1      52.966  27.143  20.616  1.00  0.00     0.006 C 
BRANCH  20  21
ATOM     21  C   UNL     1      53.050  25.840  19.814  1.00  0.00     0.053 C 
BRANCH  21  22
ATOM     22  C   UNL     1      53.642  26.090  18.463  1.00  0.00     0.041 C 
ATOM     23  O   UNL     1      53.120  26.938  17.691  1.00  0.00    -0.550 OA
ATOM     24  O   UNL     1      54.745  25.359  18.039  1.00  0.00    -0.550 OA
ENDBRANCH  21  22
ENDBRANCH  20  21
ENDBRANCH  19  20
ENDBRANCH  18  19
ENDBRANCH  17  18
ENDBRANCH  16  17
ENDBRANCH  15  16
ENDBRANCH  14  15
ENDBRANCH  13  14
ENDBRANCH   1  13
TORSDOF 20
ENDMDL
MODEL 6
REMARK VINA RESULT:    -5.241      4.250      9.583
REMARK INTER + INTRA:         -13.418
REMARK INTER:                 -11.679
REMARK INTRA:                  -1.739
REMARK UNBOUND:                -2.050
REMARK SMILES CCCCCCCCCCCCCCCCCCCCCC(=O)[O-]
REMARK SMILES IDX 12 1 11 2 10 3 9 4 8 5 7 6 6 7 5 8 4 9 3 10 2 11 1 12 13 13
REMARK SMILES IDX 14 14 15 15 16 16 17 17 18 18 19 19 20 20 21 21 22 22 23 23
REMARK SMILES IDX 24 24
REMARK H PARENT
REMARK Flexibility Score: inf
ROOT
ATOM      1  C   UNL     1      48.484  28.177  15.700  1.00  0.00     0.000 C 
ENDROOT
BRANCH   1   2
ATOM      2  C   UNL     1      47.478  29.339  15.822  1.00  0.00     0.000 C 
BRANCH   2   3
ATOM      3  C   UNL     1      47.781  30.297  16.998  1.00  0.00     0.000 C 
BRANCH   3   4
ATOM      4  C   UNL     1      49.282  30.549  17.235  1.00  0.00    -0.000 C 
BRANCH   4   5
ATOM      5  C   UNL     1      49.642  31.990  17.653  1.00  0.00    -0.000 C 
BRANCH   5   6
ATOM      6  C   UNL     1      48.453  32.966  17.763  1.00  0.00    -0.000 C 
BRANCH   6   7
ATOM      7  C   UNL     1      48.517  34.188  16.830  1.00  0.00    -0.000 C 
BRANCH   7   8
ATOM      8  C   UNL     1      47.557  34.076  15.633  1.00  0.00    -0.000 C 
BRANCH   8   9
ATOM      9  C   UNL     1      48.177  33.311  14.452  1.00  0.00    -0.000 C 
BRANCH   9  10
ATOM     10  C   UNL     1      48.394  34.200  13.219  1.00  0.00    -0.000 C 
BRANCH  10  11
ATOM     11  C   UNL     1      48.802  33.361  12.003  1.00  0.00    -0.003 C 
ATOM     12  C   UNL     1      50.148  33.817  11.445  1.00  0.00     0.004 C 
ENDBRANCH  10  11
ENDBRANCH   9  10
ENDBRANCH   8   9
ENDBRANCH   7   8
ENDBRANCH   6   7
ENDBRANCH   5   6
ENDBRANCH   4   5
ENDBRANCH   3   4
ENDBRANCH   2   3
ENDBRANCH   1   2
BRANCH   1  13
ATOM     13  C   UNL     1      48.199  26.980  16.627  1.00  0.00     0.000 C 
BRANCH  13  14
ATOM     14  C   UNL     1      49.396  26.037  16.866  1.00  0.00     0.000 C 
BRANCH  14  15
ATOM     15  C   UNL     1      49.469  25.417  18.274  1.00  0.00     0.000 C 
BRANCH  15  16
ATOM     16  C   UNL     1      48.181  25.625  19.085  1.00  0.00     0.000 C 
BRANCH  16  17
ATOM     17  C   UNL     1      48.485  25.738  20.584  1.00  0.00     0.000 C 
BRANCH  17  18
ATOM     18  C   UNL     1      49.836  25.087  20.920  1.00  0.00     0.000 C 
BRANCH  18  19
ATOM     19  C   UNL     1      50.358  25.485  22.309  1.00  0.00     0.000 C 
BRANCH  19  20
ATOM     20  C   UNL     1      51.760  26.111  22.259  1.00  0.00     0.006 C 
BRANCH  20  21
ATOM     21  C   UNL     1      52.173  26.412  20.815  1.00  0.00     0.053 C 
BRANCH  21  22
ATOM     22  C   UNL     1      53.471  25.746  20.487  1.00  0.00     0.041 C 
ATOM     23  O   UNL     1      53.957  24.887  21.271  1.00  0.00    -0.550 OA
ATOM     24  O   UNL     1      54.167  26.101  19.337  1.00  0.00    -0.550 OA
ENDBRANCH  21  22
ENDBRANCH  20  21
ENDBRANCH  19  20
ENDBRANCH  18  19
ENDBRANCH  17  18
ENDBRANCH  16  17
ENDBRANCH  15  16
ENDBRANCH  14  15
ENDBRANCH  13  14
ENDBRANCH   1  13
TORSDOF 20
ENDMDL
MODEL 7
REMARK VINA RESULT:    -5.227      3.188      5.729
REMARK INTER + INTRA:         -13.390
REMARK INTER:                 -11.770
REMARK INTRA:                  -1.619
REMARK UNBOUND:                -2.050
REMARK SMILES CCCCCCCCCCCCCCCCCCCCCC(=O)[O-]
REMARK SMILES IDX 12 1 11 2 10 3 9 4 8 5 7 6 6 7 5 8 4 9 3 10 2 11 1 12 13 13
REMARK SMILES IDX 14 14 15 15 16 16 17 17 18 18 19 19 20 20 21 21 22 22 23 23
REMARK SMILES IDX 24 24
REMARK H PARENT
REMARK Flexibility Score: inf
ROOT
ATOM      1  C   UNL     1      47.752  33.925  17.132  1.00  0.00     0.000 C 
ENDROOT
BRANCH   1   2
ATOM      2  C   UNL     1      49.219  33.530  17.392  1.00  0.00     0.000 C 
BRANCH   2   3
ATOM      3  C   UNL     1      49.398  32.047  17.791  1.00  0.00     0.000 C 
BRANCH   3   4
ATOM      4  C   UNL     1      48.079  31.312  18.095  1.00  0.00    -0.000 C 
BRANCH   4   5
ATOM      5  C   UNL     1      47.924  29.940  17.406  1.00  0.00    -0.000 C 
BRANCH   5   6
ATOM      6  C   UNL     1      48.961  29.628  16.308  1.00  0.00    -0.000 C 
BRANCH   6   7
ATOM      7  C   UNL     1      50.108  28.694  16.733  1.00  0.00    -0.000 C 
BRANCH   7   8
ATOM      8  C   UNL     1      50.118  27.368  15.952  1.00  0.00    -0.000 C 
BRANCH   8   9
ATOM      9  C   UNL     1      48.725  26.722  15.873  1.00  0.00    -0.000 C 
BRANCH   9  10
ATOM     10  C   UNL     1      48.292  26.085  17.202  1.00  0.00    -0.000 C 
BRANCH  10  11
ATOM     11  C   UNL     1      49.441  25.282  17.824  1.00  0.00    -0.003 C 
ATOM     12  C   UNL     1      49.373  25.313  19.348  1.00  0.00     0.004 C 
ENDBRANCH  10  11
ENDBRANCH   9  10
ENDBRANCH   8   9
ENDBRANCH   7   8
ENDBRANCH   6   7
ENDBRANCH   5   6
ENDBRANCH   4   5
ENDBRANCH   3   4
ENDBRANCH   2   3
ENDBRANCH   1   2
BRANCH   1  13
ATOM     13  C   UNL     1      47.324  33.871  15.653  1.00  0.00     0.000 C 
BRANCH  13  14
ATOM     14  C   UNL     1      48.217  33.001  14.745  1.00  0.00     0.000 C 
BRANCH  14  15
ATOM     15  C   UNL     1      48.293  33.455  13.275  1.00  0.00     0.000 C 
BRANCH  15  16
ATOM     16  C   UNL     1      47.817  34.901  13.072  1.00  0.00     0.000 C 
BRANCH  16  17
ATOM     17  C   UNL     1      46.448  34.940  12.382  1.00  0.00     0.000 C 
BRANCH  17  18
ATOM     18  C   UNL     1      45.471  35.841  13.152  1.00  0.00     0.000 C 
BRANCH  18  19
ATOM     19  C   UNL     1      44.047  35.804  12.576  1.00  0.00     0.000 C 
BRANCH  19  20
ATOM     20  C   UNL     1      43.546  37.189  12.140  1.00  0.00     0.006 C 
BRANCH  20  21
ATOM     21  C   UNL     1      42.274  37.068  11.295  1.00  0.00     0.053 C 
BRANCH  21  22
ATOM     22  C   UNL     1      41.139  36.552  12.122  1.00  0.00     0.041 C 
ATOM     23  O   UNL     1      40.760  37.188  13.142  1.00  0.00    -0.550 OA
ATOM     24  O   UNL     1      40.526  35.350  11.791  1.00  0.00    -0.550 OA
ENDBRANCH  21  22
ENDBRANCH  20  21
ENDBRANCH  19  20
ENDBRANCH  18  19
ENDBRANCH  17  18
ENDBRANCH  16  17
ENDBRANCH  15  16
ENDBRANCH  14  15
ENDBRANCH  13  14
ENDBRANCH   1  13
TORSDOF 20
ENDMDL
MODEL 8
REMARK VINA RESULT:    -5.212      6.652     12.671
REMARK INTER + INTRA:         -13.357
REMARK INTER:                 -11.344
REMARK INTRA:                  -2.013
REMARK UNBOUND:                -2.050
REMARK SMILES CCCCCCCCCCCCCCCCCCCCCC(=O)[O-]
REMARK SMILES IDX 12 1 11 2 10 3 9 4 8 5 7 6 6 7 5 8 4 9 3 10 2 11 1 12 13 13
REMARK SMILES IDX 14 14 15 15 16 16 17 17 18 18 19 19 20 20 21 21 22 22 23 23
REMARK SMILES IDX 24 24
REMARK H PARENT
REMARK Flexibility Score: inf
ROOT
ATOM      1  C   UNL     1      42.299  36.356  12.141  1.00  0.00     0.000 C 
ENDROOT
BRANCH   1   2
ATOM      2  C   UNL     1      41.956  36.238  10.643  1.00  0.00     0.000 C 
BRANCH   2   3
ATOM      3  C   UNL     1      41.179  34.949  10.287  1.00  0.00     0.000 C 
BRANCH   3   4
ATOM      4  C   UNL     1      39.695  35.182   9.944  1.00  0.00    -0.000 C 
BRANCH   4   5
ATOM      5  C   UNL     1      38.763  35.350  11.162  1.00  0.00    -0.000 C 
BRANCH   5   6
ATOM      6  C   UNL     1      38.492  36.806  11.594  1.00  0.00    -0.000 C 
BRANCH   6   7
ATOM      7  C   UNL     1      38.620  37.858  10.478  1.00  0.00    -0.000 C 
BRANCH   7   8
ATOM      8  C   UNL     1      39.411  39.102  10.918  1.00  0.00    -0.000 C 
BRANCH   8   9
ATOM      9  C   UNL     1      39.089  39.523  12.361  1.00  0.00    -0.000 C 
BRANCH   9  10
ATOM     10  C   UNL     1      40.340  39.596  13.250  1.00  0.00    -0.000 C 
BRANCH  10  11
ATOM     11  C   UNL     1      40.017  39.166  14.686  1.00  0.00    -0.003 C 
ATOM     12  C   UNL     1      40.101  37.650  14.839  1.00  0.00     0.004 C 
ENDBRANCH  10  11
ENDBRANCH   9  10
ENDBRANCH   8   9
ENDBRANCH   7   8
ENDBRANCH   6   7
ENDBRANCH   5   6
ENDBRANCH   4   5
ENDBRANCH   3   4
ENDBRANCH   2   3
ENDBRANCH   1   2
BRANCH   1  13
ATOM     13  C   UNL     1      43.749  36.780  12.437  1.00  0.00     0.000 C 
BRANCH  13  14
ATOM     14  C   UNL     1      44.632  35.692  13.083  1.00  0.00     0.000 C 
BRANCH  14  15
ATOM     15  C   UNL     1      46.119  35.734  12.683  1.00  0.00     0.000 C 
BRANCH  15  16
ATOM     16  C   UNL     1      46.568  34.477  11.924  1.00  0.00     0.000 C 
BRANCH  16  17
ATOM     17  C   UNL     1      47.997  34.078  12.312  1.00  0.00     0.000 C 
BRANCH  17  18
ATOM     18  C   UNL     1      48.312  34.506  13.754  1.00  0.00     0.000 C 
BRANCH  18  19
ATOM     19  C   UNL     1      48.160  33.357  14.762  1.00  0.00     0.000 C 
BRANCH  19  20
ATOM     20  C   UNL     1      47.716  33.840  16.151  1.00  0.00     0.006 C 
BRANCH  20  21
ATOM     21  C   UNL     1      48.737  33.439  17.220  1.00  0.00     0.053 C 
BRANCH  21  22
ATOM     22  C   UNL     1      48.661  31.972  17.499  1.00  0.00     0.041 C 
ATOM     23  O   UNL     1      47.939  31.543  18.438  1.00  0.00    -0.550 OA
ATOM     24  O   UNL     1      49.417  31.079  16.748  1.00  0.00    -0.550 OA
ENDBRANCH  21  22
ENDBRANCH  20  21
ENDBRANCH  19  20
ENDBRANCH  18  19
ENDBRANCH  17  18
ENDBRANCH  16  17
ENDBRANCH  15  16
ENDBRANCH  14  15
ENDBRANCH  13  14
ENDBRANCH   1  13
TORSDOF 20
ENDMDL
MODEL 9
REMARK VINA RESULT:    -5.206      4.131      9.605
REMARK INTER + INTRA:         -13.343
REMARK INTER:                 -11.610
REMARK INTRA:                  -1.734
REMARK UNBOUND:                -2.050
REMARK SMILES CCCCCCCCCCCCCCCCCCCCCC(=O)[O-]
REMARK SMILES IDX 12 1 11 2 10 3 9 4 8 5 7 6 6 7 5 8 4 9 3 10 2 11 1 12 13 13
REMARK SMILES IDX 14 14 15 15 16 16 17 17 18 18 19 19 20 20 21 21 22 22 23 23
REMARK SMILES IDX 24 24
REMARK H PARENT
REMARK Flexibility Score: inf
ROOT
ATOM      1  C   UNL     1      48.423  28.585  15.471  1.00  0.00     0.000 C 
ENDROOT
BRANCH   1   2
ATOM      2  C   UNL     1      47.345  29.504  16.077  1.00  0.00     0.000 C 
BRANCH   2   3
ATOM      3  C   UNL     1      47.788  30.198  17.386  1.00  0.00     0.000 C 
BRANCH   3   4
ATOM      4  C   UNL     1      49.229  30.743  17.354  1.00  0.00    -0.000 C 
BRANCH   4   5
ATOM      5  C   UNL     1      49.342  32.279  17.271  1.00  0.00    -0.000 C 
BRANCH   5   6
ATOM      6  C   UNL     1      48.005  33.038  17.156  1.00  0.00    -0.000 C 
BRANCH   6   7
ATOM      7  C   UNL     1      47.847  33.904  15.892  1.00  0.00    -0.000 C 
BRANCH   7   8
ATOM      8  C   UNL     1      47.956  33.088  14.593  1.00  0.00    -0.000 C 
BRANCH   8   9
ATOM      9  C   UNL     1      48.510  33.918  13.423  1.00  0.00    -0.000 C 
BRANCH   9  10
ATOM     10  C   UNL     1      48.009  33.424  12.057  1.00  0.00    -0.000 C 
BRANCH  10  11
ATOM     11  C   UNL     1      48.996  33.797  10.944  1.00  0.00    -0.003 C 
ATOM     12  C   UNL     1      50.426  33.426  11.328  1.00  0.00     0.004 C 
ENDBRANCH  10  11
ENDBRANCH   9  10
ENDBRANCH   8   9
ENDBRANCH   7   8
ENDBRANCH   6   7
ENDBRANCH   5   6
ENDBRANCH   4   5
ENDBRANCH   3   4
ENDBRANCH   2   3
ENDBRANCH   1   2
BRANCH   1  13
ATOM     13  C   UNL     1      48.486  27.175  16.086  1.00  0.00     0.000 C 
BRANCH  13  14
ATOM     14  C   UNL     1      48.837  26.044  15.097  1.00  0.00     0.000 C 
BRANCH  14  15
ATOM     15  C   UNL     1      50.106  25.243  15.444  1.00  0.00     0.000 C 
BRANCH  15  16
ATOM     16  C   UNL     1      50.876  25.831  16.635  1.00  0.00     0.000 C 
BRANCH  16  17
ATOM     17  C   UNL     1      50.809  24.898  17.850  1.00  0.00     0.000 C 
BRANCH  17  18
ATOM     18  C   UNL     1      50.269  25.640  19.083  1.00  0.00     0.000 C 
BRANCH  18  19
ATOM     19  C   UNL     1      48.805  25.294  19.391  1.00  0.00     0.000 C 
BRANCH  19  20
ATOM     20  C   UNL     1      48.393  25.672  20.822  1.00  0.00     0.006 C 
BRANCH  20  21
ATOM     21  C   UNL     1      49.544  25.426  21.804  1.00  0.00     0.053 C 
BRANCH  21  22
ATOM     22  C   UNL     1      49.931  26.697  22.491  1.00  0.00     0.041 C 
ATOM     23  O   UNL     1      51.146  26.979  22.663  1.00  0.00    -0.550 OA
ATOM     24  O   UNL     1      48.950  27.552  22.980  1.00  0.00    -0.550 OA
ENDBRANCH  21  22
ENDBRANCH  20  21
ENDBRANCH  19  20
ENDBRANCH  18  19
ENDBRANCH  17  18
ENDBRANCH  16  17
ENDBRANCH  15  16
ENDBRANCH  14  15
ENDBRANCH  13  14
ENDBRANCH   1  13
TORSDOF 20
ENDMDL
