MODEL 1
REMARK VINA RESULT:    -1.816      0.000      0.000
REMARK INTER + INTRA:          -7.102
REMARK INTER:                  -4.577
REMARK INTRA:                  -2.525
REMARK UNBOUND:                -2.525
REMARK SMILES CCCCCCCCCCCCCCCCCCCCCCCCCCCC(=O)[O-]
REMARK SMILES IDX 15 1 16 2 17 3 18 4 19 5 20 6 21 7 22 8 23 9 24 10 25 11
REMARK SMILES IDX 26 12 27 13 28 14 29 15 30 16 14 17 13 18 12 19 11 20 10 21
REMARK SMILES IDX 9 22 8 23 7 24 6 25 5 26 4 27 3 28 2 29 1 30
REMARK H PARENT
REMARK Flexibility Score: inf
ROOT
ATOM      1  C   UNL     1      24.755  33.333  32.662  1.00  0.00     0.000 C 
ENDROOT
BRANCH   1   2
ATOM      2  C   UNL     1      25.284  32.649  33.937  1.00  0.00     0.000 C 
BRANCH   2   3
ATOM      3  C   UNL     1      24.580  33.051  35.248  1.00  0.00     0.000 C 
BRANCH   3   4
ATOM      4  C   UNL     1      25.148  34.324  35.911  1.00  0.00     0.000 C 
BRANCH   4   5
ATOM      5  C   UNL     1      26.212  34.037  36.991  1.00  0.00     0.000 C 
BRANCH   5   6
ATOM      6  C   UNL     1      26.796  32.610  36.919  1.00  0.00     0.000 C 
BRANCH   6   7
ATOM      7  C   UNL     1      28.324  32.529  37.125  1.00  0.00     0.000 C 
BRANCH   7   8
ATOM      8  C   UNL     1      29.148  32.205  35.865  1.00  0.00     0.000 C 
BRANCH   8   9
ATOM      9  C   UNL     1      28.785  30.850  35.232  1.00  0.00     0.000 C 
BRANCH   9  10
ATOM     10  C   UNL     1      29.948  29.842  35.276  1.00  0.00     0.000 C 
BRANCH  10  11
ATOM     11  C   UNL     1      29.856  28.778  36.387  1.00  0.00     0.000 C 
BRANCH  11  12
ATOM     12  C   UNL     1      30.800  27.571  36.227  1.00  0.00     0.006 C 
BRANCH  12  13
ATOM     13  C   UNL     1      30.164  26.373  35.500  1.00  0.00     0.053 C 
BRANCH  13  14
ATOM     14  C   UNL     1      30.624  26.256  34.078  1.00  0.00     0.041 C 
ATOM     15  O   UNL     1      30.702  25.125  33.528  1.00  0.00    -0.550 OA
ATOM     16  O   UNL     1      31.008  27.390  33.374  1.00  0.00    -0.550 OA
ENDBRANCH  13  14
ENDBRANCH  12  13
ENDBRANCH  11  12
ENDBRANCH  10  11
ENDBRANCH   9  10
ENDBRANCH   8   9
ENDBRANCH   7   8
ENDBRANCH   6   7
ENDBRANCH   5   6
ENDBRANCH   4   5
ENDBRANCH   3   4
ENDBRANCH   2   3
ENDBRANCH   1   2
BRANCH   1  17
ATOM     17  C   UNL     1      25.451  32.918  31.348  1.00  0.00     0.000 C 
BRANCH  17  18
ATOM     18  C   UNL     1      26.209  34.046  30.625  1.00  0.00     0.000 C 
BRANCH  18  19
ATOM     19  C   UNL     1      27.730  33.841  30.628  1.00  0.00     0.000 C 
BRANCH  19  20
ATOM     20  C   UNL     1      28.202  33.288  31.981  1.00  0.00     0.000 C 
BRANCH  20  21
ATOM     21  C   UNL     1      28.392  34.388  33.037  1.00  0.00     0.000 C 
BRANCH  21  22
ATOM     22  C   UNL     1      27.994  35.783  32.518  1.00  0.00    -0.000 C 
BRANCH  22  23
ATOM     23  C   UNL     1      26.879  36.423  33.361  1.00  0.00    -0.000 C 
BRANCH  23  24
ATOM     24  C   UNL     1      26.640  37.899  32.997  1.00  0.00    -0.000 C 
BRANCH  24  25
ATOM     25  C   UNL     1      27.271  38.881  34.005  1.00  0.00    -0.000 C 
BRANCH  25  26
ATOM     26  C   UNL     1      27.119  40.370  33.627  1.00  0.00    -0.000 C 
BRANCH  26  27
ATOM     27  C   UNL     1      25.751  40.751  33.031  1.00  0.00    -0.000 C 
BRANCH  27  28
ATOM     28  C   UNL     1      24.875  41.596  33.984  1.00  0.00    -0.000 C 
BRANCH  28  29
ATOM     29  C   UNL     1      23.864  40.730  34.747  1.00  0.00    -0.003 C 
ATOM     30  C   UNL     1      24.257  40.577  36.215  1.00  0.00     0.004 C 
ENDBRANCH  28  29
ENDBRANCH  27  28
ENDBRANCH  26  27
ENDBRANCH  25  26
ENDBRANCH  24  25
ENDBRANCH  23  24
ENDBRANCH  22  23
ENDBRANCH  21  22
ENDBRANCH  20  21
ENDBRANCH  19  20
ENDBRANCH  18  19
ENDBRANCH  17  18
ENDBRANCH   1  17
TORSDOF 26
ENDMDL
MODEL 2
REMARK VINA RESULT:    -0.818      3.253      6.041
REMARK INTER + INTRA:          -4.586
REMARK INTER:                  -1.654
REMARK INTRA:                  -2.932
REMARK UNBOUND:                -2.525
REMARK SMILES CCCCCCCCCCCCCCCCCCCCCCCCCCCC(=O)[O-]
REMARK SMILES IDX 15 1 16 2 17 3 18 4 19 5 20 6 21 7 22 8 23 9 24 10 25 11
REMARK SMILES IDX 26 12 27 13 28 14 29 15 30 16 14 17 13 18 12 19 11 20 10 21
REMARK SMILES IDX 9 22 8 23 7 24 6 25 5 26 4 27 3 28 2 29 1 30
REMARK H PARENT
REMARK Flexibility Score: inf
ROOT
ATOM      1  C   UNL     1      28.257  33.396  37.123  1.00  0.00     0.000 C 
ENDROOT
BRANCH   1   2
ATOM      2  C   UNL     1      29.709  33.511  36.622  1.00  0.00     0.000 C 
BRANCH   2   3
ATOM      3  C   UNL     1      29.930  33.163  35.137  1.00  0.00     0.000 C 
BRANCH   3   4
ATOM      4  C   UNL     1      31.030  32.110  34.886  1.00  0.00     0.000 C 
BRANCH   4   5
ATOM      5  C   UNL     1      30.522  30.654  34.955  1.00  0.00     0.000 C 
BRANCH   5   6
ATOM      6  C   UNL     1      29.735  30.214  33.703  1.00  0.00     0.000 C 
BRANCH   6   7
ATOM      7  C   UNL     1      30.493  29.239  32.777  1.00  0.00     0.000 C 
BRANCH   7   8
ATOM      8  C   UNL     1      30.782  29.759  31.357  1.00  0.00     0.000 C 
BRANCH   8   9
ATOM      9  C   UNL     1      31.043  31.275  31.305  1.00  0.00     0.000 C 
BRANCH   9  10
ATOM     10  C   UNL     1      30.008  32.028  30.450  1.00  0.00     0.000 C 
BRANCH  10  11
ATOM     11  C   UNL     1      29.027  32.919  31.237  1.00  0.00     0.000 C 
BRANCH  11  12
ATOM     12  C   UNL     1      28.036  33.730  30.378  1.00  0.00     0.006 C 
BRANCH  12  13
ATOM     13  C   UNL     1      26.568  33.302  30.547  1.00  0.00     0.053 C 
BRANCH  13  14
ATOM     14  C   UNL     1      25.608  34.403  30.212  1.00  0.00     0.041 C 
ATOM     15  O   UNL     1      25.280  35.247  31.088  1.00  0.00    -0.550 OA
ATOM     16  O   UNL     1      25.041  34.472  28.946  1.00  0.00    -0.550 OA
ENDBRANCH  13  14
ENDBRANCH  12  13
ENDBRANCH  11  12
ENDBRANCH  10  11
ENDBRANCH   9  10
ENDBRANCH   8   9
ENDBRANCH   7   8
ENDBRANCH   6   7
ENDBRANCH   5   6
ENDBRANCH   4   5
ENDBRANCH   3   4
ENDBRANCH   2   3
ENDBRANCH   1   2
BRANCH   1  17
ATOM     17  C   UNL     1      27.661  31.973  37.111  1.00  0.00     0.000 C 
BRANCH  17  18
ATOM     18  C   UNL     1      26.260  31.857  36.483  1.00  0.00     0.000 C 
BRANCH  18  19
ATOM     19  C   UNL     1      25.238  32.806  37.125  1.00  0.00     0.000 C 
BRANCH  19  20
ATOM     20  C   UNL     1      24.151  33.200  36.114  1.00  0.00     0.000 C 
BRANCH  20  21
ATOM     21  C   UNL     1      24.719  33.490  34.716  1.00  0.00     0.000 C 
BRANCH  21  22
ATOM     22  C   UNL     1      25.727  34.653  34.716  1.00  0.00    -0.000 C 
BRANCH  22  23
ATOM     23  C   UNL     1      26.760  34.530  33.584  1.00  0.00    -0.000 C 
BRANCH  23  24
ATOM     24  C   UNL     1      27.753  35.706  33.563  1.00  0.00    -0.000 C 
BRANCH  24  25
ATOM     25  C   UNL     1      27.101  37.042  33.154  1.00  0.00    -0.000 C 
BRANCH  25  26
ATOM     26  C   UNL     1      26.611  37.903  34.339  1.00  0.00    -0.000 C 
BRANCH  26  27
ATOM     27  C   UNL     1      27.077  39.370  34.310  1.00  0.00    -0.000 C 
BRANCH  27  28
ATOM     28  C   UNL     1      26.848  40.066  32.949  1.00  0.00    -0.000 C 
BRANCH  28  29
ATOM     29  C   UNL     1      25.972  41.318  33.088  1.00  0.00    -0.003 C 
ATOM     30  C   UNL     1      24.871  41.115  34.126  1.00  0.00     0.004 C 
ENDBRANCH  28  29
ENDBRANCH  27  28
ENDBRANCH  26  27
ENDBRANCH  25  26
ENDBRANCH  24  25
ENDBRANCH  23  24
ENDBRANCH  22  23
ENDBRANCH  21  22
ENDBRANCH  20  21
ENDBRANCH  19  20
ENDBRANCH  18  19
ENDBRANCH  17  18
ENDBRANCH   1  17
TORSDOF 26
ENDMDL
MODEL 3
REMARK VINA RESULT:    -0.783      4.313      8.157
REMARK INTER + INTRA:          -4.499
REMARK INTER:                  -4.688
REMARK INTRA:                   0.189
REMARK UNBOUND:                -2.525
REMARK SMILES CCCCCCCCCCCCCCCCCCCCCCCCCCCC(=O)[O-]
REMARK SMILES IDX 15 1 16 2 17 3 18 4 19 5 20 6 21 7 22 8 23 9 24 10 25 11
REMARK SMILES IDX 26 12 27 13 28 14 29 15 30 16 14 17 13 18 12 19 11 20 10 21
REMARK SMILES IDX 9 22 8 23 7 24 6 25 5 26 4 27 3 28 2 29 1 30
REMARK H PARENT
REMARK Flexibility Score: inf
ROOT
ATOM      1  C   UNL     1      29.959  28.400  31.291  1.00  0.00     0.000 C 
ENDROOT
BRANCH   1   2
ATOM      2  C   UNL     1      30.445  29.188  32.522  1.00  0.00     0.000 C 
BRANCH   2   3
ATOM      3  C   UNL     1      31.062  28.341  33.653  1.00  0.00     0.000 C 
BRANCH   3   4
ATOM      4  C   UNL     1      30.686  26.846  33.606  1.00  0.00     0.000 C 
BRANCH   4   5
ATOM      5  C   UNL     1      29.588  26.451  34.617  1.00  0.00     0.000 C 
BRANCH   5   6
ATOM      6  C   UNL     1      30.143  25.977  35.977  1.00  0.00     0.000 C 
BRANCH   6   7
ATOM      7  C   UNL     1      30.090  27.037  37.099  1.00  0.00     0.000 C 
BRANCH   7   8
ATOM      8  C   UNL     1      30.695  28.408  36.747  1.00  0.00     0.000 C 
BRANCH   8   9
ATOM      9  C   UNL     1      29.708  29.575  36.931  1.00  0.00     0.000 C 
BRANCH   9  10
ATOM     10  C   UNL     1      30.131  30.838  36.160  1.00  0.00     0.000 C 
BRANCH  10  11
ATOM     11  C   UNL     1      29.877  32.171  36.891  1.00  0.00     0.000 C 
BRANCH  11  12
ATOM     12  C   UNL     1      28.500  32.815  36.633  1.00  0.00     0.006 C 
BRANCH  12  13
ATOM     13  C   UNL     1      27.736  32.199  35.447  1.00  0.00     0.053 C 
BRANCH  13  14
ATOM     14  C   UNL     1      26.541  33.012  35.051  1.00  0.00     0.041 C 
ATOM     15  O   UNL     1      25.441  32.447  34.808  1.00  0.00    -0.550 OA
ATOM     16  O   UNL     1      26.651  34.389  34.908  1.00  0.00    -0.550 OA
ENDBRANCH  13  14
ENDBRANCH  12  13
ENDBRANCH  11  12
ENDBRANCH  10  11
ENDBRANCH   9  10
ENDBRANCH   8   9
ENDBRANCH   7   8
ENDBRANCH   6   7
ENDBRANCH   5   6
ENDBRANCH   4   5
ENDBRANCH   3   4
ENDBRANCH   2   3
ENDBRANCH   1   2
BRANCH   1  17
ATOM     17  C   UNL     1      30.838  28.530  30.030  1.00  0.00     0.000 C 
BRANCH  17  18
ATOM     18  C   UNL     1      30.339  27.747  28.802  1.00  0.00     0.000 C 
BRANCH  18  19
ATOM     19  C   UNL     1      31.125  26.450  28.561  1.00  0.00     0.000 C 
BRANCH  19  20
ATOM     20  C   UNL     1      30.982  25.990  27.103  1.00  0.00     0.000 C 
BRANCH  20  21
ATOM     21  C   UNL     1      31.109  27.148  26.101  1.00  0.00     0.000 C 
BRANCH  21  22
ATOM     22  C   UNL     1      31.122  28.526  26.787  1.00  0.00    -0.000 C 
BRANCH  22  23
ATOM     23  C   UNL     1      31.124  29.683  25.774  1.00  0.00    -0.000 C 
BRANCH  23  24
ATOM     24  C   UNL     1      31.090  31.062  26.455  1.00  0.00    -0.000 C 
BRANCH  24  25
ATOM     25  C   UNL     1      30.915  30.978  27.985  1.00  0.00    -0.000 C 
BRANCH  25  26
ATOM     26  C   UNL     1      30.579  32.324  28.664  1.00  0.00    -0.000 C 
BRANCH  26  27
ATOM     27  C   UNL     1      29.209  32.372  29.365  1.00  0.00    -0.000 C 
BRANCH  27  28
ATOM     28  C   UNL     1      29.244  33.069  30.745  1.00  0.00    -0.000 C 
BRANCH  28  29
ATOM     29  C   UNL     1      27.879  33.662  31.119  1.00  0.00    -0.003 C 
ATOM     30  C   UNL     1      28.034  34.952  31.922  1.00  0.00     0.004 C 
ENDBRANCH  28  29
ENDBRANCH  27  28
ENDBRANCH  26  27
ENDBRANCH  25  26
ENDBRANCH  24  25
ENDBRANCH  23  24
ENDBRANCH  22  23
ENDBRANCH  21  22
ENDBRANCH  20  21
ENDBRANCH  19  20
ENDBRANCH  18  19
ENDBRANCH  17  18
ENDBRANCH   1  17
TORSDOF 26
ENDMDL
MODEL 4
REMARK VINA RESULT:    -0.665      4.205      9.695
REMARK INTER + INTRA:          -4.200
REMARK INTER:                  -2.074
REMARK INTRA:                  -2.127
REMARK UNBOUND:                -2.525
REMARK SMILES CCCCCCCCCCCCCCCCCCCCCCCCCCCC(=O)[O-]
REMARK SMILES IDX 15 1 16 2 17 3 18 4 19 5 20 6 21 7 22 8 23 9 24 10 25 11
REMARK SMILES IDX 26 12 27 13 28 14 29 15 30 16 14 17 13 18 12 19 11 20 10 21
REMARK SMILES IDX 9 22 8 23 7 24 6 25 5 26 4 27 3 28 2 29 1 30
REMARK H PARENT
REMARK Flexibility Score: inf
ROOT
ATOM      1  C   UNL     1      29.220  33.167  35.258  1.00  0.00     0.000 C 
ENDROOT
BRANCH   1   2
ATOM      2  C   UNL     1      28.222  33.723  34.224  1.00  0.00     0.000 C 
BRANCH   2   3
ATOM      3  C   UNL     1      26.831  34.093  34.775  1.00  0.00     0.000 C 
BRANCH   3   4
ATOM      4  C   UNL     1      25.937  34.863  33.780  1.00  0.00     0.000 C 
BRANCH   4   5
ATOM      5  C   UNL     1      25.114  33.946  32.850  1.00  0.00     0.000 C 
BRANCH   5   6
ATOM      6  C   UNL     1      25.973  33.174  31.826  1.00  0.00     0.000 C 
BRANCH   6   7
ATOM      7  C   UNL     1      26.442  34.013  30.617  1.00  0.00     0.000 C 
BRANCH   7   8
ATOM      8  C   UNL     1      27.916  33.831  30.214  1.00  0.00     0.000 C 
BRANCH   8   9
ATOM      9  C   UNL     1      28.873  33.761  31.418  1.00  0.00     0.000 C 
BRANCH   9  10
ATOM     10  C   UNL     1      29.636  32.426  31.494  1.00  0.00     0.000 C 
BRANCH  10  11
ATOM     11  C   UNL     1      29.714  31.637  30.172  1.00  0.00     0.000 C 
BRANCH  11  12
ATOM     12  C   UNL     1      31.054  31.744  29.416  1.00  0.00     0.006 C 
BRANCH  12  13
ATOM     13  C   UNL     1      30.933  32.385  28.022  1.00  0.00     0.053 C 
BRANCH  13  14
ATOM     14  C   UNL     1      30.404  31.428  26.996  1.00  0.00     0.041 C 
ATOM     15  O   UNL     1      29.568  31.817  26.138  1.00  0.00    -0.550 OA
ATOM     16  O   UNL     1      30.801  30.098  27.014  1.00  0.00    -0.550 OA
ENDBRANCH  13  14
ENDBRANCH  12  13
ENDBRANCH  11  12
ENDBRANCH  10  11
ENDBRANCH   9  10
ENDBRANCH   8   9
ENDBRANCH   7   8
ENDBRANCH   6   7
ENDBRANCH   5   6
ENDBRANCH   4   5
ENDBRANCH   3   4
ENDBRANCH   2   3
ENDBRANCH   1   2
BRANCH   1  17
ATOM     17  C   UNL     1      28.614  32.248  36.339  1.00  0.00     0.000 C 
BRANCH  17  18
ATOM     18  C   UNL     1      28.727  30.740  36.052  1.00  0.00     0.000 C 
BRANCH  18  19
ATOM     19  C   UNL     1      29.770  30.041  36.936  1.00  0.00     0.000 C 
BRANCH  19  20
ATOM     20  C   UNL     1      30.574  29.016  36.123  1.00  0.00     0.000 C 
BRANCH  20  21
ATOM     21  C   UNL     1      30.825  29.472  34.678  1.00  0.00     0.000 C 
BRANCH  21  22
ATOM     22  C   UNL     1      30.734  28.314  33.666  1.00  0.00    -0.000 C 
BRANCH  22  23
ATOM     23  C   UNL     1      30.854  28.799  32.212  1.00  0.00    -0.000 C 
BRANCH  23  24
ATOM     24  C   UNL     1      31.125  27.647  31.228  1.00  0.00    -0.000 C 
BRANCH  24  25
ATOM     25  C   UNL     1      30.409  27.826  29.874  1.00  0.00    -0.000 C 
BRANCH  25  26
ATOM     26  C   UNL     1      31.093  27.107  28.691  1.00  0.00    -0.000 C 
BRANCH  26  27
ATOM     27  C   UNL     1      30.133  26.380  27.731  1.00  0.00    -0.000 C 
BRANCH  27  28
ATOM     28  C   UNL     1      30.787  25.977  26.390  1.00  0.00    -0.000 C 
BRANCH  28  29
ATOM     29  C   UNL     1      29.874  25.062  25.563  1.00  0.00    -0.003 C 
ATOM     30  C   UNL     1      28.527  24.850  26.250  1.00  0.00     0.004 C 
ENDBRANCH  28  29
ENDBRANCH  27  28
ENDBRANCH  26  27
ENDBRANCH  25  26
ENDBRANCH  24  25
ENDBRANCH  23  24
ENDBRANCH  22  23
ENDBRANCH  21  22
ENDBRANCH  20  21
ENDBRANCH  19  20
ENDBRANCH  18  19
ENDBRANCH  17  18
ENDBRANCH   1  17
TORSDOF 26
ENDMDL
MODEL 5
REMARK VINA RESULT:    -0.600      3.218      6.667
REMARK INTER + INTRA:          -4.037
REMARK INTER:                  -2.852
REMARK INTRA:                  -1.186
REMARK UNBOUND:                -2.525
REMARK SMILES CCCCCCCCCCCCCCCCCCCCCCCCCCCC(=O)[O-]
REMARK SMILES IDX 15 1 16 2 17 3 18 4 19 5 20 6 21 7 22 8 23 9 24 10 25 11
REMARK SMILES IDX 26 12 27 13 28 14 29 15 30 16 14 17 13 18 12 19 11 20 10 21
REMARK SMILES IDX 9 22 8 23 7 24 6 25 5 26 4 27 3 28 2 29 1 30
REMARK H PARENT
REMARK Flexibility Score: inf
ROOT
ATOM      1  C   UNL     1      28.482  33.154  36.946  1.00  0.00     0.000 C 
ENDROOT
BRANCH   1   2
ATOM      2  C   UNL     1      30.014  33.054  37.074  1.00  0.00     0.000 C 
BRANCH   2   3
ATOM      3  C   UNL     1      30.689  32.000  36.174  1.00  0.00     0.000 C 
BRANCH   3   4
ATOM      4  C   UNL     1      31.028  30.675  36.889  1.00  0.00     0.000 C 
BRANCH   4   5
ATOM      5  C   UNL     1      29.826  29.716  37.017  1.00  0.00     0.000 C 
BRANCH   5   6
ATOM      6  C   UNL     1      29.502  28.955  35.714  1.00  0.00     0.000 C 
BRANCH   6   7
ATOM      7  C   UNL     1      29.905  27.464  35.722  1.00  0.00     0.000 C 
BRANCH   7   8
ATOM      8  C   UNL     1      31.106  27.095  34.831  1.00  0.00     0.000 C 
BRANCH   8   9
ATOM      9  C   UNL     1      31.124  27.851  33.490  1.00  0.00     0.000 C 
BRANCH   9  10
ATOM     10  C   UNL     1      30.761  26.950  32.296  1.00  0.00     0.000 C 
BRANCH  10  11
ATOM     11  C   UNL     1      30.170  27.682  31.075  1.00  0.00     0.000 C 
BRANCH  11  12
ATOM     12  C   UNL     1      30.941  27.493  29.753  1.00  0.00     0.006 C 
BRANCH  12  13
ATOM     13  C   UNL     1      30.040  27.187  28.544  1.00  0.00     0.053 C 
BRANCH  13  14
ATOM     14  C   UNL     1      30.662  27.606  27.246  1.00  0.00     0.041 C 
ATOM     15  O   UNL     1      30.891  28.824  27.016  1.00  0.00    -0.550 OA
ATOM     16  O   UNL     1      30.948  26.658  26.273  1.00  0.00    -0.550 OA
ENDBRANCH  13  14
ENDBRANCH  12  13
ENDBRANCH  11  12
ENDBRANCH  10  11
ENDBRANCH   9  10
ENDBRANCH   8   9
ENDBRANCH   7   8
ENDBRANCH   6   7
ENDBRANCH   5   6
ENDBRANCH   4   5
ENDBRANCH   3   4
ENDBRANCH   2   3
ENDBRANCH   1   2
BRANCH   1  17
ATOM     17  C   UNL     1      27.738  31.810  36.806  1.00  0.00     0.000 C 
BRANCH  17  18
ATOM     18  C   UNL     1      26.248  31.923  36.435  1.00  0.00     0.000 C 
BRANCH  18  19
ATOM     19  C   UNL     1      25.596  33.208  36.967  1.00  0.00     0.000 C 
BRANCH  19  20
ATOM     20  C   UNL     1      24.687  33.838  35.902  1.00  0.00     0.000 C 
BRANCH  20  21
ATOM     21  C   UNL     1      24.899  33.231  34.507  1.00  0.00     0.000 C 
BRANCH  21  22
ATOM     22  C   UNL     1      26.180  33.746  33.825  1.00  0.00    -0.000 C 
BRANCH  22  23
ATOM     23  C   UNL     1      26.205  35.279  33.711  1.00  0.00    -0.000 C 
BRANCH  23  24
ATOM     24  C   UNL     1      27.431  35.792  32.937  1.00  0.00    -0.000 C 
BRANCH  24  25
ATOM     25  C   UNL     1      28.181  34.677  32.180  1.00  0.00    -0.000 C 
BRANCH  25  26
ATOM     26  C   UNL     1      27.486  34.206  30.884  1.00  0.00    -0.000 C 
BRANCH  26  27
ATOM     27  C   UNL     1      28.247  33.125  30.096  1.00  0.00    -0.000 C 
BRANCH  27  28
ATOM     28  C   UNL     1      29.712  32.941  30.555  1.00  0.00    -0.000 C 
BRANCH  28  29
ATOM     29  C   UNL     1      30.587  32.344  29.444  1.00  0.00    -0.003 C 
ATOM     30  C   UNL     1      30.631  30.820  29.528  1.00  0.00     0.004 C 
ENDBRANCH  28  29
ENDBRANCH  27  28
ENDBRANCH  26  27
ENDBRANCH  25  26
ENDBRANCH  24  25
ENDBRANCH  23  24
ENDBRANCH  22  23
ENDBRANCH  21  22
ENDBRANCH  20  21
ENDBRANCH  19  20
ENDBRANCH  18  19
ENDBRANCH  17  18
ENDBRANCH   1  17
TORSDOF 26
ENDMDL
MODEL 6
REMARK VINA RESULT:    -0.362      3.733      6.013
REMARK INTER + INTRA:          -3.437
REMARK INTER:                  -1.704
REMARK INTRA:                  -1.732
REMARK UNBOUND:                -2.525
REMARK SMILES CCCCCCCCCCCCCCCCCCCCCCCCCCCC(=O)[O-]
REMARK SMILES IDX 15 1 16 2 17 3 18 4 19 5 20 6 21 7 22 8 23 9 24 10 25 11
REMARK SMILES IDX 26 12 27 13 28 14 29 15 30 16 14 17 13 18 12 19 11 20 10 21
REMARK SMILES IDX 9 22 8 23 7 24 6 25 5 26 4 27 3 28 2 29 1 30
REMARK H PARENT
REMARK Flexibility Score: inf
ROOT
ATOM      1  C   UNL     1      26.636  32.693  34.985  1.00  0.00     0.000 C 
ENDROOT
BRANCH   1   2
ATOM      2  C   UNL     1      26.318  32.156  36.393  1.00  0.00     0.000 C 
BRANCH   2   3
ATOM      3  C   UNL     1      27.460  31.385  37.085  1.00  0.00     0.000 C 
BRANCH   3   4
ATOM      4  C   UNL     1      28.577  30.912  36.131  1.00  0.00     0.000 C 
BRANCH   4   5
ATOM      5  C   UNL     1      29.950  30.752  36.818  1.00  0.00     0.000 C 
BRANCH   5   6
ATOM      6  C   UNL     1      31.038  30.165  35.894  1.00  0.00     0.000 C 
BRANCH   6   7
ATOM      7  C   UNL     1      30.799  28.700  35.467  1.00  0.00     0.000 C 
BRANCH   7   8
ATOM      8  C   UNL     1      29.669  28.481  34.445  1.00  0.00     0.000 C 
BRANCH   8   9
ATOM      9  C   UNL     1      30.091  27.610  33.248  1.00  0.00     0.000 C 
BRANCH   9  10
ATOM     10  C   UNL     1      31.125  28.303  32.343  1.00  0.00     0.000 C 
BRANCH  10  11
ATOM     11  C   UNL     1      30.755  29.731  31.896  1.00  0.00     0.000 C 
BRANCH  11  12
ATOM     12  C   UNL     1      31.125  30.085  30.442  1.00  0.00     0.006 C 
BRANCH  12  13
ATOM     13  C   UNL     1      30.601  31.457  29.982  1.00  0.00     0.053 C 
BRANCH  13  14
ATOM     14  C   UNL     1      30.779  31.673  28.509  1.00  0.00     0.041 C 
ATOM     15  O   UNL     1      30.874  30.687  27.730  1.00  0.00    -0.550 OA
ATOM     16  O   UNL     1      30.882  32.962  28.001  1.00  0.00    -0.550 OA
ENDBRANCH  13  14
ENDBRANCH  12  13
ENDBRANCH  11  12
ENDBRANCH  10  11
ENDBRANCH   9  10
ENDBRANCH   8   9
ENDBRANCH   7   8
ENDBRANCH   6   7
ENDBRANCH   5   6
ENDBRANCH   4   5
ENDBRANCH   3   4
ENDBRANCH   2   3
ENDBRANCH   1   2
BRANCH   1  17
ATOM     17  C   UNL     1      25.576  33.637  34.379  1.00  0.00     0.000 C 
BRANCH  17  18
ATOM     18  C   UNL     1      25.918  35.136  34.450  1.00  0.00     0.000 C 
BRANCH  18  19
ATOM     19  C   UNL     1      27.325  35.453  33.924  1.00  0.00     0.000 C 
BRANCH  19  20
ATOM     20  C   UNL     1      27.269  35.911  32.459  1.00  0.00     0.000 C 
BRANCH  20  21
ATOM     21  C   UNL     1      28.073  34.997  31.522  1.00  0.00     0.000 C 
BRANCH  21  22
ATOM     22  C   UNL     1      27.233  33.832  30.966  1.00  0.00    -0.000 C 
BRANCH  22  23
ATOM     23  C   UNL     1      26.615  34.158  29.596  1.00  0.00    -0.000 C 
BRANCH  23  24
ATOM     24  C   UNL     1      25.184  34.711  29.713  1.00  0.00    -0.000 C 
BRANCH  24  25
ATOM     25  C   UNL     1      24.360  34.536  28.421  1.00  0.00    -0.000 C 
BRANCH  25  26
ATOM     26  C   UNL     1      23.342  35.666  28.155  1.00  0.00    -0.000 C 
BRANCH  26  27
ATOM     27  C   UNL     1      23.482  36.357  26.786  1.00  0.00    -0.000 C 
BRANCH  27  28
ATOM     28  C   UNL     1      22.765  37.724  26.707  1.00  0.00    -0.000 C 
BRANCH  28  29
ATOM     29  C   UNL     1      21.612  37.705  25.694  1.00  0.00    -0.003 C 
ATOM     30  C   UNL     1      21.614  36.418  24.872  1.00  0.00     0.004 C 
ENDBRANCH  28  29
ENDBRANCH  27  28
ENDBRANCH  26  27
ENDBRANCH  25  26
ENDBRANCH  24  25
ENDBRANCH  23  24
ENDBRANCH  22  23
ENDBRANCH  21  22
ENDBRANCH  20  21
ENDBRANCH  19  20
ENDBRANCH  18  19
ENDBRANCH  17  18
ENDBRANCH   1  17
TORSDOF 26
ENDMDL
MODEL 7
REMARK VINA RESULT:    -0.348      2.620      4.331
REMARK INTER + INTRA:          -3.401
REMARK INTER:                  -1.179
REMARK INTRA:                  -2.222
REMARK UNBOUND:                -2.525
REMARK SMILES CCCCCCCCCCCCCCCCCCCCCCCCCCCC(=O)[O-]
REMARK SMILES IDX 15 1 16 2 17 3 18 4 19 5 20 6 21 7 22 8 23 9 24 10 25 11
REMARK SMILES IDX 26 12 27 13 28 14 29 15 30 16 14 17 13 18 12 19 11 20 10 21
REMARK SMILES IDX 9 22 8 23 7 24 6 25 5 26 4 27 3 28 2 29 1 30
REMARK H PARENT
REMARK Flexibility Score: inf
ROOT
ATOM      1  C   UNL     1      27.421  33.122  37.098  1.00  0.00     0.000 C 
ENDROOT
BRANCH   1   2
ATOM      2  C   UNL     1      28.956  32.993  37.062  1.00  0.00     0.000 C 
BRANCH   2   3
ATOM      3  C   UNL     1      29.547  32.463  35.740  1.00  0.00     0.000 C 
BRANCH   3   4
ATOM      4  C   UNL     1      30.723  31.479  35.918  1.00  0.00     0.000 C 
BRANCH   4   5
ATOM      5  C   UNL     1      30.370  30.240  36.767  1.00  0.00     0.000 C 
BRANCH   5   6
ATOM      6  C   UNL     1      29.318  29.321  36.110  1.00  0.00     0.000 C 
BRANCH   6   7
ATOM      7  C   UNL     1      29.740  27.840  35.995  1.00  0.00     0.000 C 
BRANCH   7   8
ATOM      8  C   UNL     1      30.671  27.503  34.816  1.00  0.00     0.000 C 
BRANCH   8   9
ATOM      9  C   UNL     1      30.933  28.701  33.885  1.00  0.00     0.000 C 
BRANCH   9  10
ATOM     10  C   UNL     1      30.467  28.445  32.441  1.00  0.00     0.000 C 
BRANCH  10  11
ATOM     11  C   UNL     1      31.076  29.380  31.377  1.00  0.00     0.000 C 
BRANCH  11  12
ATOM     12  C   UNL     1      30.689  29.064  29.919  1.00  0.00     0.006 C 
BRANCH  12  13
ATOM     13  C   UNL     1      31.109  27.658  29.453  1.00  0.00     0.053 C 
BRANCH  13  14
ATOM     14  C   UNL     1      30.311  27.182  28.277  1.00  0.00     0.041 C 
ATOM     15  O   UNL     1      29.907  25.990  28.226  1.00  0.00    -0.550 OA
ATOM     16  O   UNL     1      30.051  28.042  27.218  1.00  0.00    -0.550 OA
ENDBRANCH  13  14
ENDBRANCH  12  13
ENDBRANCH  11  12
ENDBRANCH  10  11
ENDBRANCH   9  10
ENDBRANCH   8   9
ENDBRANCH   7   8
ENDBRANCH   6   7
ENDBRANCH   5   6
ENDBRANCH   4   5
ENDBRANCH   3   4
ENDBRANCH   2   3
ENDBRANCH   1   2
BRANCH   1  17
ATOM     17  C   UNL     1      26.639  31.805  36.908  1.00  0.00     0.000 C 
BRANCH  17  18
ATOM     18  C   UNL     1      25.970  31.635  35.532  1.00  0.00     0.000 C 
BRANCH  18  19
ATOM     19  C   UNL     1      25.128  32.852  35.124  1.00  0.00     0.000 C 
BRANCH  19  20
ATOM     20  C   UNL     1      25.290  33.149  33.626  1.00  0.00     0.000 C 
BRANCH  20  21
ATOM     21  C   UNL     1      26.640  33.804  33.295  1.00  0.00     0.000 C 
BRANCH  21  22
ATOM     22  C   UNL     1      26.633  35.326  33.528  1.00  0.00    -0.000 C 
BRANCH  22  23
ATOM     23  C   UNL     1      26.559  36.118  32.212  1.00  0.00    -0.000 C 
BRANCH  23  24
ATOM     24  C   UNL     1      26.703  37.634  32.429  1.00  0.00    -0.000 C 
BRANCH  24  25
ATOM     25  C   UNL     1      27.428  37.993  33.743  1.00  0.00    -0.000 C 
BRANCH  25  26
ATOM     26  C   UNL     1      27.224  39.451  34.207  1.00  0.00    -0.000 C 
BRANCH  26  27
ATOM     27  C   UNL     1      26.338  40.308  33.284  1.00  0.00    -0.000 C 
BRANCH  27  28
ATOM     28  C   UNL     1      25.354  41.224  34.047  1.00  0.00    -0.000 C 
BRANCH  28  29
ATOM     29  C   UNL     1      24.443  40.424  34.988  1.00  0.00    -0.003 C 
ATOM     30  C   UNL     1      24.518  40.953  36.419  1.00  0.00     0.004 C 
ENDBRANCH  28  29
ENDBRANCH  27  28
ENDBRANCH  26  27
ENDBRANCH  25  26
ENDBRANCH  24  25
ENDBRANCH  23  24
ENDBRANCH  22  23
ENDBRANCH  21  22
ENDBRANCH  20  21
ENDBRANCH  19  20
ENDBRANCH  18  19
ENDBRANCH  17  18
ENDBRANCH   1  17
TORSDOF 26
ENDMDL
MODEL 8
REMARK VINA RESULT:    -0.344      4.899      8.150
REMARK INTER + INTRA:          -3.392
REMARK INTER:                  -1.303
REMARK INTRA:                  -2.089
REMARK UNBOUND:                -2.525
REMARK SMILES CCCCCCCCCCCCCCCCCCCCCCCCCCCC(=O)[O-]
REMARK SMILES IDX 15 1 16 2 17 3 18 4 19 5 20 6 21 7 22 8 23 9 24 10 25 11
REMARK SMILES IDX 26 12 27 13 28 14 29 15 30 16 14 17 13 18 12 19 11 20 10 21
REMARK SMILES IDX 9 22 8 23 7 24 6 25 5 26 4 27 3 28 2 29 1 30
REMARK H PARENT
REMARK Flexibility Score: inf
ROOT
ATOM      1  C   UNL     1      25.297  33.378  37.051  1.00  0.00     0.000 C 
ENDROOT
BRANCH   1   2
ATOM      2  C   UNL     1      26.798  33.040  36.983  1.00  0.00     0.000 C 
BRANCH   2   3
ATOM      3  C   UNL     1      27.141  31.537  36.975  1.00  0.00     0.000 C 
BRANCH   3   4
ATOM      4  C   UNL     1      27.675  31.013  35.625  1.00  0.00     0.000 C 
BRANCH   4   5
ATOM      5  C   UNL     1      29.215  30.966  35.544  1.00  0.00     0.000 C 
BRANCH   5   6
ATOM      6  C   UNL     1      29.846  32.271  35.015  1.00  0.00     0.000 C 
BRANCH   6   7
ATOM      7  C   UNL     1      29.018  32.994  33.932  1.00  0.00     0.000 C 
BRANCH   7   8
ATOM      8  C   UNL     1      28.859  34.514  34.120  1.00  0.00     0.000 C 
BRANCH   8   9
ATOM      9  C   UNL     1      28.335  35.232  32.863  1.00  0.00     0.000 C 
BRANCH   9  10
ATOM     10  C   UNL     1      26.993  35.947  33.103  1.00  0.00     0.000 C 
BRANCH  10  11
ATOM     11  C   UNL     1      26.957  37.433  32.695  1.00  0.00     0.000 C 
BRANCH  11  12
ATOM     12  C   UNL     1      26.412  38.399  33.765  1.00  0.00     0.006 C 
BRANCH  12  13
ATOM     13  C   UNL     1      26.666  39.884  33.451  1.00  0.00     0.053 C 
BRANCH  13  14
ATOM     14  C   UNL     1      25.654  40.786  34.093  1.00  0.00     0.041 C 
ATOM     15  O   UNL     1      25.204  40.520  35.239  1.00  0.00    -0.550 OA
ATOM     16  O   UNL     1      25.177  41.896  33.408  1.00  0.00    -0.550 OA
ENDBRANCH  13  14
ENDBRANCH  12  13
ENDBRANCH  11  12
ENDBRANCH  10  11
ENDBRANCH   9  10
ENDBRANCH   8   9
ENDBRANCH   7   8
ENDBRANCH   6   7
ENDBRANCH   5   6
ENDBRANCH   4   5
ENDBRANCH   3   4
ENDBRANCH   2   3
ENDBRANCH   1   2
BRANCH   1  17
ATOM     17  C   UNL     1      24.675  33.906  35.741  1.00  0.00     0.000 C 
BRANCH  17  18
ATOM     18  C   UNL     1      25.523  33.678  34.477  1.00  0.00     0.000 C 
BRANCH  18  19
ATOM     19  C   UNL     1      25.025  32.498  33.629  1.00  0.00     0.000 C 
BRANCH  19  20
ATOM     20  C   UNL     1      24.962  32.883  32.144  1.00  0.00     0.000 C 
BRANCH  20  21
ATOM     21  C   UNL     1      26.337  33.255  31.569  1.00  0.00     0.000 C 
BRANCH  21  22
ATOM     22  C   UNL     1      26.253  33.785  30.126  1.00  0.00    -0.000 C 
BRANCH  22  23
ATOM     23  C   UNL     1      25.167  34.860  29.962  1.00  0.00    -0.000 C 
BRANCH  23  24
ATOM     24  C   UNL     1      24.222  34.568  28.783  1.00  0.00    -0.000 C 
BRANCH  24  25
ATOM     25  C   UNL     1      23.920  35.814  27.925  1.00  0.00    -0.000 C 
BRANCH  25  26
ATOM     26  C   UNL     1      23.349  35.502  26.525  1.00  0.00    -0.000 C 
BRANCH  26  27
ATOM     27  C   UNL     1      22.405  36.576  25.956  1.00  0.00    -0.000 C 
BRANCH  27  28
ATOM     28  C   UNL     1      22.408  37.894  26.764  1.00  0.00    -0.000 C 
BRANCH  28  29
ATOM     29  C   UNL     1      22.727  39.106  25.878  1.00  0.00    -0.003 C 
ATOM     30  C   UNL     1      23.999  39.815  26.341  1.00  0.00     0.004 C 
ENDBRANCH  28  29
ENDBRANCH  27  28
ENDBRANCH  26  27
ENDBRANCH  25  26
ENDBRANCH  24  25
ENDBRANCH  23  24
ENDBRANCH  22  23
ENDBRANCH  21  22
ENDBRANCH  20  21
ENDBRANCH  19  20
ENDBRANCH  18  19
ENDBRANCH  17  18
ENDBRANCH   1  17
TORSDOF 26
ENDMDL
