MODEL 1
REMARK VINA RESULT:    -7.419      0.000      0.000
REMARK INTER + INTRA:          -9.042
REMARK INTER:                  -8.937
REMARK INTRA:                  -0.105
REMARK UNBOUND:                -0.105
REMARK SMILES O=c1c(O)c(-c2ccc(O)c(O)c2)oc2cc(O)cc(O)c12
REMARK SMILES IDX 5 1 3 2 2 3 1 4 22 5 20 6 19 7 17 8 16 9 15 10 14 11 6 12
REMARK SMILES IDX 7 13 8 14 9 15 13 16 11 17 10 18 12 20 4 22 21 24 18 26
REMARK H PARENT 10 19 12 21 4 23 21 25 18 27
REMARK Flexibility Score: inf
ROOT
ATOM      1  C   UNL     1      -8.771  -6.750  -4.501  1.00  0.00     0.180 A 
ATOM      2  C   UNL     1      -9.817  -6.285  -5.316  1.00  0.00     0.208 A 
ATOM      3  C   UNL     1      -9.577  -6.088  -6.685  1.00  0.00     0.238 A 
ATOM      4  O   UNL     1     -10.538  -5.743  -7.422  1.00  0.00    -0.285 OA
ATOM      5  C   UNL     1      -8.280  -6.304  -7.212  1.00  0.00     0.111 A 
ATOM      6  C   UNL     1      -7.912  -6.093  -8.576  1.00  0.00     0.134 A 
ATOM      7  C   UNL     1      -6.626  -6.442  -9.006  1.00  0.00     0.093 A 
ATOM      8  C   UNL     1      -5.676  -6.935  -8.109  1.00  0.00     0.123 A 
ATOM      9  C   UNL     1      -6.008  -7.093  -6.766  1.00  0.00     0.094 A 
ATOM     10  C   UNL     1      -7.295  -6.789  -6.313  1.00  0.00     0.146 A 
ATOM     11  O   UNL     1      -7.575  -6.976  -5.029  1.00  0.00    -0.452 OA
ENDROOT
BRANCH   1  12
ATOM     12  C   UNL     1      -8.950  -6.996  -3.051  1.00  0.00     0.025 A 
ATOM     13  C   UNL     1      -8.228  -6.269  -2.092  1.00  0.00     0.016 A 
ATOM     14  C   UNL     1      -8.431  -6.502  -0.730  1.00  0.00     0.051 A 
ATOM     15  C   UNL     1      -9.366  -7.449  -0.300  1.00  0.00     0.157 A 
ATOM     16  C   UNL     1      -9.905  -7.930  -2.621  1.00  0.00     0.062 A 
ATOM     17  C   UNL     1     -10.116  -8.171  -1.258  1.00  0.00     0.158 A 
BRANCH  15  18
ATOM     18  O   UNL     1      -9.519  -7.637   1.076  1.00  0.00    -0.504 OA
ATOM     19  H   UNL     1     -10.396  -7.861   1.522  1.00  0.00     0.293 HD
ENDBRANCH  15  18
BRANCH  17  20
ATOM     20  O   UNL     1     -11.072  -9.125  -0.905  1.00  0.00    -0.504 OA
ATOM     21  H   UNL     1     -10.851 -10.024  -0.503  1.00  0.00     0.293 HD
ENDBRANCH  17  20
ENDBRANCH   1  12
BRANCH   2  22
ATOM     22  O   UNL     1     -11.069  -6.003  -4.762  1.00  0.00    -0.502 OA
ATOM     23  H   UNL     1     -11.701  -6.730  -4.448  1.00  0.00     0.293 HD
ENDBRANCH   2  22
BRANCH   6  24
ATOM     24  O   UNL     1      -8.755  -5.524  -9.535  1.00  0.00    -0.507 OA
ATOM     25  H   UNL     1      -9.619  -5.930  -9.860  1.00  0.00     0.293 HD
ENDBRANCH   6  24
BRANCH   8  26
ATOM     26  O   UNL     1      -4.393  -7.264  -8.543  1.00  0.00    -0.508 OA
ATOM     27  H   UNL     1      -3.869  -8.022  -8.121  1.00  0.00     0.293 HD
ENDBRANCH   8  26
TORSDOF 6
ENDMDL
MODEL 2
REMARK VINA RESULT:    -7.235      1.466      7.118
REMARK INTER + INTRA:          -8.820
REMARK INTER:                  -8.537
REMARK INTRA:                  -0.283
REMARK UNBOUND:                -0.105
REMARK SMILES O=c1c(O)c(-c2ccc(O)c(O)c2)oc2cc(O)cc(O)c12
REMARK SMILES IDX 5 1 3 2 2 3 1 4 22 5 20 6 19 7 17 8 16 9 15 10 14 11 6 12
REMARK SMILES IDX 7 13 8 14 9 15 13 16 11 17 10 18 12 20 4 22 21 24 18 26
REMARK H PARENT 10 19 12 21 4 23 21 25 18 27
REMARK Flexibility Score: inf
ROOT
ATOM      1  C   UNL     1      -7.923  -6.518  -4.966  1.00  0.00     0.180 A 
ATOM      2  C   UNL     1      -7.021  -5.823  -4.143  1.00  0.00     0.208 A 
ATOM      3  C   UNL     1      -7.163  -5.915  -2.749  1.00  0.00     0.238 A 
ATOM      4  O   UNL     1      -6.307  -5.352  -2.017  1.00  0.00    -0.285 OA
ATOM      5  C   UNL     1      -8.238  -6.653  -2.196  1.00  0.00     0.111 A 
ATOM      6  C   UNL     1      -8.504  -6.778  -0.798  1.00  0.00     0.134 A 
ATOM      7  C   UNL     1      -9.533  -7.622  -0.364  1.00  0.00     0.093 A 
ATOM      8  C   UNL     1     -10.346  -8.296  -1.278  1.00  0.00     0.123 A 
ATOM      9  C   UNL     1     -10.129  -8.139  -2.644  1.00  0.00     0.094 A 
ATOM     10  C   UNL     1      -9.086  -7.334  -3.109  1.00  0.00     0.146 A 
ATOM     11  O   UNL     1      -8.901  -7.230  -4.419  1.00  0.00    -0.452 OA
ENDROOT
BRANCH   1  12
ATOM     12  C   UNL     1      -7.830  -6.482  -6.444  1.00  0.00     0.025 A 
ATOM     13  C   UNL     1      -6.853  -7.217  -7.133  1.00  0.00     0.016 A 
ATOM     14  C   UNL     1      -6.800  -7.186  -8.528  1.00  0.00     0.051 A 
ATOM     15  C   UNL     1      -7.726  -6.437  -9.261  1.00  0.00     0.157 A 
ATOM     16  C   UNL     1      -8.774  -5.748  -7.178  1.00  0.00     0.062 A 
ATOM     17  C   UNL     1      -8.730  -5.710  -8.577  1.00  0.00     0.158 A 
BRANCH  15  18
ATOM     18  O   UNL     1      -7.616  -6.444 -10.653  1.00  0.00    -0.504 OA
ATOM     19  H   UNL     1      -7.050  -7.100 -11.172  1.00  0.00     0.293 HD
ENDBRANCH  15  18
BRANCH  17  20
ATOM     20  O   UNL     1      -9.693  -4.948  -9.240  1.00  0.00    -0.504 OA
ATOM     21  H   UNL     1      -9.481  -4.142  -9.810  1.00  0.00     0.293 HD
ENDBRANCH  17  20
ENDBRANCH   1  12
BRANCH   2  22
ATOM     22  O   UNL     1      -6.014  -5.037  -4.708  1.00  0.00    -0.502 OA
ATOM     23  H   UNL     1      -6.136  -4.050  -4.897  1.00  0.00     0.293 HD
ENDBRANCH   2  22
BRANCH   6  24
ATOM     24  O   UNL     1      -7.812  -6.080   0.196  1.00  0.00    -0.507 OA
ATOM     25  H   UNL     1      -6.814  -6.114   0.338  1.00  0.00     0.293 HD
ENDBRANCH   6  24
BRANCH   8  26
ATOM     26  O   UNL     1     -11.379  -9.121  -0.837  1.00  0.00    -0.508 OA
ATOM     27  H   UNL     1     -12.256  -8.740  -0.503  1.00  0.00     0.293 HD
ENDBRANCH   8  26
TORSDOF 6
ENDMDL
MODEL 3
REMARK VINA RESULT:    -7.225      2.787      4.916
REMARK INTER + INTRA:          -8.808
REMARK INTER:                  -8.485
REMARK INTRA:                  -0.323
REMARK UNBOUND:                -0.105
REMARK SMILES O=c1c(O)c(-c2ccc(O)c(O)c2)oc2cc(O)cc(O)c12
REMARK SMILES IDX 5 1 3 2 2 3 1 4 22 5 20 6 19 7 17 8 16 9 15 10 14 11 6 12
REMARK SMILES IDX 7 13 8 14 9 15 13 16 11 17 10 18 12 20 4 22 21 24 18 26
REMARK H PARENT 10 19 12 21 4 23 21 25 18 27
REMARK Flexibility Score: inf
ROOT
ATOM      1  C   UNL     1     -10.773  -6.080  -6.043  1.00  0.00     0.180 A 
ATOM      2  C   UNL     1      -9.923  -6.206  -4.931  1.00  0.00     0.208 A 
ATOM      3  C   UNL     1      -8.543  -6.355  -5.143  1.00  0.00     0.238 A 
ATOM      4  O   UNL     1      -7.779  -6.392  -4.142  1.00  0.00    -0.285 OA
ATOM      5  C   UNL     1      -8.036  -6.431  -6.463  1.00  0.00     0.111 A 
ATOM      6  C   UNL     1      -6.660  -6.625  -6.796  1.00  0.00     0.134 A 
ATOM      7  C   UNL     1      -6.261  -6.577  -8.137  1.00  0.00     0.093 A 
ATOM      8  C   UNL     1      -7.195  -6.406  -9.161  1.00  0.00     0.123 A 
ATOM      9  C   UNL     1      -8.545  -6.271  -8.850  1.00  0.00     0.094 A 
ATOM     10  C   UNL     1      -8.971  -6.276  -7.520  1.00  0.00     0.146 A 
ATOM     11  O   UNL     1     -10.265  -6.122  -7.269  1.00  0.00    -0.452 OA
ENDROOT
BRANCH   1  12
ATOM     12  C   UNL     1     -12.237  -5.906  -5.900  1.00  0.00     0.025 A 
ATOM     13  C   UNL     1     -13.097  -7.010  -5.798  1.00  0.00     0.016 A 
ATOM     14  C   UNL     1     -14.472  -6.822  -5.640  1.00  0.00     0.051 A 
ATOM     15  C   UNL     1     -15.011  -5.533  -5.567  1.00  0.00     0.157 A 
ATOM     16  C   UNL     1     -12.773  -4.613  -5.805  1.00  0.00     0.062 A 
ATOM     17  C   UNL     1     -14.150  -4.413  -5.647  1.00  0.00     0.158 A 
BRANCH  15  18
ATOM     18  O   UNL     1     -16.394  -5.412  -5.414  1.00  0.00    -0.504 OA
ATOM     19  H   UNL     1     -17.035  -5.245  -6.175  1.00  0.00     0.293 HD
ENDBRANCH  15  18
BRANCH  17  20
ATOM     20  O   UNL     1     -14.614  -3.098  -5.572  1.00  0.00    -0.504 OA
ATOM     21  H   UNL     1     -14.675  -2.568  -4.715  1.00  0.00     0.293 HD
ENDBRANCH  17  20
ENDBRANCH   1  12
BRANCH   2  22
ATOM     22  O   UNL     1     -10.451  -6.206  -3.637  1.00  0.00    -0.502 OA
ATOM     23  H   UNL     1     -10.885  -5.388  -3.227  1.00  0.00     0.293 HD
ENDBRANCH   2  22
BRANCH   6  24
ATOM     24  O   UNL     1      -5.658  -6.892  -5.858  1.00  0.00    -0.507 OA
ATOM     25  H   UNL     1      -5.488  -6.352  -5.024  1.00  0.00     0.293 HD
ENDBRANCH   6  24
BRANCH   8  26
ATOM     26  O   UNL     1      -6.790  -6.377 -10.494  1.00  0.00    -0.508 OA
ATOM     27  H   UNL     1      -6.875  -5.538 -11.056  1.00  0.00     0.293 HD
ENDBRANCH   8  26
TORSDOF 6
ENDMDL
MODEL 4
REMARK VINA RESULT:    -7.180      1.136      2.842
REMARK INTER + INTRA:          -8.754
REMARK INTER:                  -8.483
REMARK INTRA:                  -0.271
REMARK UNBOUND:                -0.105
REMARK SMILES O=c1c(O)c(-c2ccc(O)c(O)c2)oc2cc(O)cc(O)c12
REMARK SMILES IDX 5 1 3 2 2 3 1 4 22 5 20 6 19 7 17 8 16 9 15 10 14 11 6 12
REMARK SMILES IDX 7 13 8 14 9 15 13 16 11 17 10 18 12 20 4 22 21 24 18 26
REMARK H PARENT 10 19 12 21 4 23 21 25 18 27
REMARK Flexibility Score: inf
ROOT
ATOM      1  C   UNL     1      -8.027  -6.931  -4.314  1.00  0.00     0.180 A 
ATOM      2  C   UNL     1      -6.762  -7.366  -4.745  1.00  0.00     0.208 A 
ATOM      3  C   UNL     1      -6.402  -7.186  -6.090  1.00  0.00     0.238 A 
ATOM      4  O   UNL     1      -5.240  -7.510  -6.452  1.00  0.00    -0.285 OA
ATOM      5  C   UNL     1      -7.331  -6.625  -7.000  1.00  0.00     0.111 A 
ATOM      6  C   UNL     1      -7.089  -6.437  -8.395  1.00  0.00     0.134 A 
ATOM      7  C   UNL     1      -8.042  -5.774  -9.178  1.00  0.00     0.093 A 
ATOM      8  C   UNL     1      -9.255  -5.348  -8.630  1.00  0.00     0.123 A 
ATOM      9  C   UNL     1      -9.522  -5.576  -7.283  1.00  0.00     0.094 A 
ATOM     10  C   UNL     1      -8.576  -6.201  -6.467  1.00  0.00     0.146 A 
ATOM     11  O   UNL     1      -8.865  -6.378  -5.183  1.00  0.00    -0.452 OA
ENDROOT
BRANCH   1  12
ATOM     12  C   UNL     1      -8.474  -7.073  -2.909  1.00  0.00     0.025 A 
ATOM     13  C   UNL     1      -7.970  -6.245  -1.895  1.00  0.00     0.016 A 
ATOM     14  C   UNL     1      -8.424  -6.382  -0.581  1.00  0.00     0.051 A 
ATOM     15  C   UNL     1      -9.397  -7.334  -0.258  1.00  0.00     0.157 A 
ATOM     16  C   UNL     1      -9.466  -8.014  -2.592  1.00  0.00     0.062 A 
ATOM     17  C   UNL     1      -9.928  -8.160  -1.278  1.00  0.00     0.158 A 
BRANCH  15  18
ATOM     18  O   UNL     1      -9.805  -7.424   1.074  1.00  0.00    -0.504 OA
ATOM     19  H   UNL     1     -10.557  -8.015   1.397  1.00  0.00     0.293 HD
ENDBRANCH  15  18
BRANCH  17  20
ATOM     20  O   UNL     1     -10.906  -9.125  -1.033  1.00  0.00    -0.504 OA
ATOM     21  H   UNL     1     -10.907 -10.046  -1.447  1.00  0.00     0.293 HD
ENDBRANCH  17  20
ENDBRANCH   1  12
BRANCH   2  22
ATOM     22  O   UNL     1      -5.889  -7.988  -3.848  1.00  0.00    -0.502 OA
ATOM     23  H   UNL     1      -4.885  -7.859  -3.888  1.00  0.00     0.293 HD
ENDBRANCH   2  22
BRANCH   6  24
ATOM     24  O   UNL     1      -5.952  -6.901  -9.063  1.00  0.00    -0.507 OA
ATOM     25  H   UNL     1      -5.734  -7.872  -9.226  1.00  0.00     0.293 HD
ENDBRANCH   6  24
BRANCH   8  26
ATOM     26  O   UNL     1     -10.204  -4.704  -9.420  1.00  0.00    -0.508 OA
ATOM     27  H   UNL     1      -9.995  -3.835  -9.898  1.00  0.00     0.293 HD
ENDBRANCH   8  26
TORSDOF 6
ENDMDL
MODEL 5
REMARK VINA RESULT:    -6.747      3.176      5.717
REMARK INTER + INTRA:          -8.232
REMARK INTER:                  -7.902
REMARK INTRA:                  -0.330
REMARK UNBOUND:                -0.105
REMARK SMILES O=c1c(O)c(-c2ccc(O)c(O)c2)oc2cc(O)cc(O)c12
REMARK SMILES IDX 5 1 3 2 2 3 1 4 22 5 20 6 19 7 17 8 16 9 15 10 14 11 6 12
REMARK SMILES IDX 7 13 8 14 9 15 13 16 11 17 10 18 12 20 4 22 21 24 18 26
REMARK H PARENT 10 19 12 21 4 23 21 25 18 27
REMARK Flexibility Score: inf
ROOT
ATOM      1  C   UNL     1     -10.227  -6.437  -4.381  1.00  0.00     0.180 A 
ATOM      2  C   UNL     1     -10.754  -7.729  -4.548  1.00  0.00     0.208 A 
ATOM      3  C   UNL     1     -12.081  -7.872  -4.985  1.00  0.00     0.238 A 
ATOM      4  O   UNL     1     -12.522  -9.031  -5.204  1.00  0.00    -0.285 OA
ATOM      5  C   UNL     1     -12.882  -6.723  -5.196  1.00  0.00     0.111 A 
ATOM      6  C   UNL     1     -14.253  -6.751  -5.596  1.00  0.00     0.134 A 
ATOM      7  C   UNL     1     -14.914  -5.550  -5.878  1.00  0.00     0.093 A 
ATOM      8  C   UNL     1     -14.274  -4.319  -5.712  1.00  0.00     0.123 A 
ATOM      9  C   UNL     1     -12.955  -4.280  -5.270  1.00  0.00     0.094 A 
ATOM     10  C   UNL     1     -12.255  -5.462  -5.017  1.00  0.00     0.146 A 
ATOM     11  O   UNL     1     -10.992  -5.378  -4.619  1.00  0.00    -0.452 OA
ENDROOT
BRANCH   1  12
ATOM     12  C   UNL     1      -8.833  -6.205  -3.938  1.00  0.00     0.025 A 
ATOM     13  C   UNL     1      -7.788  -6.053  -4.861  1.00  0.00     0.016 A 
ATOM     14  C   UNL     1      -6.485  -5.812  -4.419  1.00  0.00     0.051 A 
ATOM     15  C   UNL     1      -6.204  -5.702  -3.053  1.00  0.00     0.157 A 
ATOM     16  C   UNL     1      -8.557  -6.073  -2.568  1.00  0.00     0.062 A 
ATOM     17  C   UNL     1      -7.255  -5.830  -2.114  1.00  0.00     0.158 A 
BRANCH  15  18
ATOM     18  O   UNL     1      -4.881  -5.463  -2.677  1.00  0.00    -0.504 OA
ATOM     19  H   UNL     1      -4.612  -4.934  -1.860  1.00  0.00     0.293 HD
ENDBRANCH  15  18
BRANCH  17  20
ATOM     20  O   UNL     1      -7.053  -5.724  -0.737  1.00  0.00    -0.504 OA
ATOM     21  H   UNL     1      -7.351  -4.934  -0.182  1.00  0.00     0.293 HD
ENDBRANCH  17  20
ENDBRANCH   1  12
BRANCH   2  22
ATOM     22  O   UNL     1      -9.971  -8.851  -4.261  1.00  0.00    -0.502 OA
ATOM     23  H   UNL     1      -8.959  -8.831  -4.294  1.00  0.00     0.293 HD
ENDBRANCH   2  22
BRANCH   6  24
ATOM     24  O   UNL     1     -15.013  -7.919  -5.706  1.00  0.00    -0.507 OA
ATOM     25  H   UNL     1     -15.951  -8.034  -5.355  1.00  0.00     0.293 HD
ENDBRANCH   6  24
BRANCH   8  26
ATOM     26  O   UNL     1     -14.946  -3.128  -5.979  1.00  0.00    -0.508 OA
ATOM     27  H   UNL     1     -14.957  -2.365  -5.312  1.00  0.00     0.293 HD
ENDBRANCH   8  26
TORSDOF 6
ENDMDL
MODEL 6
REMARK VINA RESULT:    -6.710      3.288      5.353
REMARK INTER + INTRA:          -8.188
REMARK INTER:                  -8.047
REMARK INTRA:                  -0.141
REMARK UNBOUND:                -0.105
REMARK SMILES O=c1c(O)c(-c2ccc(O)c(O)c2)oc2cc(O)cc(O)c12
REMARK SMILES IDX 5 1 3 2 2 3 1 4 22 5 20 6 19 7 17 8 16 9 15 10 14 11 6 12
REMARK SMILES IDX 7 13 8 14 9 15 13 16 11 17 10 18 12 20 4 22 21 24 18 26
REMARK H PARENT 10 19 12 21 4 23 21 25 18 27
REMARK Flexibility Score: inf
ROOT
ATOM      1  C   UNL     1     -11.193  -7.011  -5.221  1.00  0.00     0.180 A 
ATOM      2  C   UNL     1     -10.567  -7.800  -4.240  1.00  0.00     0.208 A 
ATOM      3  C   UNL     1      -9.196  -7.620  -3.995  1.00  0.00     0.238 A 
ATOM      4  O   UNL     1      -8.659  -8.277  -3.065  1.00  0.00    -0.285 OA
ATOM      5  C   UNL     1      -8.457  -6.694  -4.770  1.00  0.00     0.111 A 
ATOM      6  C   UNL     1      -7.053  -6.462  -4.637  1.00  0.00     0.134 A 
ATOM      7  C   UNL     1      -6.448  -5.445  -5.385  1.00  0.00     0.093 A 
ATOM      8  C   UNL     1      -7.182  -4.694  -6.307  1.00  0.00     0.123 A 
ATOM      9  C   UNL     1      -8.539  -4.950  -6.482  1.00  0.00     0.094 A 
ATOM     10  C   UNL     1      -9.180  -5.932  -5.724  1.00  0.00     0.146 A 
ATOM     11  O   UNL     1     -10.480  -6.127  -5.909  1.00  0.00    -0.452 OA
ENDROOT
BRANCH   1  12
ATOM     12  C   UNL     1     -12.637  -7.133  -5.527  1.00  0.00     0.025 A 
ATOM     13  C   UNL     1     -13.181  -8.328  -6.020  1.00  0.00     0.016 A 
ATOM     14  C   UNL     1     -14.550  -8.426  -6.280  1.00  0.00     0.051 A 
ATOM     15  C   UNL     1     -15.401  -7.342  -6.039  1.00  0.00     0.157 A 
ATOM     16  C   UNL     1     -13.492  -6.052  -5.264  1.00  0.00     0.062 A 
ATOM     17  C   UNL     1     -14.866  -6.139  -5.520  1.00  0.00     0.158 A 
BRANCH  15  18
ATOM     18  O   UNL     1     -16.759  -7.503  -6.323  1.00  0.00    -0.504 OA
ATOM     19  H   UNL     1     -17.140  -8.281  -6.843  1.00  0.00     0.293 HD
ENDBRANCH  15  18
BRANCH  17  20
ATOM     20  O   UNL     1     -15.654  -5.020  -5.247  1.00  0.00    -0.504 OA
ATOM     21  H   UNL     1     -15.890  -4.315  -5.929  1.00  0.00     0.293 HD
ENDBRANCH  17  20
ENDBRANCH   1  12
BRANCH   2  22
ATOM     22  O   UNL     1     -11.298  -8.763  -3.540  1.00  0.00    -0.502 OA
ATOM     23  H   UNL     1     -10.907  -9.660  -3.279  1.00  0.00     0.293 HD
ENDBRANCH   2  22
BRANCH   6  24
ATOM     24  O   UNL     1      -6.210  -7.213  -3.813  1.00  0.00    -0.507 OA
ATOM     25  H   UNL     1      -5.210  -7.100  -3.753  1.00  0.00     0.293 HD
ENDBRANCH   6  24
BRANCH   8  26
ATOM     26  O   UNL     1      -6.568  -3.695  -7.059  1.00  0.00    -0.508 OA
ATOM     27  H   UNL     1      -7.091  -2.907  -7.422  1.00  0.00     0.293 HD
ENDBRANCH   8  26
TORSDOF 6
ENDMDL
MODEL 7
REMARK VINA RESULT:    -6.656      3.014      5.965
REMARK INTER + INTRA:          -8.123
REMARK INTER:                  -7.794
REMARK INTRA:                  -0.330
REMARK UNBOUND:                -0.105
REMARK SMILES O=c1c(O)c(-c2ccc(O)c(O)c2)oc2cc(O)cc(O)c12
REMARK SMILES IDX 5 1 3 2 2 3 1 4 22 5 20 6 19 7 17 8 16 9 15 10 14 11 6 12
REMARK SMILES IDX 7 13 8 14 9 15 13 16 11 17 10 18 12 20 4 22 21 24 18 26
REMARK H PARENT 10 19 12 21 4 23 21 25 18 27
REMARK Flexibility Score: inf
ROOT
ATOM      1  C   UNL     1     -10.939  -6.967  -5.218  1.00  0.00     0.180 A 
ATOM      2  C   UNL     1      -9.928  -6.523  -6.087  1.00  0.00     0.208 A 
ATOM      3  C   UNL     1      -8.687  -6.143  -5.550  1.00  0.00     0.238 A 
ATOM      4  O   UNL     1      -7.762  -5.818  -6.340  1.00  0.00    -0.285 OA
ATOM      5  C   UNL     1      -8.490  -6.160  -4.148  1.00  0.00     0.111 A 
ATOM      6  C   UNL     1      -7.288  -5.755  -3.491  1.00  0.00     0.134 A 
ATOM      7  C   UNL     1      -7.171  -5.915  -2.105  1.00  0.00     0.093 A 
ATOM      8  C   UNL     1      -8.234  -6.407  -1.344  1.00  0.00     0.123 A 
ATOM      9  C   UNL     1      -9.429  -6.753  -1.969  1.00  0.00     0.094 A 
ATOM     10  C   UNL     1      -9.565  -6.641  -3.354  1.00  0.00     0.146 A 
ATOM     11  O   UNL     1     -10.714  -7.004  -3.910  1.00  0.00    -0.452 OA
ENDROOT
BRANCH   1  12
ATOM     12  C   UNL     1     -12.268  -7.397  -5.710  1.00  0.00     0.025 A 
ATOM     13  C   UNL     1     -12.535  -8.740  -6.017  1.00  0.00     0.016 A 
ATOM     14  C   UNL     1     -13.803  -9.125  -6.457  1.00  0.00     0.051 A 
ATOM     15  C   UNL     1     -14.831  -8.184  -6.582  1.00  0.00     0.157 A 
ATOM     16  C   UNL     1     -13.304  -6.455  -5.813  1.00  0.00     0.062 A 
ATOM     17  C   UNL     1     -14.579  -6.831  -6.253  1.00  0.00     0.158 A 
BRANCH  15  18
ATOM     18  O   UNL     1     -16.075  -8.632  -7.030  1.00  0.00    -0.504 OA
ATOM     19  H   UNL     1     -16.900  -8.683  -6.451  1.00  0.00     0.293 HD
ENDBRANCH  15  18
BRANCH  17  20
ATOM     20  O   UNL     1     -15.556  -5.838  -6.344  1.00  0.00    -0.504 OA
ATOM     21  H   UNL     1     -15.878  -5.441  -7.215  1.00  0.00     0.293 HD
ENDBRANCH  17  20
ENDBRANCH   1  12
BRANCH   2  22
ATOM     22  O   UNL     1     -10.167  -6.440  -7.462  1.00  0.00    -0.502 OA
ATOM     23  H   UNL     1      -9.431  -6.252  -8.132  1.00  0.00     0.293 HD
ENDBRANCH   2  22
BRANCH   6  24
ATOM     24  O   UNL     1      -6.199  -5.169  -4.143  1.00  0.00    -0.507 OA
ATOM     25  H   UNL     1      -5.914  -4.208  -4.042  1.00  0.00     0.293 HD
ENDBRANCH   6  24
BRANCH   8  26
ATOM     26  O   UNL     1      -8.114  -6.547   0.037  1.00  0.00    -0.508 OA
ATOM     27  H   UNL     1      -7.541  -7.274   0.448  1.00  0.00     0.293 HD
ENDBRANCH   8  26
TORSDOF 6
ENDMDL
MODEL 8
REMARK VINA RESULT:    -6.552      3.932      7.001
REMARK INTER + INTRA:          -7.998
REMARK INTER:                  -7.681
REMARK INTRA:                  -0.317
REMARK UNBOUND:                -0.105
REMARK SMILES O=c1c(O)c(-c2ccc(O)c(O)c2)oc2cc(O)cc(O)c12
REMARK SMILES IDX 5 1 3 2 2 3 1 4 22 5 20 6 19 7 17 8 16 9 15 10 14 11 6 12
REMARK SMILES IDX 7 13 8 14 9 15 13 16 11 17 10 18 12 20 4 22 21 24 18 26
REMARK H PARENT 10 19 12 21 4 23 21 25 18 27
REMARK Flexibility Score: inf
ROOT
ATOM      1  C   UNL     1     -11.797  -6.456  -5.863  1.00  0.00     0.180 A 
ATOM      2  C   UNL     1     -12.560  -7.631  -5.970  1.00  0.00     0.208 A 
ATOM      3  C   UNL     1     -13.958  -7.546  -5.867  1.00  0.00     0.238 A 
ATOM      4  O   UNL     1     -14.639  -8.592  -6.039  1.00  0.00    -0.285 OA
ATOM      5  C   UNL     1     -14.572  -6.298  -5.605  1.00  0.00     0.111 A 
ATOM      6  C   UNL     1     -15.977  -6.102  -5.438  1.00  0.00     0.134 A 
ATOM      7  C   UNL     1     -16.480  -4.805  -5.288  1.00  0.00     0.093 A 
ATOM      8  C   UNL     1     -15.625  -3.701  -5.235  1.00  0.00     0.123 A 
ATOM      9  C   UNL     1     -14.250  -3.888  -5.342  1.00  0.00     0.094 A 
ATOM     10  C   UNL     1     -13.719  -5.166  -5.531  1.00  0.00     0.146 A 
ATOM     11  O   UNL     1     -12.403  -5.294  -5.650  1.00  0.00    -0.452 OA
ENDROOT
BRANCH   1  12
ATOM     12  C   UNL     1     -10.320  -6.462  -5.974  1.00  0.00     0.025 A 
ATOM     13  C   UNL     1      -9.676  -6.145  -7.180  1.00  0.00     0.016 A 
ATOM     14  C   UNL     1      -8.281  -6.134  -7.254  1.00  0.00     0.051 A 
ATOM     15  C   UNL     1      -7.505  -6.423  -6.127  1.00  0.00     0.157 A 
ATOM     16  C   UNL     1      -9.543  -6.730  -4.837  1.00  0.00     0.062 A 
ATOM     17  C   UNL     1      -8.144  -6.722  -4.900  1.00  0.00     0.158 A 
BRANCH  15  18
ATOM     18  O   UNL     1      -6.116  -6.399  -6.268  1.00  0.00    -0.504 OA
ATOM     19  H   UNL     1      -5.479  -6.107  -5.541  1.00  0.00     0.293 HD
ENDBRANCH  15  18
BRANCH  17  20
ATOM     20  O   UNL     1      -7.436  -7.011  -3.732  1.00  0.00    -0.504 OA
ATOM     21  H   UNL     1      -6.590  -6.536  -3.452  1.00  0.00     0.293 HD
ENDBRANCH  17  20
ENDBRANCH   1  12
BRANCH   2  22
ATOM     22  O   UNL     1     -11.930  -8.865  -6.152  1.00  0.00    -0.502 OA
ATOM     23  H   UNL     1     -12.388  -9.745  -5.948  1.00  0.00     0.293 HD
ENDBRANCH   2  22
BRANCH   6  24
ATOM     24  O   UNL     1     -16.911  -7.141  -5.386  1.00  0.00    -0.507 OA
ATOM     25  H   UNL     1     -17.355  -7.560  -6.188  1.00  0.00     0.293 HD
ENDBRANCH   6  24
BRANCH   8  26
ATOM     26  O   UNL     1     -16.134  -2.415  -5.068  1.00  0.00    -0.508 OA
ATOM     27  H   UNL     1     -16.477  -2.093  -4.171  1.00  0.00     0.293 HD
ENDBRANCH   8  26
TORSDOF 6
ENDMDL
MODEL 9
REMARK VINA RESULT:    -6.468      3.129      5.712
REMARK INTER + INTRA:          -7.897
REMARK INTER:                  -7.571
REMARK INTRA:                  -0.326
REMARK UNBOUND:                -0.105
REMARK SMILES O=c1c(O)c(-c2ccc(O)c(O)c2)oc2cc(O)cc(O)c12
REMARK SMILES IDX 5 1 3 2 2 3 1 4 22 5 20 6 19 7 17 8 16 9 15 10 14 11 6 12
REMARK SMILES IDX 7 13 8 14 9 15 13 16 11 17 10 18 12 20 4 22 21 24 18 26
REMARK H PARENT 10 19 12 21 4 23 21 25 18 27
REMARK Flexibility Score: inf
ROOT
ATOM      1  C   UNL     1     -11.165  -5.986  -5.305  1.00  0.00     0.180 A 
ATOM      2  C   UNL     1     -10.316  -6.159  -6.412  1.00  0.00     0.208 A 
ATOM      3  C   UNL     1      -8.933  -6.272  -6.199  1.00  0.00     0.238 A 
ATOM      4  O   UNL     1      -8.187  -6.502  -7.187  1.00  0.00    -0.285 OA
ATOM      5  C   UNL     1      -8.410  -6.154  -4.888  1.00  0.00     0.111 A 
ATOM      6  C   UNL     1      -7.021  -6.209  -4.560  1.00  0.00     0.134 A 
ATOM      7  C   UNL     1      -6.627  -6.187  -3.217  1.00  0.00     0.093 A 
ATOM      8  C   UNL     1      -7.567  -6.050  -2.193  1.00  0.00     0.123 A 
ATOM      9  C   UNL     1      -8.919  -5.942  -2.505  1.00  0.00     0.094 A 
ATOM     10  C   UNL     1      -9.347  -5.998  -3.834  1.00  0.00     0.146 A 
ATOM     11  O   UNL     1     -10.648  -5.913  -4.085  1.00  0.00    -0.452 OA
ENDROOT
BRANCH   1  12
ATOM     12  C   UNL     1     -12.635  -5.874  -5.448  1.00  0.00     0.025 A 
ATOM     13  C   UNL     1     -13.451  -7.012  -5.526  1.00  0.00     0.016 A 
ATOM     14  C   UNL     1     -14.837  -6.881  -5.636  1.00  0.00     0.051 A 
ATOM     15  C   UNL     1     -15.434  -5.616  -5.656  1.00  0.00     0.157 A 
ATOM     16  C   UNL     1     -13.234  -4.604  -5.446  1.00  0.00     0.062 A 
ATOM     17  C   UNL     1     -14.622  -4.462  -5.556  1.00  0.00     0.158 A 
BRANCH  15  18
ATOM     18  O   UNL     1     -16.825  -5.553  -5.773  1.00  0.00    -0.504 OA
ATOM     19  H   UNL     1     -17.342  -5.908  -6.563  1.00  0.00     0.293 HD
ENDBRANCH  15  18
BRANCH  17  20
ATOM     20  O   UNL     1     -15.147  -3.168  -5.560  1.00  0.00    -0.504 OA
ATOM     21  H   UNL     1     -16.051  -2.924  -5.181  1.00  0.00     0.293 HD
ENDBRANCH  17  20
ENDBRANCH   1  12
BRANCH   2  22
ATOM     22  O   UNL     1     -10.845  -6.195  -7.706  1.00  0.00    -0.502 OA
ATOM     23  H   UNL     1     -10.530  -5.573  -8.440  1.00  0.00     0.293 HD
ENDBRANCH   2  22
BRANCH   6  24
ATOM     24  O   UNL     1      -5.994  -6.256  -5.508  1.00  0.00    -0.507 OA
ATOM     25  H   UNL     1      -5.992  -6.840  -6.330  1.00  0.00     0.293 HD
ENDBRANCH   6  24
BRANCH   8  26
ATOM     26  O   UNL     1      -7.165  -6.013  -0.859  1.00  0.00    -0.508 OA
ATOM     27  H   UNL     1      -7.030  -6.862  -0.322  1.00  0.00     0.293 HD
ENDBRANCH   8  26
TORSDOF 6
ENDMDL
