MODEL 1
REMARK VINA RESULT:    -6.961      0.000      0.000
REMARK INTER + INTRA:          -8.481
REMARK INTER:                  -8.182
REMARK INTRA:                  -0.299
REMARK UNBOUND:                -0.299
REMARK SMILES O=c1c(O)c(-c2ccc(O)cc2)oc2cc(O)cc(O)c12
REMARK SMILES IDX 5 1 3 2 2 3 1 4 21 5 19 6 18 7 16 8 15 9 14 10 13 11 6 12
REMARK SMILES IDX 7 13 8 14 9 15 12 16 11 17 10 18 4 20 20 22 17 24
REMARK H PARENT 10 19 4 21 20 23 17 25
REMARK Flexibility Score: inf
ROOT
ATOM      1  C   UNL     1     166.865 148.596 148.480  1.00  0.00     0.180 A 
ATOM      2  C   UNL     1     166.091 149.757 148.648  1.00  0.00     0.208 A 
ATOM      3  C   UNL     1     166.704 151.011 148.501  1.00  0.00     0.238 A 
ATOM      4  O   UNL     1     166.023 152.046 148.727  1.00  0.00    -0.285 OA
ATOM      5  C   UNL     1     168.068 151.090 148.131  1.00  0.00     0.111 A 
ATOM      6  C   UNL     1     168.781 152.309 147.911  1.00  0.00     0.134 A 
ATOM      7  C   UNL     1     170.157 152.266 147.653  1.00  0.00     0.093 A 
ATOM      8  C   UNL     1     170.833 151.049 147.545  1.00  0.00     0.123 A 
ATOM      9  C   UNL     1     170.136 149.854 147.705  1.00  0.00     0.094 A 
ATOM     10  C   UNL     1     168.771 149.864 148.000  1.00  0.00     0.146 A 
ATOM     11  O   UNL     1     168.151 148.702 148.165  1.00  0.00    -0.452 OA
ENDROOT
BRANCH   1  12
ATOM     12  C   UNL     1     166.293 147.239 148.633  1.00  0.00     0.021 A 
ATOM     13  C   UNL     1     166.245 146.600 149.885  1.00  0.00     0.016 A 
ATOM     14  C   UNL     1     165.723 145.308 150.000  1.00  0.00     0.047 A 
ATOM     15  C   UNL     1     165.258 144.632 148.868  1.00  0.00     0.115 A 
ATOM     16  C   UNL     1     165.845 146.547 147.496  1.00  0.00     0.016 A 
ATOM     17  C   UNL     1     165.323 145.255 147.614  1.00  0.00     0.047 A 
BRANCH  15  18
ATOM     18  O   UNL     1     164.739 143.346 148.997  1.00  0.00    -0.508 OA
ATOM     19  H   UNL     1     165.051 142.587 148.402  1.00  0.00     0.293 HD
ENDBRANCH  15  18
ENDBRANCH   1  12
BRANCH   2  20
ATOM     20  O   UNL     1     164.727 149.658 148.937  1.00  0.00    -0.502 OA
ATOM     21  H   UNL     1     164.053 149.303 148.270  1.00  0.00     0.293 HD
ENDBRANCH   2  20
BRANCH   6  22
ATOM     22  O   UNL     1     168.187 153.574 147.908  1.00  0.00    -0.507 OA
ATOM     23  H   UNL     1     168.102 154.171 147.099  1.00  0.00     0.293 HD
ENDBRANCH   6  22
BRANCH   8  24
ATOM     24  O   UNL     1     172.199 151.016 147.271  1.00  0.00    -0.508 OA
ATOM     25  H   UNL     1     172.665 151.788 146.808  1.00  0.00     0.293 HD
ENDBRANCH   8  24
TORSDOF 5
ENDMDL
MODEL 2
REMARK VINA RESULT:    -6.911      1.941      6.939
REMARK INTER + INTRA:          -8.421
REMARK INTER:                  -8.142
REMARK INTRA:                  -0.280
REMARK UNBOUND:                -0.299
REMARK SMILES O=c1c(O)c(-c2ccc(O)cc2)oc2cc(O)cc(O)c12
REMARK SMILES IDX 5 1 3 2 2 3 1 4 21 5 19 6 18 7 16 8 15 9 14 10 13 11 6 12
REMARK SMILES IDX 7 13 8 14 9 15 12 16 11 17 10 18 4 20 20 22 17 24
REMARK H PARENT 10 19 4 21 20 23 17 25
REMARK Flexibility Score: inf
ROOT
ATOM      1  C   UNL     1     166.937 148.750 148.313  1.00  0.00     0.180 A 
ATOM      2  C   UNL     1     167.198 148.110 147.088  1.00  0.00     0.208 A 
ATOM      3  C   UNL     1     166.872 146.752 146.947  1.00  0.00     0.238 A 
ATOM      4  O   UNL     1     167.178 146.167 145.875  1.00  0.00    -0.285 OA
ATOM      5  C   UNL     1     166.239 146.064 148.011  1.00  0.00     0.111 A 
ATOM      6  C   UNL     1     165.824 144.698 147.961  1.00  0.00     0.134 A 
ATOM      7  C   UNL     1     165.304 144.094 149.112  1.00  0.00     0.093 A 
ATOM      8  C   UNL     1     165.123 144.821 150.291  1.00  0.00     0.123 A 
ATOM      9  C   UNL     1     165.475 146.168 150.332  1.00  0.00     0.094 A 
ATOM     10  C   UNL     1     166.032 146.790 149.213  1.00  0.00     0.146 A 
ATOM     11  O   UNL     1     166.371 148.070 149.303  1.00  0.00    -0.452 OA
ENDROOT
BRANCH   1  12
ATOM     12  C   UNL     1     167.265 150.175 148.543  1.00  0.00     0.021 A 
ATOM     13  C   UNL     1     168.569 150.584 148.877  1.00  0.00     0.016 A 
ATOM     14  C   UNL     1     168.849 151.933 149.114  1.00  0.00     0.047 A 
ATOM     15  C   UNL     1     167.830 152.888 149.035  1.00  0.00     0.115 A 
ATOM     16  C   UNL     1     166.242 151.136 148.487  1.00  0.00     0.016 A 
ATOM     17  C   UNL     1     166.525 152.485 148.723  1.00  0.00     0.047 A 
BRANCH  15  18
ATOM     18  O   UNL     1     168.124 154.229 149.272  1.00  0.00    -0.508 OA
ATOM     19  H   UNL     1     168.667 154.518 150.077  1.00  0.00     0.293 HD
ENDBRANCH  15  18
ENDBRANCH   1  12
BRANCH   2  20
ATOM     20  O   UNL     1     167.754 148.826 146.025  1.00  0.00    -0.502 OA
ATOM     21  H   UNL     1     168.683 149.229 146.066  1.00  0.00     0.293 HD
ENDBRANCH   2  20
BRANCH   6  22
ATOM     22  O   UNL     1     165.876 143.904 146.812  1.00  0.00    -0.507 OA
ATOM     23  H   UNL     1     165.985 142.902 146.807  1.00  0.00     0.293 HD
ENDBRANCH   6  22
BRANCH   8  24
ATOM     24  O   UNL     1     164.588 144.216 151.426  1.00  0.00    -0.508 OA
ATOM     25  H   UNL     1     165.176 143.934 152.202  1.00  0.00     0.293 HD
ENDBRANCH   8  24
TORSDOF 5
ENDMDL
MODEL 3
REMARK VINA RESULT:    -6.864      1.914      6.844
REMARK INTER + INTRA:          -8.366
REMARK INTER:                  -8.097
REMARK INTRA:                  -0.269
REMARK UNBOUND:                -0.299
REMARK SMILES O=c1c(O)c(-c2ccc(O)cc2)oc2cc(O)cc(O)c12
REMARK SMILES IDX 5 1 3 2 2 3 1 4 21 5 19 6 18 7 16 8 15 9 14 10 13 11 6 12
REMARK SMILES IDX 7 13 8 14 9 15 12 16 11 17 10 18 4 20 20 22 17 24
REMARK H PARENT 10 19 4 21 20 23 17 25
REMARK Flexibility Score: inf
ROOT
ATOM      1  C   UNL     1     167.883 149.193 148.330  1.00  0.00     0.180 A 
ATOM      2  C   UNL     1     168.457 148.607 147.189  1.00  0.00     0.208 A 
ATOM      3  C   UNL     1     168.256 147.238 146.952  1.00  0.00     0.238 A 
ATOM      4  O   UNL     1     168.836 146.704 145.971  1.00  0.00    -0.285 OA
ATOM      5  C   UNL     1     167.437 146.484 147.827  1.00  0.00     0.111 A 
ATOM      6  C   UNL     1     167.129 145.099 147.659  1.00  0.00     0.134 A 
ATOM      7  C   UNL     1     166.394 144.432 148.648  1.00  0.00     0.093 A 
ATOM      8  C   UNL     1     165.902 145.111 149.764  1.00  0.00     0.123 A 
ATOM      9  C   UNL     1     166.153 146.474 149.909  1.00  0.00     0.094 A 
ATOM     10  C   UNL     1     166.914 147.159 148.961  1.00  0.00     0.146 A 
ATOM     11  O   UNL     1     167.146 148.453 149.150  1.00  0.00    -0.452 OA
ENDROOT
BRANCH   1  12
ATOM     12  C   UNL     1     168.061 150.627 148.654  1.00  0.00     0.021 A 
ATOM     13  C   UNL     1     169.243 151.102 149.251  1.00  0.00     0.016 A 
ATOM     14  C   UNL     1     169.378 152.457 149.571  1.00  0.00     0.047 A 
ATOM     15  C   UNL     1     168.333 153.349 149.313  1.00  0.00     0.115 A 
ATOM     16  C   UNL     1     167.007 151.524 148.418  1.00  0.00     0.016 A 
ATOM     17  C   UNL     1     167.145 152.878 148.738  1.00  0.00     0.047 A 
BRANCH  15  18
ATOM     18  O   UNL     1     168.482 154.696 149.636  1.00  0.00    -0.508 OA
ATOM     19  H   UNL     1     169.397 155.125 149.707  1.00  0.00     0.293 HD
ENDBRANCH  15  18
ENDBRANCH   1  12
BRANCH   2  20
ATOM     20  O   UNL     1     169.200 149.385 146.296  1.00  0.00    -0.502 OA
ATOM     21  H   UNL     1     170.194 149.254 146.157  1.00  0.00     0.293 HD
ENDBRANCH   2  20
BRANCH   6  22
ATOM     22  O   UNL     1     167.493 144.345 146.540  1.00  0.00    -0.507 OA
ATOM     23  H   UNL     1     167.025 143.507 146.231  1.00  0.00     0.293 HD
ENDBRANCH   6  22
BRANCH   8  24
ATOM     24  O   UNL     1     165.157 144.443 150.733  1.00  0.00    -0.508 OA
ATOM     25  H   UNL     1     165.414 143.515 151.051  1.00  0.00     0.293 HD
ENDBRANCH   8  24
TORSDOF 5
ENDMDL
MODEL 4
REMARK VINA RESULT:    -6.840      2.379      8.049
REMARK INTER + INTRA:          -8.338
REMARK INTER:                  -8.131
REMARK INTRA:                  -0.208
REMARK UNBOUND:                -0.299
REMARK SMILES O=c1c(O)c(-c2ccc(O)cc2)oc2cc(O)cc(O)c12
REMARK SMILES IDX 5 1 3 2 2 3 1 4 21 5 19 6 18 7 16 8 15 9 14 10 13 11 6 12
REMARK SMILES IDX 7 13 8 14 9 15 12 16 11 17 10 18 4 20 20 22 17 24
REMARK H PARENT 10 19 4 21 20 23 17 25
REMARK Flexibility Score: inf
ROOT
ATOM      1  C   UNL     1     166.483 145.959 149.317  1.00  0.00     0.180 A 
ATOM      2  C   UNL     1     167.088 144.892 148.630  1.00  0.00     0.208 A 
ATOM      3  C   UNL     1     166.692 143.579 148.927  1.00  0.00     0.238 A 
ATOM      4  O   UNL     1     167.290 142.626 148.363  1.00  0.00    -0.285 OA
ATOM      5  C   UNL     1     165.657 143.350 149.867  1.00  0.00     0.111 A 
ATOM      6  C   UNL     1     165.145 142.062 150.213  1.00  0.00     0.134 A 
ATOM      7  C   UNL     1     164.194 141.951 151.235  1.00  0.00     0.093 A 
ATOM      8  C   UNL     1     163.689 143.083 151.878  1.00  0.00     0.123 A 
ATOM      9  C   UNL     1     164.143 144.347 151.510  1.00  0.00     0.094 A 
ATOM     10  C   UNL     1     165.119 144.489 150.521  1.00  0.00     0.146 A 
ATOM     11  O   UNL     1     165.538 145.711 150.216  1.00  0.00    -0.452 OA
ENDROOT
BRANCH   1  12
ATOM     12  C   UNL     1     166.857 147.370 149.068  1.00  0.00     0.021 A 
ATOM     13  C   UNL     1     168.104 147.881 149.474  1.00  0.00     0.016 A 
ATOM     14  C   UNL     1     168.424 149.224 149.250  1.00  0.00     0.047 A 
ATOM     15  C   UNL     1     167.502 150.075 148.634  1.00  0.00     0.115 A 
ATOM     16  C   UNL     1     165.927 148.236 148.470  1.00  0.00     0.016 A 
ATOM     17  C   UNL     1     166.250 149.578 148.247  1.00  0.00     0.047 A 
BRANCH  15  18
ATOM     18  O   UNL     1     167.835 151.410 148.416  1.00  0.00    -0.508 OA
ATOM     19  H   UNL     1     168.171 152.001 149.167  1.00  0.00     0.293 HD
ENDBRANCH  15  18
ENDBRANCH   1  12
BRANCH   2  20
ATOM     20  O   UNL     1     168.053 145.143 147.651  1.00  0.00    -0.502 OA
ATOM     21  H   UNL     1     167.883 144.984 146.665  1.00  0.00     0.293 HD
ENDBRANCH   2  20
BRANCH   6  22
ATOM     22  O   UNL     1     165.513 140.875 149.574  1.00  0.00    -0.507 OA
ATOM     23  H   UNL     1     165.551 139.969 150.016  1.00  0.00     0.293 HD
ENDBRANCH   6  22
BRANCH   8  24
ATOM     24  O   UNL     1     162.730 142.963 152.882  1.00  0.00    -0.508 OA
ATOM     25  H   UNL     1     162.523 143.732 153.510  1.00  0.00     0.293 HD
ENDBRANCH   8  24
TORSDOF 5
ENDMDL
MODEL 5
REMARK VINA RESULT:    -6.724      9.647     10.890
REMARK INTER + INTRA:          -8.202
REMARK INTER:                  -7.971
REMARK INTRA:                  -0.231
REMARK UNBOUND:                -0.299
REMARK SMILES O=c1c(O)c(-c2ccc(O)cc2)oc2cc(O)cc(O)c12
REMARK SMILES IDX 5 1 3 2 2 3 1 4 21 5 19 6 18 7 16 8 15 9 14 10 13 11 6 12
REMARK SMILES IDX 7 13 8 14 9 15 12 16 11 17 10 18 4 20 20 22 17 24
REMARK H PARENT 10 19 4 21 20 23 17 25
REMARK Flexibility Score: inf
ROOT
ATOM      1  C   UNL     1     173.224 144.887 155.195  1.00  0.00     0.180 A 
ATOM      2  C   UNL     1     174.453 145.557 155.328  1.00  0.00     0.208 A 
ATOM      3  C   UNL     1     174.578 146.562 156.300  1.00  0.00     0.238 A 
ATOM      4  O   UNL     1     175.656 147.209 156.362  1.00  0.00    -0.285 OA
ATOM      5  C   UNL     1     173.494 146.846 157.165  1.00  0.00     0.111 A 
ATOM      6  C   UNL     1     173.526 147.813 158.216  1.00  0.00     0.134 A 
ATOM      7  C   UNL     1     172.357 148.084 158.939  1.00  0.00     0.093 A 
ATOM      8  C   UNL     1     171.177 147.378 158.694  1.00  0.00     0.123 A 
ATOM      9  C   UNL     1     171.152 146.395 157.708  1.00  0.00     0.094 A 
ATOM     10  C   UNL     1     172.290 146.129 156.944  1.00  0.00     0.146 A 
ATOM     11  O   UNL     1     172.215 145.198 156.000  1.00  0.00    -0.452 OA
ENDROOT
BRANCH   1  12
ATOM     12  C   UNL     1     173.010 143.826 154.184  1.00  0.00     0.021 A 
ATOM     13  C   UNL     1     173.550 142.538 154.346  1.00  0.00     0.016 A 
ATOM     14  C   UNL     1     173.355 141.561 153.366  1.00  0.00     0.047 A 
ATOM     15  C   UNL     1     172.632 141.860 152.207  1.00  0.00     0.115 A 
ATOM     16  C   UNL     1     172.303 144.127 153.008  1.00  0.00     0.016 A 
ATOM     17  C   UNL     1     172.109 143.148 152.029  1.00  0.00     0.047 A 
BRANCH  15  18
ATOM     18  O   UNL     1     172.444 140.876 151.239  1.00  0.00    -0.508 OA
ATOM     19  H   UNL     1     172.980 140.870 150.379  1.00  0.00     0.293 HD
ENDBRANCH  15  18
ENDBRANCH   1  12
BRANCH   2  20
ATOM     20  O   UNL     1     175.535 145.210 154.515  1.00  0.00    -0.502 OA
ATOM     21  H   UNL     1     175.623 144.296 154.088  1.00  0.00     0.293 HD
ENDBRANCH   2  20
BRANCH   6  22
ATOM     22  O   UNL     1     174.672 148.511 158.604  1.00  0.00    -0.507 OA
ATOM     23  H   UNL     1     175.021 148.570 159.549  1.00  0.00     0.293 HD
ENDBRANCH   6  22
BRANCH   8  24
ATOM     24  O   UNL     1     170.024 147.641 159.431  1.00  0.00    -0.508 OA
ATOM     25  H   UNL     1     169.312 146.933 159.571  1.00  0.00     0.293 HD
ENDBRANCH   8  24
TORSDOF 5
ENDMDL
MODEL 6
REMARK VINA RESULT:    -6.610      1.243      2.915
REMARK INTER + INTRA:          -8.068
REMARK INTER:                  -7.789
REMARK INTRA:                  -0.280
REMARK UNBOUND:                -0.299
REMARK SMILES O=c1c(O)c(-c2ccc(O)cc2)oc2cc(O)cc(O)c12
REMARK SMILES IDX 5 1 3 2 2 3 1 4 21 5 19 6 18 7 16 8 15 9 14 10 13 11 6 12
REMARK SMILES IDX 7 13 8 14 9 15 12 16 11 17 10 18 4 20 20 22 17 24
REMARK H PARENT 10 19 4 21 20 23 17 25
REMARK Flexibility Score: inf
ROOT
ATOM      1  C   UNL     1     167.483 148.407 148.313  1.00  0.00     0.180 A 
ATOM      2  C   UNL     1     168.777 148.416 147.762  1.00  0.00     0.208 A 
ATOM      3  C   UNL     1     169.428 149.644 147.573  1.00  0.00     0.238 A 
ATOM      4  O   UNL     1     170.554 149.649 147.010  1.00  0.00    -0.285 OA
ATOM      5  C   UNL     1     168.804 150.845 147.989  1.00  0.00     0.111 A 
ATOM      6  C   UNL     1     169.391 152.144 147.887  1.00  0.00     0.134 A 
ATOM      7  C   UNL     1     168.635 153.271 148.232  1.00  0.00     0.093 A 
ATOM      8  C   UNL     1     167.339 153.145 148.736  1.00  0.00     0.123 A 
ATOM      9  C   UNL     1     166.778 151.879 148.890  1.00  0.00     0.094 A 
ATOM     10  C   UNL     1     167.491 150.738 148.519  1.00  0.00     0.146 A 
ATOM     11  O   UNL     1     166.910 149.553 148.663  1.00  0.00    -0.452 OA
ENDROOT
BRANCH   1  12
ATOM     12  C   UNL     1     166.726 147.153 148.529  1.00  0.00     0.021 A 
ATOM     13  C   UNL     1     166.766 146.475 149.761  1.00  0.00     0.016 A 
ATOM     14  C   UNL     1     166.063 145.279 149.933  1.00  0.00     0.047 A 
ATOM     15  C   UNL     1     165.324 144.738 148.876  1.00  0.00     0.115 A 
ATOM     16  C   UNL     1     166.000 146.593 147.465  1.00  0.00     0.016 A 
ATOM     17  C   UNL     1     165.297 145.397 147.639  1.00  0.00     0.047 A 
BRANCH  15  18
ATOM     18  O   UNL     1     164.627 143.547 149.062  1.00  0.00    -0.508 OA
ATOM     19  H   UNL     1     164.639 142.812 148.365  1.00  0.00     0.293 HD
ENDBRANCH  15  18
ENDBRANCH   1  12
BRANCH   2  20
ATOM     20  O   UNL     1     169.407 147.214 147.428  1.00  0.00    -0.502 OA
ATOM     21  H   UNL     1     169.210 146.344 147.910  1.00  0.00     0.293 HD
ENDBRANCH   2  20
BRANCH   6  22
ATOM     22  O   UNL     1     170.707 152.378 147.480  1.00  0.00    -0.507 OA
ATOM     23  H   UNL     1     171.002 153.140 146.889  1.00  0.00     0.293 HD
ENDBRANCH   6  22
BRANCH   8  24
ATOM     24  O   UNL     1     166.601 154.271 149.094  1.00  0.00    -0.508 OA
ATOM     25  H   UNL     1     166.807 154.792 149.939  1.00  0.00     0.293 HD
ENDBRANCH   8  24
TORSDOF 5
ENDMDL
MODEL 7
REMARK VINA RESULT:    -6.509      1.941      6.588
REMARK INTER + INTRA:          -7.949
REMARK INTER:                  -7.658
REMARK INTRA:                  -0.291
REMARK UNBOUND:                -0.299
REMARK SMILES O=c1c(O)c(-c2ccc(O)cc2)oc2cc(O)cc(O)c12
REMARK SMILES IDX 5 1 3 2 2 3 1 4 21 5 19 6 18 7 16 8 15 9 14 10 13 11 6 12
REMARK SMILES IDX 7 13 8 14 9 15 12 16 11 17 10 18 4 20 20 22 17 24
REMARK H PARENT 10 19 4 21 20 23 17 25
REMARK Flexibility Score: inf
ROOT
ATOM      1  C   UNL     1     168.035 148.873 148.614  1.00  0.00     0.180 A 
ATOM      2  C   UNL     1     166.634 148.818 148.711  1.00  0.00     0.208 A 
ATOM      3  C   UNL     1     166.022 147.597 149.035  1.00  0.00     0.238 A 
ATOM      4  O   UNL     1     164.765 147.537 149.046  1.00  0.00    -0.285 OA
ATOM      5  C   UNL     1     166.819 146.460 149.314  1.00  0.00     0.111 A 
ATOM      6  C   UNL     1     166.307 145.183 149.696  1.00  0.00     0.134 A 
ATOM      7  C   UNL     1     167.187 144.103 149.842  1.00  0.00     0.093 A 
ATOM      8  C   UNL     1     168.564 144.267 149.683  1.00  0.00     0.123 A 
ATOM      9  C   UNL     1     169.078 145.522 149.364  1.00  0.00     0.094 A 
ATOM     10  C   UNL     1     168.224 146.610 149.173  1.00  0.00     0.146 A 
ATOM     11  O   UNL     1     168.755 147.783 148.849  1.00  0.00    -0.452 OA
ENDROOT
BRANCH   1  12
ATOM     12  C   UNL     1     168.752 150.121 148.263  1.00  0.00     0.021 A 
ATOM     13  C   UNL     1     169.113 150.410 146.934  1.00  0.00     0.016 A 
ATOM     14  C   UNL     1     169.812 151.583 146.631  1.00  0.00     0.047 A 
ATOM     15  C   UNL     1     170.171 152.472 147.649  1.00  0.00     0.115 A 
ATOM     16  C   UNL     1     169.135 151.007 149.283  1.00  0.00     0.016 A 
ATOM     17  C   UNL     1     169.833 152.179 148.977  1.00  0.00     0.047 A 
BRANCH  15  18
ATOM     18  O   UNL     1     170.866 153.637 147.332  1.00  0.00    -0.508 OA
ATOM     19  H   UNL     1     171.816 153.789 147.649  1.00  0.00     0.293 HD
ENDBRANCH  15  18
ENDBRANCH   1  12
BRANCH   2  20
ATOM     20  O   UNL     1     165.868 149.969 148.507  1.00  0.00    -0.502 OA
ATOM     21  H   UNL     1     164.923 149.937 148.144  1.00  0.00     0.293 HD
ENDBRANCH   2  20
BRANCH   6  22
ATOM     22  O   UNL     1     164.960 144.928 149.967  1.00  0.00    -0.507 OA
ATOM     23  H   UNL     1     164.546 144.010 150.026  1.00  0.00     0.293 HD
ENDBRANCH   6  22
BRANCH   8  24
ATOM     24  O   UNL     1     169.433 143.191 149.848  1.00  0.00    -0.508 OA
ATOM     25  H   UNL     1     169.957 143.061 150.707  1.00  0.00     0.293 HD
ENDBRANCH   8  24
TORSDOF 5
ENDMDL
MODEL 8
REMARK VINA RESULT:    -6.447      2.181      3.929
REMARK INTER + INTRA:          -7.876
REMARK INTER:                  -7.679
REMARK INTRA:                  -0.197
REMARK UNBOUND:                -0.299
REMARK SMILES O=c1c(O)c(-c2ccc(O)cc2)oc2cc(O)cc(O)c12
REMARK SMILES IDX 5 1 3 2 2 3 1 4 21 5 19 6 18 7 16 8 15 9 14 10 13 11 6 12
REMARK SMILES IDX 7 13 8 14 9 15 12 16 11 17 10 18 4 20 20 22 17 24
REMARK H PARENT 10 19 4 21 20 23 17 25
REMARK Flexibility Score: inf
ROOT
ATOM      1  C   UNL     1     166.930 146.259 149.041  1.00  0.00     0.180 A 
ATOM      2  C   UNL     1     168.315 146.019 149.011  1.00  0.00     0.208 A 
ATOM      3  C   UNL     1     169.148 146.924 148.336  1.00  0.00     0.238 A 
ATOM      4  O   UNL     1     170.377 146.663 148.248  1.00  0.00    -0.285 OA
ATOM      5  C   UNL     1     168.596 148.088 147.749  1.00  0.00     0.111 A 
ATOM      6  C   UNL     1     169.354 149.097 147.078  1.00  0.00     0.134 A 
ATOM      7  C   UNL     1     168.686 150.152 146.442  1.00  0.00     0.093 A 
ATOM      8  C   UNL     1     167.296 150.270 146.507  1.00  0.00     0.123 A 
ATOM      9  C   UNL     1     166.554 149.320 147.205  1.00  0.00     0.094 A 
ATOM     10  C   UNL     1     167.186 148.236 147.817  1.00  0.00     0.146 A 
ATOM     11  O   UNL     1     166.438 147.343 148.453  1.00  0.00    -0.452 OA
ENDROOT
BRANCH   1  12
ATOM     12  C   UNL     1     165.986 145.343 149.720  1.00  0.00     0.021 A 
ATOM     13  C   UNL     1     165.723 144.056 149.219  1.00  0.00     0.016 A 
ATOM     14  C   UNL     1     164.808 143.218 149.864  1.00  0.00     0.047 A 
ATOM     15  C   UNL     1     164.134 143.659 151.007  1.00  0.00     0.115 A 
ATOM     16  C   UNL     1     165.289 145.788 150.856  1.00  0.00     0.016 A 
ATOM     17  C   UNL     1     164.375 144.949 151.500  1.00  0.00     0.047 A 
BRANCH  15  18
ATOM     18  O   UNL     1     163.226 142.814 151.640  1.00  0.00    -0.508 OA
ATOM     19  H   UNL     1     162.444 143.179 152.170  1.00  0.00     0.293 HD
ENDBRANCH  15  18
ENDBRANCH   1  12
BRANCH   2  20
ATOM     20  O   UNL     1     168.850 144.904 149.662  1.00  0.00    -0.502 OA
ATOM     21  H   UNL     1     169.489 144.263 149.208  1.00  0.00     0.293 HD
ENDBRANCH   2  20
BRANCH   6  22
ATOM     22  O   UNL     1     170.750 149.125 147.028  1.00  0.00    -0.507 OA
ATOM     23  H   UNL     1     171.298 149.115 146.182  1.00  0.00     0.293 HD
ENDBRANCH   6  22
BRANCH   8  24
ATOM     24  O   UNL     1     166.642 151.332 145.887  1.00  0.00    -0.508 OA
ATOM     25  H   UNL     1     166.415 152.181 146.392  1.00  0.00     0.293 HD
ENDBRANCH   8  24
TORSDOF 5
ENDMDL
MODEL 9
REMARK VINA RESULT:    -6.390      6.099      8.088
REMARK INTER + INTRA:          -7.810
REMARK INTER:                  -7.518
REMARK INTRA:                  -0.292
REMARK UNBOUND:                -0.299
REMARK SMILES O=c1c(O)c(-c2ccc(O)cc2)oc2cc(O)cc(O)c12
REMARK SMILES IDX 5 1 3 2 2 3 1 4 21 5 19 6 18 7 16 8 15 9 14 10 13 11 6 12
REMARK SMILES IDX 7 13 8 14 9 15 12 16 11 17 10 18 4 20 20 22 17 24
REMARK H PARENT 10 19 4 21 20 23 17 25
REMARK Flexibility Score: inf
ROOT
ATOM      1  C   UNL     1     170.871 143.313 150.640  1.00  0.00     0.180 A 
ATOM      2  C   UNL     1     169.586 142.754 150.753  1.00  0.00     0.208 A 
ATOM      3  C   UNL     1     168.597 143.129 149.831  1.00  0.00     0.238 A 
ATOM      4  O   UNL     1     167.430 142.683 149.984  1.00  0.00    -0.285 OA
ATOM      5  C   UNL     1     168.918 144.013 148.773  1.00  0.00     0.111 A 
ATOM      6  C   UNL     1     168.005 144.427 147.754  1.00  0.00     0.134 A 
ATOM      7  C   UNL     1     168.405 145.390 146.820  1.00  0.00     0.093 A 
ATOM      8  C   UNL     1     169.702 145.906 146.825  1.00  0.00     0.123 A 
ATOM      9  C   UNL     1     170.616 145.469 147.781  1.00  0.00     0.094 A 
ATOM     10  C   UNL     1     170.236 144.538 148.751  1.00  0.00     0.146 A 
ATOM     11  O   UNL     1     171.133 144.165 149.656  1.00  0.00    -0.452 OA
ENDROOT
BRANCH   1  12
ATOM     12  C   UNL     1     171.962 142.978 151.582  1.00  0.00     0.021 A 
ATOM     13  C   UNL     1     172.217 143.765 152.720  1.00  0.00     0.016 A 
ATOM     14  C   UNL     1     173.270 143.443 153.582  1.00  0.00     0.047 A 
ATOM     15  C   UNL     1     174.089 142.342 153.313  1.00  0.00     0.115 A 
ATOM     16  C   UNL     1     172.802 141.886 151.306  1.00  0.00     0.016 A 
ATOM     17  C   UNL     1     173.853 141.565 152.170  1.00  0.00     0.047 A 
BRANCH  15  18
ATOM     18  O   UNL     1     175.132 142.031 154.181  1.00  0.00    -0.508 OA
ATOM     19  H   UNL     1     174.982 141.942 155.179  1.00  0.00     0.293 HD
ENDBRANCH  15  18
ENDBRANCH   1  12
BRANCH   2  20
ATOM     20  O   UNL     1     169.310 141.824 151.759  1.00  0.00    -0.502 OA
ATOM     21  H   UNL     1     169.484 140.832 151.646  1.00  0.00     0.293 HD
ENDBRANCH   2  20
BRANCH   6  22
ATOM     22  O   UNL     1     166.715 143.910 147.602  1.00  0.00    -0.507 OA
ATOM     23  H   UNL     1     166.501 142.973 147.297  1.00  0.00     0.293 HD
ENDBRANCH   6  22
BRANCH   8  24
ATOM     24  O   UNL     1     170.097 146.851 145.880  1.00  0.00    -0.508 OA
ATOM     25  H   UNL     1     170.745 147.595 146.114  1.00  0.00     0.293 HD
ENDBRANCH   8  24
TORSDOF 5
ENDMDL
