MODEL 1
REMARK VINA RESULT:    -4.076      0.000      0.000
REMARK INTER + INTRA:         -10.342
REMARK INTER:                  -7.889
REMARK INTRA:                  -2.453
REMARK UNBOUND:                -2.453
REMARK SMILES CCCCCCCCCCCCCCCCCC(=O)[O-]
REMARK SMILES IDX 10 1 11 2 12 3 13 4 14 5 15 6 16 7 17 8 18 9 19 10 20 11
REMARK SMILES IDX 9 12 8 13 7 14 6 15 5 16 4 17 3 18 2 19 1 20
REMARK H PARENT
REMARK Flexibility Score: inf
ROOT
ATOM      1  C   UNL     1      25.883   5.335  10.410  1.00  0.00     0.000 C 
ENDROOT
BRANCH   1   2
ATOM      2  C   UNL     1      27.303   5.026   9.904  1.00  0.00     0.000 C 
BRANCH   2   3
ATOM      3  C   UNL     1      28.009   3.861  10.628  1.00  0.00     0.000 C 
BRANCH   3   4
ATOM      4  C   UNL     1      28.694   2.832   9.706  1.00  0.00     0.000 C 
BRANCH   4   5
ATOM      5  C   UNL     1      28.422   3.018   8.201  1.00  0.00     0.000 C 
BRANCH   5   6
ATOM      6  C   UNL     1      28.379   1.686   7.435  1.00  0.00     0.000 C 
BRANCH   6   7
ATOM      7  C   UNL     1      29.008   0.521   8.224  1.00  0.00     0.006 C 
BRANCH   7   8
ATOM      8  C   UNL     1      28.531  -0.869   7.768  1.00  0.00     0.053 C 
BRANCH   8   9
ATOM      9  C   UNL     1      28.280  -1.799   8.916  1.00  0.00     0.041 C 
ATOM     10  O   UNL     1      28.027  -3.016   8.705  1.00  0.00    -0.550 OA
ATOM     11  O   UNL     1      28.342  -1.326  10.221  1.00  0.00    -0.550 OA
ENDBRANCH   8   9
ENDBRANCH   7   8
ENDBRANCH   6   7
ENDBRANCH   5   6
ENDBRANCH   4   5
ENDBRANCH   3   4
ENDBRANCH   2   3
ENDBRANCH   1   2
BRANCH   1  12
ATOM     12  C   UNL     1      25.068   4.065  10.709  1.00  0.00     0.000 C 
BRANCH  12  13
ATOM     13  C   UNL     1      24.121   3.675   9.560  1.00  0.00    -0.000 C 
BRANCH  13  14
ATOM     14  C   UNL     1      24.790   2.951   8.377  1.00  0.00    -0.000 C 
BRANCH  14  15
ATOM     15  C   UNL     1      24.899   3.828   7.118  1.00  0.00    -0.000 C 
BRANCH  15  16
ATOM     16  C   UNL     1      23.896   4.996   7.115  1.00  0.00    -0.000 C 
BRANCH  16  17
ATOM     17  C   UNL     1      24.517   6.396   6.939  1.00  0.00    -0.000 C 
BRANCH  17  18
ATOM     18  C   UNL     1      26.058   6.431   6.903  1.00  0.00    -0.000 C 
BRANCH  18  19
ATOM     19  C   UNL     1      26.683   7.770   7.332  1.00  0.00    -0.003 C 
ATOM     20  C   UNL     1      25.953   8.418   8.507  1.00  0.00     0.004 C 
ENDBRANCH  18  19
ENDBRANCH  17  18
ENDBRANCH  16  17
ENDBRANCH  15  16
ENDBRANCH  14  15
ENDBRANCH  13  14
ENDBRANCH  12  13
ENDBRANCH   1  12
TORSDOF 16
ENDMDL
MODEL 2
REMARK VINA RESULT:    -4.070      3.542      6.535
REMARK INTER + INTRA:         -10.330
REMARK INTER:                  -7.567
REMARK INTRA:                  -2.763
REMARK UNBOUND:                -2.453
REMARK SMILES CCCCCCCCCCCCCCCCCC(=O)[O-]
REMARK SMILES IDX 10 1 11 2 12 3 13 4 14 5 15 6 16 7 17 8 18 9 19 10 20 11
REMARK SMILES IDX 9 12 8 13 7 14 6 15 5 16 4 17 3 18 2 19 1 20
REMARK H PARENT
REMARK Flexibility Score: inf
ROOT
ATOM      1  C   UNL     1      26.886   4.609  10.469  1.00  0.00     0.000 C 
ENDROOT
BRANCH   1   2
ATOM      2  C   UNL     1      25.461   4.033  10.392  1.00  0.00     0.000 C 
BRANCH   2   3
ATOM      3  C   UNL     1      25.122   3.320   9.066  1.00  0.00     0.000 C 
BRANCH   3   4
ATOM      4  C   UNL     1      24.622   4.239   7.934  1.00  0.00     0.000 C 
BRANCH   4   5
ATOM      5  C   UNL     1      25.720   4.799   7.011  1.00  0.00     0.000 C 
BRANCH   5   6
ATOM      6  C   UNL     1      25.669   6.330   6.885  1.00  0.00     0.000 C 
BRANCH   6   7
ATOM      7  C   UNL     1      26.412   7.049   8.029  1.00  0.00     0.006 C 
BRANCH   7   8
ATOM      8  C   UNL     1      25.643   8.247   8.615  1.00  0.00     0.053 C 
BRANCH   8   9
ATOM      9  C   UNL     1      24.352   7.845   9.261  1.00  0.00     0.041 C 
ATOM     10  O   UNL     1      23.257   8.039   8.669  1.00  0.00    -0.550 OA
ATOM     11  O   UNL     1      24.360   7.241  10.513  1.00  0.00    -0.550 OA
ENDBRANCH   8   9
ENDBRANCH   7   8
ENDBRANCH   6   7
ENDBRANCH   5   6
ENDBRANCH   4   5
ENDBRANCH   3   4
ENDBRANCH   2   3
ENDBRANCH   1   2
BRANCH   1  12
ATOM     12  C   UNL     1      27.971   3.550  10.213  1.00  0.00     0.000 C 
BRANCH  12  13
ATOM     13  C   UNL     1      28.808   3.842   8.955  1.00  0.00    -0.000 C 
BRANCH  13  14
ATOM     14  C   UNL     1      28.632   2.835   7.802  1.00  0.00    -0.000 C 
BRANCH  14  15
ATOM     15  C   UNL     1      28.285   1.417   8.291  1.00  0.00    -0.000 C 
BRANCH  15  16
ATOM     16  C   UNL     1      27.969   0.448   7.137  1.00  0.00    -0.000 C 
BRANCH  16  17
ATOM     17  C   UNL     1      27.675   1.116   5.779  1.00  0.00    -0.000 C 
BRANCH  17  18
ATOM     18  C   UNL     1      26.401   0.620   5.066  1.00  0.00    -0.000 C 
BRANCH  18  19
ATOM     19  C   UNL     1      25.151   1.487   5.302  1.00  0.00    -0.003 C 
ATOM     20  C   UNL     1      24.178   0.868   6.303  1.00  0.00     0.004 C 
ENDBRANCH  18  19
ENDBRANCH  17  18
ENDBRANCH  16  17
ENDBRANCH  15  16
ENDBRANCH  14  15
ENDBRANCH  13  14
ENDBRANCH  12  13
ENDBRANCH   1  12
TORSDOF 16
ENDMDL
MODEL 3
REMARK VINA RESULT:    -4.069      3.850      6.528
REMARK INTER + INTRA:         -10.328
REMARK INTER:                  -8.210
REMARK INTRA:                  -2.118
REMARK UNBOUND:                -2.453
REMARK SMILES CCCCCCCCCCCCCCCCCC(=O)[O-]
REMARK SMILES IDX 10 1 11 2 12 3 13 4 14 5 15 6 16 7 17 8 18 9 19 10 20 11
REMARK SMILES IDX 9 12 8 13 7 14 6 15 5 16 4 17 3 18 2 19 1 20
REMARK H PARENT
REMARK Flexibility Score: inf
ROOT
ATOM      1  C   UNL     1      28.084   3.630  10.765  1.00  0.00     0.000 C 
ENDROOT
BRANCH   1   2
ATOM      2  C   UNL     1      26.997   4.629  10.331  1.00  0.00     0.000 C 
BRANCH   2   3
ATOM      3  C   UNL     1      25.548   4.140  10.541  1.00  0.00     0.000 C 
BRANCH   3   4
ATOM      4  C   UNL     1      24.944   3.347   9.364  1.00  0.00     0.000 C 
BRANCH   4   5
ATOM      5  C   UNL     1      24.242   4.199   8.292  1.00  0.00     0.000 C 
BRANCH   5   6
ATOM      6  C   UNL     1      25.117   4.434   7.050  1.00  0.00     0.000 C 
BRANCH   6   7
ATOM      7  C   UNL     1      25.750   5.839   7.021  1.00  0.00     0.006 C 
BRANCH   7   8
ATOM      8  C   UNL     1      25.097   6.837   7.994  1.00  0.00     0.053 C 
BRANCH   8   9
ATOM      9  C   UNL     1      25.962   8.030   8.265  1.00  0.00     0.041 C 
ATOM     10  O   UNL     1      27.093   8.133   7.719  1.00  0.00    -0.550 OA
ATOM     11  O   UNL     1      25.511   9.039   9.109  1.00  0.00    -0.550 OA
ENDBRANCH   8   9
ENDBRANCH   7   8
ENDBRANCH   6   7
ENDBRANCH   5   6
ENDBRANCH   4   5
ENDBRANCH   3   4
ENDBRANCH   2   3
ENDBRANCH   1   2
BRANCH   1  12
ATOM     12  C   UNL     1      28.840   3.018   9.573  1.00  0.00     0.000 C 
BRANCH  12  13
ATOM     13  C   UNL     1      28.569   1.513   9.401  1.00  0.00    -0.000 C 
BRANCH  13  14
ATOM     14  C   UNL     1      28.495   1.024   7.942  1.00  0.00    -0.000 C 
BRANCH  14  15
ATOM     15  C   UNL     1      28.597   2.168   6.919  1.00  0.00    -0.000 C 
BRANCH  15  16
ATOM     16  C   UNL     1      27.616   2.008   5.743  1.00  0.00    -0.000 C 
BRANCH  16  17
ATOM     17  C   UNL     1      26.351   1.181   6.050  1.00  0.00    -0.000 C 
BRANCH  17  18
ATOM     18  C   UNL     1      25.232   1.277   4.993  1.00  0.00    -0.000 C 
BRANCH  18  19
ATOM     19  C   UNL     1      25.257   0.169   3.925  1.00  0.00    -0.003 C 
ATOM     20  C   UNL     1      26.140   0.517   2.728  1.00  0.00     0.004 C 
ENDBRANCH  18  19
ENDBRANCH  17  18
ENDBRANCH  16  17
ENDBRANCH  15  16
ENDBRANCH  14  15
ENDBRANCH  13  14
ENDBRANCH  12  13
ENDBRANCH   1  12
TORSDOF 16
ENDMDL
MODEL 4
REMARK VINA RESULT:    -4.028      3.209      7.127
REMARK INTER + INTRA:         -10.250
REMARK INTER:                  -7.715
REMARK INTRA:                  -2.535
REMARK UNBOUND:                -2.453
REMARK SMILES CCCCCCCCCCCCCCCCCC(=O)[O-]
REMARK SMILES IDX 10 1 11 2 12 3 13 4 14 5 15 6 16 7 17 8 18 9 19 10 20 11
REMARK SMILES IDX 9 12 8 13 7 14 6 15 5 16 4 17 3 18 2 19 1 20
REMARK H PARENT
REMARK Flexibility Score: inf
ROOT
ATOM      1  C   UNL     1      26.751   2.769   6.623  1.00  0.00     0.000 C 
ENDROOT
BRANCH   1   2
ATOM      2  C   UNL     1      25.594   2.033   7.321  1.00  0.00     0.000 C 
BRANCH   2   3
ATOM      3  C   UNL     1      24.331   2.889   7.557  1.00  0.00     0.000 C 
BRANCH   3   4
ATOM      4  C   UNL     1      23.847   2.957   9.019  1.00  0.00     0.000 C 
BRANCH   4   5
ATOM      5  C   UNL     1      24.315   4.194   9.807  1.00  0.00     0.000 C 
BRANCH   5   6
ATOM      6  C   UNL     1      25.738   4.041  10.367  1.00  0.00     0.000 C 
BRANCH   6   7
ATOM      7  C   UNL     1      26.583   5.321  10.214  1.00  0.00     0.006 C 
BRANCH   7   8
ATOM      8  C   UNL     1      27.185   5.506   8.810  1.00  0.00     0.053 C 
BRANCH   8   9
ATOM      9  C   UNL     1      26.509   6.591   8.028  1.00  0.00     0.041 C 
ATOM     10  O   UNL     1      26.878   7.789   8.154  1.00  0.00    -0.550 OA
ATOM     11  O   UNL     1      25.480   6.276   7.148  1.00  0.00    -0.550 OA
ENDBRANCH   8   9
ENDBRANCH   7   8
ENDBRANCH   6   7
ENDBRANCH   5   6
ENDBRANCH   4   5
ENDBRANCH   3   4
ENDBRANCH   2   3
ENDBRANCH   1   2
BRANCH   1  12
ATOM     12  C   UNL     1      28.133   2.304   7.113  1.00  0.00     0.000 C 
BRANCH  12  13
ATOM     13  C   UNL     1      28.075   1.579   8.470  1.00  0.00    -0.000 C 
BRANCH  13  14
ATOM     14  C   UNL     1      28.972   0.332   8.585  1.00  0.00    -0.000 C 
BRANCH  14  15
ATOM     15  C   UNL     1      28.556  -0.603   9.734  1.00  0.00    -0.000 C 
BRANCH  15  16
ATOM     16  C   UNL     1      28.309  -2.049   9.269  1.00  0.00    -0.000 C 
BRANCH  16  17
ATOM     17  C   UNL     1      28.346  -2.265   7.743  1.00  0.00    -0.000 C 
BRANCH  17  18
ATOM     18  C   UNL     1      27.000  -2.658   7.103  1.00  0.00    -0.000 C 
BRANCH  18  19
ATOM     19  C   UNL     1      26.181  -1.479   6.547  1.00  0.00    -0.003 C 
ATOM     20  C   UNL     1      26.825  -0.834   5.321  1.00  0.00     0.004 C 
ENDBRANCH  18  19
ENDBRANCH  17  18
ENDBRANCH  16  17
ENDBRANCH  15  16
ENDBRANCH  14  15
ENDBRANCH  13  14
ENDBRANCH  12  13
ENDBRANCH   1  12
TORSDOF 16
ENDMDL
MODEL 5
REMARK VINA RESULT:    -3.987      3.621      6.367
REMARK INTER + INTRA:         -10.169
REMARK INTER:                  -7.767
REMARK INTRA:                  -2.402
REMARK UNBOUND:                -2.453
REMARK SMILES CCCCCCCCCCCCCCCCCC(=O)[O-]
REMARK SMILES IDX 10 1 11 2 12 3 13 4 14 5 15 6 16 7 17 8 18 9 19 10 20 11
REMARK SMILES IDX 9 12 8 13 7 14 6 15 5 16 4 17 3 18 2 19 1 20
REMARK H PARENT
REMARK Flexibility Score: inf
ROOT
ATOM      1  C   UNL     1      28.659   1.793   7.533  1.00  0.00     0.000 C 
ENDROOT
BRANCH   1   2
ATOM      2  C   UNL     1      28.441   3.194   8.131  1.00  0.00     0.000 C 
BRANCH   2   3
ATOM      3  C   UNL     1      28.488   3.254   9.672  1.00  0.00     0.000 C 
BRANCH   3   4
ATOM      4  C   UNL     1      27.184   3.717  10.353  1.00  0.00     0.000 C 
BRANCH   4   5
ATOM      5  C   UNL     1      26.918   5.233  10.296  1.00  0.00     0.000 C 
BRANCH   5   6
ATOM      6  C   UNL     1      25.424   5.579  10.391  1.00  0.00     0.000 C 
BRANCH   6   7
ATOM      7  C   UNL     1      24.754   5.724   9.010  1.00  0.00     0.006 C 
BRANCH   7   8
ATOM      8  C   UNL     1      25.701   6.234   7.909  1.00  0.00     0.053 C 
BRANCH   8   9
ATOM      9  C   UNL     1      26.053   7.681   8.075  1.00  0.00     0.041 C 
ATOM     10  O   UNL     1      25.214   8.489   8.555  1.00  0.00    -0.550 OA
ATOM     11  O   UNL     1      27.317   8.135   7.713  1.00  0.00    -0.550 OA
ENDBRANCH   8   9
ENDBRANCH   7   8
ENDBRANCH   6   7
ENDBRANCH   5   6
ENDBRANCH   4   5
ENDBRANCH   3   4
ENDBRANCH   2   3
ENDBRANCH   1   2
BRANCH   1  12
ATOM     12  C   UNL     1      28.606   0.679   8.592  1.00  0.00     0.000 C 
BRANCH  12  13
ATOM     13  C   UNL     1      27.611  -0.441   8.234  1.00  0.00    -0.000 C 
BRANCH  13  14
ATOM     14  C   UNL     1      27.810  -1.074   6.844  1.00  0.00    -0.000 C 
BRANCH  14  15
ATOM     15  C   UNL     1      26.610  -0.855   5.906  1.00  0.00    -0.000 C 
BRANCH  15  16
ATOM     16  C   UNL     1      26.847   0.271   4.884  1.00  0.00    -0.000 C 
BRANCH  16  17
ATOM     17  C   UNL     1      25.572   0.954   4.351  1.00  0.00    -0.000 C 
BRANCH  17  18
ATOM     18  C   UNL     1      24.581   1.429   5.432  1.00  0.00    -0.000 C 
BRANCH  18  19
ATOM     19  C   UNL     1      25.142   2.483   6.404  1.00  0.00    -0.003 C 
ATOM     20  C   UNL     1      24.895   2.132   7.870  1.00  0.00     0.004 C 
ENDBRANCH  18  19
ENDBRANCH  17  18
ENDBRANCH  16  17
ENDBRANCH  15  16
ENDBRANCH  14  15
ENDBRANCH  13  14
ENDBRANCH  12  13
ENDBRANCH   1  12
TORSDOF 16
ENDMDL
MODEL 6
REMARK VINA RESULT:    -3.974      4.243      6.478
REMARK INTER + INTRA:         -10.145
REMARK INTER:                  -7.410
REMARK INTRA:                  -2.735
REMARK UNBOUND:                -2.453
REMARK SMILES CCCCCCCCCCCCCCCCCC(=O)[O-]
REMARK SMILES IDX 10 1 11 2 12 3 13 4 14 5 15 6 16 7 17 8 18 9 19 10 20 11
REMARK SMILES IDX 9 12 8 13 7 14 6 15 5 16 4 17 3 18 2 19 1 20
REMARK H PARENT
REMARK Flexibility Score: inf
ROOT
ATOM      1  C   UNL     1      28.655   3.371   9.205  1.00  0.00     0.000 C 
ENDROOT
BRANCH   1   2
ATOM      2  C   UNL     1      28.004   3.814  10.528  1.00  0.00     0.000 C 
BRANCH   2   3
ATOM      3  C   UNL     1      26.800   4.765  10.370  1.00  0.00     0.000 C 
BRANCH   3   4
ATOM      4  C   UNL     1      25.415   4.101  10.511  1.00  0.00     0.000 C 
BRANCH   4   5
ATOM      5  C   UNL     1      24.214   5.027  10.241  1.00  0.00     0.000 C 
BRANCH   5   6
ATOM      6  C   UNL     1      24.242   6.303  11.098  1.00  0.00     0.000 C 
BRANCH   6   7
ATOM      7  C   UNL     1      23.178   7.333  10.672  1.00  0.00     0.006 C 
BRANCH   7   8
ATOM      8  C   UNL     1      22.554   7.051   9.294  1.00  0.00     0.053 C 
BRANCH   8   9
ATOM      9  C   UNL     1      21.469   8.022   8.940  1.00  0.00     0.041 C 
ATOM     10  O   UNL     1      20.937   8.734   9.833  1.00  0.00    -0.550 OA
ATOM     11  O   UNL     1      21.056   8.153   7.619  1.00  0.00    -0.550 OA
ENDBRANCH   8   9
ENDBRANCH   7   8
ENDBRANCH   6   7
ENDBRANCH   5   6
ENDBRANCH   4   5
ENDBRANCH   3   4
ENDBRANCH   2   3
ENDBRANCH   1   2
BRANCH   1  12
ATOM     12  C   UNL     1      28.705   1.841   9.049  1.00  0.00     0.000 C 
BRANCH  12  13
ATOM     13  C   UNL     1      27.776   1.322   7.937  1.00  0.00    -0.000 C 
BRANCH  13  14
ATOM     14  C   UNL     1      27.233   2.400   6.980  1.00  0.00    -0.000 C 
BRANCH  14  15
ATOM     15  C   UNL     1      25.700   2.378   6.857  1.00  0.00    -0.000 C 
BRANCH  15  16
ATOM     16  C   UNL     1      25.071   3.779   6.956  1.00  0.00    -0.000 C 
BRANCH  16  17
ATOM     17  C   UNL     1      26.058   4.955   6.808  1.00  0.00    -0.000 C 
BRANCH  17  18
ATOM     18  C   UNL     1      25.462   6.350   7.083  1.00  0.00    -0.000 C 
BRANCH  18  19
ATOM     19  C   UNL     1      26.498   7.440   7.411  1.00  0.00    -0.003 C 
ATOM     20  C   UNL     1      26.120   8.271   8.635  1.00  0.00     0.004 C 
ENDBRANCH  18  19
ENDBRANCH  17  18
ENDBRANCH  16  17
ENDBRANCH  15  16
ENDBRANCH  14  15
ENDBRANCH  13  14
ENDBRANCH  12  13
ENDBRANCH   1  12
TORSDOF 16
ENDMDL
MODEL 7
REMARK VINA RESULT:    -3.963      2.627      4.432
REMARK INTER + INTRA:         -10.123
REMARK INTER:                  -7.592
REMARK INTRA:                  -2.531
REMARK UNBOUND:                -2.453
REMARK SMILES CCCCCCCCCCCCCCCCCC(=O)[O-]
REMARK SMILES IDX 10 1 11 2 12 3 13 4 14 5 15 6 16 7 17 8 18 9 19 10 20 11
REMARK SMILES IDX 9 12 8 13 7 14 6 15 5 16 4 17 3 18 2 19 1 20
REMARK H PARENT
REMARK Flexibility Score: inf
ROOT
ATOM      1  C   UNL     1      28.750   2.533   8.100  1.00  0.00     0.000 C 
ENDROOT
BRANCH   1   2
ATOM      2  C   UNL     1      27.982   1.407   8.815  1.00  0.00     0.000 C 
BRANCH   2   3
ATOM      3  C   UNL     1      28.709   0.047   8.848  1.00  0.00     0.000 C 
BRANCH   3   4
ATOM      4  C   UNL     1      28.892  -0.635   7.477  1.00  0.00     0.000 C 
BRANCH   4   5
ATOM      5  C   UNL     1      28.024  -1.886   7.247  1.00  0.00     0.000 C 
BRANCH   5   6
ATOM      6  C   UNL     1      27.002  -1.702   6.114  1.00  0.00     0.000 C 
BRANCH   6   7
ATOM      7  C   UNL     1      26.001  -0.563   6.391  1.00  0.00     0.006 C 
BRANCH   7   8
ATOM      8  C   UNL     1      25.574   0.211   5.131  1.00  0.00     0.053 C 
BRANCH   8   9
ATOM      9  C   UNL     1      26.742   0.698   4.329  1.00  0.00     0.041 C 
ATOM     10  O   UNL     1      26.857   0.379   3.115  1.00  0.00    -0.550 OA
ATOM     11  O   UNL     1      27.697   1.519   4.918  1.00  0.00    -0.550 OA
ENDBRANCH   8   9
ENDBRANCH   7   8
ENDBRANCH   6   7
ENDBRANCH   5   6
ENDBRANCH   4   5
ENDBRANCH   3   4
ENDBRANCH   2   3
ENDBRANCH   1   2
BRANCH   1  12
ATOM     12  C   UNL     1      28.687   3.871   8.857  1.00  0.00     0.000 C 
BRANCH  12  13
ATOM     13  C   UNL     1      27.808   3.804  10.119  1.00  0.00    -0.000 C 
BRANCH  13  14
ATOM     14  C   UNL     1      26.891   5.021  10.345  1.00  0.00    -0.000 C 
BRANCH  14  15
ATOM     15  C   UNL     1      25.576   4.939   9.550  1.00  0.00    -0.000 C 
BRANCH  15  16
ATOM     16  C   UNL     1      25.542   5.900   8.349  1.00  0.00    -0.000 C 
BRANCH  16  17
ATOM     17  C   UNL     1      25.570   5.223   6.964  1.00  0.00    -0.000 C 
BRANCH  17  18
ATOM     18  C   UNL     1      25.507   3.682   6.985  1.00  0.00    -0.000 C 
BRANCH  18  19
ATOM     19  C   UNL     1      24.096   3.092   6.809  1.00  0.00    -0.003 C 
ATOM     20  C   UNL     1      23.733   2.085   7.899  1.00  0.00     0.004 C 
ENDBRANCH  18  19
ENDBRANCH  17  18
ENDBRANCH  16  17
ENDBRANCH  15  16
ENDBRANCH  14  15
ENDBRANCH  13  14
ENDBRANCH  12  13
ENDBRANCH   1  12
TORSDOF 16
ENDMDL
MODEL 8
REMARK VINA RESULT:    -3.957      1.377      3.085
REMARK INTER + INTRA:         -10.112
REMARK INTER:                  -7.569
REMARK INTRA:                  -2.542
REMARK UNBOUND:                -2.453
REMARK SMILES CCCCCCCCCCCCCCCCCC(=O)[O-]
REMARK SMILES IDX 10 1 11 2 12 3 13 4 14 5 15 6 16 7 17 8 18 9 19 10 20 11
REMARK SMILES IDX 9 12 8 13 7 14 6 15 5 16 4 17 3 18 2 19 1 20
REMARK H PARENT
REMARK Flexibility Score: inf
ROOT
ATOM      1  C   UNL     1      25.735   4.113  10.437  1.00  0.00     0.000 C 
ENDROOT
BRANCH   1   2
ATOM      2  C   UNL     1      27.086   4.837  10.309  1.00  0.00     0.000 C 
BRANCH   2   3
ATOM      3  C   UNL     1      28.267   3.935   9.893  1.00  0.00     0.000 C 
BRANCH   3   4
ATOM      4  C   UNL     1      27.875   2.622   9.187  1.00  0.00     0.000 C 
BRANCH   4   5
ATOM      5  C   UNL     1      28.548   2.387   7.821  1.00  0.00     0.000 C 
BRANCH   5   6
ATOM      6  C   UNL     1      28.218   1.009   7.225  1.00  0.00     0.000 C 
BRANCH   6   7
ATOM      7  C   UNL     1      29.116  -0.114   7.781  1.00  0.00     0.006 C 
BRANCH   7   8
ATOM      8  C   UNL     1      28.372  -1.123   8.674  1.00  0.00     0.053 C 
BRANCH   8   9
ATOM      9  C   UNL     1      28.331  -2.498   8.082  1.00  0.00     0.041 C 
ATOM     10  O   UNL     1      27.987  -3.484   8.787  1.00  0.00    -0.550 OA
ATOM     11  O   UNL     1      28.657  -2.690   6.744  1.00  0.00    -0.550 OA
ENDBRANCH   8   9
ENDBRANCH   7   8
ENDBRANCH   6   7
ENDBRANCH   5   6
ENDBRANCH   4   5
ENDBRANCH   3   4
ENDBRANCH   2   3
ENDBRANCH   1   2
BRANCH   1  12
ATOM     12  C   UNL     1      24.538   5.079  10.420  1.00  0.00     0.000 C 
BRANCH  12  13
ATOM     13  C   UNL     1      24.808   6.352   9.598  1.00  0.00    -0.000 C 
BRANCH  13  14
ATOM     14  C   UNL     1      24.362   6.288   8.125  1.00  0.00    -0.000 C 
BRANCH  14  15
ATOM     15  C   UNL     1      25.532   6.062   7.152  1.00  0.00    -0.000 C 
BRANCH  15  16
ATOM     16  C   UNL     1      25.744   4.577   6.807  1.00  0.00    -0.000 C 
BRANCH  16  17
ATOM     17  C   UNL     1      24.486   3.691   6.909  1.00  0.00    -0.000 C 
BRANCH  17  18
ATOM     18  C   UNL     1      24.740   2.240   7.363  1.00  0.00    -0.000 C 
BRANCH  18  19
ATOM     19  C   UNL     1      24.415   1.168   6.308  1.00  0.00    -0.003 C 
ATOM     20  C   UNL     1      25.216   1.341   5.019  1.00  0.00     0.004 C 
ENDBRANCH  18  19
ENDBRANCH  17  18
ENDBRANCH  16  17
ENDBRANCH  15  16
ENDBRANCH  14  15
ENDBRANCH  13  14
ENDBRANCH  12  13
ENDBRANCH   1  12
TORSDOF 16
ENDMDL
MODEL 9
REMARK VINA RESULT:    -3.956      3.306      6.654
REMARK INTER + INTRA:         -10.109
REMARK INTER:                  -7.686
REMARK INTRA:                  -2.424
REMARK UNBOUND:                -2.453
REMARK SMILES CCCCCCCCCCCCCCCCCC(=O)[O-]
REMARK SMILES IDX 10 1 11 2 12 3 13 4 14 5 15 6 16 7 17 8 18 9 19 10 20 11
REMARK SMILES IDX 9 12 8 13 7 14 6 15 5 16 4 17 3 18 2 19 1 20
REMARK H PARENT
REMARK Flexibility Score: inf
ROOT
ATOM      1  C   UNL     1      27.065   2.824   6.669  1.00  0.00     0.000 C 
ENDROOT
BRANCH   1   2
ATOM      2  C   UNL     1      28.403   2.385   7.290  1.00  0.00     0.000 C 
BRANCH   2   3
ATOM      3  C   UNL     1      28.354   2.113   8.808  1.00  0.00     0.000 C 
BRANCH   3   4
ATOM      4  C   UNL     1      28.961   3.219   9.694  1.00  0.00     0.000 C 
BRANCH   4   5
ATOM      5  C   UNL     1      28.006   3.815  10.744  1.00  0.00     0.000 C 
BRANCH   5   6
ATOM      6  C   UNL     1      26.646   4.219  10.151  1.00  0.00     0.000 C 
BRANCH   6   7
ATOM      7  C   UNL     1      26.519   5.739   9.929  1.00  0.00     0.006 C 
BRANCH   7   8
ATOM      8  C   UNL     1      26.829   6.186   8.489  1.00  0.00     0.053 C 
BRANCH   8   9
ATOM      9  C   UNL     1      25.629   6.122   7.593  1.00  0.00     0.041 C 
ATOM     10  O   UNL     1      25.768   6.163   6.341  1.00  0.00    -0.550 OA
ATOM     11  O   UNL     1      24.358   6.000   8.141  1.00  0.00    -0.550 OA
ENDBRANCH   8   9
ENDBRANCH   7   8
ENDBRANCH   6   7
ENDBRANCH   5   6
ENDBRANCH   4   5
ENDBRANCH   3   4
ENDBRANCH   2   3
ENDBRANCH   1   2
BRANCH   1  12
ATOM     12  C   UNL     1      25.850   2.168   7.348  1.00  0.00     0.000 C 
BRANCH  12  13
ATOM     13  C   UNL     1      25.166   1.112   6.462  1.00  0.00    -0.000 C 
BRANCH  13  14
ATOM     14  C   UNL     1      25.601   1.116   4.984  1.00  0.00    -0.000 C 
BRANCH  14  15
ATOM     15  C   UNL     1      26.479  -0.092   4.612  1.00  0.00    -0.000 C 
BRANCH  15  16
ATOM     16  C   UNL     1      26.257  -1.300   5.539  1.00  0.00    -0.000 C 
BRANCH  16  17
ATOM     17  C   UNL     1      27.536  -2.056   5.953  1.00  0.00    -0.000 C 
BRANCH  17  18
ATOM     18  C   UNL     1      28.462  -1.296   6.924  1.00  0.00    -0.000 C 
BRANCH  18  19
ATOM     19  C   UNL     1      28.094  -1.441   8.412  1.00  0.00    -0.003 C 
ATOM     20  C   UNL     1      28.277  -2.864   8.934  1.00  0.00     0.004 C 
ENDBRANCH  18  19
ENDBRANCH  17  18
ENDBRANCH  16  17
ENDBRANCH  15  16
ENDBRANCH  14  15
ENDBRANCH  13  14
ENDBRANCH  12  13
ENDBRANCH   1  12
TORSDOF 16
ENDMDL
