MODEL 1
REMARK VINA RESULT:    -4.079      0.000      0.000
REMARK INTER + INTRA:          -8.716
REMARK INTER:                  -6.940
REMARK INTRA:                  -1.776
REMARK UNBOUND:                -1.776
REMARK SMILES CCCCCCCCCCCCCC(=O)[O-]
REMARK SMILES IDX 8 1 9 2 10 3 11 4 12 5 13 6 14 7 15 8 16 9 7 10 6 11 5 12
REMARK SMILES IDX 4 13 3 14 2 15 1 16
REMARK H PARENT
REMARK Flexibility Score: inf
ROOT
ATOM      1  C   UNL     1       8.130 -17.822  22.339  1.00  0.00     0.000 C 
ENDROOT
BRANCH   1   2
ATOM      2  C   UNL     1       7.130 -18.201  23.438  1.00  0.00     0.000 C 
BRANCH   2   3
ATOM      3  C   UNL     1       7.581 -19.466  24.180  1.00  0.00     0.000 C 
BRANCH   3   4
ATOM      4  C   UNL     1       8.365 -20.399  23.251  1.00  0.00     0.000 C 
BRANCH   4   5
ATOM      5  C   UNL     1       7.461 -21.505  22.690  1.00  0.00     0.006 C 
BRANCH   5   6
ATOM      6  C   UNL     1       7.228 -21.356  21.180  1.00  0.00     0.053 C 
BRANCH   6   7
ATOM      7  C   UNL     1       8.186 -22.188  20.384  1.00  0.00     0.041 C 
ATOM      8  O   UNL     1       8.400 -21.922  19.172  1.00  0.00    -0.550 OA
ATOM      9  O   UNL     1       8.867 -23.236  20.990  1.00  0.00    -0.550 OA
ENDBRANCH   6   7
ENDBRANCH   5   6
ENDBRANCH   4   5
ENDBRANCH   3   4
ENDBRANCH   2   3
ENDBRANCH   1   2
BRANCH   1  10
ATOM     10  C   UNL     1       8.303 -16.298  22.256  1.00  0.00     0.000 C 
BRANCH  10  11
ATOM     11  C   UNL     1       7.849 -15.573  23.535  1.00  0.00    -0.000 C 
BRANCH  11  12
ATOM     12  C   UNL     1       8.966 -15.301  24.561  1.00  0.00    -0.000 C 
BRANCH  12  13
ATOM     13  C   UNL     1       8.988 -16.255  25.772  1.00  0.00    -0.000 C 
BRANCH  13  14
ATOM     14  C   UNL     1      10.272 -17.098  25.914  1.00  0.00    -0.000 C 
BRANCH  14  15
ATOM     15  C   UNL     1      11.207 -17.062  24.693  1.00  0.00    -0.003 C 
ATOM     16  C   UNL     1      11.380 -18.431  24.034  1.00  0.00     0.004 C 
ENDBRANCH  14  15
ENDBRANCH  13  14
ENDBRANCH  12  13
ENDBRANCH  11  12
ENDBRANCH  10  11
ENDBRANCH   1  10
TORSDOF 12
ENDMDL
MODEL 2
REMARK VINA RESULT:    -4.059      1.413      2.056
REMARK INTER + INTRA:          -8.683
REMARK INTER:                  -6.886
REMARK INTRA:                  -1.797
REMARK UNBOUND:                -1.776
REMARK SMILES CCCCCCCCCCCCCC(=O)[O-]
REMARK SMILES IDX 8 1 9 2 10 3 11 4 12 5 13 6 14 7 15 8 16 9 7 10 6 11 5 12
REMARK SMILES IDX 4 13 3 14 2 15 1 16
REMARK H PARENT
REMARK Flexibility Score: inf
ROOT
ATOM      1  C   UNL     1       7.706 -18.333  22.041  1.00  0.00     0.000 C 
ENDROOT
BRANCH   1   2
ATOM      2  C   UNL     1       9.097 -18.920  22.306  1.00  0.00     0.000 C 
BRANCH   2   3
ATOM      3  C   UNL     1       9.005 -20.195  23.154  1.00  0.00     0.000 C 
BRANCH   3   4
ATOM      4  C   UNL     1       7.667 -20.909  22.929  1.00  0.00     0.000 C 
BRANCH   4   5
ATOM      5  C   UNL     1       7.866 -22.220  22.154  1.00  0.00     0.006 C 
BRANCH   5   6
ATOM      6  C   UNL     1       7.513 -22.076  20.668  1.00  0.00     0.053 C 
BRANCH   6   7
ATOM      7  C   UNL     1       8.732 -21.860  19.824  1.00  0.00     0.041 C 
ATOM      8  O   UNL     1       9.878 -22.074  20.300  1.00  0.00    -0.550 OA
ATOM      9  O   UNL     1       8.600 -21.454  18.502  1.00  0.00    -0.550 OA
ENDBRANCH   6   7
ENDBRANCH   5   6
ENDBRANCH   4   5
ENDBRANCH   3   4
ENDBRANCH   2   3
ENDBRANCH   1   2
BRANCH   1  10
ATOM     10  C   UNL     1       7.798 -16.843  21.682  1.00  0.00     0.000 C 
BRANCH  10  11
ATOM     11  C   UNL     1       7.085 -15.937  22.703  1.00  0.00    -0.000 C 
BRANCH  11  12
ATOM     12  C   UNL     1       8.020 -15.061  23.560  1.00  0.00    -0.000 C 
BRANCH  12  13
ATOM     13  C   UNL     1       9.080 -15.834  24.369  1.00  0.00    -0.000 C 
BRANCH  13  14
ATOM     14  C   UNL     1       8.611 -16.327  25.754  1.00  0.00    -0.000 C 
BRANCH  14  15
ATOM     15  C   UNL     1       8.418 -17.849  25.868  1.00  0.00    -0.003 C 
ATOM     16  C   UNL     1       6.974 -18.286  25.624  1.00  0.00     0.004 C 
ENDBRANCH  14  15
ENDBRANCH  13  14
ENDBRANCH  12  13
ENDBRANCH  11  12
ENDBRANCH  10  11
ENDBRANCH   1  10
TORSDOF 12
ENDMDL
MODEL 3
REMARK VINA RESULT:    -4.045      3.333      5.849
REMARK INTER + INTRA:          -8.659
REMARK INTER:                  -6.819
REMARK INTRA:                  -1.840
REMARK UNBOUND:                -1.776
REMARK SMILES CCCCCCCCCCCCCC(=O)[O-]
REMARK SMILES IDX 8 1 9 2 10 3 11 4 12 5 13 6 14 7 15 8 16 9 7 10 6 11 5 12
REMARK SMILES IDX 4 13 3 14 2 15 1 16
REMARK H PARENT
REMARK Flexibility Score: inf
ROOT
ATOM      1  C   UNL     1       7.205 -20.670  23.382  1.00  0.00     0.000 C 
ENDROOT
BRANCH   1   2
ATOM      2  C   UNL     1       7.324 -19.143  23.331  1.00  0.00     0.000 C 
BRANCH   2   3
ATOM      3  C   UNL     1       7.696 -18.666  21.921  1.00  0.00     0.000 C 
BRANCH   3   4
ATOM      4  C   UNL     1       8.070 -17.180  21.924  1.00  0.00     0.000 C 
BRANCH   4   5
ATOM      5  C   UNL     1       7.241 -16.405  22.957  1.00  0.00     0.006 C 
BRANCH   5   6
ATOM      6  C   UNL     1       7.941 -15.120  23.420  1.00  0.00     0.053 C 
BRANCH   6   7
ATOM      7  C   UNL     1       9.121 -15.413  24.294  1.00  0.00     0.041 C 
ATOM      8  O   UNL     1      10.284 -15.125  23.907  1.00  0.00    -0.550 OA
ATOM      9  O   UNL     1       8.934 -15.973  25.551  1.00  0.00    -0.550 OA
ENDBRANCH   6   7
ENDBRANCH   5   6
ENDBRANCH   4   5
ENDBRANCH   3   4
ENDBRANCH   2   3
ENDBRANCH   1   2
BRANCH   1  10
ATOM     10  C   UNL     1       7.418 -21.286  21.992  1.00  0.00     0.000 C 
BRANCH  10  11
ATOM     11  C   UNL     1       8.151 -22.638  22.042  1.00  0.00    -0.000 C 
BRANCH  11  12
ATOM     12  C   UNL     1       9.544 -22.649  21.381  1.00  0.00    -0.000 C 
BRANCH  12  13
ATOM     13  C   UNL     1      10.006 -21.294  20.810  1.00  0.00    -0.000 C 
BRANCH  13  14
ATOM     14  C   UNL     1      11.171 -20.629  21.571  1.00  0.00    -0.000 C 
BRANCH  14  15
ATOM     15  C   UNL     1      10.911 -20.386  23.067  1.00  0.00    -0.003 C 
ATOM     16  C   UNL     1      11.063 -18.919  23.468  1.00  0.00     0.004 C 
ENDBRANCH  14  15
ENDBRANCH  13  14
ENDBRANCH  12  13
ENDBRANCH  11  12
ENDBRANCH  10  11
ENDBRANCH   1  10
TORSDOF 12
ENDMDL
MODEL 4
REMARK VINA RESULT:    -4.032      1.140      3.080
REMARK INTER + INTRA:          -8.637
REMARK INTER:                  -6.650
REMARK INTRA:                  -1.988
REMARK UNBOUND:                -1.776
REMARK SMILES CCCCCCCCCCCCCC(=O)[O-]
REMARK SMILES IDX 8 1 9 2 10 3 11 4 12 5 13 6 14 7 15 8 16 9 7 10 6 11 5 12
REMARK SMILES IDX 4 13 3 14 2 15 1 16
REMARK H PARENT
REMARK Flexibility Score: inf
ROOT
ATOM      1  C   UNL     1       8.049 -17.164  25.796  1.00  0.00     0.000 C 
ENDROOT
BRANCH   1   2
ATOM      2  C   UNL     1       6.917 -18.172  25.561  1.00  0.00     0.000 C 
BRANCH   2   3
ATOM      3  C   UNL     1       7.457 -19.478  24.965  1.00  0.00     0.000 C 
BRANCH   3   4
ATOM      4  C   UNL     1       6.642 -19.902  23.738  1.00  0.00     0.000 C 
BRANCH   4   5
ATOM      5  C   UNL     1       7.274 -21.120  23.052  1.00  0.00     0.006 C 
BRANCH   5   6
ATOM      6  C   UNL     1       7.140 -21.062  21.524  1.00  0.00     0.053 C 
BRANCH   6   7
ATOM      7  C   UNL     1       7.878 -22.181  20.856  1.00  0.00     0.041 C 
ATOM      8  O   UNL     1       8.119 -23.245  21.485  1.00  0.00    -0.550 OA
ATOM      9  O   UNL     1       8.271 -22.061  19.530  1.00  0.00    -0.550 OA
ENDBRANCH   6   7
ENDBRANCH   5   6
ENDBRANCH   4   5
ENDBRANCH   3   4
ENDBRANCH   2   3
ENDBRANCH   1   2
BRANCH   1  10
ATOM     10  C   UNL     1       9.422 -17.837  25.658  1.00  0.00     0.000 C 
BRANCH  10  11
ATOM     11  C   UNL     1      10.369 -17.075  24.713  1.00  0.00    -0.000 C 
BRANCH  11  12
ATOM     12  C   UNL     1      10.824 -17.866  23.471  1.00  0.00    -0.000 C 
BRANCH  12  13
ATOM     13  C   UNL     1       9.715 -18.157  22.440  1.00  0.00    -0.000 C 
BRANCH  13  14
ATOM     14  C   UNL     1       9.056 -16.907  21.821  1.00  0.00    -0.000 C 
BRANCH  14  15
ATOM     15  C   UNL     1       7.538 -16.799  22.044  1.00  0.00    -0.003 C 
ATOM     16  C   UNL     1       7.126 -15.493  22.723  1.00  0.00     0.004 C 
ENDBRANCH  14  15
ENDBRANCH  13  14
ENDBRANCH  12  13
ENDBRANCH  11  12
ENDBRANCH  10  11
ENDBRANCH   1  10
TORSDOF 12
ENDMDL
MODEL 5
REMARK VINA RESULT:    -4.018      2.873      3.512
REMARK INTER + INTRA:          -8.613
REMARK INTER:                  -6.599
REMARK INTRA:                  -2.014
REMARK UNBOUND:                -1.776
REMARK SMILES CCCCCCCCCCCCCC(=O)[O-]
REMARK SMILES IDX 8 1 9 2 10 3 11 4 12 5 13 6 14 7 15 8 16 9 7 10 6 11 5 12
REMARK SMILES IDX 4 13 3 14 2 15 1 16
REMARK H PARENT
REMARK Flexibility Score: inf
ROOT
ATOM      1  C   UNL     1       7.540 -17.156  20.963  1.00  0.00     0.000 C 
ENDROOT
BRANCH   1   2
ATOM      2  C   UNL     1       9.054 -17.241  20.736  1.00  0.00     0.000 C 
BRANCH   2   3
ATOM      3  C   UNL     1       9.682 -18.334  21.609  1.00  0.00     0.000 C 
BRANCH   3   4
ATOM      4  C   UNL     1       8.645 -19.396  21.992  1.00  0.00     0.000 C 
BRANCH   4   5
ATOM      5  C   UNL     1       8.591 -19.589  23.514  1.00  0.00     0.006 C 
BRANCH   5   6
ATOM      6  C   UNL     1       7.188 -19.974  24.002  1.00  0.00     0.053 C 
BRANCH   6   7
ATOM      7  C   UNL     1       7.062 -19.850  25.489  1.00  0.00     0.041 C 
ATOM      8  O   UNL     1       7.422 -18.792  26.070  1.00  0.00    -0.550 OA
ATOM      9  O   UNL     1       6.517 -20.890  26.230  1.00  0.00    -0.550 OA
ENDBRANCH   6   7
ENDBRANCH   5   6
ENDBRANCH   4   5
ENDBRANCH   3   4
ENDBRANCH   2   3
ENDBRANCH   1   2
BRANCH   1  10
ATOM     10  C   UNL     1       7.076 -15.694  21.037  1.00  0.00     0.000 C 
BRANCH  10  11
ATOM     11  C   UNL     1       7.226 -15.089  22.444  1.00  0.00    -0.000 C 
BRANCH  11  12
ATOM     12  C   UNL     1       7.377 -16.117  23.583  1.00  0.00    -0.000 C 
BRANCH  12  13
ATOM     13  C   UNL     1       8.529 -15.836  24.568  1.00  0.00    -0.000 C 
BRANCH  13  14
ATOM     14  C   UNL     1       9.874 -15.467  23.910  1.00  0.00    -0.000 C 
BRANCH  14  15
ATOM     15  C   UNL     1      11.067 -16.333  24.350  1.00  0.00    -0.003 C 
ATOM     16  C   UNL     1      10.734 -17.258  25.520  1.00  0.00     0.004 C 
ENDBRANCH  14  15
ENDBRANCH  13  14
ENDBRANCH  12  13
ENDBRANCH  11  12
ENDBRANCH  10  11
ENDBRANCH   1  10
TORSDOF 12
ENDMDL
MODEL 6
REMARK VINA RESULT:    -4.003      3.317      5.681
REMARK INTER + INTRA:          -8.587
REMARK INTER:                  -6.469
REMARK INTRA:                  -2.118
REMARK UNBOUND:                -1.776
REMARK SMILES CCCCCCCCCCCCCC(=O)[O-]
REMARK SMILES IDX 8 1 9 2 10 3 11 4 12 5 13 6 14 7 15 8 16 9 7 10 6 11 5 12
REMARK SMILES IDX 4 13 3 14 2 15 1 16
REMARK H PARENT
REMARK Flexibility Score: inf
ROOT
ATOM      1  C   UNL     1       9.419 -19.643  23.451  1.00  0.00     0.000 C 
ENDROOT
BRANCH   1   2
ATOM      2  C   UNL     1       9.922 -18.577  22.470  1.00  0.00     0.000 C 
BRANCH   2   3
ATOM      3  C   UNL     1       9.769 -19.049  21.018  1.00  0.00     0.000 C 
BRANCH   3   4
ATOM      4  C   UNL     1       9.012 -18.013  20.180  1.00  0.00     0.000 C 
BRANCH   4   5
ATOM      5  C   UNL     1       7.666 -17.658  20.828  1.00  0.00     0.006 C 
BRANCH   5   6
ATOM      6  C   UNL     1       7.507 -16.147  21.045  1.00  0.00     0.053 C 
BRANCH   6   7
ATOM      7  C   UNL     1       7.408 -15.801  22.500  1.00  0.00     0.041 C 
ATOM      8  O   UNL     1       6.298 -15.861  23.091  1.00  0.00    -0.550 OA
ATOM      9  O   UNL     1       8.548 -15.445  23.209  1.00  0.00    -0.550 OA
ENDBRANCH   6   7
ENDBRANCH   5   6
ENDBRANCH   4   5
ENDBRANCH   3   4
ENDBRANCH   2   3
ENDBRANCH   1   2
BRANCH   1  10
ATOM     10  C   UNL     1       8.189 -19.144  24.222  1.00  0.00     0.000 C 
BRANCH  10  11
ATOM     11  C   UNL     1       6.875 -19.775  23.725  1.00  0.00    -0.000 C 
BRANCH  11  12
ATOM     12  C   UNL     1       7.028 -21.158  23.061  1.00  0.00    -0.000 C 
BRANCH  12  13
ATOM     13  C   UNL     1       6.777 -21.183  21.540  1.00  0.00    -0.000 C 
BRANCH  13  14
ATOM     14  C   UNL     1       7.697 -22.131  20.744  1.00  0.00    -0.000 C 
BRANCH  14  15
ATOM     15  C   UNL     1       8.566 -23.064  21.605  1.00  0.00    -0.003 C 
ATOM     16  C   UNL     1      10.064 -22.823  21.420  1.00  0.00     0.004 C 
ENDBRANCH  14  15
ENDBRANCH  13  14
ENDBRANCH  12  13
ENDBRANCH  11  12
ENDBRANCH  10  11
ENDBRANCH   1  10
TORSDOF 12
ENDMDL
MODEL 7
REMARK VINA RESULT:    -4.002      3.363      5.878
REMARK INTER + INTRA:          -8.587
REMARK INTER:                  -6.376
REMARK INTRA:                  -2.211
REMARK UNBOUND:                -1.776
REMARK SMILES CCCCCCCCCCCCCC(=O)[O-]
REMARK SMILES IDX 8 1 9 2 10 3 11 4 12 5 13 6 14 7 15 8 16 9 7 10 6 11 5 12
REMARK SMILES IDX 4 13 3 14 2 15 1 16
REMARK H PARENT
REMARK Flexibility Score: inf
ROOT
ATOM      1  C   UNL     1       7.814 -22.242  20.569  1.00  0.00     0.000 C 
ENDROOT
BRANCH   1   2
ATOM      2  C   UNL     1       7.161 -20.952  21.080  1.00  0.00     0.000 C 
BRANCH   2   3
ATOM      3  C   UNL     1       7.071 -20.949  22.611  1.00  0.00     0.000 C 
BRANCH   3   4
ATOM      4  C   UNL     1       7.540 -19.608  23.187  1.00  0.00     0.000 C 
BRANCH   4   5
ATOM      5  C   UNL     1       7.748 -18.573  22.072  1.00  0.00     0.006 C 
BRANCH   5   6
ATOM      6  C   UNL     1       8.657 -17.418  22.513  1.00  0.00     0.053 C 
BRANCH   6   7
ATOM      7  C   UNL     1       7.940 -16.455  23.408  1.00  0.00     0.041 C 
ATOM      8  O   UNL     1       8.521 -15.975  24.417  1.00  0.00    -0.550 OA
ATOM      9  O   UNL     1       6.642 -16.062  23.109  1.00  0.00    -0.550 OA
ENDBRANCH   6   7
ENDBRANCH   5   6
ENDBRANCH   4   5
ENDBRANCH   3   4
ENDBRANCH   2   3
ENDBRANCH   1   2
BRANCH   1  10
ATOM     10  C   UNL     1       8.570 -22.959  21.697  1.00  0.00     0.000 C 
BRANCH  10  11
ATOM     11  C   UNL     1      10.099 -22.868  21.543  1.00  0.00    -0.000 C 
BRANCH  11  12
ATOM     12  C   UNL     1      10.781 -21.809  22.431  1.00  0.00    -0.000 C 
BRANCH  12  13
ATOM     13  C   UNL     1      10.966 -20.427  21.773  1.00  0.00    -0.000 C 
BRANCH  13  14
ATOM     14  C   UNL     1      11.286 -20.460  20.265  1.00  0.00    -0.000 C 
BRANCH  14  15
ATOM     15  C   UNL     1      10.282 -19.709  19.374  1.00  0.00    -0.003 C 
ATOM     16  C   UNL     1       9.982 -20.440  18.066  1.00  0.00     0.004 C 
ENDBRANCH  14  15
ENDBRANCH  13  14
ENDBRANCH  12  13
ENDBRANCH  11  12
ENDBRANCH  10  11
ENDBRANCH   1  10
TORSDOF 12
ENDMDL
MODEL 8
REMARK VINA RESULT:    -4.002      3.363      5.271
REMARK INTER + INTRA:          -8.585
REMARK INTER:                  -6.550
REMARK INTRA:                  -2.035
REMARK UNBOUND:                -1.776
REMARK SMILES CCCCCCCCCCCCCC(=O)[O-]
REMARK SMILES IDX 8 1 9 2 10 3 11 4 12 5 13 6 14 7 15 8 16 9 7 10 6 11 5 12
REMARK SMILES IDX 4 13 3 14 2 15 1 16
REMARK H PARENT
REMARK Flexibility Score: inf
ROOT
ATOM      1  C   UNL     1       7.735 -16.177  21.821  1.00  0.00     0.000 C 
ENDROOT
BRANCH   1   2
ATOM      2  C   UNL     1       7.663 -17.479  21.017  1.00  0.00     0.000 C 
BRANCH   2   3
ATOM      3  C   UNL     1       9.066 -18.031  20.735  1.00  0.00     0.000 C 
BRANCH   3   4
ATOM      4  C   UNL     1      10.135 -17.222  21.478  1.00  0.00     0.000 C 
BRANCH   4   5
ATOM      5  C   UNL     1      10.833 -18.079  22.543  1.00  0.00     0.006 C 
BRANCH   5   6
ATOM      6  C   UNL     1      11.120 -17.291  23.827  1.00  0.00     0.053 C 
BRANCH   6   7
ATOM      7  C   UNL     1      11.141 -15.813  23.581  1.00  0.00     0.041 C 
ATOM      8  O   UNL     1      10.193 -15.090  23.986  1.00  0.00    -0.550 OA
ATOM      9  O   UNL     1      12.223 -15.231  22.934  1.00  0.00    -0.550 OA
ENDBRANCH   6   7
ENDBRANCH   5   6
ENDBRANCH   4   5
ENDBRANCH   3   4
ENDBRANCH   2   3
ENDBRANCH   1   2
BRANCH   1  10
ATOM     10  C   UNL     1       6.907 -16.279  23.110  1.00  0.00     0.000 C 
BRANCH  10  11
ATOM     11  C   UNL     1       7.447 -17.340  24.086  1.00  0.00    -0.000 C 
BRANCH  11  12
ATOM     12  C   UNL     1       6.433 -18.426  24.495  1.00  0.00    -0.000 C 
BRANCH  12  13
ATOM     13  C   UNL     1       6.575 -19.768  23.751  1.00  0.00    -0.000 C 
BRANCH  13  14
ATOM     14  C   UNL     1       8.020 -20.290  23.619  1.00  0.00    -0.000 C 
BRANCH  14  15
ATOM     15  C   UNL     1       8.282 -21.161  22.379  1.00  0.00    -0.003 C 
ATOM     16  C   UNL     1       7.104 -21.182  21.405  1.00  0.00     0.004 C 
ENDBRANCH  14  15
ENDBRANCH  13  14
ENDBRANCH  12  13
ENDBRANCH  11  12
ENDBRANCH  10  11
ENDBRANCH   1  10
TORSDOF 12
ENDMDL
MODEL 9
REMARK VINA RESULT:    -3.973      3.112      5.944
REMARK INTER + INTRA:          -8.536
REMARK INTER:                  -7.237
REMARK INTRA:                  -1.299
REMARK UNBOUND:                -1.776
REMARK SMILES CCCCCCCCCCCCCC(=O)[O-]
REMARK SMILES IDX 8 1 9 2 10 3 11 4 12 5 13 6 14 7 15 8 16 9 7 10 6 11 5 12
REMARK SMILES IDX 4 13 3 14 2 15 1 16
REMARK H PARENT
REMARK Flexibility Score: inf
ROOT
ATOM      1  C   UNL     1       8.530 -18.863  22.439  1.00  0.00     0.000 C 
ENDROOT
BRANCH   1   2
ATOM      2  C   UNL     1       7.894 -17.564  21.930  1.00  0.00     0.000 C 
BRANCH   2   3
ATOM      3  C   UNL     1       7.249 -16.779  23.079  1.00  0.00     0.000 C 
BRANCH   3   4
ATOM      4  C   UNL     1       7.811 -15.355  23.156  1.00  0.00     0.000 C 
BRANCH   4   5
ATOM      5  C   UNL     1       8.774 -15.207  24.342  1.00  0.00     0.006 C 
BRANCH   5   6
ATOM      6  C   UNL     1      10.224 -15.530  23.958  1.00  0.00     0.053 C 
BRANCH   6   7
ATOM      7  C   UNL     1      10.757 -16.699  24.727  1.00  0.00     0.041 C 
ATOM      8  O   UNL     1      11.916 -17.134  24.497  1.00  0.00    -0.550 OA
ATOM      9  O   UNL     1       9.987 -17.287  25.722  1.00  0.00    -0.550 OA
ENDBRANCH   6   7
ENDBRANCH   5   6
ENDBRANCH   4   5
ENDBRANCH   3   4
ENDBRANCH   2   3
ENDBRANCH   1   2
BRANCH   1  10
ATOM     10  C   UNL     1       7.718 -19.454  23.601  1.00  0.00     0.000 C 
BRANCH  10  11
ATOM     11  C   UNL     1       7.226 -20.885  23.319  1.00  0.00    -0.000 C 
BRANCH  11  12
ATOM     12  C   UNL     1       7.484 -21.392  21.887  1.00  0.00    -0.000 C 
BRANCH  12  13
ATOM     13  C   UNL     1       8.033 -22.830  21.791  1.00  0.00    -0.000 C 
BRANCH  13  14
ATOM     14  C   UNL     1       9.511 -22.936  21.365  1.00  0.00    -0.000 C 
BRANCH  14  15
ATOM     15  C   UNL     1      10.484 -22.071  22.185  1.00  0.00    -0.003 C 
ATOM     16  C   UNL     1      11.878 -21.989  21.563  1.00  0.00     0.004 C 
ENDBRANCH  14  15
ENDBRANCH  13  14
ENDBRANCH  12  13
ENDBRANCH  11  12
ENDBRANCH  10  11
ENDBRANCH   1  10
TORSDOF 12
ENDMDL
