MODEL 1
REMARK VINA RESULT:     6.892      0.000      0.000
REMARK INTER + INTRA:          14.464
REMARK INTER:                  15.757
REMARK INTRA:                  -1.293
REMARK UNBOUND:                -1.293
REMARK SMILES CCCCCCCCCCCCCCCCCCCCCCCC(=O)[O-]
REMARK SMILES IDX 13 1 14 2 15 3 16 4 17 5 18 6 19 7 20 8 21 9 22 10 23 11
REMARK SMILES IDX 24 12 25 13 26 14 12 15 11 16 10 17 9 18 8 19 7 20 6 21 5 22
REMARK SMILES IDX 4 23 3 24 2 25 1 26
REMARK H PARENT
REMARK Flexibility Score: inf
ROOT
ATOM      1  C   UNL     1      14.231  17.267  -6.540  1.00  0.00     0.000 C 
ENDROOT
BRANCH   1   2
ATOM      2  C   UNL     1      12.957  17.554  -5.727  1.00  0.00     0.000 C 
BRANCH   2   3
ATOM      3  C   UNL     1      11.958  16.387  -5.764  1.00  0.00     0.000 C 
BRANCH   3   4
ATOM      4  C   UNL     1      11.732  15.761  -4.377  1.00  0.00     0.000 C 
BRANCH   4   5
ATOM      5  C   UNL     1      10.971  14.427  -4.448  1.00  0.00     0.000 C 
BRANCH   5   6
ATOM      6  C   UNL     1      11.115  13.595  -3.162  1.00  0.00     0.000 C 
BRANCH   6   7
ATOM      7  C   UNL     1      10.605  14.356  -1.918  1.00  0.00     0.000 C 
BRANCH   7   8
ATOM      8  C   UNL     1      10.457  13.470  -0.670  1.00  0.00     0.000 C 
BRANCH   8   9
ATOM      9  C   UNL     1      11.645  13.599   0.298  1.00  0.00     0.000 C 
BRANCH   9  10
ATOM     10  C   UNL     1      11.205  13.976   1.722  1.00  0.00     0.006 C 
BRANCH  10  11
ATOM     11  C   UNL     1       9.848  14.689   1.751  1.00  0.00     0.053 C 
BRANCH  11  12
ATOM     12  C   UNL     1      10.038  16.172   1.813  1.00  0.00     0.041 C 
ATOM     13  O   UNL     1       9.042  16.936   1.905  1.00  0.00    -0.550 OA
ATOM     14  O   UNL     1      11.320  16.708   1.819  1.00  0.00    -0.550 OA
ENDBRANCH  11  12
ENDBRANCH  10  11
ENDBRANCH   9  10
ENDBRANCH   8   9
ENDBRANCH   7   8
ENDBRANCH   6   7
ENDBRANCH   5   6
ENDBRANCH   4   5
ENDBRANCH   3   4
ENDBRANCH   2   3
ENDBRANCH   1   2
BRANCH   1  15
ATOM     15  C   UNL     1      14.007  16.204  -7.628  1.00  0.00     0.000 C 
BRANCH  15  16
ATOM     16  C   UNL     1      15.268  15.949  -8.470  1.00  0.00     0.000 C 
BRANCH  16  17
ATOM     17  C   UNL     1      15.014  14.978  -9.634  1.00  0.00     0.000 C 
BRANCH  17  18
ATOM     18  C   UNL     1      15.197  15.644 -11.006  1.00  0.00    -0.000 C 
BRANCH  18  19
ATOM     19  C   UNL     1      15.738  14.644 -12.035  1.00  0.00    -0.000 C 
BRANCH  19  20
ATOM     20  C   UNL     1      16.432  15.369 -13.194  1.00  0.00    -0.000 C 
BRANCH  20  21
ATOM     21  C   UNL     1      17.900  15.660 -12.864  1.00  0.00    -0.000 C 
BRANCH  21  22
ATOM     22  C   UNL     1      18.171  17.173 -12.857  1.00  0.00    -0.000 C 
BRANCH  22  23
ATOM     23  C   UNL     1      18.518  17.706 -11.458  1.00  0.00    -0.000 C 
BRANCH  23  24
ATOM     24  C   UNL     1      18.150  19.188 -11.281  1.00  0.00    -0.000 C 
BRANCH  24  25
ATOM     25  C   UNL     1      18.573  20.008 -12.505  1.00  0.00    -0.003 C 
ATOM     26  C   UNL     1      19.935  20.660 -12.290  1.00  0.00     0.004 C 
ENDBRANCH  24  25
ENDBRANCH  23  24
ENDBRANCH  22  23
ENDBRANCH  21  22
ENDBRANCH  20  21
ENDBRANCH  19  20
ENDBRANCH  18  19
ENDBRANCH  17  18
ENDBRANCH  16  17
ENDBRANCH  15  16
ENDBRANCH   1  15
TORSDOF 22
ENDMDL
MODEL 2
REMARK VINA RESULT:     7.145      4.844     12.545
REMARK INTER + INTRA:          15.041
REMARK INTER:                  15.723
REMARK INTRA:                  -0.681
REMARK UNBOUND:                -1.293
REMARK SMILES CCCCCCCCCCCCCCCCCCCCCCCC(=O)[O-]
REMARK SMILES IDX 13 1 14 2 15 3 16 4 17 5 18 6 19 7 20 8 21 9 22 10 23 11
REMARK SMILES IDX 24 12 25 13 26 14 12 15 11 16 10 17 9 18 8 19 7 20 6 21 5 22
REMARK SMILES IDX 4 23 3 24 2 25 1 26
REMARK H PARENT
REMARK Flexibility Score: inf
ROOT
ATOM      1  C   UNL     1      14.242  17.310  -6.642  1.00  0.00     0.000 C 
ENDROOT
BRANCH   1   2
ATOM      2  C   UNL     1      14.179  15.942  -7.342  1.00  0.00     0.000 C 
BRANCH   2   3
ATOM      3  C   UNL     1      15.337  15.730  -8.327  1.00  0.00     0.000 C 
BRANCH   3   4
ATOM      4  C   UNL     1      14.862  15.203  -9.693  1.00  0.00     0.000 C 
BRANCH   4   5
ATOM      5  C   UNL     1      15.684  15.768 -10.863  1.00  0.00     0.000 C 
BRANCH   5   6
ATOM      6  C   UNL     1      15.691  14.834 -12.086  1.00  0.00     0.000 C 
BRANCH   6   7
ATOM      7  C   UNL     1      16.530  15.407 -13.249  1.00  0.00     0.000 C 
BRANCH   7   8
ATOM      8  C   UNL     1      17.957  15.811 -12.840  1.00  0.00     0.000 C 
BRANCH   8   9
ATOM      9  C   UNL     1      18.129  17.333 -12.699  1.00  0.00     0.000 C 
BRANCH   9  10
ATOM     10  C   UNL     1      18.371  17.765 -11.244  1.00  0.00     0.006 C 
BRANCH  10  11
ATOM     11  C   UNL     1      18.288  19.285 -11.058  1.00  0.00     0.053 C 
BRANCH  11  12
ATOM     12  C   UNL     1      18.779  19.989 -12.284  1.00  0.00     0.041 C 
ATOM     13  O   UNL     1      18.025  20.124 -13.283  1.00  0.00    -0.550 OA
ATOM     14  O   UNL     1      20.056  20.537 -12.307  1.00  0.00    -0.550 OA
ENDBRANCH  11  12
ENDBRANCH  10  11
ENDBRANCH   9  10
ENDBRANCH   8   9
ENDBRANCH   7   8
ENDBRANCH   6   7
ENDBRANCH   5   6
ENDBRANCH   4   5
ENDBRANCH   3   4
ENDBRANCH   2   3
ENDBRANCH   1   2
BRANCH   1  15
ATOM     15  C   UNL     1      12.952  17.635  -5.870  1.00  0.00     0.000 C 
BRANCH  15  16
ATOM     16  C   UNL     1      11.949  16.470  -5.882  1.00  0.00     0.000 C 
BRANCH  16  17
ATOM     17  C   UNL     1      11.859  15.754  -4.525  1.00  0.00     0.000 C 
BRANCH  17  18
ATOM     18  C   UNL     1      10.816  14.627  -4.522  1.00  0.00    -0.000 C 
BRANCH  18  19
ATOM     19  C   UNL     1      11.053  13.661  -3.355  1.00  0.00    -0.000 C 
BRANCH  19  20
ATOM     20  C   UNL     1      11.037  14.403  -2.014  1.00  0.00    -0.000 C 
BRANCH  20  21
ATOM     21  C   UNL     1      10.439  13.528  -0.906  1.00  0.00    -0.000 C 
BRANCH  21  22
ATOM     22  C   UNL     1      11.442  13.336   0.242  1.00  0.00    -0.000 C 
BRANCH  22  23
ATOM     23  C   UNL     1      11.050  14.116   1.508  1.00  0.00    -0.000 C 
BRANCH  23  24
ATOM     24  C   UNL     1       9.686  14.812   1.376  1.00  0.00    -0.000 C 
BRANCH  24  25
ATOM     25  C   UNL     1       9.829  16.331   1.524  1.00  0.00    -0.003 C 
ATOM     26  C   UNL     1      11.295  16.739   1.633  1.00  0.00     0.004 C 
ENDBRANCH  24  25
ENDBRANCH  23  24
ENDBRANCH  22  23
ENDBRANCH  21  22
ENDBRANCH  20  21
ENDBRANCH  19  20
ENDBRANCH  18  19
ENDBRANCH  17  18
ENDBRANCH  16  17
ENDBRANCH  15  16
ENDBRANCH   1  15
TORSDOF 22
ENDMDL
MODEL 3
REMARK VINA RESULT:     8.059      4.829     12.701
REMARK INTER + INTRA:          17.130
REMARK INTER:                  18.278
REMARK INTRA:                  -1.148
REMARK UNBOUND:                -1.293
REMARK SMILES CCCCCCCCCCCCCCCCCCCCCCCC(=O)[O-]
REMARK SMILES IDX 13 1 14 2 15 3 16 4 17 5 18 6 19 7 20 8 21 9 22 10 23 11
REMARK SMILES IDX 24 12 25 13 26 14 12 15 11 16 10 17 9 18 8 19 7 20 6 21 5 22
REMARK SMILES IDX 4 23 3 24 2 25 1 26
REMARK H PARENT
REMARK Flexibility Score: inf
ROOT
ATOM      1  C   UNL     1      13.852  16.179  -7.560  1.00  0.00     0.000 C 
ENDROOT
BRANCH   1   2
ATOM      2  C   UNL     1      15.145  15.798  -8.301  1.00  0.00     0.000 C 
BRANCH   2   3
ATOM      3  C   UNL     1      14.882  14.910  -9.526  1.00  0.00     0.000 C 
BRANCH   3   4
ATOM      4  C   UNL     1      15.331  15.570 -10.842  1.00  0.00     0.000 C 
BRANCH   4   5
ATOM      5  C   UNL     1      15.457  14.563 -11.996  1.00  0.00     0.000 C 
BRANCH   5   6
ATOM      6  C   UNL     1      16.204  15.144 -13.210  1.00  0.00     0.000 C 
BRANCH   6   7
ATOM      7  C   UNL     1      17.693  14.735 -13.225  1.00  0.00     0.000 C 
BRANCH   7   8
ATOM      8  C   UNL     1      18.649  15.872 -12.830  1.00  0.00     0.000 C 
BRANCH   8   9
ATOM      9  C   UNL     1      17.992  17.260 -12.910  1.00  0.00     0.000 C 
BRANCH   9  10
ATOM     10  C   UNL     1      18.273  18.117 -11.665  1.00  0.00     0.006 C 
BRANCH  10  11
ATOM     11  C   UNL     1      19.430  19.102 -11.875  1.00  0.00     0.053 C 
BRANCH  11  12
ATOM     12  C   UNL     1      18.921  20.395 -12.429  1.00  0.00     0.041 C 
ATOM     13  O   UNL     1      19.557  21.463 -12.232  1.00  0.00    -0.550 OA
ATOM     14  O   UNL     1      17.768  20.413 -13.204  1.00  0.00    -0.550 OA
ENDBRANCH  11  12
ENDBRANCH  10  11
ENDBRANCH   9  10
ENDBRANCH   8   9
ENDBRANCH   7   8
ENDBRANCH   6   7
ENDBRANCH   5   6
ENDBRANCH   4   5
ENDBRANCH   3   4
ENDBRANCH   2   3
ENDBRANCH   1   2
BRANCH   1  15
ATOM     15  C   UNL     1      14.062  17.338  -6.571  1.00  0.00     0.000 C 
BRANCH  15  16
ATOM     16  C   UNL     1      12.828  17.590  -5.689  1.00  0.00     0.000 C 
BRANCH  16  17
ATOM     17  C   UNL     1      11.889  16.374  -5.627  1.00  0.00     0.000 C 
BRANCH  17  18
ATOM     18  C   UNL     1      11.967  15.639  -4.281  1.00  0.00    -0.000 C 
BRANCH  18  19
ATOM     19  C   UNL     1      10.803  14.652  -4.124  1.00  0.00    -0.000 C 
BRANCH  19  20
ATOM     20  C   UNL     1      11.142  13.560  -3.103  1.00  0.00    -0.000 C 
BRANCH  20  21
ATOM     21  C   UNL     1      10.557  13.891  -1.726  1.00  0.00    -0.000 C 
BRANCH  21  22
ATOM     22  C   UNL     1      11.668  13.991  -0.669  1.00  0.00    -0.000 C 
BRANCH  22  23
ATOM     23  C   UNL     1      11.430  13.058   0.530  1.00  0.00    -0.000 C 
BRANCH  23  24
ATOM     24  C   UNL     1      11.663  13.756   1.879  1.00  0.00    -0.000 C 
BRANCH  24  25
ATOM     25  C   UNL     1      10.826  15.035   1.986  1.00  0.00    -0.003 C 
ATOM     26  C   UNL     1       9.333  14.725   1.927  1.00  0.00     0.004 C 
ENDBRANCH  24  25
ENDBRANCH  23  24
ENDBRANCH  22  23
ENDBRANCH  21  22
ENDBRANCH  20  21
ENDBRANCH  19  20
ENDBRANCH  18  19
ENDBRANCH  17  18
ENDBRANCH  16  17
ENDBRANCH  15  16
ENDBRANCH   1  15
TORSDOF 22
ENDMDL
