MODEL 1
REMARK VINA RESULT:    -0.550      0.000      0.000
REMARK INTER + INTRA:          -1.367
REMARK INTER:                  -1.000
REMARK INTRA:                  -0.367
REMARK UNBOUND:                -0.367
REMARK SMILES CCCCCCCCCCCCCCCC(=O)[O-]
REMARK SMILES IDX 9 1 10 2 11 3 12 4 13 5 14 6 15 7 16 8 17 9 18 10 8 11 7 12
REMARK SMILES IDX 6 13 5 14 4 15 3 16 2 17 1 18
REMARK H PARENT
REMARK Flexibility Score: inf
ROOT
ATOM      1  C   UNL     1      -4.774  36.002  19.866  1.00  0.00     0.000 C 
ENDROOT
BRANCH   1   2
ATOM      2  C   UNL     1      -5.474  37.372  19.881  1.00  0.00     0.000 C 
BRANCH   2   3
ATOM      3  C   UNL     1      -4.873  38.332  20.920  1.00  0.00     0.000 C 
BRANCH   3   4
ATOM      4  C   UNL     1      -5.925  39.250  21.567  1.00  0.00     0.000 C 
BRANCH   4   5
ATOM      5  C   UNL     1      -5.498  39.725  22.971  1.00  0.00     0.000 C 
BRANCH   5   6
ATOM      6  C   UNL     1      -5.634  38.642  24.055  1.00  0.00     0.006 C 
BRANCH   6   7
ATOM      7  C   UNL     1      -6.018  37.272  23.485  1.00  0.00     0.053 C 
BRANCH   7   8
ATOM      8  C   UNL     1      -5.709  36.189  24.471  1.00  0.00     0.041 C 
ATOM      9  O   UNL     1      -6.125  35.017  24.275  1.00  0.00    -0.550 OA
ATOM     10  O   UNL     1      -5.005  36.486  25.630  1.00  0.00    -0.550 OA
ENDBRANCH   7   8
ENDBRANCH   6   7
ENDBRANCH   5   6
ENDBRANCH   4   5
ENDBRANCH   3   4
ENDBRANCH   2   3
ENDBRANCH   1   2
BRANCH   1  11
ATOM     11  C   UNL     1      -5.701  34.871  19.392  1.00  0.00     0.000 C 
BRANCH  11  12
ATOM     12  C   UNL     1      -5.233  34.235  18.075  1.00  0.00    -0.000 C 
BRANCH  12  13
ATOM     13  C   UNL     1      -3.923  34.871  17.593  1.00  0.00    -0.000 C 
BRANCH  13  14
ATOM     14  C   UNL     1      -4.057  35.395  16.159  1.00  0.00    -0.000 C 
BRANCH  14  15
ATOM     15  C   UNL     1      -2.680  35.709  15.555  1.00  0.00    -0.000 C 
BRANCH  15  16
ATOM     16  C   UNL     1      -2.775  36.535  14.264  1.00  0.00    -0.000 C 
BRANCH  16  17
ATOM     17  C   UNL     1      -4.217  36.949  13.931  1.00  0.00    -0.003 C 
ATOM     18  C   UNL     1      -4.397  38.459  14.058  1.00  0.00     0.004 C 
ENDBRANCH  16  17
ENDBRANCH  15  16
ENDBRANCH  14  15
ENDBRANCH  13  14
ENDBRANCH  12  13
ENDBRANCH  11  12
ENDBRANCH   1  11
TORSDOF 14
ENDMDL
MODEL 2
REMARK VINA RESULT:    -0.197      3.704      7.904
REMARK INTER + INTRA:          -0.725
REMARK INTER:                   0.312
REMARK INTRA:                  -1.037
REMARK UNBOUND:                -0.367
REMARK SMILES CCCCCCCCCCCCCCCC(=O)[O-]
REMARK SMILES IDX 9 1 10 2 11 3 12 4 13 5 14 6 15 7 16 8 17 9 18 10 8 11 7 12
REMARK SMILES IDX 6 13 5 14 4 15 3 16 2 17 1 18
REMARK H PARENT
REMARK Flexibility Score: inf
ROOT
ATOM      1  C   UNL     1      -4.916  34.653  21.705  1.00  0.00     0.000 C 
ENDROOT
BRANCH   1   2
ATOM      2  C   UNL     1      -4.849  35.956  20.890  1.00  0.00     0.000 C 
BRANCH   2   3
ATOM      3  C   UNL     1      -5.606  35.858  19.556  1.00  0.00     0.000 C 
BRANCH   3   4
ATOM      4  C   UNL     1      -5.478  34.474  18.896  1.00  0.00     0.000 C 
BRANCH   4   5
ATOM      5  C   UNL     1      -4.246  34.382  17.972  1.00  0.00     0.000 C 
BRANCH   5   6
ATOM      6  C   UNL     1      -4.269  35.395  16.813  1.00  0.00     0.006 C 
BRANCH   6   7
ATOM      7  C   UNL     1      -3.036  35.292  15.906  1.00  0.00     0.053 C 
BRANCH   7   8
ATOM      8  C   UNL     1      -3.119  36.292  14.796  1.00  0.00     0.041 C 
ATOM      9  O   UNL     1      -4.151  37.000  14.658  1.00  0.00    -0.550 OA
ATOM     10  O   UNL     1      -2.077  36.407  13.885  1.00  0.00    -0.550 OA
ENDBRANCH   7   8
ENDBRANCH   6   7
ENDBRANCH   5   6
ENDBRANCH   4   5
ENDBRANCH   3   4
ENDBRANCH   2   3
ENDBRANCH   1   2
BRANCH   1  11
ATOM     11  C   UNL     1      -6.025  34.680  22.769  1.00  0.00     0.000 C 
BRANCH  11  12
ATOM     12  C   UNL     1      -6.125  36.035  23.486  1.00  0.00    -0.000 C 
BRANCH  12  13
ATOM     13  C   UNL     1      -5.667  35.920  24.945  1.00  0.00    -0.000 C 
BRANCH  13  14
ATOM     14  C   UNL     1      -5.013  37.222  25.423  1.00  0.00    -0.000 C 
BRANCH  14  15
ATOM     15  C   UNL     1      -5.667  38.443  24.759  1.00  0.00    -0.000 C 
BRANCH  15  16
ATOM     16  C   UNL     1      -4.759  39.103  23.710  1.00  0.00    -0.000 C 
BRANCH  16  17
ATOM     17  C   UNL     1      -5.542  39.968  22.710  1.00  0.00    -0.003 C 
ATOM     18  C   UNL     1      -5.947  39.157  21.482  1.00  0.00     0.004 C 
ENDBRANCH  16  17
ENDBRANCH  15  16
ENDBRANCH  14  15
ENDBRANCH  13  14
ENDBRANCH  12  13
ENDBRANCH  11  12
ENDBRANCH   1  11
TORSDOF 14
ENDMDL
MODEL 3
REMARK VINA RESULT:     0.079      3.695      8.317
REMARK INTER + INTRA:          -0.223
REMARK INTER:                   0.262
REMARK INTRA:                  -0.485
REMARK UNBOUND:                -0.367
REMARK SMILES CCCCCCCCCCCCCCCC(=O)[O-]
REMARK SMILES IDX 9 1 10 2 11 3 12 4 13 5 14 6 15 7 16 8 17 9 18 10 8 11 7 12
REMARK SMILES IDX 6 13 5 14 4 15 3 16 2 17 1 18
REMARK H PARENT
REMARK Flexibility Score: inf
ROOT
ATOM      1  C   UNL     1      -5.072  35.586  21.163  1.00  0.00     0.000 C 
ENDROOT
BRANCH   1   2
ATOM      2  C   UNL     1      -4.291  34.831  20.074  1.00  0.00     0.000 C 
BRANCH   2   3
ATOM      3  C   UNL     1      -4.917  34.991  18.679  1.00  0.00     0.000 C 
BRANCH   3   4
ATOM      4  C   UNL     1      -3.954  34.602  17.543  1.00  0.00     0.000 C 
BRANCH   4   5
ATOM      5  C   UNL     1      -4.071  35.551  16.332  1.00  0.00     0.000 C 
BRANCH   5   6
ATOM      6  C   UNL     1      -2.752  35.725  15.557  1.00  0.00     0.006 C 
BRANCH   6   7
ATOM      7  C   UNL     1      -2.950  36.377  14.183  1.00  0.00     0.053 C 
BRANCH   7   8
ATOM      8  C   UNL     1      -4.060  37.378  14.234  1.00  0.00     0.041 C 
ATOM      9  O   UNL     1      -3.839  38.548  14.646  1.00  0.00    -0.550 OA
ATOM     10  O   UNL     1      -5.349  37.007  13.875  1.00  0.00    -0.550 OA
ENDBRANCH   7   8
ENDBRANCH   6   7
ENDBRANCH   5   6
ENDBRANCH   4   5
ENDBRANCH   3   4
ENDBRANCH   2   3
ENDBRANCH   1   2
BRANCH   1  11
ATOM     11  C   UNL     1      -5.998  36.668  20.581  1.00  0.00     0.000 C 
BRANCH  11  12
ATOM     12  C   UNL     1      -5.243  37.950  20.200  1.00  0.00    -0.000 C 
BRANCH  12  13
ATOM     13  C   UNL     1      -4.705  38.662  21.448  1.00  0.00    -0.000 C 
BRANCH  13  14
ATOM     14  C   UNL     1      -5.846  39.264  22.276  1.00  0.00    -0.000 C 
BRANCH  14  15
ATOM     15  C   UNL     1      -5.785  38.779  23.732  1.00  0.00    -0.000 C 
BRANCH  15  16
ATOM     16  C   UNL     1      -6.125  37.287  23.873  1.00  0.00    -0.000 C 
BRANCH  16  17
ATOM     17  C   UNL     1      -5.765  36.727  25.258  1.00  0.00    -0.003 C 
ATOM     18  C   UNL     1      -4.633  37.527  25.896  1.00  0.00     0.004 C 
ENDBRANCH  16  17
ENDBRANCH  15  16
ENDBRANCH  14  15
ENDBRANCH  13  14
ENDBRANCH  12  13
ENDBRANCH  11  12
ENDBRANCH   1  11
TORSDOF 14
ENDMDL
MODEL 4
REMARK VINA RESULT:     0.079      1.706      2.616
REMARK INTER + INTRA:          -0.223
REMARK INTER:                   0.730
REMARK INTRA:                  -0.953
REMARK UNBOUND:                -0.367
REMARK SMILES CCCCCCCCCCCCCCCC(=O)[O-]
REMARK SMILES IDX 9 1 10 2 11 3 12 4 13 5 14 6 15 7 16 8 17 9 18 10 8 11 7 12
REMARK SMILES IDX 6 13 5 14 4 15 3 16 2 17 1 18
REMARK H PARENT
REMARK Flexibility Score: inf
ROOT
ATOM      1  C   UNL     1      -5.629  35.745  20.061  1.00  0.00     0.000 C 
ENDROOT
BRANCH   1   2
ATOM      2  C   UNL     1      -4.453  35.349  20.969  1.00  0.00     0.000 C 
BRANCH   2   3
ATOM      3  C   UNL     1      -4.880  34.419  22.116  1.00  0.00     0.000 C 
BRANCH   3   4
ATOM      4  C   UNL     1      -6.124  34.926  22.866  1.00  0.00     0.000 C 
BRANCH   4   5
ATOM      5  C   UNL     1      -5.819  35.255  24.342  1.00  0.00     0.000 C 
BRANCH   5   6
ATOM      6  C   UNL     1      -5.031  36.563  24.531  1.00  0.00     0.006 C 
BRANCH   6   7
ATOM      7  C   UNL     1      -5.937  37.795  24.645  1.00  0.00     0.053 C 
BRANCH   7   8
ATOM      8  C   UNL     1      -5.587  38.800  23.593  1.00  0.00     0.041 C 
ATOM      9  O   UNL     1      -5.240  39.965  23.921  1.00  0.00    -0.550 OA
ATOM     10  O   UNL     1      -5.693  38.465  22.250  1.00  0.00    -0.550 OA
ENDBRANCH   7   8
ENDBRANCH   6   7
ENDBRANCH   5   6
ENDBRANCH   4   5
ENDBRANCH   3   4
ENDBRANCH   2   3
ENDBRANCH   1   2
BRANCH   1  11
ATOM     11  C   UNL     1      -6.088  34.592  19.153  1.00  0.00     0.000 C 
BRANCH  11  12
ATOM     12  C   UNL     1      -4.982  34.115  18.199  1.00  0.00    -0.000 C 
BRANCH  12  13
ATOM     13  C   UNL     1      -4.258  35.305  17.558  1.00  0.00    -0.000 C 
BRANCH  13  14
ATOM     14  C   UNL     1      -3.551  34.889  16.263  1.00  0.00    -0.000 C 
BRANCH  14  15
ATOM     15  C   UNL     1      -2.759  36.062  15.666  1.00  0.00    -0.000 C 
BRANCH  15  16
ATOM     16  C   UNL     1      -3.018  36.247  14.164  1.00  0.00    -0.000 C 
BRANCH  16  17
ATOM     17  C   UNL     1      -4.363  36.933  13.876  1.00  0.00    -0.003 C 
ATOM     18  C   UNL     1      -4.324  38.405  14.275  1.00  0.00     0.004 C 
ENDBRANCH  16  17
ENDBRANCH  15  16
ENDBRANCH  14  15
ENDBRANCH  13  14
ENDBRANCH  12  13
ENDBRANCH  11  12
ENDBRANCH   1  11
TORSDOF 14
ENDMDL
MODEL 5
REMARK VINA RESULT:     0.209      1.163      2.057
REMARK INTER + INTRA:           0.013
REMARK INTER:                   0.693
REMARK INTRA:                  -0.680
REMARK UNBOUND:                -0.367
REMARK SMILES CCCCCCCCCCCCCCCC(=O)[O-]
REMARK SMILES IDX 9 1 10 2 11 3 12 4 13 5 14 6 15 7 16 8 17 9 18 10 8 11 7 12
REMARK SMILES IDX 6 13 5 14 4 15 3 16 2 17 1 18
REMARK H PARENT
REMARK Flexibility Score: inf
ROOT
ATOM      1  C   UNL     1      -5.098  37.988  21.015  1.00  0.00     0.000 C 
ENDROOT
BRANCH   1   2
ATOM      2  C   UNL     1      -5.972  39.234  21.241  1.00  0.00     0.000 C 
BRANCH   2   3
ATOM      3  C   UNL     1      -6.124  39.586  22.729  1.00  0.00     0.000 C 
BRANCH   3   4
ATOM      4  C   UNL     1      -4.805  39.462  23.511  1.00  0.00     0.000 C 
BRANCH   4   5
ATOM      5  C   UNL     1      -4.845  38.314  24.541  1.00  0.00     0.000 C 
BRANCH   5   6
ATOM      6  C   UNL     1      -6.122  37.458  24.459  1.00  0.00     0.006 C 
BRANCH   6   7
ATOM      7  C   UNL     1      -5.912  36.023  24.959  1.00  0.00     0.053 C 
BRANCH   7   8
ATOM      8  C   UNL     1      -5.982  35.057  23.818  1.00  0.00     0.041 C 
ATOM      9  O   UNL     1      -6.125  35.478  22.640  1.00  0.00    -0.550 OA
ATOM     10  O   UNL     1      -5.941  33.691  24.061  1.00  0.00    -0.550 OA
ENDBRANCH   7   8
ENDBRANCH   6   7
ENDBRANCH   5   6
ENDBRANCH   4   5
ENDBRANCH   3   4
ENDBRANCH   2   3
ENDBRANCH   1   2
BRANCH   1  11
ATOM     11  C   UNL     1      -5.269  37.396  19.606  1.00  0.00     0.000 C 
BRANCH  11  12
ATOM     12  C   UNL     1      -5.197  35.861  19.597  1.00  0.00    -0.000 C 
BRANCH  12  13
ATOM     13  C   UNL     1      -5.359  35.313  18.173  1.00  0.00    -0.000 C 
BRANCH  13  14
ATOM     14  C   UNL     1      -4.245  34.315  17.836  1.00  0.00    -0.000 C 
BRANCH  14  15
ATOM     15  C   UNL     1      -3.476  34.751  16.580  1.00  0.00    -0.000 C 
BRANCH  15  16
ATOM     16  C   UNL     1      -3.948  36.110  16.040  1.00  0.00    -0.000 C 
BRANCH  16  17
ATOM     17  C   UNL     1      -3.645  36.290  14.544  1.00  0.00    -0.003 C 
ATOM     18  C   UNL     1      -3.792  37.750  14.126  1.00  0.00     0.004 C 
ENDBRANCH  16  17
ENDBRANCH  15  16
ENDBRANCH  14  15
ENDBRANCH  13  14
ENDBRANCH  12  13
ENDBRANCH  11  12
ENDBRANCH   1  11
TORSDOF 14
ENDMDL
MODEL 6
REMARK VINA RESULT:     0.241      3.809      8.154
REMARK INTER + INTRA:           0.071
REMARK INTER:                   1.231
REMARK INTRA:                  -1.160
REMARK UNBOUND:                -0.367
REMARK SMILES CCCCCCCCCCCCCCCC(=O)[O-]
REMARK SMILES IDX 9 1 10 2 11 3 12 4 13 5 14 6 15 7 16 8 17 9 18 10 8 11 7 12
REMARK SMILES IDX 6 13 5 14 4 15 3 16 2 17 1 18
REMARK H PARENT
REMARK Flexibility Score: inf
ROOT
ATOM      1  C   UNL     1      -5.158  38.132  20.094  1.00  0.00     0.000 C 
ENDROOT
BRANCH   1   2
ATOM      2  C   UNL     1      -5.704  36.756  20.513  1.00  0.00     0.000 C 
BRANCH   2   3
ATOM      3  C   UNL     1      -5.760  35.762  19.342  1.00  0.00     0.000 C 
BRANCH   3   4
ATOM      4  C   UNL     1      -4.402  35.095  19.057  1.00  0.00     0.000 C 
BRANCH   4   5
ATOM      5  C   UNL     1      -4.459  34.160  17.832  1.00  0.00     0.000 C 
BRANCH   5   6
ATOM      6  C   UNL     1      -3.682  34.692  16.615  1.00  0.00     0.006 C 
BRANCH   6   7
ATOM      7  C   UNL     1      -3.945  36.178  16.342  1.00  0.00     0.053 C 
BRANCH   7   8
ATOM      8  C   UNL     1      -3.597  36.520  14.928  1.00  0.00     0.041 C 
ATOM      9  O   UNL     1      -2.487  36.171  14.447  1.00  0.00    -0.550 OA
ATOM     10  O   UNL     1      -4.478  37.267  14.156  1.00  0.00    -0.550 OA
ENDBRANCH   7   8
ENDBRANCH   6   7
ENDBRANCH   5   6
ENDBRANCH   4   5
ENDBRANCH   3   4
ENDBRANCH   2   3
ENDBRANCH   1   2
BRANCH   1  11
ATOM     11  C   UNL     1      -5.885  39.292  20.794  1.00  0.00     0.000 C 
BRANCH  11  12
ATOM     12  C   UNL     1      -6.113  39.030  22.290  1.00  0.00    -0.000 C 
BRANCH  12  13
ATOM     13  C   UNL     1      -4.950  39.579  23.127  1.00  0.00    -0.000 C 
BRANCH  13  14
ATOM     14  C   UNL     1      -4.756  38.757  24.407  1.00  0.00    -0.000 C 
BRANCH  14  15
ATOM     15  C   UNL     1      -5.952  37.825  24.651  1.00  0.00    -0.000 C 
BRANCH  15  16
ATOM     16  C   UNL     1      -5.524  36.403  25.043  1.00  0.00    -0.000 C 
BRANCH  16  17
ATOM     17  C   UNL     1      -6.125  35.329  24.122  1.00  0.00    -0.003 C 
ATOM     18  C   UNL     1      -5.063  34.744  23.195  1.00  0.00     0.004 C 
ENDBRANCH  16  17
ENDBRANCH  15  16
ENDBRANCH  14  15
ENDBRANCH  13  14
ENDBRANCH  12  13
ENDBRANCH  11  12
ENDBRANCH   1  11
TORSDOF 14
ENDMDL
