MODEL 1
REMARK VINA RESULT:    -4.583      0.000      0.000
REMARK INTER + INTRA:         -11.434
REMARK INTER:                  -8.601
REMARK INTRA:                  -2.832
REMARK UNBOUND:                -2.832
REMARK SMILES CCCCCCCCC=CCCCCCCCC(=O)[O-]
REMARK SMILES IDX 10 1 9 2 11 3 12 4 13 5 14 6 15 7 16 8 17 9 18 10 19 11
REMARK SMILES IDX 20 12 8 13 7 14 6 15 5 16 4 17 3 18 2 19 1 20
REMARK H PARENT
REMARK Flexibility Score: inf
ROOT
ATOM      1  C   UNL     1      19.752  24.984  12.123  1.00  0.00    -0.031 C 
ATOM      2  C   UNL     1      19.464  25.892  13.069  1.00  0.00    -0.031 C 
ENDROOT
BRANCH   1   3
ATOM      3  C   UNL     1      18.876  24.805  10.913  1.00  0.00     0.027 C 
BRANCH   3   4
ATOM      4  C   UNL     1      17.733  25.829  10.902  1.00  0.00     0.004 C 
BRANCH   4   5
ATOM      5  C   UNL     1      16.377  25.214  11.287  1.00  0.00     0.000 C 
BRANCH   5   6
ATOM      6  C   UNL     1      16.502  23.919  12.117  1.00  0.00     0.000 C 
BRANCH   6   7
ATOM      7  C   UNL     1      16.125  24.135  13.590  1.00  0.00     0.000 C 
BRANCH   7   8
ATOM      8  C   UNL     1      15.798  25.610  13.865  1.00  0.00     0.006 C 
BRANCH   8   9
ATOM      9  C   UNL     1      16.401  26.102  15.188  1.00  0.00     0.053 C 
BRANCH   9  10
ATOM     10  C   UNL     1      15.383  26.802  16.033  1.00  0.00     0.041 C 
ATOM     11  O   UNL     1      15.003  27.966  15.737  1.00  0.00    -0.550 OA
ATOM     12  O   UNL     1      14.829  26.156  17.132  1.00  0.00    -0.550 OA
ENDBRANCH   9  10
ENDBRANCH   8   9
ENDBRANCH   7   8
ENDBRANCH   6   7
ENDBRANCH   5   6
ENDBRANCH   4   5
ENDBRANCH   3   4
ENDBRANCH   1   3
BRANCH   2  13
ATOM     13  C   UNL     1      20.332  26.068  14.283  1.00  0.00     0.027 C 
BRANCH  13  14
ATOM     14  C   UNL     1      19.967  25.060  15.380  1.00  0.00     0.004 C 
BRANCH  14  15
ATOM     15  C   UNL     1      21.027  23.959  15.553  1.00  0.00     0.000 C 
BRANCH  15  16
ATOM     16  C   UNL     1      20.708  22.666  14.769  1.00  0.00     0.000 C 
BRANCH  16  17
ATOM     17  C   UNL     1      19.313  22.095  15.078  1.00  0.00    -0.000 C 
BRANCH  17  18
ATOM     18  C   UNL     1      18.656  21.462  13.842  1.00  0.00    -0.000 C 
BRANCH  18  19
ATOM     19  C   UNL     1      19.633  21.427  12.660  1.00  0.00    -0.003 C 
ATOM     20  C   UNL     1      18.929  21.000  11.375  1.00  0.00     0.004 C 
ENDBRANCH  18  19
ENDBRANCH  17  18
ENDBRANCH  16  17
ENDBRANCH  15  16
ENDBRANCH  14  15
ENDBRANCH  13  14
ENDBRANCH   2  13
TORSDOF 15
ENDMDL
MODEL 2
REMARK VINA RESULT:    -4.472     10.363     15.023
REMARK INTER + INTRA:         -11.227
REMARK INTER:                  -8.070
REMARK INTRA:                  -3.157
REMARK UNBOUND:                -2.832
REMARK SMILES CCCCCCCCC=CCCCCCCCC(=O)[O-]
REMARK SMILES IDX 10 1 9 2 11 3 12 4 13 5 14 6 15 7 16 8 17 9 18 10 19 11
REMARK SMILES IDX 20 12 8 13 7 14 6 15 5 16 4 17 3 18 2 19 1 20
REMARK H PARENT
REMARK Flexibility Score: inf
ROOT
ATOM      1  C   UNL     1       8.374  31.407  22.355  1.00  0.00    -0.031 C 
ATOM      2  C   UNL     1       8.208  30.711  21.219  1.00  0.00    -0.031 C 
ENDROOT
BRANCH   1   3
ATOM      3  C   UNL     1       9.498  31.102  23.307  1.00  0.00     0.027 C 
BRANCH   3   4
ATOM      4  C   UNL     1       8.962  30.779  24.709  1.00  0.00     0.004 C 
BRANCH   4   5
ATOM      5  C   UNL     1       9.133  29.298  25.086  1.00  0.00     0.000 C 
BRANCH   5   6
ATOM      6  C   UNL     1      10.325  28.617  24.381  1.00  0.00     0.000 C 
BRANCH   6   7
ATOM      7  C   UNL     1       9.916  27.315  23.677  1.00  0.00     0.000 C 
BRANCH   7   8
ATOM      8  C   UNL     1      10.155  27.408  22.163  1.00  0.00     0.006 C 
BRANCH   8   9
ATOM      9  C   UNL     1      11.221  28.454  21.807  1.00  0.00     0.053 C 
BRANCH   9  10
ATOM     10  C   UNL     1      12.428  27.823  21.184  1.00  0.00     0.041 C 
ATOM     11  O   UNL     1      12.962  28.341  20.168  1.00  0.00    -0.550 OA
ATOM     12  O   UNL     1      12.982  26.679  21.746  1.00  0.00    -0.550 OA
ENDBRANCH   9  10
ENDBRANCH   8   9
ENDBRANCH   7   8
ENDBRANCH   6   7
ENDBRANCH   5   6
ENDBRANCH   4   5
ENDBRANCH   3   4
ENDBRANCH   1   3
BRANCH   2  13
ATOM     13  C   UNL     1       7.081  31.007  20.270  1.00  0.00     0.027 C 
BRANCH  13  14
ATOM     14  C   UNL     1       6.189  32.136  20.801  1.00  0.00     0.004 C 
BRANCH  14  15
ATOM     15  C   UNL     1       4.779  31.652  21.182  1.00  0.00     0.000 C 
BRANCH  15  16
ATOM     16  C   UNL     1       4.645  31.252  22.668  1.00  0.00     0.000 C 
BRANCH  16  17
ATOM     17  C   UNL     1       4.502  29.734  22.880  1.00  0.00    -0.000 C 
BRANCH  17  18
ATOM     18  C   UNL     1       5.697  29.137  23.639  1.00  0.00    -0.000 C 
BRANCH  18  19
ATOM     19  C   UNL     1       6.397  28.061  22.800  1.00  0.00    -0.003 C 
ATOM     20  C   UNL     1       5.638  27.791  21.504  1.00  0.00     0.004 C 
ENDBRANCH  18  19
ENDBRANCH  17  18
ENDBRANCH  16  17
ENDBRANCH  15  16
ENDBRANCH  14  15
ENDBRANCH  13  14
ENDBRANCH   2  13
TORSDOF 15
ENDMDL
MODEL 3
REMARK VINA RESULT:    -4.449     12.754     15.887
REMARK INTER + INTRA:         -11.184
REMARK INTER:                  -8.239
REMARK INTRA:                  -2.944
REMARK UNBOUND:                -2.832
REMARK SMILES CCCCCCCCC=CCCCCCCCC(=O)[O-]
REMARK SMILES IDX 10 1 9 2 11 3 12 4 13 5 14 6 15 7 16 8 17 9 18 10 19 11
REMARK SMILES IDX 20 12 8 13 7 14 6 15 5 16 4 17 3 18 2 19 1 20
REMARK H PARENT
REMARK Flexibility Score: inf
ROOT
ATOM      1  C   UNL     1       7.535  31.773  21.468  1.00  0.00    -0.031 C 
ATOM      2  C   UNL     1       6.590  31.627  20.526  1.00  0.00    -0.031 C 
ENDROOT
BRANCH   1   3
ATOM      3  C   UNL     1       8.639  30.764  21.637  1.00  0.00     0.027 C 
BRANCH   3   4
ATOM      4  C   UNL     1       9.514  31.101  22.852  1.00  0.00     0.004 C 
BRANCH   4   5
ATOM      5  C   UNL     1       8.738  31.054  24.179  1.00  0.00     0.000 C 
BRANCH   5   6
ATOM      6  C   UNL     1       9.033  29.794  25.020  1.00  0.00     0.000 C 
BRANCH   6   7
ATOM      7  C   UNL     1      10.537  29.494  25.106  1.00  0.00     0.000 C 
BRANCH   7   8
ATOM      8  C   UNL     1      10.863  28.131  24.478  1.00  0.00     0.006 C 
BRANCH   8   9
ATOM      9  C   UNL     1       9.607  27.408  23.973  1.00  0.00     0.053 C 
BRANCH   9  10
ATOM     10  C   UNL     1       9.666  27.163  22.497  1.00  0.00     0.041 C 
ATOM     11  O   UNL     1       8.808  26.426  21.941  1.00  0.00    -0.550 OA
ATOM     12  O   UNL     1      10.650  27.773  21.730  1.00  0.00    -0.550 OA
ENDBRANCH   9  10
ENDBRANCH   8   9
ENDBRANCH   7   8
ENDBRANCH   6   7
ENDBRANCH   5   6
ENDBRANCH   4   5
ENDBRANCH   3   4
ENDBRANCH   1   3
BRANCH   2  13
ATOM     13  C   UNL     1       5.481  32.628  20.360  1.00  0.00     0.027 C 
BRANCH  13  14
ATOM     14  C   UNL     1       4.167  32.106  20.955  1.00  0.00     0.004 C 
BRANCH  14  15
ATOM     15  C   UNL     1       3.887  32.663  22.361  1.00  0.00     0.000 C 
BRANCH  15  16
ATOM     16  C   UNL     1       4.311  31.707  23.499  1.00  0.00     0.000 C 
BRANCH  16  17
ATOM     17  C   UNL     1       4.240  30.221  23.104  1.00  0.00    -0.000 C 
BRANCH  17  18
ATOM     18  C   UNL     1       5.497  29.446  23.528  1.00  0.00    -0.000 C 
BRANCH  18  19
ATOM     19  C   UNL     1       5.880  28.404  22.470  1.00  0.00    -0.003 C 
ATOM     20  C   UNL     1       4.907  28.426  21.294  1.00  0.00     0.004 C 
ENDBRANCH  18  19
ENDBRANCH  17  18
ENDBRANCH  16  17
ENDBRANCH  15  16
ENDBRANCH  14  15
ENDBRANCH  13  14
ENDBRANCH   2  13
TORSDOF 15
ENDMDL
MODEL 4
REMARK VINA RESULT:    -4.413     11.573     14.359
REMARK INTER + INTRA:         -11.115
REMARK INTER:                  -8.267
REMARK INTRA:                  -2.848
REMARK UNBOUND:                -2.832
REMARK SMILES CCCCCCCCC=CCCCCCCCC(=O)[O-]
REMARK SMILES IDX 10 1 9 2 11 3 12 4 13 5 14 6 15 7 16 8 17 9 18 10 19 11
REMARK SMILES IDX 20 12 8 13 7 14 6 15 5 16 4 17 3 18 2 19 1 20
REMARK H PARENT
REMARK Flexibility Score: inf
ROOT
ATOM      1  C   UNL     1      10.997  28.344  24.158  1.00  0.00    -0.031 C 
ATOM      2  C   UNL     1      11.324  28.373  22.856  1.00  0.00    -0.031 C 
ENDROOT
BRANCH   1   3
ATOM      3  C   UNL     1      10.724  29.608  24.927  1.00  0.00     0.027 C 
BRANCH   3   4
ATOM      4  C   UNL     1       9.216  29.828  25.111  1.00  0.00     0.004 C 
BRANCH   4   5
ATOM      5  C   UNL     1       8.686  31.025  24.303  1.00  0.00     0.000 C 
BRANCH   5   6
ATOM      6  C   UNL     1       8.006  30.620  22.978  1.00  0.00     0.000 C 
BRANCH   6   7
ATOM      7  C   UNL     1       8.529  31.433  21.785  1.00  0.00     0.000 C 
BRANCH   7   8
ATOM      8  C   UNL     1       7.424  31.650  20.740  1.00  0.00     0.006 C 
BRANCH   8   9
ATOM      9  C   UNL     1       6.095  31.007  21.158  1.00  0.00     0.053 C 
BRANCH   9  10
ATOM     10  C   UNL     1       5.043  32.038  21.426  1.00  0.00     0.041 C 
ATOM     11  O   UNL     1       4.336  32.484  20.484  1.00  0.00    -0.550 OA
ATOM     12  O   UNL     1       4.820  32.482  22.724  1.00  0.00    -0.550 OA
ENDBRANCH   9  10
ENDBRANCH   8   9
ENDBRANCH   7   8
ENDBRANCH   6   7
ENDBRANCH   5   6
ENDBRANCH   4   5
ENDBRANCH   3   4
ENDBRANCH   1   3
BRANCH   2  13
ATOM     13  C   UNL     1      11.606  27.114  22.086  1.00  0.00     0.027 C 
BRANCH  13  14
ATOM     14  C   UNL     1      10.656  26.968  20.890  1.00  0.00     0.004 C 
BRANCH  14  15
ATOM     15  C   UNL     1       9.487  27.967  20.933  1.00  0.00     0.000 C 
BRANCH  15  16
ATOM     16  C   UNL     1       8.170  27.401  20.357  1.00  0.00     0.000 C 
BRANCH  16  17
ATOM     17  C   UNL     1       7.039  27.314  21.398  1.00  0.00    -0.000 C 
BRANCH  17  18
ATOM     18  C   UNL     1       7.574  27.266  22.837  1.00  0.00    -0.000 C 
BRANCH  18  19
ATOM     19  C   UNL     1       7.525  25.838  23.392  1.00  0.00    -0.003 C 
ATOM     20  C   UNL     1       8.906  25.375  23.850  1.00  0.00     0.004 C 
ENDBRANCH  18  19
ENDBRANCH  17  18
ENDBRANCH  16  17
ENDBRANCH  15  16
ENDBRANCH  14  15
ENDBRANCH  13  14
ENDBRANCH   2  13
TORSDOF 15
ENDMDL
MODEL 5
REMARK VINA RESULT:    -4.407     10.769     15.577
REMARK INTER + INTRA:         -11.105
REMARK INTER:                  -8.705
REMARK INTRA:                  -2.400
REMARK UNBOUND:                -2.832
REMARK SMILES CCCCCCCCC=CCCCCCCCC(=O)[O-]
REMARK SMILES IDX 10 1 9 2 11 3 12 4 13 5 14 6 15 7 16 8 17 9 18 10 19 11
REMARK SMILES IDX 20 12 8 13 7 14 6 15 5 16 4 17 3 18 2 19 1 20
REMARK H PARENT
REMARK Flexibility Score: inf
ROOT
ATOM      1  C   UNL     1       7.492  29.947  22.568  1.00  0.00    -0.031 C 
ATOM      2  C   UNL     1       7.596  29.201  21.456  1.00  0.00    -0.031 C 
ENDROOT
BRANCH   1   3
ATOM      3  C   UNL     1       8.517  30.994  22.910  1.00  0.00     0.027 C 
BRANCH   3   4
ATOM      4  C   UNL     1       8.604  31.207  24.428  1.00  0.00     0.004 C 
BRANCH   4   5
ATOM      5  C   UNL     1       9.175  29.986  25.170  1.00  0.00     0.000 C 
BRANCH   5   6
ATOM      6  C   UNL     1      10.642  29.676  24.806  1.00  0.00     0.000 C 
BRANCH   6   7
ATOM      7  C   UNL     1      10.904  28.168  24.683  1.00  0.00     0.000 C 
BRANCH   7   8
ATOM      8  C   UNL     1      10.461  27.642  23.310  1.00  0.00     0.006 C 
BRANCH   8   9
ATOM      9  C   UNL     1      11.165  28.367  22.155  1.00  0.00     0.053 C 
BRANCH   9  10
ATOM     10  C   UNL     1      12.443  27.687  21.773  1.00  0.00     0.041 C 
ATOM     11  O   UNL     1      13.495  28.359  21.607  1.00  0.00    -0.550 OA
ATOM     12  O   UNL     1      12.479  26.305  21.632  1.00  0.00    -0.550 OA
ENDBRANCH   9  10
ENDBRANCH   8   9
ENDBRANCH   7   8
ENDBRANCH   6   7
ENDBRANCH   5   6
ENDBRANCH   4   5
ENDBRANCH   3   4
ENDBRANCH   1   3
BRANCH   2  13
ATOM     13  C   UNL     1       6.579  28.149  21.116  1.00  0.00     0.027 C 
BRANCH  13  14
ATOM     14  C   UNL     1       5.311  28.305  21.965  1.00  0.00     0.004 C 
BRANCH  14  15
ATOM     15  C   UNL     1       4.132  28.892  21.171  1.00  0.00     0.000 C 
BRANCH  15  16
ATOM     16  C   UNL     1       4.294  30.394  20.847  1.00  0.00     0.000 C 
BRANCH  16  17
ATOM     17  C   UNL     1       3.918  31.315  22.022  1.00  0.00    -0.000 C 
BRANCH  17  18
ATOM     18  C   UNL     1       4.851  32.530  22.132  1.00  0.00    -0.000 C 
BRANCH  18  19
ATOM     19  C   UNL     1       5.624  32.746  20.826  1.00  0.00    -0.003 C 
ATOM     20  C   UNL     1       5.736  34.230  20.489  1.00  0.00     0.004 C 
ENDBRANCH  18  19
ENDBRANCH  17  18
ENDBRANCH  16  17
ENDBRANCH  15  16
ENDBRANCH  14  15
ENDBRANCH  13  14
ENDBRANCH   2  13
TORSDOF 15
ENDMDL
MODEL 6
REMARK VINA RESULT:    -4.370     12.363     14.738
REMARK INTER + INTRA:         -11.034
REMARK INTER:                  -8.318
REMARK INTRA:                  -2.717
REMARK UNBOUND:                -2.832
REMARK SMILES CCCCCCCCC=CCCCCCCCC(=O)[O-]
REMARK SMILES IDX 10 1 9 2 11 3 12 4 13 5 14 6 15 7 16 8 17 9 18 10 19 11
REMARK SMILES IDX 20 12 8 13 7 14 6 15 5 16 4 17 3 18 2 19 1 20
REMARK H PARENT
REMARK Flexibility Score: inf
ROOT
ATOM      1  C   UNL     1       9.421  31.422  22.779  1.00  0.00    -0.031 C 
ATOM      2  C   UNL     1       8.707  30.652  23.615  1.00  0.00    -0.031 C 
ENDROOT
BRANCH   1   3
ATOM      3  C   UNL     1       8.956  31.699  21.375  1.00  0.00     0.027 C 
BRANCH   3   4
ATOM      4  C   UNL     1       7.639  30.971  21.076  1.00  0.00     0.004 C 
BRANCH   4   5
ATOM      5  C   UNL     1       6.500  31.932  20.692  1.00  0.00     0.000 C 
BRANCH   5   6
ATOM      6  C   UNL     1       5.165  31.616  21.399  1.00  0.00     0.000 C 
BRANCH   6   7
ATOM      7  C   UNL     1       5.343  31.415  22.912  1.00  0.00     0.000 C 
BRANCH   7   8
ATOM      8  C   UNL     1       4.666  30.117  23.378  1.00  0.00     0.006 C 
BRANCH   8   9
ATOM      9  C   UNL     1       5.415  28.867  22.897  1.00  0.00     0.053 C 
BRANCH   9  10
ATOM     10  C   UNL     1       5.636  27.892  24.013  1.00  0.00     0.041 C 
ATOM     11  O   UNL     1       6.540  28.097  24.866  1.00  0.00    -0.550 OA
ATOM     12  O   UNL     1       4.821  26.773  24.129  1.00  0.00    -0.550 OA
ENDBRANCH   9  10
ENDBRANCH   8   9
ENDBRANCH   7   8
ENDBRANCH   6   7
ENDBRANCH   5   6
ENDBRANCH   4   5
ENDBRANCH   3   4
ENDBRANCH   1   3
BRANCH   2  13
ATOM     13  C   UNL     1       9.172  30.366  25.015  1.00  0.00     0.027 C 
BRANCH  13  14
ATOM     14  C   UNL     1      10.510  29.614  25.014  1.00  0.00     0.004 C 
BRANCH  14  15
ATOM     15  C   UNL     1      10.415  28.233  24.345  1.00  0.00     0.000 C 
BRANCH  15  16
ATOM     16  C   UNL     1      11.312  28.091  23.094  1.00  0.00     0.000 C 
BRANCH  16  17
ATOM     17  C   UNL     1      10.514  27.912  21.790  1.00  0.00    -0.000 C 
BRANCH  17  18
ATOM     18  C   UNL     1       9.048  27.533  22.051  1.00  0.00    -0.000 C 
BRANCH  18  19
ATOM     19  C   UNL     1       8.265  27.437  20.737  1.00  0.00    -0.003 C 
ATOM     20  C   UNL     1       7.138  26.413  20.840  1.00  0.00     0.004 C 
ENDBRANCH  18  19
ENDBRANCH  17  18
ENDBRANCH  16  17
ENDBRANCH  15  16
ENDBRANCH  14  15
ENDBRANCH  13  14
ENDBRANCH   2  13
TORSDOF 15
ENDMDL
MODEL 7
REMARK VINA RESULT:    -4.348      8.840     13.537
REMARK INTER + INTRA:         -10.993
REMARK INTER:                  -8.667
REMARK INTRA:                  -2.326
REMARK UNBOUND:                -2.832
REMARK SMILES CCCCCCCCC=CCCCCCCCC(=O)[O-]
REMARK SMILES IDX 10 1 9 2 11 3 12 4 13 5 14 6 15 7 16 8 17 9 18 10 19 11
REMARK SMILES IDX 20 12 8 13 7 14 6 15 5 16 4 17 3 18 2 19 1 20
REMARK H PARENT
REMARK Flexibility Score: inf
ROOT
ATOM      1  C   UNL     1       8.803  30.986  23.747  1.00  0.00    -0.031 C 
ATOM      2  C   UNL     1       9.535  30.949  22.622  1.00  0.00    -0.031 C 
ENDROOT
BRANCH   1   3
ATOM      3  C   UNL     1       9.292  30.359  25.024  1.00  0.00     0.027 C 
BRANCH   3   4
ATOM      4  C   UNL     1      10.606  29.598  24.798  1.00  0.00     0.004 C 
BRANCH   4   5
ATOM      5  C   UNL     1      10.400  28.081  24.650  1.00  0.00     0.000 C 
BRANCH   5   6
ATOM      6  C   UNL     1      10.589  27.573  23.205  1.00  0.00     0.000 C 
BRANCH   6   7
ATOM      7  C   UNL     1      11.941  27.997  22.613  1.00  0.00     0.000 C 
BRANCH   7   8
ATOM      8  C   UNL     1      11.825  28.255  21.104  1.00  0.00     0.006 C 
BRANCH   8   9
ATOM      9  C   UNL     1      12.576  27.203  20.275  1.00  0.00     0.053 C 
BRANCH   9  10
ATOM     10  C   UNL     1      13.833  27.760  19.683  1.00  0.00     0.041 C 
ATOM     11  O   UNL     1      14.347  28.809  20.155  1.00  0.00    -0.550 OA
ATOM     12  O   UNL     1      14.455  27.102  18.629  1.00  0.00    -0.550 OA
ENDBRANCH   9  10
ENDBRANCH   8   9
ENDBRANCH   7   8
ENDBRANCH   6   7
ENDBRANCH   5   6
ENDBRANCH   4   5
ENDBRANCH   3   4
ENDBRANCH   1   3
BRANCH   2  13
ATOM     13  C   UNL     1       9.045  31.566  21.342  1.00  0.00     0.027 C 
BRANCH  13  14
ATOM     14  C   UNL     1       7.525  31.768  21.368  1.00  0.00     0.004 C 
BRANCH  14  15
ATOM     15  C   UNL     1       6.757  30.589  20.747  1.00  0.00     0.000 C 
BRANCH  15  16
ATOM     16  C   UNL     1       6.026  29.712  21.787  1.00  0.00     0.000 C 
BRANCH  16  17
ATOM     17  C   UNL     1       6.376  28.217  21.678  1.00  0.00    -0.000 C 
BRANCH  17  18
ATOM     18  C   UNL     1       7.715  27.983  20.960  1.00  0.00    -0.000 C 
BRANCH  18  19
ATOM     19  C   UNL     1       7.691  26.670  20.170  1.00  0.00    -0.003 C 
ATOM     20  C   UNL     1       9.082  26.309  19.656  1.00  0.00     0.004 C 
ENDBRANCH  18  19
ENDBRANCH  17  18
ENDBRANCH  16  17
ENDBRANCH  15  16
ENDBRANCH  14  15
ENDBRANCH  13  14
ENDBRANCH   2  13
TORSDOF 15
ENDMDL
MODEL 8
REMARK VINA RESULT:    -4.340     11.134     14.884
REMARK INTER + INTRA:         -10.977
REMARK INTER:                  -7.953
REMARK INTRA:                  -3.024
REMARK UNBOUND:                -2.832
REMARK SMILES CCCCCCCCC=CCCCCCCCC(=O)[O-]
REMARK SMILES IDX 10 1 9 2 11 3 12 4 13 5 14 6 15 7 16 8 17 9 18 10 19 11
REMARK SMILES IDX 20 12 8 13 7 14 6 15 5 16 4 17 3 18 2 19 1 20
REMARK H PARENT
REMARK Flexibility Score: inf
ROOT
ATOM      1  C   UNL     1       8.260  30.949  22.935  1.00  0.00    -0.031 C 
ATOM      2  C   UNL     1       8.520  31.378  21.690  1.00  0.00    -0.031 C 
ENDROOT
BRANCH   1   3
ATOM      3  C   UNL     1       9.306  30.994  24.016  1.00  0.00     0.027 C 
BRANCH   3   4
ATOM      4  C   UNL     1       9.274  29.719  24.870  1.00  0.00     0.004 C 
BRANCH   4   5
ATOM      5  C   UNL     1      10.591  28.926  24.808  1.00  0.00     0.000 C 
BRANCH   5   6
ATOM      6  C   UNL     1      10.586  27.807  23.746  1.00  0.00     0.000 C 
BRANCH   6   7
ATOM      7  C   UNL     1      11.721  27.972  22.724  1.00  0.00     0.000 C 
BRANCH   7   8
ATOM      8  C   UNL     1      11.187  28.515  21.390  1.00  0.00     0.006 C 
BRANCH   8   9
ATOM      9  C   UNL     1       9.793  27.966  21.057  1.00  0.00     0.053 C 
BRANCH   9  10
ATOM     10  C   UNL     1       9.870  26.622  20.401  1.00  0.00     0.041 C 
ATOM     11  O   UNL     1      10.728  26.401  19.506  1.00  0.00    -0.550 OA
ATOM     12  O   UNL     1       9.015  25.603  20.802  1.00  0.00    -0.550 OA
ENDBRANCH   9  10
ENDBRANCH   8   9
ENDBRANCH   7   8
ENDBRANCH   6   7
ENDBRANCH   5   6
ENDBRANCH   4   5
ENDBRANCH   3   4
ENDBRANCH   1   3
BRANCH   2  13
ATOM     13  C   UNL     1       7.481  31.326  20.605  1.00  0.00     0.027 C 
BRANCH  13  14
ATOM     14  C   UNL     1       6.298  32.251  20.923  1.00  0.00     0.004 C 
BRANCH  14  15
ATOM     15  C   UNL     1       4.955  31.504  20.972  1.00  0.00     0.000 C 
BRANCH  15  16
ATOM     16  C   UNL     1       4.493  31.158  22.405  1.00  0.00     0.000 C 
BRANCH  16  17
ATOM     17  C   UNL     1       4.773  29.697  22.799  1.00  0.00    -0.000 C 
BRANCH  17  18
ATOM     18  C   UNL     1       4.837  28.767  21.578  1.00  0.00    -0.000 C 
BRANCH  18  19
ATOM     19  C   UNL     1       6.165  28.002  21.541  1.00  0.00    -0.003 C 
ATOM     20  C   UNL     1       6.637  27.646  22.949  1.00  0.00     0.004 C 
ENDBRANCH  18  19
ENDBRANCH  17  18
ENDBRANCH  16  17
ENDBRANCH  15  16
ENDBRANCH  14  15
ENDBRANCH  13  14
ENDBRANCH   2  13
TORSDOF 15
ENDMDL
MODEL 9
REMARK VINA RESULT:    -4.291      2.376      3.519
REMARK INTER + INTRA:         -10.885
REMARK INTER:                  -8.101
REMARK INTRA:                  -2.785
REMARK UNBOUND:                -2.832
REMARK SMILES CCCCCCCCC=CCCCCCCCC(=O)[O-]
REMARK SMILES IDX 10 1 9 2 11 3 12 4 13 5 14 6 15 7 16 8 17 9 18 10 19 11
REMARK SMILES IDX 20 12 8 13 7 14 6 15 5 16 4 17 3 18 2 19 1 20
REMARK H PARENT
REMARK Flexibility Score: inf
ROOT
ATOM      1  C   UNL     1      18.832  23.876  11.207  1.00  0.00    -0.031 C 
ATOM      2  C   UNL     1      19.633  23.043  11.891  1.00  0.00    -0.031 C 
ENDROOT
BRANCH   1   3
ATOM      3  C   UNL     1      19.066  25.363  11.200  1.00  0.00     0.027 C 
BRANCH   3   4
ATOM      4  C   UNL     1      17.748  26.130  11.377  1.00  0.00     0.004 C 
BRANCH   4   5
ATOM      5  C   UNL     1      16.571  25.214  11.753  1.00  0.00     0.000 C 
BRANCH   5   6
ATOM      6  C   UNL     1      16.134  25.350  13.227  1.00  0.00     0.000 C 
BRANCH   6   7
ATOM      7  C   UNL     1      16.407  24.072  14.034  1.00  0.00     0.000 C 
BRANCH   7   8
ATOM      8  C   UNL     1      17.416  24.337  15.161  1.00  0.00     0.006 C 
BRANCH   8   9
ATOM      9  C   UNL     1      18.094  25.707  15.023  1.00  0.00     0.053 C 
BRANCH   9  10
ATOM     10  C   UNL     1      19.580  25.578  14.894  1.00  0.00     0.041 C 
ATOM     11  O   UNL     1      20.167  24.546  15.315  1.00  0.00    -0.550 OA
ATOM     12  O   UNL     1      20.314  26.585  14.280  1.00  0.00    -0.550 OA
ENDBRANCH   9  10
ENDBRANCH   8   9
ENDBRANCH   7   8
ENDBRANCH   6   7
ENDBRANCH   5   6
ENDBRANCH   4   5
ENDBRANCH   3   4
ENDBRANCH   1   3
BRANCH   2  13
ATOM     13  C   UNL     1      19.397  21.559  11.907  1.00  0.00     0.027 C 
BRANCH  13  14
ATOM     14  C   UNL     1      18.127  21.206  12.691  1.00  0.00     0.004 C 
BRANCH  14  15
ATOM     15  C   UNL     1      18.415  20.349  13.936  1.00  0.00     0.000 C 
BRANCH  15  16
ATOM     16  C   UNL     1      19.458  20.975  14.888  1.00  0.00     0.000 C 
BRANCH  16  17
ATOM     17  C   UNL     1      20.814  20.246  14.871  1.00  0.00    -0.000 C 
BRANCH  17  18
ATOM     18  C   UNL     1      22.000  21.219  14.939  1.00  0.00    -0.000 C 
BRANCH  18  19
ATOM     19  C   UNL     1      22.694  21.334  13.577  1.00  0.00    -0.003 C 
ATOM     20  C   UNL     1      22.610  20.021  12.803  1.00  0.00     0.004 C 
ENDBRANCH  18  19
ENDBRANCH  17  18
ENDBRANCH  16  17
ENDBRANCH  15  16
ENDBRANCH  14  15
ENDBRANCH  13  14
ENDBRANCH   2  13
TORSDOF 15
ENDMDL
