MODEL 1
REMARK VINA RESULT:    -3.543      0.000      0.000
REMARK INTER + INTRA:          -4.446
REMARK INTER:                  -4.164
REMARK INTRA:                  -0.282
REMARK UNBOUND:                -0.282
REMARK SMILES O=C([O-])C=Cc1ccc(O)c(O)c1
REMARK SMILES IDX 6 1 13 2 7 3 11 4 8 5 9 6 5 7 4 8 2 9 1 10 3 11 12 12 10 14
REMARK H PARENT 12 13 10 15
REMARK Flexibility Score: inf
ROOT
ATOM      1  C   UNL     1      -7.902  -6.630 -13.537  1.00  0.00    -0.022 A 
ATOM      2  C   UNL     1      -8.163  -5.293 -13.209  1.00  0.00     0.058 A 
ATOM      3  C   UNL     1      -6.618  -6.993 -13.970  1.00  0.00     0.012 A 
ATOM      4  C   UNL     1      -7.176  -4.310 -13.360  1.00  0.00     0.157 A 
ATOM      5  C   UNL     1      -5.628  -6.022 -14.125  1.00  0.00     0.051 A 
ATOM      6  C   UNL     1      -5.893  -4.679 -13.829  1.00  0.00     0.157 A 
ENDROOT
BRANCH   1   7
ATOM      7  C   UNL     1      -8.952  -7.647 -13.316  1.00  0.00     0.010 C 
ATOM      8  C   UNL     1      -9.183  -8.288 -12.159  1.00  0.00     0.025 C 
BRANCH   8   9
ATOM      9  C   UNL     1      -8.328  -8.233 -10.957  1.00  0.00     0.064 C 
ATOM     10  O   UNL     1      -8.620  -7.504  -9.973  1.00  0.00    -0.545 OA
ATOM     11  O   UNL     1      -7.138  -8.950 -10.940  1.00  0.00    -0.545 OA
ENDBRANCH   8   9
ENDBRANCH   1   7
BRANCH   4  12
ATOM     12  O   UNL     1      -7.510  -2.996 -13.030  1.00  0.00    -0.504 OA
ATOM     13  H   UNL     1      -7.033  -2.183 -13.395  1.00  0.00     0.293 HD
ENDBRANCH   4  12
BRANCH   6  14
ATOM     14  O   UNL     1      -4.862  -3.755 -14.011  1.00  0.00    -0.504 OA
ATOM     15  H   UNL     1      -3.979  -3.973 -14.451  1.00  0.00     0.293 HD
ENDBRANCH   6  14
TORSDOF 4
ENDMDL
MODEL 2
REMARK VINA RESULT:    -3.459      0.840      2.126
REMARK INTER + INTRA:          -4.348
REMARK INTER:                  -4.074
REMARK INTRA:                  -0.274
REMARK UNBOUND:                -0.282
REMARK SMILES O=C([O-])C=Cc1ccc(O)c(O)c1
REMARK SMILES IDX 6 1 13 2 7 3 11 4 8 5 9 6 5 7 4 8 2 9 1 10 3 11 12 12 10 14
REMARK H PARENT 12 13 10 15
REMARK Flexibility Score: inf
ROOT
ATOM      1  C   UNL     1      -8.004  -6.853 -13.329  1.00  0.00    -0.022 A 
ATOM      2  C   UNL     1      -6.714  -6.339 -13.523  1.00  0.00     0.058 A 
ATOM      3  C   UNL     1      -9.085  -5.968 -13.210  1.00  0.00     0.012 A 
ATOM      4  C   UNL     1      -6.488  -4.957 -13.545  1.00  0.00     0.157 A 
ATOM      5  C   UNL     1      -8.870  -4.589 -13.229  1.00  0.00     0.051 A 
ATOM      6  C   UNL     1      -7.580  -4.070 -13.390  1.00  0.00     0.157 A 
ENDROOT
BRANCH   1   7
ATOM      7  C   UNL     1      -8.212  -8.316 -13.364  1.00  0.00     0.010 C 
ATOM      8  C   UNL     1      -8.201  -9.130 -12.295  1.00  0.00     0.025 C 
BRANCH   8   9
ATOM      9  C   UNL     1      -7.803  -8.748 -10.926  1.00  0.00     0.064 C 
ATOM     10  O   UNL     1      -6.673  -9.048 -10.460  1.00  0.00    -0.545 OA
ATOM     11  O   UNL     1      -8.723  -8.101 -10.110  1.00  0.00    -0.545 OA
ENDBRANCH   8   9
ENDBRANCH   1   7
BRANCH   4  12
ATOM     12  O   UNL     1      -5.177  -4.514 -13.726  1.00  0.00    -0.504 OA
ATOM     13  H   UNL     1      -4.854  -4.021 -14.547  1.00  0.00     0.293 HD
ENDBRANCH   4  12
BRANCH   6  14
ATOM     14  O   UNL     1      -7.431  -2.681 -13.395  1.00  0.00    -0.504 OA
ATOM     15  H   UNL     1      -7.207  -2.135 -12.577  1.00  0.00     0.293 HD
ENDBRANCH   6  14
TORSDOF 4
ENDMDL
MODEL 3
REMARK VINA RESULT:    -3.228     14.997     16.174
REMARK INTER + INTRA:          -4.077
REMARK INTER:                  -3.936
REMARK INTRA:                  -0.141
REMARK UNBOUND:                -0.282
REMARK SMILES O=C([O-])C=Cc1ccc(O)c(O)c1
REMARK SMILES IDX 6 1 13 2 7 3 11 4 8 5 9 6 5 7 4 8 2 9 1 10 3 11 12 12 10 14
REMARK H PARENT 12 13 10 15
REMARK Flexibility Score: inf
ROOT
ATOM      1  C   UNL     1      -8.583   9.918  -8.687  1.00  0.00    -0.022 A 
ATOM      2  C   UNL     1      -7.330   9.988  -8.064  1.00  0.00     0.058 A 
ATOM      3  C   UNL     1      -8.652   9.842 -10.086  1.00  0.00     0.012 A 
ATOM      4  C   UNL     1      -6.153  10.038  -8.823  1.00  0.00     0.157 A 
ATOM      5  C   UNL     1      -7.485   9.891 -10.851  1.00  0.00     0.051 A 
ATOM      6  C   UNL     1      -6.233   9.994 -10.235  1.00  0.00     0.157 A 
ENDROOT
BRANCH   1   7
ATOM      7  C   UNL     1      -9.800   9.815  -7.854  1.00  0.00     0.010 C 
ATOM      8  C   UNL     1     -10.100   8.792  -7.037  1.00  0.00     0.025 C 
BRANCH   8   9
ATOM      9  C   UNL     1      -9.371   7.511  -6.957  1.00  0.00     0.064 C 
ATOM     10  O   UNL     1      -9.610   6.566  -7.754  1.00  0.00    -0.545 OA
ATOM     11  O   UNL     1      -8.449   7.321  -5.936  1.00  0.00    -0.545 OA
ENDBRANCH   8   9
ENDBRANCH   1   7
BRANCH   4  12
ATOM     12  O   UNL     1      -4.940  10.124  -8.138  1.00  0.00    -0.504 OA
ATOM     13  H   UNL     1      -4.525  10.993  -7.831  1.00  0.00     0.293 HD
ENDBRANCH   4  12
BRANCH   6  14
ATOM     14  O   UNL     1      -5.104  10.045 -11.056  1.00  0.00    -0.504 OA
ATOM     15  H   UNL     1      -4.824   9.301 -11.678  1.00  0.00     0.293 HD
ENDBRANCH   6  14
TORSDOF 4
ENDMDL
MODEL 4
REMARK VINA RESULT:    -3.100      1.795      4.947
REMARK INTER + INTRA:          -3.926
REMARK INTER:                  -3.738
REMARK INTRA:                  -0.188
REMARK UNBOUND:                -0.282
REMARK SMILES O=C([O-])C=Cc1ccc(O)c(O)c1
REMARK SMILES IDX 6 1 13 2 7 3 11 4 8 5 9 6 5 7 4 8 2 9 1 10 3 11 12 12 10 14
REMARK H PARENT 12 13 10 15
REMARK Flexibility Score: inf
ROOT
ATOM      1  C   UNL     1      -8.460  -8.372 -11.888  1.00  0.00    -0.022 A 
ATOM      2  C   UNL     1      -8.630  -7.536 -10.776  1.00  0.00     0.058 A 
ATOM      3  C   UNL     1      -7.990  -9.680 -11.698  1.00  0.00     0.012 A 
ATOM      4  C   UNL     1      -8.287  -7.973  -9.489  1.00  0.00     0.157 A 
ATOM      5  C   UNL     1      -7.644 -10.124 -10.421  1.00  0.00     0.051 A 
ATOM      6  C   UNL     1      -7.782  -9.282  -9.311  1.00  0.00     0.157 A 
ENDROOT
BRANCH   1   7
ATOM      7  C   UNL     1      -8.881  -7.895 -13.222  1.00  0.00     0.010 C 
ATOM      8  C   UNL     1      -8.200  -7.029 -13.990  1.00  0.00     0.025 C 
BRANCH   8   9
ATOM      9  C   UNL     1      -7.011  -6.260 -13.575  1.00  0.00     0.064 C 
ATOM     10  O   UNL     1      -5.855  -6.757 -13.623  1.00  0.00    -0.545 OA
ATOM     11  O   UNL     1      -7.179  -4.982 -13.057  1.00  0.00    -0.545 OA
ENDBRANCH   8   9
ENDBRANCH   1   7
BRANCH   4  12
ATOM     12  O   UNL     1      -8.467  -7.083  -8.430  1.00  0.00    -0.504 OA
ATOM     13  H   UNL     1      -9.276  -6.487  -8.322  1.00  0.00     0.293 HD
ENDBRANCH   4  12
BRANCH   6  14
ATOM     14  O   UNL     1      -7.413  -9.785  -8.061  1.00  0.00    -0.504 OA
ATOM     15  H   UNL     1      -7.614 -10.723  -7.747  1.00  0.00     0.293 HD
ENDBRANCH   6  14
TORSDOF 4
ENDMDL
MODEL 5
REMARK VINA RESULT:    -2.994     15.130     16.140
REMARK INTER + INTRA:          -3.801
REMARK INTER:                  -3.557
REMARK INTRA:                  -0.244
REMARK UNBOUND:                -0.282
REMARK SMILES O=C([O-])C=Cc1ccc(O)c(O)c1
REMARK SMILES IDX 6 1 13 2 7 3 11 4 8 5 9 6 5 7 4 8 2 9 1 10 3 11 12 12 10 14
REMARK H PARENT 12 13 10 15
REMARK Flexibility Score: inf
ROOT
ATOM      1  C   UNL     1      -8.380   9.973  -8.754  1.00  0.00    -0.022 A 
ATOM      2  C   UNL     1      -8.607   9.915 -10.136  1.00  0.00     0.058 A 
ATOM      3  C   UNL     1      -7.067  10.107  -8.279  1.00  0.00     0.012 A 
ATOM      4  C   UNL     1      -7.538   9.933 -11.041  1.00  0.00     0.157 A 
ATOM      5  C   UNL     1      -5.995  10.125  -9.172  1.00  0.00     0.051 A 
ATOM      6  C   UNL     1      -6.214  10.034 -10.552  1.00  0.00     0.157 A 
ENDROOT
BRANCH   1   7
ATOM      7  C   UNL     1      -9.535  10.004  -7.833  1.00  0.00     0.010 C 
ATOM      8  C   UNL     1      -9.895   9.012  -7.001  1.00  0.00     0.025 C 
BRANCH   8   9
ATOM      9  C   UNL     1      -9.321   7.652  -6.984  1.00  0.00     0.064 C 
ATOM     10  O   UNL     1      -9.742   6.749  -7.753  1.00  0.00    -0.545 OA
ATOM     11  O   UNL     1      -8.339   7.345  -6.050  1.00  0.00    -0.545 OA
ENDBRANCH   8   9
ENDBRANCH   1   7
BRANCH   4  12
ATOM     12  O   UNL     1      -7.835   9.854 -12.402  1.00  0.00    -0.504 OA
ATOM     13  H   UNL     1      -7.996   8.988 -12.897  1.00  0.00     0.293 HD
ENDBRANCH   4  12
BRANCH   6  14
ATOM     14  O   UNL     1      -5.098  10.051 -11.392  1.00  0.00    -0.504 OA
ATOM     15  H   UNL     1      -5.103   9.717 -12.344  1.00  0.00     0.293 HD
ENDBRANCH   6  14
TORSDOF 4
ENDMDL
MODEL 6
REMARK VINA RESULT:    -2.959      1.991      5.174
REMARK INTER + INTRA:          -3.760
REMARK INTER:                  -3.547
REMARK INTRA:                  -0.213
REMARK UNBOUND:                -0.282
REMARK SMILES O=C([O-])C=Cc1ccc(O)c(O)c1
REMARK SMILES IDX 6 1 13 2 7 3 11 4 8 5 9 6 5 7 4 8 2 9 1 10 3 11 12 12 10 14
REMARK H PARENT 12 13 10 15
REMARK Flexibility Score: inf
ROOT
ATOM      1  C   UNL     1      -8.359  -8.414 -11.416  1.00  0.00    -0.022 A 
ATOM      2  C   UNL     1      -7.168  -9.142 -11.295  1.00  0.00     0.058 A 
ATOM      3  C   UNL     1      -8.953  -7.872 -10.267  1.00  0.00     0.012 A 
ATOM      4  C   UNL     1      -6.595  -9.378 -10.038  1.00  0.00     0.157 A 
ATOM      5  C   UNL     1      -8.391  -8.102  -9.010  1.00  0.00     0.051 A 
ATOM      6  C   UNL     1      -7.218  -8.855  -8.880  1.00  0.00     0.157 A 
ENDROOT
BRANCH   1   7
ATOM      7  C   UNL     1      -8.906  -8.141 -12.762  1.00  0.00     0.010 C 
ATOM      8  C   UNL     1      -8.380  -7.290 -13.658  1.00  0.00     0.025 C 
BRANCH   8   9
ATOM      9  C   UNL     1      -7.276  -6.344 -13.403  1.00  0.00     0.064 C 
ATOM     10  O   UNL     1      -7.493  -5.172 -12.999  1.00  0.00    -0.545 OA
ATOM     11  O   UNL     1      -5.972  -6.735 -13.680  1.00  0.00    -0.545 OA
ENDBRANCH   8   9
ENDBRANCH   1   7
BRANCH   4  12
ATOM     12  O   UNL     1      -5.417 -10.125  -9.989  1.00  0.00    -0.504 OA
ATOM     13  H   UNL     1      -5.374 -11.096  -9.715  1.00  0.00     0.293 HD
ENDBRANCH   4  12
BRANCH   6  14
ATOM     14  O   UNL     1      -6.710  -9.055  -7.595  1.00  0.00    -0.504 OA
ATOM     15  H   UNL     1      -6.193  -9.874  -7.313  1.00  0.00     0.293 HD
ENDBRANCH   6  14
TORSDOF 4
ENDMDL
MODEL 7
REMARK VINA RESULT:    -2.936      2.516      5.626
REMARK INTER + INTRA:          -3.734
REMARK INTER:                  -3.516
REMARK INTRA:                  -0.217
REMARK UNBOUND:                -0.282
REMARK SMILES O=C([O-])C=Cc1ccc(O)c(O)c1
REMARK SMILES IDX 6 1 13 2 7 3 11 4 8 5 9 6 5 7 4 8 2 9 1 10 3 11 12 12 10 14
REMARK H PARENT 12 13 10 15
REMARK Flexibility Score: inf
ROOT
ATOM      1  C   UNL     1      -8.242  -9.607 -11.277  1.00  0.00    -0.022 A 
ATOM      2  C   UNL     1      -9.290  -9.629 -10.347  1.00  0.00     0.058 A 
ATOM      3  C   UNL     1      -6.926  -9.807 -10.833  1.00  0.00     0.012 A 
ATOM      4  C   UNL     1      -9.035  -9.794  -8.979  1.00  0.00     0.157 A 
ATOM      5  C   UNL     1      -6.661  -9.971  -9.472  1.00  0.00     0.051 A 
ATOM      6  C   UNL     1      -7.701  -9.961  -8.536  1.00  0.00     0.157 A 
ENDROOT
BRANCH   1   7
ATOM      7  C   UNL     1      -8.554  -9.484 -12.716  1.00  0.00     0.010 C 
ATOM      8  C   UNL     1      -8.248  -8.431 -13.492  1.00  0.00     0.025 C 
BRANCH   8   9
ATOM      9  C   UNL     1      -7.712  -7.139 -13.019  1.00  0.00     0.064 C 
ATOM     10  O   UNL     1      -8.442  -6.297 -12.434  1.00  0.00    -0.545 OA
ATOM     11  O   UNL     1      -6.387  -6.819 -13.286  1.00  0.00    -0.545 OA
ENDBRANCH   8   9
ENDBRANCH   1   7
BRANCH   4  12
ATOM     12  O   UNL     1     -10.124  -9.789  -8.108  1.00  0.00    -0.504 OA
ATOM     13  H   UNL     1     -11.088  -9.753  -8.408  1.00  0.00     0.293 HD
ENDBRANCH   4  12
BRANCH   6  14
ATOM     14  O   UNL     1      -7.369 -10.124  -7.189  1.00  0.00    -0.504 OA
ATOM     15  H   UNL     1      -7.526 -10.973  -6.667  1.00  0.00     0.293 HD
ENDBRANCH   6  14
TORSDOF 4
ENDMDL
MODEL 8
REMARK VINA RESULT:    -2.533      2.879      3.992
REMARK INTER + INTRA:          -3.259
REMARK INTER:                  -3.160
REMARK INTRA:                  -0.099
REMARK UNBOUND:                -0.282
REMARK SMILES O=C([O-])C=Cc1ccc(O)c(O)c1
REMARK SMILES IDX 6 1 13 2 7 3 11 4 8 5 9 6 5 7 4 8 2 9 1 10 3 11 12 12 10 14
REMARK H PARENT 12 13 10 15
REMARK Flexibility Score: inf
ROOT
ATOM      1  C   UNL     1      -8.502  -9.254 -10.560  1.00  0.00    -0.022 A 
ATOM      2  C   UNL     1      -8.596  -7.857 -10.493  1.00  0.00     0.058 A 
ATOM      3  C   UNL     1      -8.457  -9.879 -11.814  1.00  0.00     0.012 A 
ATOM      4  C   UNL     1      -8.701  -7.087 -11.659  1.00  0.00     0.157 A 
ATOM      5  C   UNL     1      -8.561  -9.122 -12.982  1.00  0.00     0.051 A 
ATOM      6  C   UNL     1      -8.689  -7.729 -12.920  1.00  0.00     0.157 A 
ENDROOT
BRANCH   1   7
ATOM      7  C   UNL     1      -8.341 -10.028  -9.311  1.00  0.00     0.010 C 
ATOM      8  C   UNL     1      -7.251 -10.024  -8.528  1.00  0.00     0.025 C 
BRANCH   8   9
ATOM      9  C   UNL     1      -5.956  -9.397  -8.857  1.00  0.00     0.064 C 
ATOM     10  O   UNL     1      -5.447  -8.511  -8.121  1.00  0.00    -0.545 OA
ATOM     11  O   UNL     1      -5.318  -9.745 -10.041  1.00  0.00    -0.545 OA
ENDBRANCH   8   9
ENDBRANCH   1   7
BRANCH   4  12
ATOM     12  O   UNL     1      -8.808  -5.703 -11.518  1.00  0.00    -0.504 OA
ATOM     13  H   UNL     1      -8.158  -5.041 -11.918  1.00  0.00     0.293 HD
ENDBRANCH   4  12
BRANCH   6  14
ATOM     14  O   UNL     1      -8.795  -7.029 -14.124  1.00  0.00    -0.504 OA
ATOM     15  H   UNL     1      -9.339  -6.187 -14.241  1.00  0.00     0.293 HD
ENDBRANCH   6  14
TORSDOF 4
ENDMDL
MODEL 9
REMARK VINA RESULT:    -2.528     14.867     16.158
REMARK INTER + INTRA:          -3.253
REMARK INTER:                  -3.085
REMARK INTRA:                  -0.169
REMARK UNBOUND:                -0.282
REMARK SMILES O=C([O-])C=Cc1ccc(O)c(O)c1
REMARK SMILES IDX 6 1 13 2 7 3 11 4 8 5 9 6 5 7 4 8 2 9 1 10 3 11 12 12 10 14
REMARK H PARENT 12 13 10 15
REMARK Flexibility Score: inf
ROOT
ATOM      1  C   UNL     1      -9.225   9.421  -9.731  1.00  0.00    -0.022 A 
ATOM      2  C   UNL     1      -8.006  10.014  -9.376  1.00  0.00     0.058 A 
ATOM      3  C   UNL     1      -9.613   8.224  -9.111  1.00  0.00     0.012 A 
ATOM      4  C   UNL     1      -7.150   9.399  -8.453  1.00  0.00     0.157 A 
ATOM      5  C   UNL     1      -8.767   7.603  -8.191  1.00  0.00     0.051 A 
ATOM      6  C   UNL     1      -7.533   8.174  -7.857  1.00  0.00     0.157 A 
ENDROOT
BRANCH   1   7
ATOM      7  C   UNL     1     -10.125  10.125 -10.669  1.00  0.00     0.010 C 
ATOM      8  C   UNL     1     -10.098  10.012 -12.007  1.00  0.00     0.025 C 
BRANCH   8   9
ATOM      9  C   UNL     1      -9.060   9.316 -12.792  1.00  0.00     0.064 C 
ATOM     10  O   UNL     1      -7.865   9.710 -12.800  1.00  0.00    -0.545 OA
ATOM     11  O   UNL     1      -9.426   8.241 -13.592  1.00  0.00    -0.545 OA
ENDBRANCH   8   9
ENDBRANCH   1   7
BRANCH   4  12
ATOM     12  O   UNL     1      -5.943  10.036  -8.158  1.00  0.00    -0.504 OA
ATOM     13  H   UNL     1      -5.259  10.300  -8.853  1.00  0.00     0.293 HD
ENDBRANCH   4  12
BRANCH   6  14
ATOM     14  O   UNL     1      -6.731   7.500  -6.935  1.00  0.00    -0.504 OA
ATOM     15  H   UNL     1      -5.868   7.867  -6.561  1.00  0.00     0.293 HD
ENDBRANCH   6  14
TORSDOF 4
ENDMDL
