MODEL 1
REMARK VINA RESULT:    19.315      0.000      0.000
REMARK INTER + INTRA:          40.801
REMARK INTER:                  41.899
REMARK INTRA:                  -1.098
REMARK UNBOUND:                -1.098
REMARK SMILES CCCCCCCCCCCCCCCCCCCCCC(=O)[O-]
REMARK SMILES IDX 12 1 11 2 10 3 9 4 8 5 7 6 6 7 5 8 4 9 3 10 2 11 1 12 13 13
REMARK SMILES IDX 14 14 15 15 16 16 17 17 18 18 19 19 20 20 21 21 22 22 23 23
REMARK SMILES IDX 24 24
REMARK H PARENT
REMARK Flexibility Score: inf
ROOT
ATOM      1  C   UNL     1       4.947  19.729  50.569  1.00  0.00     0.000 C 
ENDROOT
BRANCH   1   2
ATOM      2  C   UNL     1       6.194  19.697  49.659  1.00  0.00     0.000 C 
BRANCH   2   3
ATOM      3  C   UNL     1       6.932  18.344  49.656  1.00  0.00     0.000 C 
BRANCH   3   4
ATOM      4  C   UNL     1       6.535  17.386  48.516  1.00  0.00    -0.000 C 
BRANCH   4   5
ATOM      5  C   UNL     1       5.594  17.990  47.452  1.00  0.00    -0.000 C 
BRANCH   5   6
ATOM      6  C   UNL     1       5.858  17.535  46.006  1.00  0.00    -0.000 C 
BRANCH   6   7
ATOM      7  C   UNL     1       6.500  16.138  45.926  1.00  0.00    -0.000 C 
BRANCH   7   8
ATOM      8  C   UNL     1       7.436  15.988  44.715  1.00  0.00    -0.000 C 
BRANCH   8   9
ATOM      9  C   UNL     1       8.720  15.216  45.050  1.00  0.00    -0.000 C 
BRANCH   9  10
ATOM     10  C   UNL     1       8.398  13.782  45.500  1.00  0.00    -0.000 C 
BRANCH  10  11
ATOM     11  C   UNL     1       9.194  12.726  44.716  1.00  0.00    -0.003 C 
ATOM     12  C   UNL     1       9.897  13.305  43.487  1.00  0.00     0.004 C 
ENDBRANCH  10  11
ENDBRANCH   9  10
ENDBRANCH   8   9
ENDBRANCH   7   8
ENDBRANCH   6   7
ENDBRANCH   5   6
ENDBRANCH   4   5
ENDBRANCH   3   4
ENDBRANCH   2   3
ENDBRANCH   1   2
BRANCH   1  13
ATOM     13  C   UNL     1       5.162  20.565  51.843  1.00  0.00     0.000 C 
BRANCH  13  14
ATOM     14  C   UNL     1       4.228  20.150  52.991  1.00  0.00     0.000 C 
BRANCH  14  15
ATOM     15  C   UNL     1       4.667  20.725  54.349  1.00  0.00     0.000 C 
BRANCH  15  16
ATOM     16  C   UNL     1       5.673  19.812  55.071  1.00  0.00     0.000 C 
BRANCH  16  17
ATOM     17  C   UNL     1       6.725  20.612  55.859  1.00  0.00     0.000 C 
BRANCH  17  18
ATOM     18  C   UNL     1       7.460  21.647  54.992  1.00  0.00     0.000 C 
BRANCH  18  19
ATOM     19  C   UNL     1       8.863  22.037  55.495  1.00  0.00     0.000 C 
BRANCH  19  20
ATOM     20  C   UNL     1       9.687  20.846  56.030  1.00  0.00     0.006 C 
BRANCH  20  21
ATOM     21  C   UNL     1      11.184  21.168  56.125  1.00  0.00     0.053 C 
BRANCH  21  22
ATOM     22  C   UNL     1      11.999  19.936  55.883  1.00  0.00     0.041 C 
ATOM     23  O   UNL     1      11.470  18.798  55.975  1.00  0.00    -0.550 OA
ATOM     24  O   UNL     1      13.357  20.042  55.611  1.00  0.00    -0.550 OA
ENDBRANCH  21  22
ENDBRANCH  20  21
ENDBRANCH  19  20
ENDBRANCH  18  19
ENDBRANCH  17  18
ENDBRANCH  16  17
ENDBRANCH  15  16
ENDBRANCH  14  15
ENDBRANCH  13  14
ENDBRANCH   1  13
TORSDOF 20
ENDMDL
MODEL 2
REMARK VINA RESULT:    20.603      4.374     11.678
REMARK INTER + INTRA:          43.594
REMARK INTER:                  44.064
REMARK INTRA:                  -0.470
REMARK UNBOUND:                -1.098
REMARK SMILES CCCCCCCCCCCCCCCCCCCCCC(=O)[O-]
REMARK SMILES IDX 12 1 11 2 10 3 9 4 8 5 7 6 6 7 5 8 4 9 3 10 2 11 1 12 13 13
REMARK SMILES IDX 14 14 15 15 16 16 17 17 18 18 19 19 20 20 21 21 22 22 23 23
REMARK SMILES IDX 24 24
REMARK H PARENT
REMARK Flexibility Score: inf
ROOT
ATOM      1  C   UNL     1       7.406  16.225  46.715  1.00  0.00     0.000 C 
ENDROOT
BRANCH   1   2
ATOM      2  C   UNL     1       6.301  17.300  46.797  1.00  0.00     0.000 C 
BRANCH   2   3
ATOM      3  C   UNL     1       6.190  17.979  48.176  1.00  0.00     0.000 C 
BRANCH   3   4
ATOM      4  C   UNL     1       5.187  19.147  48.250  1.00  0.00    -0.000 C 
BRANCH   4   5
ATOM      5  C   UNL     1       4.735  19.531  49.676  1.00  0.00    -0.000 C 
BRANCH   5   6
ATOM      6  C   UNL     1       5.873  19.789  50.679  1.00  0.00    -0.000 C 
BRANCH   6   7
ATOM      7  C   UNL     1       5.481  20.785  51.785  1.00  0.00    -0.000 C 
BRANCH   7   8
ATOM      8  C   UNL     1       4.412  20.220  52.736  1.00  0.00    -0.000 C 
BRANCH   8   9
ATOM      9  C   UNL     1       3.744  21.306  53.591  1.00  0.00    -0.000 C 
BRANCH   9  10
ATOM     10  C   UNL     1       4.532  21.544  54.889  1.00  0.00    -0.000 C 
BRANCH  10  11
ATOM     11  C   UNL     1       5.773  20.644  55.000  1.00  0.00    -0.003 C 
ATOM     12  C   UNL     1       6.942  21.331  55.709  1.00  0.00     0.004 C 
ENDBRANCH  10  11
ENDBRANCH   9  10
ENDBRANCH   8   9
ENDBRANCH   7   8
ENDBRANCH   6   7
ENDBRANCH   5   6
ENDBRANCH   4   5
ENDBRANCH   3   4
ENDBRANCH   2   3
ENDBRANCH   1   2
BRANCH   1  13
ATOM     13  C   UNL     1       7.676  15.760  45.273  1.00  0.00     0.000 C 
BRANCH  13  14
ATOM     14  C   UNL     1       8.961  14.926  45.147  1.00  0.00     0.000 C 
BRANCH  14  15
ATOM     15  C   UNL     1       9.109  14.271  43.763  1.00  0.00     0.000 C 
BRANCH  15  16
ATOM     16  C   UNL     1      10.188  13.175  43.749  1.00  0.00     0.000 C 
BRANCH  16  17
ATOM     17  C   UNL     1      11.490  13.647  43.079  1.00  0.00     0.000 C 
BRANCH  17  18
ATOM     18  C   UNL     1      12.348  12.483  42.557  1.00  0.00     0.000 C 
BRANCH  18  19
ATOM     19  C   UNL     1      12.738  11.436  43.618  1.00  0.00     0.000 C 
BRANCH  19  20
ATOM     20  C   UNL     1      14.261  11.226  43.757  1.00  0.00     0.006 C 
BRANCH  20  21
ATOM     21  C   UNL     1      14.651  10.666  45.131  1.00  0.00     0.053 C 
BRANCH  21  22
ATOM     22  C   UNL     1      15.611  11.586  45.817  1.00  0.00     0.041 C 
ATOM     23  O   UNL     1      15.458  11.868  47.034  1.00  0.00    -0.550 OA
ATOM     24  O   UNL     1      16.643  12.177  45.099  1.00  0.00    -0.550 OA
ENDBRANCH  21  22
ENDBRANCH  20  21
ENDBRANCH  19  20
ENDBRANCH  18  19
ENDBRANCH  17  18
ENDBRANCH  16  17
ENDBRANCH  15  16
ENDBRANCH  14  15
ENDBRANCH  13  14
ENDBRANCH   1  13
TORSDOF 20
ENDMDL
MODEL 3
REMARK VINA RESULT:    21.475      1.857      3.584
REMARK INTER + INTRA:          45.486
REMARK INTER:                  45.268
REMARK INTRA:                   0.217
REMARK UNBOUND:                -1.098
REMARK SMILES CCCCCCCCCCCCCCCCCCCCCC(=O)[O-]
REMARK SMILES IDX 12 1 11 2 10 3 9 4 8 5 7 6 6 7 5 8 4 9 3 10 2 11 1 12 13 13
REMARK SMILES IDX 14 14 15 15 16 16 17 17 18 18 19 19 20 20 21 21 22 22 23 23
REMARK SMILES IDX 24 24
REMARK H PARENT
REMARK Flexibility Score: inf
ROOT
ATOM      1  C   UNL     1       6.864  17.438  48.345  1.00  0.00     0.000 C 
ENDROOT
BRANCH   1   2
ATOM      2  C   UNL     1       5.947  18.011  47.243  1.00  0.00     0.000 C 
BRANCH   2   3
ATOM      3  C   UNL     1       5.883  17.148  45.969  1.00  0.00     0.000 C 
BRANCH   3   4
ATOM      4  C   UNL     1       5.249  17.835  44.744  1.00  0.00    -0.000 C 
BRANCH   4   5
ATOM      5  C   UNL     1       5.160  16.960  43.476  1.00  0.00    -0.000 C 
BRANCH   5   6
ATOM      6  C   UNL     1       6.505  16.654  42.792  1.00  0.00    -0.000 C 
BRANCH   6   7
ATOM      7  C   UNL     1       7.451  15.823  43.679  1.00  0.00    -0.000 C 
BRANCH   7   8
ATOM      8  C   UNL     1       8.812  15.570  43.011  1.00  0.00    -0.000 C 
BRANCH   8   9
ATOM      9  C   UNL     1       9.863  15.029  43.992  1.00  0.00    -0.000 C 
BRANCH   9  10
ATOM     10  C   UNL     1       9.267  14.863  45.399  1.00  0.00    -0.000 C 
BRANCH  10  11
ATOM     11  C   UNL     1       8.364  13.624  45.515  1.00  0.00    -0.003 C 
ATOM     12  C   UNL     1       9.057  12.341  45.052  1.00  0.00     0.004 C 
ENDBRANCH  10  11
ENDBRANCH   9  10
ENDBRANCH   8   9
ENDBRANCH   7   8
ENDBRANCH   6   7
ENDBRANCH   5   6
ENDBRANCH   4   5
ENDBRANCH   3   4
ENDBRANCH   2   3
ENDBRANCH   1   2
BRANCH   1  13
ATOM     13  C   UNL     1       6.812  18.256  49.647  1.00  0.00     0.000 C 
BRANCH  13  14
ATOM     14  C   UNL     1       5.549  19.126  49.753  1.00  0.00     0.000 C 
BRANCH  14  15
ATOM     15  C   UNL     1       5.696  20.260  50.782  1.00  0.00     0.000 C 
BRANCH  15  16
ATOM     16  C   UNL     1       4.866  20.006  52.052  1.00  0.00     0.000 C 
BRANCH  16  17
ATOM     17  C   UNL     1       4.638  21.291  52.867  1.00  0.00     0.000 C 
BRANCH  17  18
ATOM     18  C   UNL     1       3.651  21.093  54.029  1.00  0.00     0.000 C 
BRANCH  18  19
ATOM     19  C   UNL     1       4.101  21.695  55.374  1.00  0.00     0.000 C 
BRANCH  19  20
ATOM     20  C   UNL     1       5.622  21.946  55.466  1.00  0.00     0.006 C 
BRANCH  20  21
ATOM     21  C   UNL     1       6.440  20.686  55.154  1.00  0.00     0.053 C 
BRANCH  21  22
ATOM     22  C   UNL     1       7.903  20.960  55.318  1.00  0.00     0.041 C 
ATOM     23  O   UNL     1       8.296  21.843  56.124  1.00  0.00    -0.550 OA
ATOM     24  O   UNL     1       8.830  20.277  54.541  1.00  0.00    -0.550 OA
ENDBRANCH  21  22
ENDBRANCH  20  21
ENDBRANCH  19  20
ENDBRANCH  18  19
ENDBRANCH  17  18
ENDBRANCH  16  17
ENDBRANCH  15  16
ENDBRANCH  14  15
ENDBRANCH  13  14
ENDBRANCH   1  13
TORSDOF 20
ENDMDL
MODEL 4
REMARK VINA RESULT:    22.039      3.856      7.900
REMARK INTER + INTRA:          46.709
REMARK INTER:                  47.395
REMARK INTRA:                  -0.686
REMARK UNBOUND:                -1.098
REMARK SMILES CCCCCCCCCCCCCCCCCCCCCC(=O)[O-]
REMARK SMILES IDX 12 1 11 2 10 3 9 4 8 5 7 6 6 7 5 8 4 9 3 10 2 11 1 12 13 13
REMARK SMILES IDX 14 14 15 15 16 16 17 17 18 18 19 19 20 20 21 21 22 22 23 23
REMARK SMILES IDX 24 24
REMARK H PARENT
REMARK Flexibility Score: inf
ROOT
ATOM      1  C   UNL     1       8.557  14.439  45.313  1.00  0.00     0.000 C 
ENDROOT
BRANCH   1   2
ATOM      2  C   UNL     1       9.044  14.625  43.860  1.00  0.00     0.000 C 
BRANCH   2   3
ATOM      3  C   UNL     1      10.556  14.399  43.672  1.00  0.00     0.000 C 
BRANCH   3   4
ATOM      4  C   UNL     1      10.997  12.923  43.641  1.00  0.00    -0.000 C 
BRANCH   4   5
ATOM      5  C   UNL     1      11.940  12.546  42.478  1.00  0.00    -0.000 C 
BRANCH   5   6
ATOM      6  C   UNL     1      13.354  12.104  42.895  1.00  0.00    -0.000 C 
BRANCH   6   7
ATOM      7  C   UNL     1      13.350  10.844  43.779  1.00  0.00    -0.000 C 
BRANCH   7   8
ATOM      8  C   UNL     1      14.661  10.671  44.563  1.00  0.00    -0.000 C 
BRANCH   8   9
ATOM      9  C   UNL     1      15.035  11.918  45.378  1.00  0.00    -0.000 C 
BRANCH   9  10
ATOM     10  C   UNL     1      15.483  11.533  46.797  1.00  0.00    -0.000 C 
BRANCH  10  11
ATOM     11  C   UNL     1      14.871  12.442  47.875  1.00  0.00    -0.003 C 
ATOM     12  C   UNL     1      15.909  13.337  48.555  1.00  0.00     0.004 C 
ENDBRANCH  10  11
ENDBRANCH   9  10
ENDBRANCH   8   9
ENDBRANCH   7   8
ENDBRANCH   6   7
ENDBRANCH   5   6
ENDBRANCH   4   5
ENDBRANCH   3   4
ENDBRANCH   2   3
ENDBRANCH   1   2
BRANCH   1  13
ATOM     13  C   UNL     1       8.429  15.772  46.072  1.00  0.00     0.000 C 
BRANCH  13  14
ATOM     14  C   UNL     1       7.017  16.374  45.984  1.00  0.00     0.000 C 
BRANCH  14  15
ATOM     15  C   UNL     1       6.370  16.570  47.366  1.00  0.00     0.000 C 
BRANCH  15  16
ATOM     16  C   UNL     1       5.977  18.036  47.622  1.00  0.00     0.000 C 
BRANCH  16  17
ATOM     17  C   UNL     1       6.026  18.399  49.117  1.00  0.00     0.000 C 
BRANCH  17  18
ATOM     18  C   UNL     1       5.296  19.715  49.435  1.00  0.00     0.000 C 
BRANCH  18  19
ATOM     19  C   UNL     1       4.476  19.704  50.739  1.00  0.00     0.000 C 
BRANCH  19  20
ATOM     20  C   UNL     1       5.166  20.429  51.914  1.00  0.00     0.006 C 
BRANCH  20  21
ATOM     21  C   UNL     1       4.160  20.976  52.935  1.00  0.00     0.053 C 
BRANCH  21  22
ATOM     22  C   UNL     1       4.773  21.024  54.299  1.00  0.00     0.041 C 
ATOM     23  O   UNL     1       4.056  21.249  55.309  1.00  0.00    -0.550 OA
ATOM     24  O   UNL     1       6.146  20.876  54.451  1.00  0.00    -0.550 OA
ENDBRANCH  21  22
ENDBRANCH  20  21
ENDBRANCH  19  20
ENDBRANCH  18  19
ENDBRANCH  17  18
ENDBRANCH  16  17
ENDBRANCH  15  16
ENDBRANCH  14  15
ENDBRANCH  13  14
ENDBRANCH   1  13
TORSDOF 20
ENDMDL
MODEL 5
REMARK VINA RESULT:    22.122      4.916     11.566
REMARK INTER + INTRA:          46.890
REMARK INTER:                  48.047
REMARK INTRA:                  -1.157
REMARK UNBOUND:                -1.098
REMARK SMILES CCCCCCCCCCCCCCCCCCCCCC(=O)[O-]
REMARK SMILES IDX 12 1 11 2 10 3 9 4 8 5 7 6 6 7 5 8 4 9 3 10 2 11 1 12 13 13
REMARK SMILES IDX 14 14 15 15 16 16 17 17 18 18 19 19 20 20 21 21 22 22 23 23
REMARK SMILES IDX 24 24
REMARK H PARENT
REMARK Flexibility Score: inf
ROOT
ATOM      1  C   UNL     1       6.890  17.812  49.075  1.00  0.00     0.000 C 
ENDROOT
BRANCH   1   2
ATOM      2  C   UNL     1       5.978  18.579  50.056  1.00  0.00     0.000 C 
BRANCH   2   3
ATOM      3  C   UNL     1       6.565  19.919  50.541  1.00  0.00     0.000 C 
BRANCH   3   4
ATOM      4  C   UNL     1       6.077  20.383  51.926  1.00  0.00    -0.000 C 
BRANCH   4   5
ATOM      5  C   UNL     1       4.549  20.564  52.055  1.00  0.00    -0.000 C 
BRANCH   5   6
ATOM      6  C   UNL     1       4.090  21.480  53.203  1.00  0.00    -0.000 C 
BRANCH   6   7
ATOM      7  C   UNL     1       3.822  20.712  54.510  1.00  0.00    -0.000 C 
BRANCH   7   8
ATOM      8  C   UNL     1       4.539  21.337  55.718  1.00  0.00    -0.000 C 
BRANCH   8   9
ATOM      9  C   UNL     1       5.959  21.816  55.382  1.00  0.00    -0.000 C 
BRANCH   9  10
ATOM     10  C   UNL     1       7.011  20.827  55.910  1.00  0.00    -0.000 C 
BRANCH  10  11
ATOM     11  C   UNL     1       8.383  21.485  56.125  1.00  0.00    -0.003 C 
ATOM     12  C   UNL     1       9.537  20.481  56.072  1.00  0.00     0.004 C 
ENDBRANCH  10  11
ENDBRANCH   9  10
ENDBRANCH   8   9
ENDBRANCH   7   8
ENDBRANCH   6   7
ENDBRANCH   5   6
ENDBRANCH   4   5
ENDBRANCH   3   4
ENDBRANCH   2   3
ENDBRANCH   1   2
BRANCH   1  13
ATOM     13  C   UNL     1       6.381  17.867  47.623  1.00  0.00     0.000 C 
BRANCH  13  14
ATOM     14  C   UNL     1       6.853  16.670  46.782  1.00  0.00     0.000 C 
BRANCH  14  15
ATOM     15  C   UNL     1       8.289  16.236  47.123  1.00  0.00     0.000 C 
BRANCH  15  16
ATOM     16  C   UNL     1       8.746  15.027  46.289  1.00  0.00     0.000 C 
BRANCH  16  17
ATOM     17  C   UNL     1       9.339  15.446  44.931  1.00  0.00     0.000 C 
BRANCH  17  18
ATOM     18  C   UNL     1       9.294  14.318  43.888  1.00  0.00     0.000 C 
BRANCH  18  19
ATOM     19  C   UNL     1       8.414  14.606  42.656  1.00  0.00     0.000 C 
BRANCH  19  20
ATOM     20  C   UNL     1       8.076  16.101  42.469  1.00  0.00     0.006 C 
BRANCH  20  21
ATOM     21  C   UNL     1       6.715  16.310  41.793  1.00  0.00     0.053 C 
BRANCH  21  22
ATOM     22  C   UNL     1       6.713  17.583  41.006  1.00  0.00     0.041 C 
ATOM     23  O   UNL     1       6.400  18.670  41.559  1.00  0.00    -0.550 OA
ATOM     24  O   UNL     1       7.005  17.563  39.647  1.00  0.00    -0.550 OA
ENDBRANCH  21  22
ENDBRANCH  20  21
ENDBRANCH  19  20
ENDBRANCH  18  19
ENDBRANCH  17  18
ENDBRANCH  16  17
ENDBRANCH  15  16
ENDBRANCH  14  15
ENDBRANCH  13  14
ENDBRANCH   1  13
TORSDOF 20
ENDMDL
