MODEL 1
REMARK VINA RESULT:    -5.331      0.000      0.000
REMARK INTER + INTRA:          -6.395
REMARK INTER:                  -6.421
REMARK INTRA:                   0.027
REMARK UNBOUND:                 0.027
REMARK SMILES O=c1c(O)c(-c2ccc(O)c(O)c2)oc2cc(O)cc(O)c12
REMARK SMILES IDX 5 1 3 2 2 3 1 4 22 5 20 6 19 7 17 8 16 9 15 10 14 11 6 12
REMARK SMILES IDX 7 13 8 14 9 15 13 16 11 17 10 18 12 20 4 22 21 24 18 26
REMARK H PARENT 10 19 12 21 4 23 21 25 18 27
REMARK Flexibility Score: inf
ROOT
ATOM      1  C   UNL     1       9.731  -1.000  16.989  1.00  0.00     0.180 A 
ATOM      2  C   UNL     1      11.071  -0.871  17.401  1.00  0.00     0.208 A 
ATOM      3  C   UNL     1      11.413   0.162  18.287  1.00  0.00     0.238 A 
ATOM      4  O   UNL     1      12.612   0.293  18.655  1.00  0.00    -0.285 OA
ATOM      5  C   UNL     1      10.411   1.033  18.762  1.00  0.00     0.111 A 
ATOM      6  C   UNL     1      10.671   2.096  19.660  1.00  0.00     0.134 A 
ATOM      7  C   UNL     1       9.615   2.914  20.093  1.00  0.00     0.093 A 
ATOM      8  C   UNL     1       8.309   2.689  19.646  1.00  0.00     0.123 A 
ATOM      9  C   UNL     1       8.049   1.641  18.760  1.00  0.00     0.094 A 
ATOM     10  C   UNL     1       9.085   0.816  18.316  1.00  0.00     0.146 A 
ATOM     11  O   UNL     1       8.810  -0.169  17.469  1.00  0.00    -0.452 OA
ENDROOT
BRANCH   1  12
ATOM     12  C   UNL     1       9.296  -2.052  16.042  1.00  0.00     0.025 A 
ATOM     13  C   UNL     1       8.220  -2.906  16.339  1.00  0.00     0.016 A 
ATOM     14  C   UNL     1       7.843  -3.906  15.440  1.00  0.00     0.051 A 
ATOM     15  C   UNL     1       8.541  -4.079  14.241  1.00  0.00     0.157 A 
ATOM     16  C   UNL     1      10.008  -2.242  14.846  1.00  0.00     0.062 A 
ATOM     17  C   UNL     1       9.631  -3.245  13.942  1.00  0.00     0.158 A 
BRANCH  15  18
ATOM     18  O   UNL     1       8.139  -5.085  13.362  1.00  0.00    -0.504 OA
ATOM     19  H   UNL     1       8.686  -5.927  13.222  1.00  0.00     0.293 HD
ENDBRANCH  15  18
BRANCH  17  20
ATOM     20  O   UNL     1      10.335  -3.416  12.751  1.00  0.00    -0.504 OA
ATOM     21  H   UNL     1      10.961  -2.702  12.397  1.00  0.00     0.293 HD
ENDBRANCH  17  20
ENDBRANCH   1  12
BRANCH   2  22
ATOM     22  O   UNL     1      12.037  -1.779  16.956  1.00  0.00    -0.502 OA
ATOM     23  H   UNL     1      13.026  -1.644  17.125  1.00  0.00     0.293 HD
ENDBRANCH   2  22
BRANCH   6  24
ATOM     24  O   UNL     1      11.963   2.345  20.123  1.00  0.00    -0.507 OA
ATOM     25  H   UNL     1      12.662   1.613  20.168  1.00  0.00     0.293 HD
ENDBRANCH   6  24
BRANCH   8  26
ATOM     26  O   UNL     1       7.262   3.500  20.077  1.00  0.00    -0.508 OA
ATOM     27  H   UNL     1       6.634   3.949  19.421  1.00  0.00     0.293 HD
ENDBRANCH   8  26
TORSDOF 6
ENDMDL
MODEL 2
REMARK VINA RESULT:    -4.484      3.481      6.330
REMARK INTER + INTRA:          -5.375
REMARK INTER:                  -5.766
REMARK INTRA:                   0.391
REMARK UNBOUND:                 0.027
REMARK SMILES O=c1c(O)c(-c2ccc(O)c(O)c2)oc2cc(O)cc(O)c12
REMARK SMILES IDX 5 1 3 2 2 3 1 4 22 5 20 6 19 7 17 8 16 9 15 10 14 11 6 12
REMARK SMILES IDX 7 13 8 14 9 15 13 16 11 17 10 18 12 20 4 22 21 24 18 26
REMARK H PARENT 10 19 12 21 4 23 21 25 18 27
REMARK Flexibility Score: inf
ROOT
ATOM      1  C   UNL     1      10.767  -1.667  19.024  1.00  0.00     0.180 A 
ATOM      2  C   UNL     1      10.105  -0.639  18.326  1.00  0.00     0.208 A 
ATOM      3  C   UNL     1       8.726  -0.755  18.092  1.00  0.00     0.238 A 
ATOM      4  O   UNL     1       8.125   0.155  17.459  1.00  0.00    -0.285 OA
ATOM      5  C   UNL     1       8.030  -1.883  18.574  1.00  0.00     0.111 A 
ATOM      6  C   UNL     1       6.640  -2.075  18.384  1.00  0.00     0.134 A 
ATOM      7  C   UNL     1       6.019  -3.221  18.903  1.00  0.00     0.093 A 
ATOM      8  C   UNL     1       6.761  -4.177  19.607  1.00  0.00     0.123 A 
ATOM      9  C   UNL     1       8.131  -3.991  19.796  1.00  0.00     0.094 A 
ATOM     10  C   UNL     1       8.769  -2.858  19.286  1.00  0.00     0.146 A 
ATOM     11  O   UNL     1      10.075  -2.709  19.477  1.00  0.00    -0.452 OA
ENDROOT
BRANCH   1  12
ATOM     12  C   UNL     1      12.222  -1.626  19.293  1.00  0.00     0.025 A 
ATOM     13  C   UNL     1      12.949  -0.426  19.205  1.00  0.00     0.016 A 
ATOM     14  C   UNL     1      14.327  -0.416  19.441  1.00  0.00     0.051 A 
ATOM     15  C   UNL     1      14.999  -1.601  19.752  1.00  0.00     0.157 A 
ATOM     16  C   UNL     1      12.905  -2.818  19.585  1.00  0.00     0.062 A 
ATOM     17  C   UNL     1      14.288  -2.810  19.822  1.00  0.00     0.158 A 
BRANCH  15  18
ATOM     18  O   UNL     1      16.374  -1.559  19.984  1.00  0.00    -0.504 OA
ATOM     19  H   UNL     1      16.905  -2.388  20.222  1.00  0.00     0.293 HD
ENDBRANCH  15  18
BRANCH  17  20
ATOM     20  O   UNL     1      14.953  -3.996  20.125  1.00  0.00    -0.504 OA
ATOM     21  H   UNL     1      14.861  -4.821  19.543  1.00  0.00     0.293 HD
ENDBRANCH  17  20
ENDBRANCH   1  12
BRANCH   2  22
ATOM     22  O   UNL     1      10.808   0.493  17.903  1.00  0.00    -0.502 OA
ATOM     23  H   UNL     1      11.551   0.443  17.217  1.00  0.00     0.293 HD
ENDBRANCH   2  22
BRANCH   6  24
ATOM     24  O   UNL     1       5.875  -1.139  17.686  1.00  0.00    -0.507 OA
ATOM     25  H   UNL     1       5.954  -0.146  17.868  1.00  0.00     0.293 HD
ENDBRANCH   6  24
BRANCH   8  26
ATOM     26  O   UNL     1       6.144  -5.313  20.123  1.00  0.00    -0.508 OA
ATOM     27  H   UNL     1       5.231  -5.614  19.802  1.00  0.00     0.293 HD
ENDBRANCH   8  26
TORSDOF 6
ENDMDL
MODEL 3
REMARK VINA RESULT:    -4.383      2.909      5.328
REMARK INTER + INTRA:          -5.253
REMARK INTER:                  -5.513
REMARK INTRA:                   0.260
REMARK UNBOUND:                 0.027
REMARK SMILES O=c1c(O)c(-c2ccc(O)c(O)c2)oc2cc(O)cc(O)c12
REMARK SMILES IDX 5 1 3 2 2 3 1 4 22 5 20 6 19 7 17 8 16 9 15 10 14 11 6 12
REMARK SMILES IDX 7 13 8 14 9 15 13 16 11 17 10 18 12 20 4 22 21 24 18 26
REMARK H PARENT 10 19 12 21 4 23 21 25 18 27
REMARK Flexibility Score: inf
ROOT
ATOM      1  C   UNL     1      10.902  -0.421  19.093  1.00  0.00     0.180 A 
ATOM      2  C   UNL     1       9.983  -1.225  18.393  1.00  0.00     0.208 A 
ATOM      3  C   UNL     1       8.684  -0.739  18.174  1.00  0.00     0.238 A 
ATOM      4  O   UNL     1       7.849  -1.455  17.556  1.00  0.00    -0.285 OA
ATOM      5  C   UNL     1       8.333   0.546  18.638  1.00  0.00     0.111 A 
ATOM      6  C   UNL     1       7.048   1.111  18.455  1.00  0.00     0.134 A 
ATOM      7  C   UNL     1       6.781   2.401  18.939  1.00  0.00     0.093 A 
ATOM      8  C   UNL     1       7.772   3.133  19.602  1.00  0.00     0.123 A 
ATOM      9  C   UNL     1       9.040   2.579  19.785  1.00  0.00     0.094 A 
ATOM     10  C   UNL     1       9.327   1.296  19.311  1.00  0.00     0.146 A 
ATOM     11  O   UNL     1      10.540   0.791  19.504  1.00  0.00    -0.452 OA
ENDROOT
BRANCH   1  12
ATOM     12  C   UNL     1      12.283  -0.872  19.381  1.00  0.00     0.025 A 
ATOM     13  C   UNL     1      13.365   0.025  19.360  1.00  0.00     0.016 A 
ATOM     14  C   UNL     1      14.662  -0.428  19.612  1.00  0.00     0.051 A 
ATOM     15  C   UNL     1      14.901  -1.781  19.871  1.00  0.00     0.157 A 
ATOM     16  C   UNL     1      12.529  -2.234  19.621  1.00  0.00     0.062 A 
ATOM     17  C   UNL     1      13.831  -2.690  19.873  1.00  0.00     0.158 A 
BRANCH  15  18
ATOM     18  O   UNL     1      16.208  -2.202  20.120  1.00  0.00    -0.504 OA
ATOM     19  H   UNL     1      16.437  -2.812  20.896  1.00  0.00     0.293 HD
ENDBRANCH  15  18
BRANCH  17  20
ATOM     20  O   UNL     1      14.063  -4.042  20.125  1.00  0.00    -0.504 OA
ATOM     21  H   UNL     1      13.313  -4.669  20.389  1.00  0.00     0.293 HD
ENDBRANCH  17  20
ENDBRANCH   1  12
BRANCH   2  22
ATOM     22  O   UNL     1      10.370  -2.474  17.899  1.00  0.00    -0.502 OA
ATOM     23  H   UNL     1      10.816  -3.172  18.481  1.00  0.00     0.293 HD
ENDBRANCH   2  22
BRANCH   6  24
ATOM     24  O   UNL     1       6.040   0.405  17.798  1.00  0.00    -0.507 OA
ATOM     25  H   UNL     1       5.060   0.610  17.951  1.00  0.00     0.293 HD
ENDBRANCH   6  24
BRANCH   8  26
ATOM     26  O   UNL     1       7.507   4.413  20.081  1.00  0.00    -0.508 OA
ATOM     27  H   UNL     1       6.616   4.867  19.918  1.00  0.00     0.293 HD
ENDBRANCH   8  26
TORSDOF 6
ENDMDL
MODEL 4
REMARK VINA RESULT:    -4.223      1.510      3.289
REMARK INTER + INTRA:          -5.061
REMARK INTER:                  -4.834
REMARK INTRA:                  -0.227
REMARK UNBOUND:                 0.027
REMARK SMILES O=c1c(O)c(-c2ccc(O)c(O)c2)oc2cc(O)cc(O)c12
REMARK SMILES IDX 5 1 3 2 2 3 1 4 22 5 20 6 19 7 17 8 16 9 15 10 14 11 6 12
REMARK SMILES IDX 7 13 8 14 9 15 13 16 11 17 10 18 12 20 4 22 21 24 18 26
REMARK H PARENT 10 19 12 21 4 23 21 25 18 27
REMARK Flexibility Score: inf
ROOT
ATOM      1  C   UNL     1      10.164  -1.375  16.897  1.00  0.00     0.180 A 
ATOM      2  C   UNL     1       9.496  -0.200  17.292  1.00  0.00     0.208 A 
ATOM      3  C   UNL     1      10.118   0.656  18.214  1.00  0.00     0.238 A 
ATOM      4  O   UNL     1       9.526   1.706  18.584  1.00  0.00    -0.285 OA
ATOM      5  C   UNL     1      11.400   0.337  18.708  1.00  0.00     0.111 A 
ATOM      6  C   UNL     1      12.097   1.148  19.636  1.00  0.00     0.134 A 
ATOM      7  C   UNL     1      13.375   0.764  20.072  1.00  0.00     0.093 A 
ATOM      8  C   UNL     1      13.967  -0.412  19.599  1.00  0.00     0.123 A 
ATOM      9  C   UNL     1      13.282  -1.215  18.684  1.00  0.00     0.094 A 
ATOM     10  C   UNL     1      12.009  -0.852  18.238  1.00  0.00     0.146 A 
ATOM     11  O   UNL     1      11.379  -1.637  17.372  1.00  0.00    -0.452 OA
ENDROOT
BRANCH   1  12
ATOM     12  C   UNL     1       9.565  -2.338  15.944  1.00  0.00     0.025 A 
ATOM     13  C   UNL     1       8.442  -3.108  16.290  1.00  0.00     0.016 A 
ATOM     14  C   UNL     1       7.909  -4.027  15.382  1.00  0.00     0.051 A 
ATOM     15  C   UNL     1       8.496  -4.201  14.125  1.00  0.00     0.157 A 
ATOM     16  C   UNL     1      10.165  -2.530  14.688  1.00  0.00     0.062 A 
ATOM     17  C   UNL     1       9.631  -3.452  13.776  1.00  0.00     0.158 A 
BRANCH  15  18
ATOM     18  O   UNL     1       7.940  -5.125  13.240  1.00  0.00    -0.504 OA
ATOM     19  H   UNL     1       8.506  -5.644  12.579  1.00  0.00     0.293 HD
ENDBRANCH  15  18
BRANCH  17  20
ATOM     20  O   UNL     1      10.225  -3.625  12.527  1.00  0.00    -0.504 OA
ATOM     21  H   UNL     1       9.701  -3.504  11.668  1.00  0.00     0.293 HD
ENDBRANCH  17  20
ENDBRANCH   1  12
BRANCH   2  22
ATOM     22  O   UNL     1       8.248   0.119  16.750  1.00  0.00    -0.502 OA
ATOM     23  H   UNL     1       8.118   0.305  15.764  1.00  0.00     0.293 HD
ENDBRANCH   2  22
BRANCH   6  24
ATOM     24  O   UNL     1      11.533   2.326  20.125  1.00  0.00    -0.507 OA
ATOM     25  H   UNL     1      11.627   3.207  19.632  1.00  0.00     0.293 HD
ENDBRANCH   6  24
BRANCH   8  26
ATOM     26  O   UNL     1      15.235  -0.791  20.031  1.00  0.00    -0.508 OA
ATOM     27  H   UNL     1      15.364  -1.381  20.845  1.00  0.00     0.293 HD
ENDBRANCH   8  26
TORSDOF 6
ENDMDL
MODEL 5
REMARK VINA RESULT:    -3.839      2.641      6.666
REMARK INTER + INTRA:          -4.597
REMARK INTER:                  -4.325
REMARK INTRA:                  -0.273
REMARK UNBOUND:                 0.027
REMARK SMILES O=c1c(O)c(-c2ccc(O)c(O)c2)oc2cc(O)cc(O)c12
REMARK SMILES IDX 5 1 3 2 2 3 1 4 22 5 20 6 19 7 17 8 16 9 15 10 14 11 6 12
REMARK SMILES IDX 7 13 8 14 9 15 13 16 11 17 10 18 12 20 4 22 21 24 18 26
REMARK H PARENT 10 19 12 21 4 23 21 25 18 27
REMARK Flexibility Score: inf
ROOT
ATOM      1  C   UNL     1       9.357   1.250  18.644  1.00  0.00     0.180 A 
ATOM      2  C   UNL     1       8.977   0.224  17.758  1.00  0.00     0.208 A 
ATOM      3  C   UNL     1       9.889  -0.807  17.482  1.00  0.00     0.238 A 
ATOM      4  O   UNL     1       9.563  -1.727  16.682  1.00  0.00    -0.285 OA
ATOM      5  C   UNL     1      11.152  -0.807  18.108  1.00  0.00     0.111 A 
ATOM      6  C   UNL     1      12.127  -1.810  17.888  1.00  0.00     0.134 A 
ATOM      7  C   UNL     1      13.358  -1.743  18.558  1.00  0.00     0.093 A 
ATOM      8  C   UNL     1      13.632  -0.693  19.441  1.00  0.00     0.123 A 
ATOM      9  C   UNL     1      12.674   0.298  19.661  1.00  0.00     0.094 A 
ATOM     10  C   UNL     1      11.442   0.251  19.004  1.00  0.00     0.146 A 
ATOM     11  O   UNL     1      10.552   1.210  19.228  1.00  0.00    -0.452 OA
ENDROOT
BRANCH   1  12
ATOM     12  C   UNL     1       8.459   2.381  18.970  1.00  0.00     0.025 A 
ATOM     13  C   UNL     1       7.374   2.224  19.851  1.00  0.00     0.016 A 
ATOM     14  C   UNL     1       6.526   3.300  20.125  1.00  0.00     0.051 A 
ATOM     15  C   UNL     1       6.738   4.540  19.515  1.00  0.00     0.157 A 
ATOM     16  C   UNL     1       8.655   3.623  18.343  1.00  0.00     0.062 A 
ATOM     17  C   UNL     1       7.805   4.704  18.618  1.00  0.00     0.158 A 
BRANCH  15  18
ATOM     18  O   UNL     1       5.875   5.596  19.811  1.00  0.00    -0.504 OA
ATOM     19  H   UNL     1       5.224   5.557  20.586  1.00  0.00     0.293 HD
ENDBRANCH  15  18
BRANCH  17  20
ATOM     20  O   UNL     1       8.018   5.936  18.001  1.00  0.00    -0.504 OA
ATOM     21  H   UNL     1       7.316   6.666  18.018  1.00  0.00     0.293 HD
ENDBRANCH  17  20
ENDBRANCH   1  12
BRANCH   2  22
ATOM     22  O   UNL     1       7.701   0.219  17.189  1.00  0.00    -0.502 OA
ATOM     23  H   UNL     1       7.396   0.930  16.535  1.00  0.00     0.293 HD
ENDBRANCH   2  22
BRANCH   6  24
ATOM     24  O   UNL     1      11.882  -2.869  17.013  1.00  0.00    -0.507 OA
ATOM     25  H   UNL     1      11.703  -2.714  16.027  1.00  0.00     0.293 HD
ENDBRANCH   6  24
BRANCH   8  26
ATOM     26  O   UNL     1      14.854  -0.627  20.107  1.00  0.00    -0.508 OA
ATOM     27  H   UNL     1      14.905  -0.469  21.107  1.00  0.00     0.293 HD
ENDBRANCH   8  26
TORSDOF 6
ENDMDL
MODEL 6
REMARK VINA RESULT:    -3.256      2.319      3.968
REMARK INTER + INTRA:          -3.896
REMARK INTER:                  -3.731
REMARK INTRA:                  -0.165
REMARK UNBOUND:                 0.027
REMARK SMILES O=c1c(O)c(-c2ccc(O)c(O)c2)oc2cc(O)cc(O)c12
REMARK SMILES IDX 5 1 3 2 2 3 1 4 22 5 20 6 19 7 17 8 16 9 15 10 14 11 6 12
REMARK SMILES IDX 7 13 8 14 9 15 13 16 11 17 10 18 12 20 4 22 21 24 18 26
REMARK H PARENT 10 19 12 21 4 23 21 25 18 27
REMARK Flexibility Score: inf
ROOT
ATOM      1  C   UNL     1       9.710  -2.074  15.352  1.00  0.00     0.180 A 
ATOM      2  C   UNL     1       8.522  -2.556  15.932  1.00  0.00     0.208 A 
ATOM      3  C   UNL     1       8.288  -2.320  17.296  1.00  0.00     0.238 A 
ATOM      4  O   UNL     1       7.232  -2.756  17.829  1.00  0.00    -0.285 OA
ATOM      5  C   UNL     1       9.233  -1.593  18.049  1.00  0.00     0.111 A 
ATOM      6  C   UNL     1       9.071  -1.309  19.427  1.00  0.00     0.134 A 
ATOM      7  C   UNL     1      10.054  -0.570  20.105  1.00  0.00     0.093 A 
ATOM      8  C   UNL     1      11.191  -0.111  19.431  1.00  0.00     0.123 A 
ATOM      9  C   UNL     1      11.354  -0.389  18.073  1.00  0.00     0.094 A 
ATOM     10  C   UNL     1      10.389  -1.124  17.380  1.00  0.00     0.146 A 
ATOM     11  O   UNL     1      10.572  -1.378  16.090  1.00  0.00    -0.452 OA
ENDROOT
BRANCH   1  12
ATOM     12  C   UNL     1      10.037  -2.298  13.925  1.00  0.00     0.025 A 
ATOM     13  C   UNL     1      10.205  -3.594  13.407  1.00  0.00     0.016 A 
ATOM     14  C   UNL     1      10.537  -3.780  12.063  1.00  0.00     0.051 A 
ATOM     15  C   UNL     1      10.719  -2.679  11.220  1.00  0.00     0.157 A 
ATOM     16  C   UNL     1      10.242  -1.194  13.080  1.00  0.00     0.062 A 
ATOM     17  C   UNL     1      10.574  -1.379  11.731  1.00  0.00     0.158 A 
BRANCH  15  18
ATOM     18  O   UNL     1      11.047  -2.897   9.882  1.00  0.00    -0.504 OA
ATOM     19  H   UNL     1      11.877  -3.411   9.609  1.00  0.00     0.293 HD
ENDBRANCH  15  18
BRANCH  17  20
ATOM     20  O   UNL     1      10.761  -0.276  10.898  1.00  0.00    -0.504 OA
ATOM     21  H   UNL     1      11.637  -0.118  10.415  1.00  0.00     0.293 HD
ENDBRANCH  17  20
ENDBRANCH   1  12
BRANCH   2  22
ATOM     22  O   UNL     1       7.578  -3.230  15.152  1.00  0.00    -0.502 OA
ATOM     23  H   UNL     1       7.636  -3.264  14.142  1.00  0.00     0.293 HD
ENDBRANCH   2  22
BRANCH   6  24
ATOM     24  O   UNL     1       7.948  -1.753  20.125  1.00  0.00    -0.507 OA
ATOM     25  H   UNL     1       7.123  -1.174  20.230  1.00  0.00     0.293 HD
ENDBRANCH   6  24
BRANCH   8  26
ATOM     26  O   UNL     1      12.165   0.623  20.103  1.00  0.00    -0.508 OA
ATOM     27  H   UNL     1      13.101   0.261  20.242  1.00  0.00     0.293 HD
ENDBRANCH   8  26
TORSDOF 6
ENDMDL
MODEL 7
REMARK VINA RESULT:    -2.371     10.656     13.652
REMARK INTER + INTRA:          -2.830
REMARK INTER:                  -2.577
REMARK INTRA:                  -0.253
REMARK UNBOUND:                 0.027
REMARK SMILES O=c1c(O)c(-c2ccc(O)c(O)c2)oc2cc(O)cc(O)c12
REMARK SMILES IDX 5 1 3 2 2 3 1 4 22 5 20 6 19 7 17 8 16 9 15 10 14 11 6 12
REMARK SMILES IDX 7 13 8 14 9 15 13 16 11 17 10 18 12 20 4 22 21 24 18 26
REMARK H PARENT 10 19 12 21 4 23 21 25 18 27
REMARK Flexibility Score: inf
ROOT
ATOM      1  C   UNL     1      19.757  -6.232  18.397  1.00  0.00     0.180 A 
ATOM      2  C   UNL     1      18.760  -6.801  19.211  1.00  0.00     0.208 A 
ATOM      3  C   UNL     1      18.505  -8.177  19.111  1.00  0.00     0.238 A 
ATOM      4  O   UNL     1      17.607  -8.697  19.828  1.00  0.00    -0.285 OA
ATOM      5  C   UNL     1      19.263  -8.963  18.218  1.00  0.00     0.111 A 
ATOM      6  C   UNL     1      19.072 -10.357  18.059  1.00  0.00     0.134 A 
ATOM      7  C   UNL     1      19.873 -11.070  17.154  1.00  0.00     0.093 A 
ATOM      8  C   UNL     1      20.859 -10.417  16.407  1.00  0.00     0.123 A 
ATOM      9  C   UNL     1      21.050  -9.042  16.560  1.00  0.00     0.094 A 
ATOM     10  C   UNL     1      20.262  -8.313  17.454  1.00  0.00     0.146 A 
ATOM     11  O   UNL     1      20.462  -7.006  17.576  1.00  0.00    -0.452 OA
ENDROOT
BRANCH   1  12
ATOM     12  C   UNL     1      20.071  -4.785  18.431  1.00  0.00     0.025 A 
ATOM     13  C   UNL     1      21.222  -4.300  19.075  1.00  0.00     0.016 A 
ATOM     14  C   UNL     1      21.485  -2.928  19.115  1.00  0.00     0.051 A 
ATOM     15  C   UNL     1      20.598  -2.021  18.527  1.00  0.00     0.157 A 
ATOM     16  C   UNL     1      19.171  -3.869  17.860  1.00  0.00     0.062 A 
ATOM     17  C   UNL     1      19.434  -2.492  17.898  1.00  0.00     0.158 A 
BRANCH  15  18
ATOM     18  O   UNL     1      20.888  -0.658  18.581  1.00  0.00    -0.504 OA
ATOM     19  H   UNL     1      21.801  -0.313  18.855  1.00  0.00     0.293 HD
ENDBRANCH  15  18
BRANCH  17  20
ATOM     20  O   UNL     1      18.542  -1.593  17.316  1.00  0.00    -0.504 OA
ATOM     21  H   UNL     1      18.240  -1.692  16.353  1.00  0.00     0.293 HD
ENDBRANCH  17  20
ENDBRANCH   1  12
BRANCH   2  22
ATOM     22  O   UNL     1      18.058  -6.010  20.125  1.00  0.00    -0.502 OA
ATOM     23  H   UNL     1      17.292  -5.410  19.846  1.00  0.00     0.293 HD
ENDBRANCH   2  22
BRANCH   6  24
ATOM     24  O   UNL     1      18.097 -11.036  18.791  1.00  0.00    -0.507 OA
ATOM     25  H   UNL     1      17.448 -11.677  18.348  1.00  0.00     0.293 HD
ENDBRANCH   6  24
BRANCH   8  26
ATOM     26  O   UNL     1      21.656 -11.125  15.510  1.00  0.00    -0.508 OA
ATOM     27  H   UNL     1      21.811 -10.796  14.565  1.00  0.00     0.293 HD
ENDBRANCH   8  26
TORSDOF 6
ENDMDL
