MODEL 1
REMARK VINA RESULT:    -6.427      0.000      0.000
REMARK INTER + INTRA:          -7.863
REMARK INTER:                  -7.554
REMARK INTRA:                  -0.308
REMARK UNBOUND:                -0.308
REMARK SMILES O=c1cc(-c2ccc(O)c(O)c2)oc2cc(O)cc(O)c12
REMARK SMILES IDX 4 1 3 2 2 3 1 4 21 5 19 6 18 7 16 8 15 9 14 10 13 11 5 12
REMARK SMILES IDX 6 13 7 14 8 15 12 16 10 17 9 18 11 20 20 22 17 24
REMARK H PARENT 9 19 11 21 20 23 17 25
REMARK Flexibility Score: inf
ROOT
ATOM      1  C   UNL     1      17.724  -3.212 -16.085  1.00  0.00     0.138 A 
ATOM      2  C   UNL     1      17.514  -4.589 -15.928  1.00  0.00     0.100 A 
ATOM      3  C   UNL     1      16.685  -5.048 -14.904  1.00  0.00     0.197 A 
ATOM      4  O   UNL     1      16.565  -6.292 -14.749  1.00  0.00    -0.289 OA
ATOM      5  C   UNL     1      16.039  -4.121 -14.053  1.00  0.00     0.107 A 
ATOM      6  C   UNL     1      15.139  -4.473 -13.002  1.00  0.00     0.134 A 
ATOM      7  C   UNL     1      14.650  -3.474 -12.150  1.00  0.00     0.093 A 
ATOM      8  C   UNL     1      14.978  -2.134 -12.347  1.00  0.00     0.123 A 
ATOM      9  C   UNL     1      15.814  -1.772 -13.406  1.00  0.00     0.094 A 
ATOM     10  C   UNL     1      16.345  -2.748 -14.251  1.00  0.00     0.146 A 
ATOM     11  O   UNL     1      17.148  -2.365 -15.239  1.00  0.00    -0.456 OA
ENDROOT
BRANCH   1  12
ATOM     12  C   UNL     1      18.595  -2.670 -17.158  1.00  0.00     0.021 A 
ATOM     13  C   UNL     1      18.766  -3.341 -18.382  1.00  0.00     0.016 A 
ATOM     14  C   UNL     1      19.584  -2.802 -19.377  1.00  0.00     0.051 A 
ATOM     15  C   UNL     1      20.241  -1.582 -19.180  1.00  0.00     0.157 A 
ATOM     16  C   UNL     1      19.244  -1.437 -16.966  1.00  0.00     0.062 A 
ATOM     17  C   UNL     1      20.067  -0.891 -17.959  1.00  0.00     0.158 A 
BRANCH  15  18
ATOM     18  O   UNL     1      21.046  -1.101 -20.214  1.00  0.00    -0.504 OA
ATOM     19  H   UNL     1      21.001  -1.435 -21.167  1.00  0.00     0.293 HD
ENDBRANCH  15  18
BRANCH  17  20
ATOM     20  O   UNL     1      20.686   0.333 -17.691  1.00  0.00    -0.504 OA
ATOM     21  H   UNL     1      21.441   0.451 -17.032  1.00  0.00     0.293 HD
ENDBRANCH  17  20
ENDBRANCH   1  12
BRANCH   6  22
ATOM     22  O   UNL     1      14.679  -5.772 -12.769  1.00  0.00    -0.507 OA
ATOM     23  H   UNL     1      14.594  -6.199 -11.859  1.00  0.00     0.293 HD
ENDBRANCH   6  22
BRANCH   8  24
ATOM     24  O   UNL     1      14.460  -1.166 -11.489  1.00  0.00    -0.508 OA
ATOM     25  H   UNL     1      14.005  -0.333 -11.843  1.00  0.00     0.293 HD
ENDBRANCH   8  24
TORSDOF 5
ENDMDL
MODEL 2
REMARK VINA RESULT:    -6.079      1.197      2.719
REMARK INTER + INTRA:          -7.453
REMARK INTER:                  -7.170
REMARK INTRA:                  -0.284
REMARK UNBOUND:                -0.308
REMARK SMILES O=c1cc(-c2ccc(O)c(O)c2)oc2cc(O)cc(O)c12
REMARK SMILES IDX 4 1 3 2 2 3 1 4 21 5 19 6 18 7 16 8 15 9 14 10 13 11 5 12
REMARK SMILES IDX 6 13 7 14 8 15 12 16 10 17 9 18 11 20 20 22 17 24
REMARK H PARENT 9 19 11 21 20 23 17 25
REMARK Flexibility Score: inf
ROOT
ATOM      1  C   UNL     1      17.451  -2.520 -15.428  1.00  0.00     0.138 A 
ATOM      2  C   UNL     1      16.772  -1.579 -14.643  1.00  0.00     0.100 A 
ATOM      3  C   UNL     1      15.924  -2.014 -13.624  1.00  0.00     0.197 A 
ATOM      4  O   UNL     1      15.279  -1.147 -12.977  1.00  0.00    -0.289 OA
ATOM      5  C   UNL     1      15.782  -3.398 -13.370  1.00  0.00     0.107 A 
ATOM      6  C   UNL     1      14.978  -3.956 -12.330  1.00  0.00     0.134 A 
ATOM      7  C   UNL     1      14.824  -5.345 -12.247  1.00  0.00     0.093 A 
ATOM      8  C   UNL     1      15.490  -6.198 -13.126  1.00  0.00     0.123 A 
ATOM      9  C   UNL     1      16.322  -5.666 -14.113  1.00  0.00     0.094 A 
ATOM     10  C   UNL     1      16.470  -4.284 -14.242  1.00  0.00     0.146 A 
ATOM     11  O   UNL     1      17.259  -3.816 -15.204  1.00  0.00    -0.456 OA
ENDROOT
BRANCH   1  12
ATOM     12  C   UNL     1      18.366  -2.112 -16.525  1.00  0.00     0.021 A 
ATOM     13  C   UNL     1      18.480  -2.862 -17.709  1.00  0.00     0.016 A 
ATOM     14  C   UNL     1      19.341  -2.449 -18.728  1.00  0.00     0.051 A 
ATOM     15  C   UNL     1      20.097  -1.280 -18.596  1.00  0.00     0.157 A 
ATOM     16  C   UNL     1      19.114  -0.929 -16.398  1.00  0.00     0.062 A 
ATOM     17  C   UNL     1      19.980  -0.509 -17.416  1.00  0.00     0.158 A 
BRANCH  15  18
ATOM     18  O   UNL     1      20.940  -0.925 -19.650  1.00  0.00    -0.504 OA
ATOM     19  H   UNL     1      21.859  -1.319 -19.795  1.00  0.00     0.293 HD
ENDBRANCH  15  18
BRANCH  17  20
ATOM     20  O   UNL     1      20.699   0.671 -17.212  1.00  0.00    -0.504 OA
ATOM     21  H   UNL     1      20.520   1.534 -17.707  1.00  0.00     0.293 HD
ENDBRANCH  17  20
ENDBRANCH   1  12
BRANCH   6  22
ATOM     22  O   UNL     1      14.336  -3.197 -11.347  1.00  0.00    -0.507 OA
ATOM     23  H   UNL     1      14.806  -2.626 -10.661  1.00  0.00     0.293 HD
ENDBRANCH   6  22
BRANCH   8  24
ATOM     24  O   UNL     1      15.324  -7.576 -13.004  1.00  0.00    -0.508 OA
ATOM     25  H   UNL     1      14.596  -8.069 -13.508  1.00  0.00     0.293 HD
ENDBRANCH   8  24
TORSDOF 5
ENDMDL
MODEL 3
REMARK VINA RESULT:    -6.070      5.795     11.066
REMARK INTER + INTRA:          -7.442
REMARK INTER:                  -7.133
REMARK INTRA:                  -0.310
REMARK UNBOUND:                -0.308
REMARK SMILES O=c1cc(-c2ccc(O)c(O)c2)oc2cc(O)cc(O)c12
REMARK SMILES IDX 4 1 3 2 2 3 1 4 21 5 19 6 18 7 16 8 15 9 14 10 13 11 5 12
REMARK SMILES IDX 6 13 7 14 8 15 12 16 10 17 9 18 11 20 20 22 17 24
REMARK H PARENT 9 19 11 21 20 23 17 25
REMARK Flexibility Score: inf
ROOT
ATOM      1  C   UNL     1      11.386  -6.904  -9.719  1.00  0.00     0.138 A 
ATOM      2  C   UNL     1      11.420  -7.791 -10.803  1.00  0.00     0.100 A 
ATOM      3  C   UNL     1      12.423  -7.667 -11.765  1.00  0.00     0.197 A 
ATOM      4  O   UNL     1      12.391  -8.438 -12.760  1.00  0.00    -0.289 OA
ATOM      5  C   UNL     1      13.415  -6.668 -11.623  1.00  0.00     0.107 A 
ATOM      6  C   UNL     1      14.508  -6.475 -12.520  1.00  0.00     0.134 A 
ATOM      7  C   UNL     1      15.362  -5.379 -12.340  1.00  0.00     0.093 A 
ATOM      8  C   UNL     1      15.200  -4.508 -11.264  1.00  0.00     0.123 A 
ATOM      9  C   UNL     1      14.166  -4.719 -10.350  1.00  0.00     0.094 A 
ATOM     10  C   UNL     1      13.278  -5.782 -10.521  1.00  0.00     0.146 A 
ATOM     11  O   UNL     1      12.298  -5.941  -9.637  1.00  0.00    -0.456 OA
ENDROOT
BRANCH   1  12
ATOM     12  C   UNL     1      10.343  -6.992  -8.666  1.00  0.00     0.021 A 
ATOM     13  C   UNL     1       9.698  -8.205  -8.365  1.00  0.00     0.016 A 
ATOM     14  C   UNL     1       8.726  -8.260  -7.363  1.00  0.00     0.051 A 
ATOM     15  C   UNL     1       8.384  -7.116  -6.635  1.00  0.00     0.157 A 
ATOM     16  C   UNL     1      10.009  -5.846  -7.925  1.00  0.00     0.062 A 
ATOM     17  C   UNL     1       9.035  -5.893  -6.919  1.00  0.00     0.158 A 
BRANCH  15  18
ATOM     18  O   UNL     1       7.404  -7.239  -5.649  1.00  0.00    -0.504 OA
ATOM     19  H   UNL     1       6.521  -7.711  -5.786  1.00  0.00     0.293 HD
ENDBRANCH  15  18
BRANCH  17  20
ATOM     20  O   UNL     1       8.751  -4.710  -6.232  1.00  0.00    -0.504 OA
ATOM     21  H   UNL     1       8.469  -4.673  -5.263  1.00  0.00     0.293 HD
ENDBRANCH  17  20
ENDBRANCH   1  12
BRANCH   6  22
ATOM     22  O   UNL     1      14.812  -7.335 -13.579  1.00  0.00    -0.507 OA
ATOM     23  H   UNL     1      14.775  -7.083 -14.555  1.00  0.00     0.293 HD
ENDBRANCH   6  22
BRANCH   8  24
ATOM     24  O   UNL     1      16.078  -3.437 -11.109  1.00  0.00    -0.508 OA
ATOM     25  H   UNL     1      16.073  -2.651 -11.748  1.00  0.00     0.293 HD
ENDBRANCH   8  24
TORSDOF 5
ENDMDL
MODEL 4
REMARK VINA RESULT:    -6.068      2.862      3.877
REMARK INTER + INTRA:          -7.441
REMARK INTER:                  -7.175
REMARK INTRA:                  -0.266
REMARK UNBOUND:                -0.308
REMARK SMILES O=c1cc(-c2ccc(O)c(O)c2)oc2cc(O)cc(O)c12
REMARK SMILES IDX 4 1 3 2 2 3 1 4 21 5 19 6 18 7 16 8 15 9 14 10 13 11 5 12
REMARK SMILES IDX 6 13 7 14 8 15 12 16 10 17 9 18 11 20 20 22 17 24
REMARK H PARENT 9 19 11 21 20 23 17 25
REMARK Flexibility Score: inf
ROOT
ATOM      1  C   UNL     1      17.612  -4.877 -16.174  1.00  0.00     0.138 A 
ATOM      2  C   UNL     1      18.142  -5.234 -14.927  1.00  0.00     0.100 A 
ATOM      3  C   UNL     1      17.600  -6.313 -14.228  1.00  0.00     0.197 A 
ATOM      4  O   UNL     1      18.055  -6.570 -13.083  1.00  0.00    -0.289 OA
ATOM      5  C   UNL     1      16.540  -7.058 -14.798  1.00  0.00     0.107 A 
ATOM      6  C   UNL     1      15.936  -8.203 -14.196  1.00  0.00     0.134 A 
ATOM      7  C   UNL     1      14.817  -8.790 -14.801  1.00  0.00     0.093 A 
ATOM      8  C   UNL     1      14.319  -8.313 -16.012  1.00  0.00     0.123 A 
ATOM      9  C   UNL     1      14.935  -7.227 -16.637  1.00  0.00     0.094 A 
ATOM     10  C   UNL     1      16.031  -6.599 -16.043  1.00  0.00     0.146 A 
ATOM     11  O   UNL     1      16.582  -5.560 -16.662  1.00  0.00    -0.456 OA
ENDROOT
BRANCH   1  12
ATOM     12  C   UNL     1      18.152  -3.739 -16.959  1.00  0.00     0.021 A 
ATOM     13  C   UNL     1      18.631  -3.907 -18.270  1.00  0.00     0.016 A 
ATOM     14  C   UNL     1      19.125  -2.815 -18.988  1.00  0.00     0.051 A 
ATOM     15  C   UNL     1      19.144  -1.536 -18.423  1.00  0.00     0.157 A 
ATOM     16  C   UNL     1      18.158  -2.450 -16.396  1.00  0.00     0.062 A 
ATOM     17  C   UNL     1      18.652  -1.351 -17.110  1.00  0.00     0.158 A 
BRANCH  15  18
ATOM     18  O   UNL     1      19.653  -0.490 -19.194  1.00  0.00    -0.504 OA
ATOM     19  H   UNL     1      19.207   0.412 -19.287  1.00  0.00     0.293 HD
ENDBRANCH  15  18
BRANCH  17  20
ATOM     20  O   UNL     1      18.634  -0.105 -16.480  1.00  0.00    -0.504 OA
ATOM     21  H   UNL     1      18.938   0.052 -15.530  1.00  0.00     0.293 HD
ENDBRANCH  17  20
ENDBRANCH   1  12
BRANCH   6  22
ATOM     22  O   UNL     1      16.406  -8.812 -13.029  1.00  0.00    -0.507 OA
ATOM     23  H   UNL     1      17.017  -9.615 -13.004  1.00  0.00     0.293 HD
ENDBRANCH   6  22
BRANCH   8  24
ATOM     24  O   UNL     1      13.213  -8.931 -16.591  1.00  0.00    -0.508 OA
ATOM     25  H   UNL     1      12.737  -9.701 -16.135  1.00  0.00     0.293 HD
ENDBRANCH   8  24
TORSDOF 5
ENDMDL
MODEL 5
REMARK VINA RESULT:    -6.042      2.255      3.079
REMARK INTER + INTRA:          -7.410
REMARK INTER:                  -7.141
REMARK INTRA:                  -0.269
REMARK UNBOUND:                -0.308
REMARK SMILES O=c1cc(-c2ccc(O)c(O)c2)oc2cc(O)cc(O)c12
REMARK SMILES IDX 4 1 3 2 2 3 1 4 21 5 19 6 18 7 16 8 15 9 14 10 13 11 5 12
REMARK SMILES IDX 6 13 7 14 8 15 12 16 10 17 9 18 11 20 20 22 17 24
REMARK H PARENT 9 19 11 21 20 23 17 25
REMARK Flexibility Score: inf
ROOT
ATOM      1  C   UNL     1      17.051  -1.092 -15.395  1.00  0.00     0.138 A 
ATOM      2  C   UNL     1      16.971  -1.959 -14.297  1.00  0.00     0.100 A 
ATOM      3  C   UNL     1      15.867  -1.895 -13.446  1.00  0.00     0.197 A 
ATOM      4  O   UNL     1      15.854  -2.642 -12.433  1.00  0.00    -0.289 OA
ATOM      5  C   UNL     1      14.823  -0.979 -13.716  1.00  0.00     0.107 A 
ATOM      6  C   UNL     1      13.631  -0.854 -12.941  1.00  0.00     0.134 A 
ATOM      7  C   UNL     1      12.720   0.168 -13.236  1.00  0.00     0.093 A 
ATOM      8  C   UNL     1      12.928   1.030 -14.312  1.00  0.00     0.123 A 
ATOM      9  C   UNL     1      14.063   0.882 -15.111  1.00  0.00     0.094 A 
ATOM     10  C   UNL     1      15.007  -0.105 -14.821  1.00  0.00     0.146 A 
ATOM     11  O   UNL     1      16.083  -0.204 -15.596  1.00  0.00    -0.456 OA
ENDROOT
BRANCH   1  12
ATOM     12  C   UNL     1      18.202  -1.118 -16.333  1.00  0.00     0.021 A 
ATOM     13  C   UNL     1      18.340  -2.125 -17.305  1.00  0.00     0.016 A 
ATOM     14  C   UNL     1      19.429  -2.119 -18.180  1.00  0.00     0.051 A 
ATOM     15  C   UNL     1      20.395  -1.109 -18.113  1.00  0.00     0.157 A 
ATOM     16  C   UNL     1      19.165  -0.096 -16.276  1.00  0.00     0.062 A 
ATOM     17  C   UNL     1      20.260  -0.084 -17.149  1.00  0.00     0.158 A 
BRANCH  15  18
ATOM     18  O   UNL     1      21.459  -1.164 -19.016  1.00  0.00    -0.504 OA
ATOM     19  H   UNL     1      21.369  -1.462 -19.977  1.00  0.00     0.293 HD
ENDBRANCH  15  18
BRANCH  17  20
ATOM     20  O   UNL     1      21.181   0.959 -17.024  1.00  0.00    -0.504 OA
ATOM     21  H   UNL     1      20.933   1.938 -17.056  1.00  0.00     0.293 HD
ENDBRANCH  17  20
ENDBRANCH   1  12
BRANCH   6  22
ATOM     22  O   UNL     1      13.285  -1.715 -11.895  1.00  0.00    -0.507 OA
ATOM     23  H   UNL     1      13.939  -2.126 -11.246  1.00  0.00     0.293 HD
ENDBRANCH   6  22
BRANCH   8  24
ATOM     24  O   UNL     1      11.992   2.025 -14.586  1.00  0.00    -0.508 OA
ATOM     25  H   UNL     1      11.696   2.684 -13.874  1.00  0.00     0.293 HD
ENDBRANCH   8  24
TORSDOF 5
ENDMDL
MODEL 6
REMARK VINA RESULT:    -5.998      2.312      3.123
REMARK INTER + INTRA:          -7.359
REMARK INTER:                  -7.084
REMARK INTRA:                  -0.275
REMARK UNBOUND:                -0.308
REMARK SMILES O=c1cc(-c2ccc(O)c(O)c2)oc2cc(O)cc(O)c12
REMARK SMILES IDX 4 1 3 2 2 3 1 4 21 5 19 6 18 7 16 8 15 9 14 10 13 11 5 12
REMARK SMILES IDX 6 13 7 14 8 15 12 16 10 17 9 18 11 20 20 22 17 24
REMARK H PARENT 9 19 11 21 20 23 17 25
REMARK Flexibility Score: inf
ROOT
ATOM      1  C   UNL     1      17.711  -2.906 -14.236  1.00  0.00     0.138 A 
ATOM      2  C   UNL     1      18.554  -2.763 -13.126  1.00  0.00     0.100 A 
ATOM      3  C   UNL     1      18.092  -3.119 -11.858  1.00  0.00     0.197 A 
ATOM      4  O   UNL     1      18.849  -2.920 -10.872  1.00  0.00    -0.289 OA
ATOM      5  C   UNL     1      16.790  -3.652 -11.708  1.00  0.00     0.107 A 
ATOM      6  C   UNL     1      16.228  -4.088 -10.471  1.00  0.00     0.134 A 
ATOM      7  C   UNL     1      14.887  -4.490 -10.426  1.00  0.00     0.093 A 
ATOM      8  C   UNL     1      14.107  -4.529 -11.581  1.00  0.00     0.123 A 
ATOM      9  C   UNL     1      14.662  -4.156 -12.806  1.00  0.00     0.094 A 
ATOM     10  C   UNL     1      15.986  -3.719 -12.878  1.00  0.00     0.146 A 
ATOM     11  O   UNL     1      16.474  -3.358 -14.061  1.00  0.00    -0.456 OA
ENDROOT
BRANCH   1  12
ATOM     12  C   UNL     1      18.152  -2.543 -15.607  1.00  0.00     0.021 A 
ATOM     13  C   UNL     1      18.525  -1.228 -15.939  1.00  0.00     0.016 A 
ATOM     14  C   UNL     1      18.944  -0.918 -17.235  1.00  0.00     0.051 A 
ATOM     15  C   UNL     1      19.012  -1.907 -18.221  1.00  0.00     0.157 A 
ATOM     16  C   UNL     1      18.234  -3.540 -16.595  1.00  0.00     0.062 A 
ATOM     17  C   UNL     1      18.654  -3.236 -17.896  1.00  0.00     0.158 A 
BRANCH  15  18
ATOM     18  O   UNL     1      19.438  -1.529 -19.496  1.00  0.00    -0.504 OA
ATOM     19  H   UNL     1      20.404  -1.371 -19.745  1.00  0.00     0.293 HD
ENDBRANCH  15  18
BRANCH  17  20
ATOM     20  O   UNL     1      18.699  -4.278 -18.825  1.00  0.00    -0.504 OA
ATOM     21  H   UNL     1      19.483  -4.905 -18.932  1.00  0.00     0.293 HD
ENDBRANCH  17  20
ENDBRANCH   1  12
BRANCH   6  22
ATOM     22  O   UNL     1      16.944  -4.169  -9.272  1.00  0.00    -0.507 OA
ATOM     23  H   UNL     1      17.846  -3.749  -9.111  1.00  0.00     0.293 HD
ENDBRANCH   6  22
BRANCH   8  24
ATOM     24  O   UNL     1      12.781  -4.949 -11.501  1.00  0.00    -0.508 OA
ATOM     25  H   UNL     1      12.513  -5.902 -11.718  1.00  0.00     0.293 HD
ENDBRANCH   8  24
TORSDOF 5
ENDMDL
MODEL 7
REMARK VINA RESULT:    -5.994     10.724     13.047
REMARK INTER + INTRA:          -7.354
REMARK INTER:                  -7.062
REMARK INTRA:                  -0.292
REMARK UNBOUND:                -0.308
REMARK SMILES O=c1cc(-c2ccc(O)c(O)c2)oc2cc(O)cc(O)c12
REMARK SMILES IDX 4 1 3 2 2 3 1 4 21 5 19 6 18 7 16 8 15 9 14 10 13 11 5 12
REMARK SMILES IDX 6 13 7 14 8 15 12 16 10 17 9 18 11 20 20 22 17 24
REMARK H PARENT 9 19 11 21 20 23 17 25
REMARK Flexibility Score: inf
ROOT
ATOM      1  C   UNL     1       8.390   3.329 -16.708  1.00  0.00     0.138 A 
ATOM      2  C   UNL     1       8.816   4.589 -16.266  1.00  0.00     0.100 A 
ATOM      3  C   UNL     1       9.604   5.384 -17.100  1.00  0.00     0.197 A 
ATOM      4  O   UNL     1      10.023   6.482 -16.651  1.00  0.00    -0.289 OA
ATOM      5  C   UNL     1       9.938   4.926 -18.396  1.00  0.00     0.107 A 
ATOM      6  C   UNL     1      10.701   5.668 -19.348  1.00  0.00     0.134 A 
ATOM      7  C   UNL     1      11.068   5.066 -20.557  1.00  0.00     0.093 A 
ATOM      8  C   UNL     1      10.652   3.774 -20.875  1.00  0.00     0.123 A 
ATOM      9  C   UNL     1       9.860   3.059 -19.975  1.00  0.00     0.094 A 
ATOM     10  C   UNL     1       9.506   3.619 -18.746  1.00  0.00     0.146 A 
ATOM     11  O   UNL     1       8.763   2.900 -17.909  1.00  0.00    -0.456 OA
ENDROOT
BRANCH   1  12
ATOM     12  C   UNL     1       7.550   2.444 -15.862  1.00  0.00     0.021 A 
ATOM     13  C   UNL     1       6.847   1.354 -16.405  1.00  0.00     0.016 A 
ATOM     14  C   UNL     1       6.072   0.532 -15.583  1.00  0.00     0.051 A 
ATOM     15  C   UNL     1       5.989   0.770 -14.207  1.00  0.00     0.157 A 
ATOM     16  C   UNL     1       7.477   2.675 -14.478  1.00  0.00     0.062 A 
ATOM     17  C   UNL     1       6.702   1.855 -13.647  1.00  0.00     0.158 A 
BRANCH  15  18
ATOM     18  O   UNL     1       5.195  -0.087 -13.443  1.00  0.00    -0.504 OA
ATOM     19  H   UNL     1       4.892   0.113 -12.501  1.00  0.00     0.293 HD
ENDBRANCH  15  18
BRANCH  17  20
ATOM     20  O   UNL     1       6.671   2.154 -12.283  1.00  0.00    -0.504 OA
ATOM     21  H   UNL     1       7.146   2.943 -11.867  1.00  0.00     0.293 HD
ENDBRANCH  17  20
ENDBRANCH   1  12
BRANCH   6  22
ATOM     22  O   UNL     1      11.098   6.996 -19.166  1.00  0.00    -0.507 OA
ATOM     23  H   UNL     1      12.010   7.361 -19.394  1.00  0.00     0.293 HD
ENDBRANCH   6  22
BRANCH   8  24
ATOM     24  O   UNL     1      11.024   3.212 -22.095  1.00  0.00    -0.508 OA
ATOM     25  H   UNL     1      11.933   2.784 -22.225  1.00  0.00     0.293 HD
ENDBRANCH   8  24
TORSDOF 5
ENDMDL
MODEL 8
REMARK VINA RESULT:    -5.955      9.294     11.246
REMARK INTER + INTRA:          -7.308
REMARK INTER:                  -7.044
REMARK INTRA:                  -0.264
REMARK UNBOUND:                -0.308
REMARK SMILES O=c1cc(-c2ccc(O)c(O)c2)oc2cc(O)cc(O)c12
REMARK SMILES IDX 4 1 3 2 2 3 1 4 21 5 19 6 18 7 16 8 15 9 14 10 13 11 5 12
REMARK SMILES IDX 6 13 7 14 8 15 12 16 10 17 9 18 11 20 20 22 17 24
REMARK H PARENT 9 19 11 21 20 23 17 25
REMARK Flexibility Score: inf
ROOT
ATOM      1  C   UNL     1      12.088   4.410 -18.170  1.00  0.00     0.138 A 
ATOM      2  C   UNL     1      12.429   3.996 -16.875  1.00  0.00     0.100 A 
ATOM      3  C   UNL     1      13.562   4.524 -16.256  1.00  0.00     0.197 A 
ATOM      4  O   UNL     1      13.877   4.086 -15.119  1.00  0.00    -0.289 OA
ATOM      5  C   UNL     1      14.340   5.497 -16.927  1.00  0.00     0.107 A 
ATOM      6  C   UNL     1      15.493   6.136 -16.378  1.00  0.00     0.134 A 
ATOM      7  C   UNL     1      16.251   6.999 -17.180  1.00  0.00     0.093 A 
ATOM      8  C   UNL     1      15.866   7.292 -18.487  1.00  0.00     0.123 A 
ATOM      9  C   UNL     1      14.710   6.716 -19.016  1.00  0.00     0.094 A 
ATOM     10  C   UNL     1      13.952   5.825 -18.254  1.00  0.00     0.146 A 
ATOM     11  O   UNL     1      12.866   5.285 -18.799  1.00  0.00    -0.456 OA
ENDROOT
BRANCH   1  12
ATOM     12  C   UNL     1      10.893   3.881 -18.874  1.00  0.00     0.021 A 
ATOM     13  C   UNL     1      11.006   3.120 -20.051  1.00  0.00     0.016 A 
ATOM     14  C   UNL     1       9.864   2.627 -20.686  1.00  0.00     0.051 A 
ATOM     15  C   UNL     1       8.591   2.871 -20.161  1.00  0.00     0.157 A 
ATOM     16  C   UNL     1       9.615   4.114 -18.338  1.00  0.00     0.062 A 
ATOM     17  C   UNL     1       8.465   3.623 -18.970  1.00  0.00     0.158 A 
BRANCH  15  18
ATOM     18  O   UNL     1       7.491   2.351 -20.847  1.00  0.00    -0.504 OA
ATOM     19  H   UNL     1       6.883   1.634 -20.478  1.00  0.00     0.293 HD
ENDBRANCH  15  18
BRANCH  17  20
ATOM     20  O   UNL     1       7.229   3.904 -18.383  1.00  0.00    -0.504 OA
ATOM     21  H   UNL     1       6.965   4.813 -18.029  1.00  0.00     0.293 HD
ENDBRANCH  17  20
ENDBRANCH   1  12
BRANCH   6  22
ATOM     22  O   UNL     1      15.918   5.978 -15.056  1.00  0.00    -0.507 OA
ATOM     23  H   UNL     1      15.427   6.327 -14.247  1.00  0.00     0.293 HD
ENDBRANCH   6  22
BRANCH   8  24
ATOM     24  O   UNL     1      16.636   8.167 -19.250  1.00  0.00    -0.508 OA
ATOM     25  H   UNL     1      16.234   8.701 -20.012  1.00  0.00     0.293 HD
ENDBRANCH   8  24
TORSDOF 5
ENDMDL
MODEL 9
REMARK VINA RESULT:    -5.941      2.463      7.120
REMARK INTER + INTRA:          -7.292
REMARK INTER:                  -7.013
REMARK INTRA:                  -0.279
REMARK UNBOUND:                -0.308
REMARK SMILES O=c1cc(-c2ccc(O)c(O)c2)oc2cc(O)cc(O)c12
REMARK SMILES IDX 4 1 3 2 2 3 1 4 21 5 19 6 18 7 16 8 15 9 14 10 13 11 5 12
REMARK SMILES IDX 6 13 7 14 8 15 12 16 10 17 9 18 11 20 20 22 17 24
REMARK H PARENT 9 19 11 21 20 23 17 25
REMARK Flexibility Score: inf
ROOT
ATOM      1  C   UNL     1      17.617  -4.292 -16.015  1.00  0.00     0.138 A 
ATOM      2  C   UNL     1      17.768  -3.220 -15.126  1.00  0.00     0.100 A 
ATOM      3  C   UNL     1      18.404  -2.053 -15.551  1.00  0.00     0.197 A 
ATOM      4  O   UNL     1      18.580  -1.132 -14.712  1.00  0.00    -0.289 OA
ATOM      5  C   UNL     1      18.863  -1.950 -16.885  1.00  0.00     0.107 A 
ATOM      6  C   UNL     1      19.489  -0.794 -17.442  1.00  0.00     0.134 A 
ATOM      7  C   UNL     1      20.007  -0.849 -18.742  1.00  0.00     0.093 A 
ATOM      8  C   UNL     1      19.869  -1.994 -19.526  1.00  0.00     0.123 A 
ATOM      9  C   UNL     1      19.211  -3.112 -19.010  1.00  0.00     0.094 A 
ATOM     10  C   UNL     1      18.713  -3.100 -17.706  1.00  0.00     0.146 A 
ATOM     11  O   UNL     1      18.105  -4.190 -17.247  1.00  0.00    -0.456 OA
ENDROOT
BRANCH   1  12
ATOM     12  C   UNL     1      16.947  -5.555 -15.614  1.00  0.00     0.021 A 
ATOM     13  C   UNL     1      17.412  -6.327 -14.535  1.00  0.00     0.016 A 
ATOM     14  C   UNL     1      16.756  -7.506 -14.175  1.00  0.00     0.051 A 
ATOM     15  C   UNL     1      15.622  -7.936 -14.872  1.00  0.00     0.157 A 
ATOM     16  C   UNL     1      15.800  -5.980 -16.306  1.00  0.00     0.062 A 
ATOM     17  C   UNL     1      15.137  -7.161 -15.950  1.00  0.00     0.158 A 
BRANCH  15  18
ATOM     18  O   UNL     1      15.016  -9.125 -14.461  1.00  0.00    -0.504 OA
ATOM     19  H   UNL     1      14.617  -9.268 -13.544  1.00  0.00     0.293 HD
ENDBRANCH  15  18
BRANCH  17  20
ATOM     20  O   UNL     1      14.009  -7.523 -16.691  1.00  0.00    -0.504 OA
ATOM     21  H   UNL     1      13.143  -7.843 -16.282  1.00  0.00     0.293 HD
ENDBRANCH  17  20
ENDBRANCH   1  12
BRANCH   6  22
ATOM     22  O   UNL     1      19.605   0.430 -16.776  1.00  0.00    -0.507 OA
ATOM     23  H   UNL     1      20.029   0.554 -15.869  1.00  0.00     0.293 HD
ENDBRANCH   6  22
BRANCH   8  24
ATOM     24  O   UNL     1      20.383  -2.007 -20.820  1.00  0.00    -0.508 OA
ATOM     25  H   UNL     1      21.036  -2.721 -21.124  1.00  0.00     0.293 HD
ENDBRANCH   8  24
TORSDOF 5
ENDMDL
