MODEL 1
REMARK VINA RESULT:    -3.334      0.000      0.000
REMARK INTER + INTRA:          -5.789
REMARK INTER:                  -5.283
REMARK INTRA:                  -0.506
REMARK UNBOUND:                -0.506
REMARK SMILES CCCCCCCCCCCC(=O)[O-]
REMARK SMILES IDX 7 1 8 2 9 3 10 4 11 5 12 6 13 7 14 8 6 9 5 10 4 11 3 12 2 13
REMARK SMILES IDX 1 14
REMARK H PARENT
REMARK Flexibility Score: inf
ROOT
ATOM      1  C   UNL     1      12.695  -8.257   6.865  1.00  0.00     0.000 C 
ENDROOT
BRANCH   1   2
ATOM      2  C   UNL     1      12.066  -7.754   5.554  1.00  0.00     0.000 C 
BRANCH   2   3
ATOM      3  C   UNL     1      10.882  -8.595   5.034  1.00  0.00     0.000 C 
BRANCH   3   4
ATOM      4  C   UNL     1       9.503  -8.211   5.606  1.00  0.00     0.006 C 
BRANCH   4   5
ATOM      5  C   UNL     1       8.866  -9.285   6.501  1.00  0.00     0.053 C 
BRANCH   5   6
ATOM      6  C   UNL     1       7.648  -8.775   7.207  1.00  0.00     0.041 C 
ATOM      7  O   UNL     1       7.486  -9.001   8.436  1.00  0.00    -0.550 OA
ATOM      8  O   UNL     1       6.707  -8.021   6.517  1.00  0.00    -0.550 OA
ENDBRANCH   5   6
ENDBRANCH   4   5
ENDBRANCH   3   4
ENDBRANCH   2   3
ENDBRANCH   1   2
BRANCH   1   9
ATOM      9  C   UNL     1      14.230  -8.285   6.819  1.00  0.00     0.000 C 
BRANCH   9  10
ATOM     10  C   UNL     1      14.749  -7.734   5.482  1.00  0.00    -0.000 C 
BRANCH  10  11
ATOM     11  C   UNL     1      15.904  -6.734   5.658  1.00  0.00    -0.000 C 
BRANCH  11  12
ATOM     12  C   UNL     1      16.496  -6.760   7.077  1.00  0.00    -0.000 C 
BRANCH  12  13
ATOM     13  C   UNL     1      17.886  -7.415   7.123  1.00  0.00    -0.003 C 
ATOM     14  C   UNL     1      18.751  -6.890   8.268  1.00  0.00     0.004 C 
ENDBRANCH  12  13
ENDBRANCH  11  12
ENDBRANCH  10  11
ENDBRANCH   9  10
ENDBRANCH   1   9
TORSDOF 10
ENDMDL
MODEL 2
REMARK VINA RESULT:    -3.320      1.622      2.652
REMARK INTER + INTRA:          -5.766
REMARK INTER:                  -4.903
REMARK INTRA:                  -0.863
REMARK UNBOUND:                -0.506
REMARK SMILES CCCCCCCCCCCC(=O)[O-]
REMARK SMILES IDX 7 1 8 2 9 3 10 4 11 5 12 6 13 7 14 8 6 9 5 10 4 11 3 12 2 13
REMARK SMILES IDX 1 14
REMARK H PARENT
REMARK Flexibility Score: inf
ROOT
ATOM      1  C   UNL     1      15.393  -7.686   6.592  1.00  0.00     0.000 C 
ENDROOT
BRANCH   1   2
ATOM      2  C   UNL     1      13.992  -8.228   6.262  1.00  0.00     0.000 C 
BRANCH   2   3
ATOM      3  C   UNL     1      13.396  -7.728   4.929  1.00  0.00     0.000 C 
BRANCH   3   4
ATOM      4  C   UNL     1      11.902  -7.350   4.982  1.00  0.00     0.006 C 
BRANCH   4   5
ATOM      5  C   UNL     1      11.167  -7.837   6.240  1.00  0.00     0.053 C 
BRANCH   5   6
ATOM      6  C   UNL     1       9.985  -8.692   5.904  1.00  0.00     0.041 C 
ATOM      7  O   UNL     1       9.965  -9.354   4.833  1.00  0.00    -0.550 OA
ATOM      8  O   UNL     1       8.918  -8.785   6.789  1.00  0.00    -0.550 OA
ENDBRANCH   5   6
ENDBRANCH   4   5
ENDBRANCH   3   4
ENDBRANCH   2   3
ENDBRANCH   1   2
BRANCH   1   9
ATOM      9  C   UNL     1      15.917  -6.701   5.536  1.00  0.00     0.000 C 
BRANCH   9  10
ATOM     10  C   UNL     1      17.263  -7.174   4.965  1.00  0.00    -0.000 C 
BRANCH  10  11
ATOM     11  C   UNL     1      17.834  -8.388   5.716  1.00  0.00    -0.000 C 
BRANCH  11  12
ATOM     12  C   UNL     1      19.221  -8.109   6.321  1.00  0.00    -0.000 C 
BRANCH  12  13
ATOM     13  C   UNL     1      19.203  -8.110   7.858  1.00  0.00    -0.003 C 
ATOM     14  C   UNL     1      18.707  -6.789   8.446  1.00  0.00     0.004 C 
ENDBRANCH  12  13
ENDBRANCH  11  12
ENDBRANCH  10  11
ENDBRANCH   9  10
ENDBRANCH   1   9
TORSDOF 10
ENDMDL
MODEL 3
REMARK VINA RESULT:    -3.311      4.518      8.265
REMARK INTER + INTRA:          -5.753
REMARK INTER:                  -5.342
REMARK INTRA:                  -0.411
REMARK UNBOUND:                -0.506
REMARK SMILES CCCCCCCCCCCC(=O)[O-]
REMARK SMILES IDX 7 1 8 2 9 3 10 4 11 5 12 6 13 7 14 8 6 9 5 10 4 11 3 12 2 13
REMARK SMILES IDX 1 14
REMARK H PARENT
REMARK Flexibility Score: inf
ROOT
ATOM      1  C   UNL     1      12.763  -7.897   5.695  1.00  0.00     0.000 C 
ENDROOT
BRANCH   1   2
ATOM      2  C   UNL     1      13.702  -8.328   6.835  1.00  0.00     0.000 C 
BRANCH   2   3
ATOM      3  C   UNL     1      15.196  -8.408   6.455  1.00  0.00     0.000 C 
BRANCH   3   4
ATOM      4  C   UNL     1      16.028  -7.158   6.805  1.00  0.00     0.006 C 
BRANCH   4   5
ATOM      5  C   UNL     1      17.455  -7.166   6.236  1.00  0.00     0.053 C 
BRANCH   5   6
ATOM      6  C   UNL     1      18.472  -7.522   7.276  1.00  0.00     0.041 C 
ATOM      7  O   UNL     1      18.652  -6.769   8.269  1.00  0.00    -0.550 OA
ATOM      8  O   UNL     1      19.196  -8.702   7.167  1.00  0.00    -0.550 OA
ENDBRANCH   5   6
ENDBRANCH   4   5
ENDBRANCH   3   4
ENDBRANCH   2   3
ENDBRANCH   1   2
BRANCH   1   9
ATOM      9  C   UNL     1      11.293  -7.806   6.133  1.00  0.00     0.000 C 
BRANCH   9  10
ATOM     10  C   UNL     1      10.352  -8.139   4.965  1.00  0.00    -0.000 C 
BRANCH  10  11
ATOM     11  C   UNL     1       9.089  -8.892   5.416  1.00  0.00    -0.000 C 
BRANCH  11  12
ATOM     12  C   UNL     1       8.995  -9.026   6.945  1.00  0.00    -0.000 C 
BRANCH  12  13
ATOM     13  C   UNL     1       7.547  -8.953   7.454  1.00  0.00    -0.003 C 
ATOM     14  C   UNL     1       6.674  -8.010   6.626  1.00  0.00     0.004 C 
ENDBRANCH  12  13
ENDBRANCH  11  12
ENDBRANCH  10  11
ENDBRANCH   9  10
ENDBRANCH   1   9
TORSDOF 10
ENDMDL
MODEL 4
REMARK VINA RESULT:    -3.311      3.305      4.767
REMARK INTER + INTRA:          -5.752
REMARK INTER:                  -5.198
REMARK INTRA:                  -0.555
REMARK UNBOUND:                -0.506
REMARK SMILES CCCCCCCCCCCC(=O)[O-]
REMARK SMILES IDX 7 1 8 2 9 3 10 4 11 5 12 6 13 7 14 8 6 9 5 10 4 11 3 12 2 13
REMARK SMILES IDX 1 14
REMARK H PARENT
REMARK Flexibility Score: inf
ROOT
ATOM      1  C   UNL     1      16.345  -6.549   4.481  1.00  0.00     0.000 C 
ENDROOT
BRANCH   1   2
ATOM      2  C   UNL     1      16.220  -6.731   6.004  1.00  0.00     0.000 C 
BRANCH   2   3
ATOM      3  C   UNL     1      15.193  -7.791   6.453  1.00  0.00     0.000 C 
BRANCH   3   4
ATOM      4  C   UNL     1      14.031  -8.034   5.469  1.00  0.00     0.006 C 
BRANCH   4   5
ATOM      5  C   UNL     1      12.660  -8.216   6.140  1.00  0.00     0.053 C 
BRANCH   5   6
ATOM      6  C   UNL     1      11.552  -7.634   5.317  1.00  0.00     0.041 C 
ATOM      7  O   UNL     1      11.783  -7.203   4.157  1.00  0.00    -0.550 OA
ATOM      8  O   UNL     1      10.257  -7.598   5.819  1.00  0.00    -0.550 OA
ENDBRANCH   5   6
ENDBRANCH   4   5
ENDBRANCH   3   4
ENDBRANCH   2   3
ENDBRANCH   1   2
BRANCH   1   9
ATOM      9  C   UNL     1      17.802  -6.577   3.993  1.00  0.00     0.000 C 
BRANCH   9  10
ATOM     10  C   UNL     1      18.715  -7.248   5.031  1.00  0.00    -0.000 C 
BRANCH  10  11
ATOM     11  C   UNL     1      20.201  -6.917   4.818  1.00  0.00    -0.000 C 
BRANCH  11  12
ATOM     12  C   UNL     1      20.521  -5.437   5.089  1.00  0.00    -0.000 C 
BRANCH  12  13
ATOM     13  C   UNL     1      21.157  -4.740   3.875  1.00  0.00    -0.003 C 
ATOM     14  C   UNL     1      20.934  -3.228   3.875  1.00  0.00     0.004 C 
ENDBRANCH  12  13
ENDBRANCH  11  12
ENDBRANCH  10  11
ENDBRANCH   9  10
ENDBRANCH   1   9
TORSDOF 10
ENDMDL
MODEL 5
REMARK VINA RESULT:    -3.295      4.436      7.822
REMARK INTER + INTRA:          -5.727
REMARK INTER:                  -5.116
REMARK INTRA:                  -0.612
REMARK UNBOUND:                -0.506
REMARK SMILES CCCCCCCCCCCC(=O)[O-]
REMARK SMILES IDX 7 1 8 2 9 3 10 4 11 5 12 6 13 7 14 8 6 9 5 10 4 11 3 12 2 13
REMARK SMILES IDX 1 14
REMARK H PARENT
REMARK Flexibility Score: inf
ROOT
ATOM      1  C   UNL     1      12.634  -8.228   6.349  1.00  0.00     0.000 C 
ENDROOT
BRANCH   1   2
ATOM      2  C   UNL     1      14.158  -8.381   6.491  1.00  0.00     0.000 C 
BRANCH   2   3
ATOM      3  C   UNL     1      14.981  -7.854   5.297  1.00  0.00     0.000 C 
BRANCH   3   4
ATOM      4  C   UNL     1      16.044  -6.795   5.651  1.00  0.00     0.006 C 
BRANCH   4   5
ATOM      5  C   UNL     1      16.488  -6.809   7.122  1.00  0.00     0.053 C 
BRANCH   5   6
ATOM      6  C   UNL     1      17.954  -7.081   7.262  1.00  0.00     0.041 C 
ATOM      7  O   UNL     1      18.523  -6.932   8.375  1.00  0.00    -0.550 OA
ATOM      8  O   UNL     1      18.686  -7.531   6.170  1.00  0.00    -0.550 OA
ENDBRANCH   5   6
ENDBRANCH   4   5
ENDBRANCH   3   4
ENDBRANCH   2   3
ENDBRANCH   1   2
BRANCH   1   9
ATOM      9  C   UNL     1      12.221  -7.548   5.034  1.00  0.00     0.000 C 
BRANCH   9  10
ATOM     10  C   UNL     1      10.709  -7.272   5.011  1.00  0.00    -0.000 C 
BRANCH  10  11
ATOM     11  C   UNL     1       9.885  -8.505   4.606  1.00  0.00    -0.000 C 
BRANCH  11  12
ATOM     12  C   UNL     1       8.602  -8.658   5.440  1.00  0.00    -0.000 C 
BRANCH  12  13
ATOM     13  C   UNL     1       8.894  -8.976   6.915  1.00  0.00    -0.003 C 
ATOM     14  C   UNL     1       7.642  -8.929   7.791  1.00  0.00     0.004 C 
ENDBRANCH  12  13
ENDBRANCH  11  12
ENDBRANCH  10  11
ENDBRANCH   9  10
ENDBRANCH   1   9
TORSDOF 10
ENDMDL
MODEL 6
REMARK VINA RESULT:    -3.242      5.897      9.047
REMARK INTER + INTRA:          -5.643
REMARK INTER:                  -4.930
REMARK INTRA:                  -0.713
REMARK UNBOUND:                -0.506
REMARK SMILES CCCCCCCCCCCC(=O)[O-]
REMARK SMILES IDX 7 1 8 2 9 3 10 4 11 5 12 6 13 7 14 8 6 9 5 10 4 11 3 12 2 13
REMARK SMILES IDX 1 14
REMARK H PARENT
REMARK Flexibility Score: inf
ROOT
ATOM      1  C   UNL     1      16.681  -7.039   7.534  1.00  0.00     0.000 C 
ENDROOT
BRANCH   1   2
ATOM      2  C   UNL     1      18.213  -6.905   7.586  1.00  0.00     0.000 C 
BRANCH   2   3
ATOM      3  C   UNL     1      18.993  -8.126   7.055  1.00  0.00     0.000 C 
BRANCH   3   4
ATOM      4  C   UNL     1      19.969  -7.827   5.899  1.00  0.00     0.006 C 
BRANCH   4   5
ATOM      5  C   UNL     1      19.703  -6.499   5.172  1.00  0.00     0.053 C 
BRANCH   5   6
ATOM      6  C   UNL     1      20.974  -5.792   4.815  1.00  0.00     0.041 C 
ATOM      7  O   UNL     1      22.053  -6.434   4.725  1.00  0.00    -0.550 OA
ATOM      8  O   UNL     1      20.961  -4.428   4.547  1.00  0.00    -0.550 OA
ENDBRANCH   5   6
ENDBRANCH   4   5
ENDBRANCH   3   4
ENDBRANCH   2   3
ENDBRANCH   1   2
BRANCH   1   9
ATOM      9  C   UNL     1      16.095  -6.672   6.162  1.00  0.00     0.000 C 
BRANCH   9  10
ATOM     10  C   UNL     1      15.106  -7.746   5.683  1.00  0.00    -0.000 C 
BRANCH  10  11
ATOM     11  C   UNL     1      14.261  -8.330   6.828  1.00  0.00    -0.000 C 
BRANCH  11  12
ATOM     12  C   UNL     1      12.751  -8.160   6.592  1.00  0.00    -0.000 C 
BRANCH  12  13
ATOM     13  C   UNL     1      12.402  -7.997   5.105  1.00  0.00    -0.003 C 
ATOM     14  C   UNL     1      11.125  -7.187   4.880  1.00  0.00     0.004 C 
ENDBRANCH  12  13
ENDBRANCH  11  12
ENDBRANCH  10  11
ENDBRANCH   9  10
ENDBRANCH   1   9
TORSDOF 10
ENDMDL
MODEL 7
REMARK VINA RESULT:    -3.174      2.055      3.307
REMARK INTER + INTRA:          -5.536
REMARK INTER:                  -4.827
REMARK INTRA:                  -0.708
REMARK UNBOUND:                -0.506
REMARK SMILES CCCCCCCCCCCC(=O)[O-]
REMARK SMILES IDX 7 1 8 2 9 3 10 4 11 5 12 6 13 7 14 8 6 9 5 10 4 11 3 12 2 13
REMARK SMILES IDX 1 14
REMARK H PARENT
REMARK Flexibility Score: inf
ROOT
ATOM      1  C   UNL     1      10.654  -8.240   6.028  1.00  0.00     0.000 C 
ENDROOT
BRANCH   1   2
ATOM      2  C   UNL     1       9.311  -8.987   5.947  1.00  0.00     0.000 C 
BRANCH   2   3
ATOM      3  C   UNL     1       8.507  -9.028   7.263  1.00  0.00     0.000 C 
BRANCH   3   4
ATOM      4  C   UNL     1       7.020  -8.641   7.135  1.00  0.00     0.006 C 
BRANCH   4   5
ATOM      5  C   UNL     1       6.621  -8.105   5.751  1.00  0.00     0.053 C 
BRANCH   5   6
ATOM      6  C   UNL     1       5.908  -6.792   5.844  1.00  0.00     0.041 C 
ATOM      7  O   UNL     1       5.962  -6.114   6.904  1.00  0.00    -0.550 OA
ATOM      8  O   UNL     1       5.210  -6.299   4.748  1.00  0.00    -0.550 OA
ENDBRANCH   5   6
ENDBRANCH   4   5
ENDBRANCH   3   4
ENDBRANCH   2   3
ENDBRANCH   1   2
BRANCH   1   9
ATOM      9  C   UNL     1      10.764  -7.095   5.009  1.00  0.00     0.000 C 
BRANCH   9  10
ATOM     10  C   UNL     1      11.956  -7.315   4.065  1.00  0.00    -0.000 C 
BRANCH  10  11
ATOM     11  C   UNL     1      13.036  -8.226   4.672  1.00  0.00    -0.000 C 
BRANCH  11  12
ATOM     12  C   UNL     1      14.389  -7.512   4.831  1.00  0.00    -0.000 C 
BRANCH  12  13
ATOM     13  C   UNL     1      15.064  -7.824   6.176  1.00  0.00    -0.003 C 
ATOM     14  C   UNL     1      14.100  -8.428   7.197  1.00  0.00     0.004 C 
ENDBRANCH  12  13
ENDBRANCH  11  12
ENDBRANCH  10  11
ENDBRANCH   9  10
ENDBRANCH   1   9
TORSDOF 10
ENDMDL
MODEL 8
REMARK VINA RESULT:    -3.167      4.572      8.058
REMARK INTER + INTRA:          -5.525
REMARK INTER:                  -4.866
REMARK INTRA:                  -0.658
REMARK UNBOUND:                -0.506
REMARK SMILES CCCCCCCCCCCC(=O)[O-]
REMARK SMILES IDX 7 1 8 2 9 3 10 4 11 5 12 6 13 7 14 8 6 9 5 10 4 11 3 12 2 13
REMARK SMILES IDX 1 14
REMARK H PARENT
REMARK Flexibility Score: inf
ROOT
ATOM      1  C   UNL     1      15.263  -7.871   6.878  1.00  0.00     0.000 C 
ENDROOT
BRANCH   1   2
ATOM      2  C   UNL     1      15.889  -6.982   5.789  1.00  0.00     0.000 C 
BRANCH   2   3
ATOM      3  C   UNL     1      17.108  -7.595   5.067  1.00  0.00     0.000 C 
BRANCH   3   4
ATOM      4  C   UNL     1      18.477  -7.037   5.505  1.00  0.00     0.006 C 
BRANCH   4   5
ATOM      5  C   UNL     1      19.376  -8.055   6.224  1.00  0.00     0.053 C 
BRANCH   5   6
ATOM      6  C   UNL     1      19.201  -8.006   7.710  1.00  0.00     0.041 C 
ATOM      7  O   UNL     1      19.656  -8.931   8.433  1.00  0.00    -0.550 OA
ATOM      8  O   UNL     1      18.564  -6.922   8.301  1.00  0.00    -0.550 OA
ENDBRANCH   5   6
ENDBRANCH   4   5
ENDBRANCH   3   4
ENDBRANCH   2   3
ENDBRANCH   1   2
BRANCH   1   9
ATOM      9  C   UNL     1      13.800  -8.236   6.583  1.00  0.00     0.000 C 
BRANCH   9  10
ATOM     10  C   UNL     1      13.408  -7.823   5.156  1.00  0.00    -0.000 C 
BRANCH  10  11
ATOM     11  C   UNL     1      11.917  -7.474   5.026  1.00  0.00    -0.000 C 
BRANCH  11  12
ATOM     12  C   UNL     1      11.111  -7.847   6.282  1.00  0.00    -0.000 C 
BRANCH  12  13
ATOM     13  C   UNL     1       9.825  -8.619   5.949  1.00  0.00    -0.003 C 
ATOM     14  C   UNL     1       8.962  -7.910   4.904  1.00  0.00     0.004 C 
ENDBRANCH  12  13
ENDBRANCH  11  12
ENDBRANCH  10  11
ENDBRANCH   9  10
ENDBRANCH   1   9
TORSDOF 10
ENDMDL
MODEL 9
REMARK VINA RESULT:    -3.164      3.831      7.630
REMARK INTER + INTRA:          -5.520
REMARK INTER:                  -4.920
REMARK INTRA:                  -0.600
REMARK UNBOUND:                -0.506
REMARK SMILES CCCCCCCCCCCC(=O)[O-]
REMARK SMILES IDX 7 1 8 2 9 3 10 4 11 5 12 6 13 7 14 8 6 9 5 10 4 11 3 12 2 13
REMARK SMILES IDX 1 14
REMARK H PARENT
REMARK Flexibility Score: inf
ROOT
ATOM      1  C   UNL     1      10.391  -8.340   5.867  1.00  0.00     0.000 C 
ENDROOT
BRANCH   1   2
ATOM      2  C   UNL     1      11.838  -7.913   6.167  1.00  0.00     0.000 C 
BRANCH   2   3
ATOM      3  C   UNL     1      12.698  -7.604   4.924  1.00  0.00     0.000 C 
BRANCH   3   4
ATOM      4  C   UNL     1      14.107  -8.231   4.930  1.00  0.00     0.006 C 
BRANCH   4   5
ATOM      5  C   UNL     1      14.811  -8.197   6.296  1.00  0.00     0.053 C 
BRANCH   5   6
ATOM      6  C   UNL     1      15.819  -7.093   6.379  1.00  0.00     0.041 C 
ATOM      7  O   UNL     1      16.277  -6.736   7.496  1.00  0.00    -0.550 OA
ATOM      8  O   UNL     1      16.278  -6.480   5.220  1.00  0.00    -0.550 OA
ENDBRANCH   5   6
ENDBRANCH   4   5
ENDBRANCH   3   4
ENDBRANCH   2   3
ENDBRANCH   1   2
BRANCH   1   9
ATOM      9  C   UNL     1       9.810  -7.652   4.622  1.00  0.00     0.000 C 
BRANCH   9  10
ATOM     10  C   UNL     1       8.283  -7.514   4.735  1.00  0.00    -0.000 C 
BRANCH  10  11
ATOM     11  C   UNL     1       7.591  -8.839   5.094  1.00  0.00    -0.000 C 
BRANCH  11  12
ATOM     12  C   UNL     1       6.598  -8.690   6.258  1.00  0.00    -0.000 C 
BRANCH  12  13
ATOM     13  C   UNL     1       7.301  -8.572   7.620  1.00  0.00    -0.003 C 
ATOM     14  C   UNL     1       7.335  -9.895   8.386  1.00  0.00     0.004 C 
ENDBRANCH  12  13
ENDBRANCH  11  12
ENDBRANCH  10  11
ENDBRANCH   9  10
ENDBRANCH   1   9
TORSDOF 10
ENDMDL
