MODEL 1
REMARK VINA RESULT:    -3.421      0.000      0.000
REMARK INTER + INTRA:          -8.447
REMARK INTER:                  -6.621
REMARK INTRA:                  -1.826
REMARK UNBOUND:                -1.826
REMARK SMILES CCCCCCCCCCCCCCCCCC(=O)[O-]
REMARK SMILES IDX 10 1 11 2 12 3 13 4 14 5 15 6 16 7 17 8 18 9 19 10 20 11
REMARK SMILES IDX 9 12 8 13 7 14 6 15 5 16 4 17 3 18 2 19 1 20
REMARK H PARENT
REMARK Flexibility Score: inf
ROOT
ATOM      1  C   UNL     1     139.981 151.841 119.704  1.00  0.00     0.000 C 
ENDROOT
BRANCH   1   2
ATOM      2  C   UNL     1     138.802 152.813 119.884  1.00  0.00     0.000 C 
BRANCH   2   3
ATOM      3  C   UNL     1     138.577 153.216 121.351  1.00  0.00     0.000 C 
BRANCH   3   4
ATOM      4  C   UNL     1     138.669 154.736 121.567  1.00  0.00     0.000 C 
BRANCH   4   5
ATOM      5  C   UNL     1     140.028 155.314 121.144  1.00  0.00     0.000 C 
BRANCH   5   6
ATOM      6  C   UNL     1     141.152 154.794 122.049  1.00  0.00     0.000 C 
BRANCH   6   7
ATOM      7  C   UNL     1     142.522 154.970 121.381  1.00  0.00     0.006 C 
BRANCH   7   8
ATOM      8  C   UNL     1     142.499 154.460 119.937  1.00  0.00     0.053 C 
BRANCH   8   9
ATOM      9  C   UNL     1     143.596 153.466 119.716  1.00  0.00     0.041 C 
ATOM     10  O   UNL     1     144.788 153.853 119.598  1.00  0.00    -0.550 OA
ATOM     11  O   UNL     1     143.296 152.113 119.599  1.00  0.00    -0.550 OA
ENDBRANCH   8   9
ENDBRANCH   7   8
ENDBRANCH   6   7
ENDBRANCH   5   6
ENDBRANCH   4   5
ENDBRANCH   3   4
ENDBRANCH   2   3
ENDBRANCH   1   2
BRANCH   1  12
ATOM     12  C   UNL     1     139.973 150.615 120.642  1.00  0.00     0.000 C 
BRANCH  12  13
ATOM     13  C   UNL     1     139.632 149.274 119.965  1.00  0.00    -0.000 C 
BRANCH  13  14
ATOM     14  C   UNL     1     138.227 149.206 119.337  1.00  0.00    -0.000 C 
BRANCH  14  15
ATOM     15  C   UNL     1     137.102 148.947 120.363  1.00  0.00    -0.000 C 
BRANCH  15  16
ATOM     16  C   UNL     1     137.515 147.937 121.448  1.00  0.00    -0.000 C 
BRANCH  16  17
ATOM     17  C   UNL     1     137.127 146.489 121.077  1.00  0.00    -0.000 C 
BRANCH  17  18
ATOM     18  C   UNL     1     138.269 145.476 121.268  1.00  0.00    -0.000 C 
BRANCH  18  19
ATOM     19  C   UNL     1     139.483 145.769 120.376  1.00  0.00    -0.003 C 
ATOM     20  C   UNL     1     139.411 144.978 119.074  1.00  0.00     0.004 C 
ENDBRANCH  18  19
ENDBRANCH  17  18
ENDBRANCH  16  17
ENDBRANCH  15  16
ENDBRANCH  14  15
ENDBRANCH  13  14
ENDBRANCH  12  13
ENDBRANCH   1  12
TORSDOF 16
ENDMDL
MODEL 2
REMARK VINA RESULT:    -3.376      3.578      8.830
REMARK INTER + INTRA:          -8.360
REMARK INTER:                  -6.928
REMARK INTRA:                  -1.432
REMARK UNBOUND:                -1.826
REMARK SMILES CCCCCCCCCCCCCCCCCC(=O)[O-]
REMARK SMILES IDX 10 1 11 2 12 3 13 4 14 5 15 6 16 7 17 8 18 9 19 10 20 11
REMARK SMILES IDX 9 12 8 13 7 14 6 15 5 16 4 17 3 18 2 19 1 20
REMARK H PARENT
REMARK Flexibility Score: inf
ROOT
ATOM      1  C   UNL     1     141.845 152.174 120.391  1.00  0.00     0.000 C 
ENDROOT
BRANCH   1   2
ATOM      2  C   UNL     1     142.389 150.960 119.619  1.00  0.00     0.000 C 
BRANCH   2   3
ATOM      3  C   UNL     1     141.285 149.978 119.191  1.00  0.00     0.000 C 
BRANCH   3   4
ATOM      4  C   UNL     1     139.948 150.248 119.900  1.00  0.00     0.000 C 
BRANCH   4   5
ATOM      5  C   UNL     1     139.090 148.982 120.051  1.00  0.00     0.000 C 
BRANCH   5   6
ATOM      6  C   UNL     1     139.870 147.735 119.619  1.00  0.00     0.000 C 
BRANCH   6   7
ATOM      7  C   UNL     1     138.934 146.531 119.447  1.00  0.00     0.006 C 
BRANCH   7   8
ATOM      8  C   UNL     1     139.548 145.266 120.054  1.00  0.00     0.053 C 
BRANCH   8   9
ATOM      9  C   UNL     1     138.689 144.749 121.165  1.00  0.00     0.041 C 
ATOM     10  O   UNL     1     138.108 145.551 121.944  1.00  0.00    -0.550 OA
ATOM     11  O   UNL     1     138.563 143.379 121.368  1.00  0.00    -0.550 OA
ENDBRANCH   8   9
ENDBRANCH   7   8
ENDBRANCH   6   7
ENDBRANCH   5   6
ENDBRANCH   4   5
ENDBRANCH   3   4
ENDBRANCH   2   3
ENDBRANCH   1   2
BRANCH   1  12
ATOM     12  C   UNL     1     142.752 153.422 120.382  1.00  0.00     0.000 C 
BRANCH  12  13
ATOM     13  C   UNL     1     142.067 154.727 119.936  1.00  0.00    -0.000 C 
BRANCH  13  14
ATOM     14  C   UNL     1     140.601 154.569 119.492  1.00  0.00    -0.000 C 
BRANCH  14  15
ATOM     15  C   UNL     1     139.607 155.416 120.318  1.00  0.00    -0.000 C 
BRANCH  15  16
ATOM     16  C   UNL     1     140.280 156.112 121.515  1.00  0.00    -0.000 C 
BRANCH  16  17
ATOM     17  C   UNL     1     140.176 157.650 121.431  1.00  0.00    -0.000 C 
BRANCH  17  18
ATOM     18  C   UNL     1     141.481 158.333 120.987  1.00  0.00    -0.000 C 
BRANCH  18  19
ATOM     19  C   UNL     1     141.413 158.880 119.555  1.00  0.00    -0.003 C 
ATOM     20  C   UNL     1     139.978 158.890 119.038  1.00  0.00     0.004 C 
ENDBRANCH  18  19
ENDBRANCH  17  18
ENDBRANCH  16  17
ENDBRANCH  15  16
ENDBRANCH  14  15
ENDBRANCH  13  14
ENDBRANCH  12  13
ENDBRANCH   1  12
TORSDOF 16
ENDMDL
MODEL 3
REMARK VINA RESULT:    -3.318      1.016      1.554
REMARK INTER + INTRA:          -8.247
REMARK INTER:                  -6.785
REMARK INTRA:                  -1.462
REMARK UNBOUND:                -1.826
REMARK SMILES CCCCCCCCCCCCCCCCCC(=O)[O-]
REMARK SMILES IDX 10 1 11 2 12 3 13 4 14 5 15 6 16 7 17 8 18 9 19 10 20 11
REMARK SMILES IDX 9 12 8 13 7 14 6 15 5 16 4 17 3 18 2 19 1 20
REMARK H PARENT
REMARK Flexibility Score: inf
ROOT
ATOM      1  C   UNL     1     139.920 151.625 120.632  1.00  0.00     0.000 C 
ENDROOT
BRANCH   1   2
ATOM      2  C   UNL     1     138.767 152.641 120.569  1.00  0.00     0.000 C 
BRANCH   2   3
ATOM      3  C   UNL     1     138.973 153.714 119.487  1.00  0.00     0.000 C 
BRANCH   3   4
ATOM      4  C   UNL     1     138.930 155.142 120.054  1.00  0.00     0.000 C 
BRANCH   4   5
ATOM      5  C   UNL     1     139.584 155.250 121.441  1.00  0.00     0.000 C 
BRANCH   5   6
ATOM      6  C   UNL     1     141.012 155.797 121.333  1.00  0.00     0.000 C 
BRANCH   6   7
ATOM      7  C   UNL     1     142.031 154.656 121.212  1.00  0.00     0.006 C 
BRANCH   7   8
ATOM      8  C   UNL     1     142.514 154.502 119.767  1.00  0.00     0.053 C 
BRANCH   8   9
ATOM      9  C   UNL     1     143.579 153.454 119.681  1.00  0.00     0.041 C 
ATOM     10  O   UNL     1     144.791 153.786 119.594  1.00  0.00    -0.550 OA
ATOM     11  O   UNL     1     143.229 152.108 119.652  1.00  0.00    -0.550 OA
ENDBRANCH   8   9
ENDBRANCH   7   8
ENDBRANCH   6   7
ENDBRANCH   5   6
ENDBRANCH   4   5
ENDBRANCH   3   4
ENDBRANCH   2   3
ENDBRANCH   1   2
BRANCH   1  12
ATOM     12  C   UNL     1     139.490 150.147 120.758  1.00  0.00     0.000 C 
BRANCH  12  13
ATOM     13  C   UNL     1     139.512 149.345 119.443  1.00  0.00    -0.000 C 
BRANCH  13  14
ATOM     14  C   UNL     1     138.137 148.834 118.975  1.00  0.00    -0.000 C 
BRANCH  14  15
ATOM     15  C   UNL     1     137.844 147.374 119.386  1.00  0.00    -0.000 C 
BRANCH  15  16
ATOM     16  C   UNL     1     139.068 146.457 119.216  1.00  0.00    -0.000 C 
BRANCH  16  17
ATOM     17  C   UNL     1     139.373 145.645 120.493  1.00  0.00    -0.000 C 
BRANCH  17  18
ATOM     18  C   UNL     1     138.300 145.789 121.587  1.00  0.00    -0.000 C 
BRANCH  18  19
ATOM     19  C   UNL     1     138.024 144.477 122.331  1.00  0.00    -0.003 C 
ATOM     20  C   UNL     1     138.384 143.270 121.470  1.00  0.00     0.004 C 
ENDBRANCH  18  19
ENDBRANCH  17  18
ENDBRANCH  16  17
ENDBRANCH  15  16
ENDBRANCH  14  15
ENDBRANCH  13  14
ENDBRANCH  12  13
ENDBRANCH   1  12
TORSDOF 16
ENDMDL
MODEL 4
REMARK VINA RESULT:    -3.243      2.779      7.684
REMARK INTER + INTRA:          -8.101
REMARK INTER:                  -6.101
REMARK INTRA:                  -2.001
REMARK UNBOUND:                -1.826
REMARK SMILES CCCCCCCCCCCCCCCCCC(=O)[O-]
REMARK SMILES IDX 10 1 11 2 12 3 13 4 14 5 15 6 16 7 17 8 18 9 19 10 20 11
REMARK SMILES IDX 9 12 8 13 7 14 6 15 5 16 4 17 3 18 2 19 1 20
REMARK H PARENT
REMARK Flexibility Score: inf
ROOT
ATOM      1  C   UNL     1     139.553 152.014 119.937  1.00  0.00     0.000 C 
ENDROOT
BRANCH   1   2
ATOM      2  C   UNL     1     140.436 150.835 120.380  1.00  0.00     0.000 C 
BRANCH   2   3
ATOM      3  C   UNL     1     139.952 149.484 119.829  1.00  0.00     0.000 C 
BRANCH   3   4
ATOM      4  C   UNL     1     138.641 149.606 119.034  1.00  0.00     0.000 C 
BRANCH   4   5
ATOM      5  C   UNL     1     137.523 148.712 119.592  1.00  0.00     0.000 C 
BRANCH   5   6
ATOM      6  C   UNL     1     137.659 148.545 121.110  1.00  0.00     0.000 C 
BRANCH   6   7
ATOM      7  C   UNL     1     137.315 147.112 121.539  1.00  0.00     0.006 C 
BRANCH   7   8
ATOM      8  C   UNL     1     137.510 146.130 120.381  1.00  0.00     0.053 C 
BRANCH   8   9
ATOM      9  C   UNL     1     138.782 145.362 120.555  1.00  0.00     0.041 C 
ATOM     10  O   UNL     1     139.893 145.915 120.337  1.00  0.00    -0.550 OA
ATOM     11  O   UNL     1     138.741 144.020 120.917  1.00  0.00    -0.550 OA
ENDBRANCH   8   9
ENDBRANCH   7   8
ENDBRANCH   6   7
ENDBRANCH   5   6
ENDBRANCH   4   5
ENDBRANCH   3   4
ENDBRANCH   2   3
ENDBRANCH   1   2
BRANCH   1  12
ATOM     12  C   UNL     1     138.961 152.862 121.083  1.00  0.00     0.000 C 
BRANCH  12  13
ATOM     13  C   UNL     1     138.301 154.183 120.647  1.00  0.00    -0.000 C 
BRANCH  13  14
ATOM     14  C   UNL     1     139.154 155.443 120.889  1.00  0.00    -0.000 C 
BRANCH  14  15
ATOM     15  C   UNL     1     139.844 155.978 119.615  1.00  0.00    -0.000 C 
BRANCH  15  16
ATOM     16  C   UNL     1     141.277 155.441 119.451  1.00  0.00    -0.000 C 
BRANCH  16  17
ATOM     17  C   UNL     1     142.024 155.347 120.799  1.00  0.00    -0.000 C 
BRANCH  17  18
ATOM     18  C   UNL     1     142.520 153.930 121.133  1.00  0.00    -0.000 C 
BRANCH  18  19
ATOM     19  C   UNL     1     143.096 153.195 119.915  1.00  0.00    -0.003 C 
ATOM     20  C   UNL     1     144.458 153.761 119.526  1.00  0.00     0.004 C 
ENDBRANCH  18  19
ENDBRANCH  17  18
ENDBRANCH  16  17
ENDBRANCH  15  16
ENDBRANCH  14  15
ENDBRANCH  13  14
ENDBRANCH  12  13
ENDBRANCH   1  12
TORSDOF 16
ENDMDL
MODEL 5
REMARK VINA RESULT:    -3.213      3.335      8.176
REMARK INTER + INTRA:          -8.045
REMARK INTER:                  -6.027
REMARK INTRA:                  -2.017
REMARK UNBOUND:                -1.826
REMARK SMILES CCCCCCCCCCCCCCCCCC(=O)[O-]
REMARK SMILES IDX 10 1 11 2 12 3 13 4 14 5 15 6 16 7 17 8 18 9 19 10 20 11
REMARK SMILES IDX 9 12 8 13 7 14 6 15 5 16 4 17 3 18 2 19 1 20
REMARK H PARENT
REMARK Flexibility Score: inf
ROOT
ATOM      1  C   UNL     1     137.937 152.088 121.795  1.00  0.00     0.000 C 
ENDROOT
BRANCH   1   2
ATOM      2  C   UNL     1     137.979 151.077 120.636  1.00  0.00     0.000 C 
BRANCH   2   3
ATOM      3  C   UNL     1     139.043 149.984 120.834  1.00  0.00     0.000 C 
BRANCH   3   4
ATOM      4  C   UNL     1     140.139 150.025 119.757  1.00  0.00     0.000 C 
BRANCH   4   5
ATOM      5  C   UNL     1     140.516 148.628 119.239  1.00  0.00     0.000 C 
BRANCH   5   6
ATOM      6  C   UNL     1     139.298 147.696 119.238  1.00  0.00     0.000 C 
BRANCH   6   7
ATOM      7  C   UNL     1     139.637 146.347 119.886  1.00  0.00     0.006 C 
BRANCH   7   8
ATOM      8  C   UNL     1     138.369 145.527 120.142  1.00  0.00     0.053 C 
BRANCH   8   9
ATOM      9  C   UNL     1     137.889 145.730 121.545  1.00  0.00     0.041 C 
ATOM     10  O   UNL     1     137.144 146.706 121.826  1.00  0.00    -0.550 OA
ATOM     11  O   UNL     1     138.301 144.865 122.553  1.00  0.00    -0.550 OA
ENDBRANCH   8   9
ENDBRANCH   7   8
ENDBRANCH   6   7
ENDBRANCH   5   6
ENDBRANCH   4   5
ENDBRANCH   3   4
ENDBRANCH   2   3
ENDBRANCH   1   2
BRANCH   1  12
ATOM     12  C   UNL     1     138.592 153.455 121.502  1.00  0.00     0.000 C 
BRANCH  12  13
ATOM     13  C   UNL     1     138.687 153.830 120.012  1.00  0.00    -0.000 C 
BRANCH  13  14
ATOM     14  C   UNL     1     140.114 153.833 119.435  1.00  0.00    -0.000 C 
BRANCH  14  15
ATOM     15  C   UNL     1     141.197 153.421 120.457  1.00  0.00    -0.000 C 
BRANCH  15  16
ATOM     16  C   UNL     1     142.326 154.460 120.570  1.00  0.00    -0.000 C 
BRANCH  16  17
ATOM     17  C   UNL     1     142.057 155.498 121.682  1.00  0.00    -0.000 C 
BRANCH  17  18
ATOM     18  C   UNL     1     141.626 156.875 121.149  1.00  0.00    -0.000 C 
BRANCH  18  19
ATOM     19  C   UNL     1     140.164 157.211 121.472  1.00  0.00    -0.003 C 
ATOM     20  C   UNL     1     139.360 157.446 120.197  1.00  0.00     0.004 C 
ENDBRANCH  18  19
ENDBRANCH  17  18
ENDBRANCH  16  17
ENDBRANCH  15  16
ENDBRANCH  14  15
ENDBRANCH  13  14
ENDBRANCH  12  13
ENDBRANCH   1  12
TORSDOF 16
ENDMDL
MODEL 6
REMARK VINA RESULT:    -3.203      2.556      3.844
REMARK INTER + INTRA:          -8.025
REMARK INTER:                  -6.458
REMARK INTRA:                  -1.567
REMARK UNBOUND:                -1.826
REMARK SMILES CCCCCCCCCCCCCCCCCC(=O)[O-]
REMARK SMILES IDX 10 1 11 2 12 3 13 4 14 5 15 6 16 7 17 8 18 9 19 10 20 11
REMARK SMILES IDX 9 12 8 13 7 14 6 15 5 16 4 17 3 18 2 19 1 20
REMARK H PARENT
REMARK Flexibility Score: inf
ROOT
ATOM      1  C   UNL     1     141.874 151.740 120.006  1.00  0.00     0.000 C 
ENDROOT
BRANCH   1   2
ATOM      2  C   UNL     1     142.510 152.751 120.976  1.00  0.00     0.000 C 
BRANCH   2   3
ATOM      3  C   UNL     1     142.860 154.089 120.302  1.00  0.00     0.000 C 
BRANCH   3   4
ATOM      4  C   UNL     1     141.751 155.140 120.464  1.00  0.00     0.000 C 
BRANCH   4   5
ATOM      5  C   UNL     1     140.961 155.375 119.167  1.00  0.00     0.000 C 
BRANCH   5   6
ATOM      6  C   UNL     1     139.503 154.925 119.323  1.00  0.00     0.000 C 
BRANCH   6   7
ATOM      7  C   UNL     1     139.124 154.789 120.803  1.00  0.00     0.006 C 
BRANCH   7   8
ATOM      8  C   UNL     1     137.692 154.267 120.958  1.00  0.00     0.053 C 
BRANCH   8   9
ATOM      9  C   UNL     1     137.544 153.525 122.249  1.00  0.00     0.041 C 
ATOM     10  O   UNL     1     137.742 152.282 122.293  1.00  0.00    -0.550 OA
ATOM     11  O   UNL     1     137.144 154.200 123.398  1.00  0.00    -0.550 OA
ENDBRANCH   8   9
ENDBRANCH   7   8
ENDBRANCH   6   7
ENDBRANCH   5   6
ENDBRANCH   4   5
ENDBRANCH   3   4
ENDBRANCH   2   3
ENDBRANCH   1   2
BRANCH   1  12
ATOM     12  C   UNL     1     140.401 151.384 120.297  1.00  0.00     0.000 C 
BRANCH  12  13
ATOM     13  C   UNL     1     139.781 150.335 119.354  1.00  0.00    -0.000 C 
BRANCH  13  14
ATOM     14  C   UNL     1     140.568 149.016 119.250  1.00  0.00    -0.000 C 
BRANCH  14  15
ATOM     15  C   UNL     1     139.693 147.755 119.431  1.00  0.00    -0.000 C 
BRANCH  15  16
ATOM     16  C   UNL     1     138.317 148.077 120.041  1.00  0.00    -0.000 C 
BRANCH  16  17
ATOM     17  C   UNL     1     137.826 146.964 120.992  1.00  0.00    -0.000 C 
BRANCH  17  18
ATOM     18  C   UNL     1     138.717 145.710 120.988  1.00  0.00    -0.000 C 
BRANCH  18  19
ATOM     19  C   UNL     1     138.289 144.669 122.030  1.00  0.00    -0.003 C 
ATOM     20  C   UNL     1     138.372 143.256 121.461  1.00  0.00     0.004 C 
ENDBRANCH  18  19
ENDBRANCH  17  18
ENDBRANCH  16  17
ENDBRANCH  15  16
ENDBRANCH  14  15
ENDBRANCH  13  14
ENDBRANCH  12  13
ENDBRANCH   1  12
TORSDOF 16
ENDMDL
MODEL 7
REMARK VINA RESULT:    -3.200      3.368      7.720
REMARK INTER + INTRA:          -8.019
REMARK INTER:                  -6.216
REMARK INTRA:                  -1.803
REMARK UNBOUND:                -1.826
REMARK SMILES CCCCCCCCCCCCCCCCCC(=O)[O-]
REMARK SMILES IDX 10 1 11 2 12 3 13 4 14 5 15 6 16 7 17 8 18 9 19 10 20 11
REMARK SMILES IDX 9 12 8 13 7 14 6 15 5 16 4 17 3 18 2 19 1 20
REMARK H PARENT
REMARK Flexibility Score: inf
ROOT
ATOM      1  C   UNL     1     138.888 152.590 121.005  1.00  0.00     0.000 C 
ENDROOT
BRANCH   1   2
ATOM      2  C   UNL     1     137.854 151.481 120.744  1.00  0.00     0.000 C 
BRANCH   2   3
ATOM      3  C   UNL     1     138.004 150.286 121.701  1.00  0.00     0.000 C 
BRANCH   3   4
ATOM      4  C   UNL     1     138.235 148.960 120.958  1.00  0.00     0.000 C 
BRANCH   4   5
ATOM      5  C   UNL     1     139.315 149.067 119.871  1.00  0.00     0.000 C 
BRANCH   5   6
ATOM      6  C   UNL     1     139.982 147.709 119.623  1.00  0.00     0.000 C 
BRANCH   6   7
ATOM      7  C   UNL     1     138.933 146.601 119.466  1.00  0.00     0.006 C 
BRANCH   7   8
ATOM      8  C   UNL     1     139.507 145.239 119.868  1.00  0.00     0.053 C 
BRANCH   8   9
ATOM      9  C   UNL     1     138.658 144.606 120.926  1.00  0.00     0.041 C 
ATOM     10  O   UNL     1     138.028 143.544 120.681  1.00  0.00    -0.550 OA
ATOM     11  O   UNL     1     138.530 145.213 122.170  1.00  0.00    -0.550 OA
ENDBRANCH   8   9
ENDBRANCH   7   8
ENDBRANCH   6   7
ENDBRANCH   5   6
ENDBRANCH   4   5
ENDBRANCH   3   4
ENDBRANCH   2   3
ENDBRANCH   1   2
BRANCH   1  12
ATOM     12  C   UNL     1     138.302 153.944 121.459  1.00  0.00     0.000 C 
BRANCH  12  13
ATOM     13  C   UNL     1     138.611 155.135 120.534  1.00  0.00    -0.000 C 
BRANCH  13  14
ATOM     14  C   UNL     1     139.300 154.762 119.208  1.00  0.00    -0.000 C 
BRANCH  14  15
ATOM     15  C   UNL     1     140.703 155.386 119.040  1.00  0.00    -0.000 C 
BRANCH  15  16
ATOM     16  C   UNL     1     141.181 156.109 120.311  1.00  0.00    -0.000 C 
BRANCH  16  17
ATOM     17  C   UNL     1     142.190 155.264 121.119  1.00  0.00    -0.000 C 
BRANCH  17  18
ATOM     18  C   UNL     1     142.765 154.072 120.335  1.00  0.00    -0.000 C 
BRANCH  18  19
ATOM     19  C   UNL     1     142.505 152.724 121.019  1.00  0.00    -0.003 C 
ATOM     20  C   UNL     1     142.195 151.638 119.994  1.00  0.00     0.004 C 
ENDBRANCH  18  19
ENDBRANCH  17  18
ENDBRANCH  16  17
ENDBRANCH  15  16
ENDBRANCH  14  15
ENDBRANCH  13  14
ENDBRANCH  12  13
ENDBRANCH   1  12
TORSDOF 16
ENDMDL
MODEL 8
REMARK VINA RESULT:    -3.166      3.325      8.392
REMARK INTER + INTRA:          -7.953
REMARK INTER:                  -5.955
REMARK INTRA:                  -1.998
REMARK UNBOUND:                -1.826
REMARK SMILES CCCCCCCCCCCCCCCCCC(=O)[O-]
REMARK SMILES IDX 10 1 11 2 12 3 13 4 14 5 15 6 16 7 17 8 18 9 19 10 20 11
REMARK SMILES IDX 9 12 8 13 7 14 6 15 5 16 4 17 3 18 2 19 1 20
REMARK H PARENT
REMARK Flexibility Score: inf
ROOT
ATOM      1  C   UNL     1     142.173 153.979 121.368  1.00  0.00     0.000 C 
ENDROOT
BRANCH   1   2
ATOM      2  C   UNL     1     142.828 153.003 120.376  1.00  0.00     0.000 C 
BRANCH   2   3
ATOM      3  C   UNL     1     142.058 151.677 120.245  1.00  0.00     0.000 C 
BRANCH   3   4
ATOM      4  C   UNL     1     140.544 151.851 120.447  1.00  0.00     0.000 C 
BRANCH   4   5
ATOM      5  C   UNL     1     139.749 150.582 120.101  1.00  0.00     0.000 C 
BRANCH   5   6
ATOM      6  C   UNL     1     140.600 149.610 119.275  1.00  0.00     0.000 C 
BRANCH   6   7
ATOM      7  C   UNL     1     139.941 148.226 119.205  1.00  0.00     0.006 C 
BRANCH   7   8
ATOM      8  C   UNL     1     138.554 148.244 119.855  1.00  0.00     0.053 C 
BRANCH   8   9
ATOM      9  C   UNL     1     138.115 146.852 120.189  1.00  0.00     0.041 C 
ATOM     10  O   UNL     1     137.899 146.018 119.271  1.00  0.00    -0.550 OA
ATOM     11  O   UNL     1     137.904 146.489 121.514  1.00  0.00    -0.550 OA
ENDBRANCH   8   9
ENDBRANCH   7   8
ENDBRANCH   6   7
ENDBRANCH   5   6
ENDBRANCH   4   5
ENDBRANCH   3   4
ENDBRANCH   2   3
ENDBRANCH   1   2
BRANCH   1  12
ATOM     12  C   UNL     1     141.797 155.358 120.784  1.00  0.00     0.000 C 
BRANCH  12  13
ATOM     13  C   UNL     1     141.529 155.377 119.268  1.00  0.00    -0.000 C 
BRANCH  13  14
ATOM     14  C   UNL     1     140.040 155.426 118.875  1.00  0.00    -0.000 C 
BRANCH  14  15
ATOM     15  C   UNL     1     139.089 155.639 120.074  1.00  0.00    -0.000 C 
BRANCH  15  16
ATOM     16  C   UNL     1     138.074 156.769 119.827  1.00  0.00    -0.000 C 
BRANCH  16  17
ATOM     17  C   UNL     1     138.762 158.128 119.574  1.00  0.00    -0.000 C 
BRANCH  17  18
ATOM     18  C   UNL     1     139.417 158.731 120.828  1.00  0.00    -0.000 C 
BRANCH  18  19
ATOM     19  C   UNL     1     140.940 158.864 120.703  1.00  0.00    -0.003 C 
ATOM     20  C   UNL     1     141.353 159.119 119.256  1.00  0.00     0.004 C 
ENDBRANCH  18  19
ENDBRANCH  17  18
ENDBRANCH  16  17
ENDBRANCH  15  16
ENDBRANCH  14  15
ENDBRANCH  13  14
ENDBRANCH  12  13
ENDBRANCH   1  12
TORSDOF 16
ENDMDL
