MODEL 1
REMARK VINA RESULT:    -4.682      0.000      0.000
REMARK INTER + INTRA:          -7.255
REMARK INTER:                  -6.872
REMARK INTRA:                  -0.383
REMARK UNBOUND:                -0.383
REMARK SMILES O=c1c(O[C@@H]2O[C@H](CO)[C@@H](O)[C@@H](O)[C@H]2O)c(-c2ccc(O)c(O)c2)oc2cc(O)cc(O)c12
REMARK SMILES IDX 4 1 3 2 16 3 25 4 2 5 26 6 1 7 33 8 27 9 31 10 28 11 30 12
REMARK SMILES IDX 17 13 18 14 19 15 20 16 24 17 22 18 21 19 23 21 32 23 29 25
REMARK SMILES IDX 5 27 14 28 6 29 12 30 7 31 10 32 15 33 13 35 8 37 9 38 11 40
REMARK H PARENT 21 20 23 22 32 24 29 26 15 34 13 36 9 39 11 41
REMARK Flexibility Score: inf
ROOT
ATOM      1  O   UNL     1     -21.900  28.689  21.619  1.00  0.00    -0.454 OA
ENDROOT
BRANCH   1   2
ATOM      2  C   UNL     1     -21.727  30.069  21.797  1.00  0.00     0.214 A 
ATOM      3  C   UNL     1     -20.635  30.521  22.553  1.00  0.00     0.180 A 
ATOM      4  O   UNL     1     -20.523  31.810  22.871  1.00  0.00    -0.452 OA
ATOM      5  C   UNL     1     -22.602  31.017  21.246  1.00  0.00     0.239 A 
ATOM      6  C   UNL     1     -21.348  32.742  22.403  1.00  0.00     0.146 A 
ATOM      7  O   UNL     1     -23.538  30.645  20.491  1.00  0.00    -0.285 OA
ATOM      8  C   UNL     1     -22.397  32.387  21.516  1.00  0.00     0.111 A 
ATOM      9  C   UNL     1     -21.137  34.086  22.745  1.00  0.00     0.094 A 
ATOM     10  C   UNL     1     -23.161  33.416  20.910  1.00  0.00     0.134 A 
ATOM     11  C   UNL     1     -21.929  35.094  22.172  1.00  0.00     0.123 A 
ATOM     12  C   UNL     1     -22.926  34.754  21.250  1.00  0.00     0.093 A 
BRANCH   3  13
ATOM     13  C   UNL     1     -19.582  29.583  23.002  1.00  0.00     0.025 A 
ATOM     14  C   UNL     1     -18.237  29.984  23.039  1.00  0.00     0.016 A 
ATOM     15  C   UNL     1     -17.245  29.075  23.426  1.00  0.00     0.051 A 
ATOM     16  C   UNL     1     -17.584  27.748  23.740  1.00  0.00     0.157 A 
ATOM     17  C   UNL     1     -19.922  28.260  23.345  1.00  0.00     0.062 A 
ATOM     18  C   UNL     1     -18.928  27.348  23.716  1.00  0.00     0.158 A 
BRANCH  16  19
ATOM     19  O   UNL     1     -16.602  26.825  24.070  1.00  0.00    -0.504 OA
ATOM     20  H   UNL     1     -15.670  27.133  24.342  1.00  0.00     0.293 HD
ENDBRANCH  16  19
BRANCH  18  21
ATOM     21  O   UNL     1     -19.268  26.045  24.075  1.00  0.00    -0.504 OA
ATOM     22  H   UNL     1     -18.555  25.356  24.273  1.00  0.00     0.293 HD
ENDBRANCH  18  21
ENDBRANCH   3  13
BRANCH  10  23
ATOM     23  O   UNL     1     -24.123  33.118  19.937  1.00  0.00    -0.507 OA
ATOM     24  H   UNL     1     -23.979  33.349  18.964  1.00  0.00     0.293 HD
ENDBRANCH  10  23
BRANCH  11  25
ATOM     25  O   UNL     1     -21.722  36.435  22.485  1.00  0.00    -0.508 OA
ATOM     26  H   UNL     1     -21.618  36.753  23.444  1.00  0.00     0.293 HD
ENDBRANCH  11  25
ENDBRANCH   1   2
BRANCH   1  27
ATOM     27  C   UNL     1     -21.851  28.045  20.339  1.00  0.00     0.339 C 
ATOM     28  C   UNL     1     -20.466  27.352  20.179  1.00  0.00     0.214 C 
ATOM     29  O   UNL     1     -22.953  27.143  20.264  1.00  0.00    -0.332 OA
ATOM     30  C   UNL     1     -20.586  25.849  20.498  1.00  0.00     0.180 C 
ATOM     31  C   UNL     1     -22.782  26.201  19.227  1.00  0.00     0.179 C 
ATOM     32  C   UNL     1     -21.686  25.177  19.637  1.00  0.00     0.177 C 
BRANCH  28  33
ATOM     33  O   UNL     1     -19.991  27.548  18.865  1.00  0.00    -0.384 OA
ATOM     34  H   UNL     1     -19.022  27.328  18.870  1.00  0.00     0.211 HD
ENDBRANCH  28  33
BRANCH  30  35
ATOM     35  O   UNL     1     -19.350  25.196  20.317  1.00  0.00    -0.387 OA
ATOM     36  H   UNL     1     -18.923  25.132  21.218  1.00  0.00     0.211 HD
ENDBRANCH  30  35
BRANCH  31  37
ATOM     37  C   UNL     1     -24.122  25.509  18.965  1.00  0.00     0.191 C 
BRANCH  37  38
ATOM     38  O   UNL     1     -23.939  24.404  18.122  1.00  0.00    -0.394 OA
ATOM     39  H   UNL     1     -23.838  23.619  18.712  1.00  0.00     0.210 HD
ENDBRANCH  37  38
ENDBRANCH  31  37
BRANCH  32  40
ATOM     40  O   UNL     1     -21.154  24.534  18.495  1.00  0.00    -0.387 OA
ATOM     41  H   UNL     1     -21.911  24.095  18.019  1.00  0.00     0.211 HD
ENDBRANCH  32  40
ENDBRANCH   1  27
TORSDOF 12
ENDMDL
MODEL 2
REMARK VINA RESULT:    -4.452      3.188      8.345
REMARK INTER + INTRA:          -6.917
REMARK INTER:                  -6.656
REMARK INTRA:                  -0.261
REMARK UNBOUND:                -0.383
REMARK SMILES O=c1c(O[C@@H]2O[C@H](CO)[C@@H](O)[C@@H](O)[C@H]2O)c(-c2ccc(O)c(O)c2)oc2cc(O)cc(O)c12
REMARK SMILES IDX 4 1 3 2 16 3 25 4 2 5 26 6 1 7 33 8 27 9 31 10 28 11 30 12
REMARK SMILES IDX 17 13 18 14 19 15 20 16 24 17 22 18 21 19 23 21 32 23 29 25
REMARK SMILES IDX 5 27 14 28 6 29 12 30 7 31 10 32 15 33 13 35 8 37 9 38 11 40
REMARK H PARENT 21 20 23 22 32 24 29 26 15 34 13 36 9 39 11 41
REMARK Flexibility Score: inf
ROOT
ATOM      1  O   UNL     1     -21.586  25.066  19.936  1.00  0.00    -0.454 OA
ENDROOT
BRANCH   1   2
ATOM      2  C   UNL     1     -20.291  24.659  20.286  1.00  0.00     0.214 A 
ATOM      3  C   UNL     1     -19.554  23.891  19.372  1.00  0.00     0.180 A 
ATOM      4  O   UNL     1     -18.385  23.360  19.727  1.00  0.00    -0.452 OA
ATOM      5  C   UNL     1     -19.701  24.992  21.514  1.00  0.00     0.239 A 
ATOM      6  C   UNL     1     -17.801  23.617  20.894  1.00  0.00     0.146 A 
ATOM      7  O   UNL     1     -20.304  25.754  22.315  1.00  0.00    -0.285 OA
ATOM      8  C   UNL     1     -18.415  24.499  21.820  1.00  0.00     0.111 A 
ATOM      9  C   UNL     1     -16.546  23.057  21.177  1.00  0.00     0.094 A 
ATOM     10  C   UNL     1     -17.700  24.878  22.985  1.00  0.00     0.134 A 
ATOM     11  C   UNL     1     -15.866  23.405  22.355  1.00  0.00     0.123 A 
ATOM     12  C   UNL     1     -16.440  24.322  23.244  1.00  0.00     0.093 A 
BRANCH   3  13
ATOM     13  C   UNL     1     -20.050  23.664  17.997  1.00  0.00     0.025 A 
ATOM     14  C   UNL     1     -19.190  23.805  16.895  1.00  0.00     0.016 A 
ATOM     15  C   UNL     1     -19.681  23.628  15.596  1.00  0.00     0.051 A 
ATOM     16  C   UNL     1     -21.043  23.351  15.385  1.00  0.00     0.157 A 
ATOM     17  C   UNL     1     -21.408  23.359  17.783  1.00  0.00     0.062 A 
ATOM     18  C   UNL     1     -21.901  23.199  16.483  1.00  0.00     0.158 A 
BRANCH  16  19
ATOM     19  O   UNL     1     -21.550  23.231  14.098  1.00  0.00    -0.504 OA
ATOM     20  H   UNL     1     -20.968  23.442  13.290  1.00  0.00     0.293 HD
ENDBRANCH  16  19
BRANCH  18  21
ATOM     21  O   UNL     1     -23.241  22.876  16.274  1.00  0.00    -0.504 OA
ATOM     22  H   UNL     1     -23.509  21.969  15.916  1.00  0.00     0.293 HD
ENDBRANCH  18  21
ENDBRANCH   3  13
BRANCH  10  23
ATOM     23  O   UNL     1     -18.215  25.840  23.863  1.00  0.00    -0.507 OA
ATOM     24  H   UNL     1     -17.809  25.992  24.775  1.00  0.00     0.293 HD
ENDBRANCH  10  23
BRANCH  11  25
ATOM     25  O   UNL     1     -14.611  22.875  22.643  1.00  0.00    -0.508 OA
ATOM     26  H   UNL     1     -13.924  22.697  21.917  1.00  0.00     0.293 HD
ENDBRANCH  11  25
ENDBRANCH   1   2
BRANCH   1  27
ATOM     27  C   UNL     1     -21.922  26.413  19.579  1.00  0.00     0.339 C 
ATOM     28  C   UNL     1     -23.246  26.808  20.297  1.00  0.00     0.214 C 
ATOM     29  O   UNL     1     -20.815  27.243  19.924  1.00  0.00    -0.332 OA
ATOM     30  C   UNL     1     -22.936  27.633  21.561  1.00  0.00     0.180 C 
ATOM     31  C   UNL     1     -21.182  28.606  19.968  1.00  0.00     0.179 C 
ATOM     32  C   UNL     1     -22.054  28.863  21.229  1.00  0.00     0.177 C 
BRANCH  28  33
ATOM     33  O   UNL     1     -24.062  27.541  19.410  1.00  0.00    -0.384 OA
ATOM     34  H   UNL     1     -23.582  28.386  19.203  1.00  0.00     0.211 HD
ENDBRANCH  28  33
BRANCH  30  35
ATOM     35  O   UNL     1     -24.125  28.036  22.202  1.00  0.00    -0.387 OA
ATOM     36  H   UNL     1     -24.445  28.855  21.728  1.00  0.00     0.211 HD
ENDBRANCH  30  35
BRANCH  31  37
ATOM     37  C   UNL     1     -19.911  29.457  19.985  1.00  0.00     0.191 C 
BRANCH  37  38
ATOM     38  O   UNL     1     -19.912  30.304  21.102  1.00  0.00    -0.394 OA
ATOM     39  H   UNL     1     -20.838  30.628  21.203  1.00  0.00     0.210 HD
ENDBRANCH  37  38
ENDBRANCH  31  37
BRANCH  32  40
ATOM     40  O   UNL     1     -22.819  30.043  21.072  1.00  0.00    -0.387 OA
ATOM     41  H   UNL     1     -23.031  30.385  21.983  1.00  0.00     0.211 HD
ENDBRANCH  32  40
ENDBRANCH   1  27
TORSDOF 12
ENDMDL
MODEL 3
REMARK VINA RESULT:    -4.425      3.581      7.788
REMARK INTER + INTRA:          -6.878
REMARK INTER:                  -5.729
REMARK INTRA:                  -1.149
REMARK UNBOUND:                -0.383
REMARK SMILES O=c1c(O[C@@H]2O[C@H](CO)[C@@H](O)[C@@H](O)[C@H]2O)c(-c2ccc(O)c(O)c2)oc2cc(O)cc(O)c12
REMARK SMILES IDX 4 1 3 2 16 3 25 4 2 5 26 6 1 7 33 8 27 9 31 10 28 11 30 12
REMARK SMILES IDX 17 13 18 14 19 15 20 16 24 17 22 18 21 19 23 21 32 23 29 25
REMARK SMILES IDX 5 27 14 28 6 29 12 30 7 31 10 32 15 33 13 35 8 37 9 38 11 40
REMARK H PARENT 21 20 23 22 32 24 29 26 15 34 13 36 9 39 11 41
REMARK Flexibility Score: inf
ROOT
ATOM      1  O   UNL     1     -22.402  24.226  20.386  1.00  0.00    -0.454 OA
ENDROOT
BRANCH   1   2
ATOM      2  C   UNL     1     -21.778  23.935  19.165  1.00  0.00     0.214 A 
ATOM      3  C   UNL     1     -20.383  23.783  19.138  1.00  0.00     0.180 A 
ATOM      4  O   UNL     1     -19.742  23.657  17.977  1.00  0.00    -0.452 OA
ATOM      5  C   UNL     1     -22.494  23.786  17.968  1.00  0.00     0.239 A 
ATOM      6  C   UNL     1     -20.374  23.548  16.813  1.00  0.00     0.146 A 
ATOM      7  O   UNL     1     -23.752  23.829  17.978  1.00  0.00    -0.285 OA
ATOM      8  C   UNL     1     -21.792  23.550  16.767  1.00  0.00     0.111 A 
ATOM      9  C   UNL     1     -19.629  23.371  15.637  1.00  0.00     0.094 A 
ATOM     10  C   UNL     1     -22.440  23.275  15.536  1.00  0.00     0.134 A 
ATOM     11  C   UNL     1     -20.282  23.143  14.414  1.00  0.00     0.123 A 
ATOM     12  C   UNL     1     -21.681  23.084  14.374  1.00  0.00     0.093 A 
BRANCH   3  13
ATOM     13  C   UNL     1     -19.599  23.747  20.393  1.00  0.00     0.025 A 
ATOM     14  C   UNL     1     -19.958  22.875  21.434  1.00  0.00     0.016 A 
ATOM     15  C   UNL     1     -19.233  22.879  22.632  1.00  0.00     0.051 A 
ATOM     16  C   UNL     1     -18.172  23.782  22.815  1.00  0.00     0.157 A 
ATOM     17  C   UNL     1     -18.517  24.630  20.569  1.00  0.00     0.062 A 
ATOM     18  C   UNL     1     -17.805  24.645  21.773  1.00  0.00     0.158 A 
BRANCH  16  19
ATOM     19  O   UNL     1     -17.485  23.833  24.019  1.00  0.00    -0.504 OA
ATOM     20  H   UNL     1     -16.501  23.573  24.067  1.00  0.00     0.293 HD
ENDBRANCH  16  19
BRANCH  18  21
ATOM     21  O   UNL     1     -16.721  25.506  21.938  1.00  0.00    -0.504 OA
ATOM     22  H   UNL     1     -16.312  25.661  22.849  1.00  0.00     0.293 HD
ENDBRANCH  18  21
ENDBRANCH   3  13
BRANCH  10  23
ATOM     23  O   UNL     1     -23.832  23.146  15.470  1.00  0.00    -0.507 OA
ATOM     24  H   UNL     1     -24.331  22.498  16.065  1.00  0.00     0.293 HD
ENDBRANCH  10  23
BRANCH  11  25
ATOM     25  O   UNL     1     -19.560  22.946  13.241  1.00  0.00    -0.508 OA
ATOM     26  H   UNL     1     -19.749  22.165  12.619  1.00  0.00     0.293 HD
ENDBRANCH  11  25
ENDBRANCH   1   2
BRANCH   1  27
ATOM     27  C   UNL     1     -22.767  25.552  20.790  1.00  0.00     0.339 C 
ATOM     28  C   UNL     1     -22.328  25.765  22.269  1.00  0.00     0.214 C 
ATOM     29  O   UNL     1     -22.162  26.466  19.877  1.00  0.00    -0.332 OA
ATOM     30  C   UNL     1     -20.995  26.535  22.319  1.00  0.00     0.180 C 
ATOM     31  C   UNL     1     -22.141  27.779  20.396  1.00  0.00     0.179 C 
ATOM     32  C   UNL     1     -21.082  27.867  21.531  1.00  0.00     0.177 C 
BRANCH  28  33
ATOM     33  O   UNL     1     -23.337  26.467  22.962  1.00  0.00    -0.384 OA
ATOM     34  H   UNL     1     -24.207  26.190  22.569  1.00  0.00     0.211 HD
ENDBRANCH  28  33
BRANCH  30  35
ATOM     35  O   UNL     1     -20.603  26.775  23.652  1.00  0.00    -0.387 OA
ATOM     36  H   UNL     1     -20.341  27.738  23.707  1.00  0.00     0.211 HD
ENDBRANCH  30  35
BRANCH  31  37
ATOM     37  C   UNL     1     -21.822  28.752  19.258  1.00  0.00     0.191 C 
BRANCH  37  38
ATOM     38  O   UNL     1     -23.007  29.286  18.733  1.00  0.00    -0.394 OA
ATOM     39  H   UNL     1     -23.705  29.134  19.414  1.00  0.00     0.210 HD
ENDBRANCH  37  38
ENDBRANCH  31  37
BRANCH  32  40
ATOM     40  O   UNL     1     -21.349  28.971  22.374  1.00  0.00    -0.387 OA
ATOM     41  H   UNL     1     -21.414  29.780  21.796  1.00  0.00     0.211 HD
ENDBRANCH  32  40
ENDBRANCH   1  27
TORSDOF 12
ENDMDL
MODEL 4
REMARK VINA RESULT:    -4.334      2.113      5.369
REMARK INTER + INTRA:          -6.743
REMARK INTER:                  -5.427
REMARK INTRA:                  -1.316
REMARK UNBOUND:                -0.383
REMARK SMILES O=c1c(O[C@@H]2O[C@H](CO)[C@@H](O)[C@@H](O)[C@H]2O)c(-c2ccc(O)c(O)c2)oc2cc(O)cc(O)c12
REMARK SMILES IDX 4 1 3 2 16 3 25 4 2 5 26 6 1 7 33 8 27 9 31 10 28 11 30 12
REMARK SMILES IDX 17 13 18 14 19 15 20 16 24 17 22 18 21 19 23 21 32 23 29 25
REMARK SMILES IDX 5 27 14 28 6 29 12 30 7 31 10 32 15 33 13 35 8 37 9 38 11 40
REMARK H PARENT 21 20 23 22 32 24 29 26 15 34 13 36 9 39 11 41
REMARK Flexibility Score: inf
ROOT
ATOM      1  O   UNL     1     -19.342  27.399  21.177  1.00  0.00    -0.454 OA
ENDROOT
BRANCH   1   2
ATOM      2  C   UNL     1     -20.033  28.540  21.607  1.00  0.00     0.214 A 
ATOM      3  C   UNL     1     -21.427  28.586  21.450  1.00  0.00     0.180 A 
ATOM      4  O   UNL     1     -22.097  29.709  21.705  1.00  0.00    -0.452 OA
ATOM      5  C   UNL     1     -19.386  29.639  22.191  1.00  0.00     0.239 A 
ATOM      6  C   UNL     1     -21.522  30.789  22.226  1.00  0.00     0.146 A 
ATOM      7  O   UNL     1     -18.150  29.589  22.424  1.00  0.00    -0.285 OA
ATOM      8  C   UNL     1     -20.140  30.777  22.547  1.00  0.00     0.111 A 
ATOM      9  C   UNL     1     -22.303  31.918  22.510  1.00  0.00     0.094 A 
ATOM     10  C   UNL     1     -19.587  31.882  23.243  1.00  0.00     0.134 A 
ATOM     11  C   UNL     1     -21.735  33.026  23.161  1.00  0.00     0.123 A 
ATOM     12  C   UNL     1     -20.386  32.995  23.535  1.00  0.00     0.093 A 
BRANCH   3  13
ATOM     13  C   UNL     1     -22.181  27.391  21.012  1.00  0.00     0.025 A 
ATOM     14  C   UNL     1     -22.586  26.421  21.944  1.00  0.00     0.016 A 
ATOM     15  C   UNL     1     -23.264  25.274  21.513  1.00  0.00     0.051 A 
ATOM     16  C   UNL     1     -23.505  25.068  20.143  1.00  0.00     0.157 A 
ATOM     17  C   UNL     1     -22.450  27.194  19.644  1.00  0.00     0.062 A 
ATOM     18  C   UNL     1     -23.112  26.039  19.212  1.00  0.00     0.158 A 
BRANCH  16  19
ATOM     19  O   UNL     1     -24.125  23.907  19.701  1.00  0.00    -0.504 OA
ATOM     20  H   UNL     1     -25.062  23.938  19.304  1.00  0.00     0.293 HD
ENDBRANCH  16  19
BRANCH  18  21
ATOM     21  O   UNL     1     -23.395  25.856  17.860  1.00  0.00    -0.504 OA
ATOM     22  H   UNL     1     -24.045  26.461  17.377  1.00  0.00     0.293 HD
ENDBRANCH  18  21
ENDBRANCH   3  13
BRANCH  10  23
ATOM     23  O   UNL     1     -18.259  31.860  23.688  1.00  0.00    -0.507 OA
ATOM     24  H   UNL     1     -18.032  31.891  24.672  1.00  0.00     0.293 HD
ENDBRANCH  10  23
BRANCH  11  25
ATOM     25  O   UNL     1     -22.500  34.148  23.470  1.00  0.00    -0.508 OA
ATOM     26  H   UNL     1     -22.078  35.058  23.627  1.00  0.00     0.293 HD
ENDBRANCH  11  25
ENDBRANCH   1   2
BRANCH   1  27
ATOM     27  C   UNL     1     -19.113  26.254  22.008  1.00  0.00     0.339 C 
ATOM     28  C   UNL     1     -19.208  24.970  21.132  1.00  0.00     0.214 C 
ATOM     29  O   UNL     1     -17.845  26.423  22.639  1.00  0.00    -0.332 OA
ATOM     30  C   UNL     1     -17.796  24.488  20.745  1.00  0.00     0.180 C 
ATOM     31  C   UNL     1     -17.362  25.205  23.166  1.00  0.00     0.179 C 
ATOM     32  C   UNL     1     -16.907  24.284  21.998  1.00  0.00     0.177 C 
BRANCH  28  33
ATOM     33  O   UNL     1     -19.901  23.967  21.841  1.00  0.00    -0.384 OA
ATOM     34  H   UNL     1     -19.963  24.268  22.786  1.00  0.00     0.211 HD
ENDBRANCH  28  33
BRANCH  30  35
ATOM     35  O   UNL     1     -17.860  23.302  19.987  1.00  0.00    -0.387 OA
ATOM     36  H   UNL     1     -17.948  22.548  20.637  1.00  0.00     0.211 HD
ENDBRANCH  30  35
BRANCH  31  37
ATOM     37  C   UNL     1     -16.205  25.507  24.122  1.00  0.00     0.191 C 
BRANCH  37  38
ATOM     38  O   UNL     1     -14.993  25.078  23.563  1.00  0.00    -0.394 OA
ATOM     39  H   UNL     1     -14.295  25.672  23.927  1.00  0.00     0.210 HD
ENDBRANCH  37  38
ENDBRANCH  31  37
BRANCH  32  40
ATOM     40  O   UNL     1     -16.873  22.933  22.416  1.00  0.00    -0.387 OA
ATOM     41  H   UNL     1     -16.942  22.366  21.601  1.00  0.00     0.211 HD
ENDBRANCH  32  40
ENDBRANCH   1  27
TORSDOF 12
ENDMDL
MODEL 5
REMARK VINA RESULT:    -4.203      1.654      2.284
REMARK INTER + INTRA:          -6.551
REMARK INTER:                  -6.513
REMARK INTRA:                  -0.038
REMARK UNBOUND:                -0.383
REMARK SMILES O=c1c(O[C@@H]2O[C@H](CO)[C@@H](O)[C@@H](O)[C@H]2O)c(-c2ccc(O)c(O)c2)oc2cc(O)cc(O)c12
REMARK SMILES IDX 4 1 3 2 16 3 25 4 2 5 26 6 1 7 33 8 27 9 31 10 28 11 30 12
REMARK SMILES IDX 17 13 18 14 19 15 20 16 24 17 22 18 21 19 23 21 32 23 29 25
REMARK SMILES IDX 5 27 14 28 6 29 12 30 7 31 10 32 15 33 13 35 8 37 9 38 11 40
REMARK H PARENT 21 20 23 22 32 24 29 26 15 34 13 36 9 39 11 41
REMARK Flexibility Score: inf
ROOT
ATOM      1  O   UNL     1     -21.584  30.028  21.078  1.00  0.00    -0.454 OA
ENDROOT
BRANCH   1   2
ATOM      2  C   UNL     1     -21.542  31.334  21.586  1.00  0.00     0.214 A 
ATOM      3  C   UNL     1     -20.626  31.633  22.607  1.00  0.00     0.180 A 
ATOM      4  O   UNL     1     -20.661  32.816  23.217  1.00  0.00    -0.452 OA
ATOM      5  C   UNL     1     -22.377  32.355  21.112  1.00  0.00     0.239 A 
ATOM      6  C   UNL     1     -21.460  33.805  22.828  1.00  0.00     0.146 A 
ATOM      7  O   UNL     1     -23.145  32.139  20.138  1.00  0.00    -0.285 OA
ATOM      8  C   UNL     1     -22.319  33.632  21.711  1.00  0.00     0.111 A 
ATOM      9  C   UNL     1     -21.406  35.040  23.492  1.00  0.00     0.094 A 
ATOM     10  C   UNL     1     -23.043  34.748  21.222  1.00  0.00     0.134 A 
ATOM     11  C   UNL     1     -22.162  36.127  23.025  1.00  0.00     0.123 A 
ATOM     12  C   UNL     1     -22.964  35.979  21.887  1.00  0.00     0.093 A 
BRANCH   3  13
ATOM     13  C   UNL     1     -19.599  30.650  23.017  1.00  0.00     0.025 A 
ATOM     14  C   UNL     1     -18.489  31.053  23.777  1.00  0.00     0.016 A 
ATOM     15  C   UNL     1     -17.502  30.122  24.125  1.00  0.00     0.051 A 
ATOM     16  C   UNL     1     -17.597  28.791  23.682  1.00  0.00     0.157 A 
ATOM     17  C   UNL     1     -19.705  29.310  22.600  1.00  0.00     0.062 A 
ATOM     18  C   UNL     1     -18.710  28.384  22.934  1.00  0.00     0.158 A 
BRANCH  16  19
ATOM     19  O   UNL     1     -16.596  27.875  23.973  1.00  0.00    -0.504 OA
ATOM     20  H   UNL     1     -15.674  27.962  23.550  1.00  0.00     0.293 HD
ENDBRANCH  16  19
BRANCH  18  21
ATOM     21  O   UNL     1     -18.827  27.053  22.537  1.00  0.00    -0.504 OA
ATOM     22  H   UNL     1     -19.480  26.779  21.815  1.00  0.00     0.293 HD
ENDBRANCH  18  21
ENDBRANCH   3  13
BRANCH  10  23
ATOM     23  O   UNL     1     -23.805  34.653  20.051  1.00  0.00    -0.507 OA
ATOM     24  H   UNL     1     -24.785  34.409  20.077  1.00  0.00     0.293 HD
ENDBRANCH  10  23
BRANCH  11  25
ATOM     25  O   UNL     1     -22.106  37.366  23.659  1.00  0.00    -0.508 OA
ATOM     26  H   UNL     1     -21.549  38.132  23.293  1.00  0.00     0.293 HD
ENDBRANCH  11  25
ENDBRANCH   1   2
BRANCH   1  27
ATOM     27  C   UNL     1     -22.768  29.220  21.074  1.00  0.00     0.339 C 
ATOM     28  C   UNL     1     -22.807  28.394  19.754  1.00  0.00     0.214 C 
ATOM     29  O   UNL     1     -22.747  28.414  22.251  1.00  0.00    -0.332 OA
ATOM     30  C   UNL     1     -22.299  26.962  20.010  1.00  0.00     0.180 C 
ATOM     31  C   UNL     1     -23.650  27.332  22.154  1.00  0.00     0.179 C 
ATOM     32  C   UNL     1     -23.087  26.281  21.156  1.00  0.00     0.177 C 
BRANCH  28  33
ATOM     33  O   UNL     1     -24.125  28.374  19.251  1.00  0.00    -0.384 OA
ATOM     34  H   UNL     1     -24.144  27.711  18.512  1.00  0.00     0.211 HD
ENDBRANCH  28  33
BRANCH  30  35
ATOM     35  O   UNL     1     -22.367  26.187  18.834  1.00  0.00    -0.387 OA
ATOM     36  H   UNL     1     -22.491  26.824  18.075  1.00  0.00     0.211 HD
ENDBRANCH  30  35
BRANCH  31  37
ATOM     37  C   UNL     1     -23.847  26.731  23.547  1.00  0.00     0.191 C 
BRANCH  37  38
ATOM     38  O   UNL     1     -23.634  25.346  23.509  1.00  0.00    -0.394 OA
ATOM     39  H   UNL     1     -22.706  25.217  23.198  1.00  0.00     0.210 HD
ENDBRANCH  37  38
ENDBRANCH  31  37
BRANCH  32  40
ATOM     40  O   UNL     1     -24.125  25.450  20.672  1.00  0.00    -0.387 OA
ATOM     41  H   UNL     1     -24.527  24.987  21.457  1.00  0.00     0.211 HD
ENDBRANCH  32  40
ENDBRANCH   1  27
TORSDOF 12
ENDMDL
MODEL 6
REMARK VINA RESULT:    -3.951      4.020      7.944
REMARK INTER + INTRA:          -6.182
REMARK INTER:                  -5.539
REMARK INTRA:                  -0.644
REMARK UNBOUND:                -0.383
REMARK SMILES O=c1c(O[C@@H]2O[C@H](CO)[C@@H](O)[C@@H](O)[C@H]2O)c(-c2ccc(O)c(O)c2)oc2cc(O)cc(O)c12
REMARK SMILES IDX 4 1 3 2 16 3 25 4 2 5 26 6 1 7 33 8 27 9 31 10 28 11 30 12
REMARK SMILES IDX 17 13 18 14 19 15 20 16 24 17 22 18 21 19 23 21 32 23 29 25
REMARK SMILES IDX 5 27 14 28 6 29 12 30 7 31 10 32 15 33 13 35 8 37 9 38 11 40
REMARK H PARENT 21 20 23 22 32 24 29 26 15 34 13 36 9 39 11 41
REMARK Flexibility Score: inf
ROOT
ATOM      1  O   UNL     1     -22.447  24.460  19.795  1.00  0.00    -0.454 OA
ENDROOT
BRANCH   1   2
ATOM      2  C   UNL     1     -21.744  24.116  18.632  1.00  0.00     0.214 A 
ATOM      3  C   UNL     1     -20.352  23.954  18.706  1.00  0.00     0.180 A 
ATOM      4  O   UNL     1     -19.634  23.778  17.598  1.00  0.00    -0.452 OA
ATOM      5  C   UNL     1     -22.378  23.924  17.396  1.00  0.00     0.239 A 
ATOM      6  C   UNL     1     -20.187  23.626  16.398  1.00  0.00     0.146 A 
ATOM      7  O   UNL     1     -23.633  23.976  17.318  1.00  0.00    -0.285 OA
ATOM      8  C   UNL     1     -21.599  23.635  16.255  1.00  0.00     0.111 A 
ATOM      9  C   UNL     1     -19.366  23.397  15.284  1.00  0.00     0.094 A 
ATOM     10  C   UNL     1     -22.164  23.316  14.995  1.00  0.00     0.134 A 
ATOM     11  C   UNL     1     -19.937  23.125  14.029  1.00  0.00     0.123 A 
ATOM     12  C   UNL     1     -21.329  23.073  13.896  1.00  0.00     0.093 A 
BRANCH   3  13
ATOM     13  C   UNL     1     -19.655  23.963  20.012  1.00  0.00     0.025 A 
ATOM     14  C   UNL     1     -19.774  22.875  20.892  1.00  0.00     0.016 A 
ATOM     15  C   UNL     1     -19.144  22.912  22.141  1.00  0.00     0.051 A 
ATOM     16  C   UNL     1     -18.425  24.053  22.538  1.00  0.00     0.157 A 
ATOM     17  C   UNL     1     -18.910  25.092  20.401  1.00  0.00     0.062 A 
ATOM     18  C   UNL     1     -18.295  25.136  21.657  1.00  0.00     0.158 A 
BRANCH  16  19
ATOM     19  O   UNL     1     -17.844  24.122  23.797  1.00  0.00    -0.504 OA
ATOM     20  H   UNL     1     -17.026  24.706  23.960  1.00  0.00     0.293 HD
ENDBRANCH  16  19
BRANCH  18  21
ATOM     21  O   UNL     1     -17.540  26.246  22.032  1.00  0.00    -0.504 OA
ATOM     22  H   UNL     1     -16.635  26.425  21.620  1.00  0.00     0.293 HD
ENDBRANCH  18  21
ENDBRANCH   3  13
BRANCH  10  23
ATOM     23  O   UNL     1     -23.550  23.193  14.840  1.00  0.00    -0.507 OA
ATOM     24  H   UNL     1     -24.186  23.886  15.208  1.00  0.00     0.293 HD
ENDBRANCH  10  23
BRANCH  11  25
ATOM     25  O   UNL     1     -19.138  22.876  12.916  1.00  0.00    -0.508 OA
ATOM     26  H   UNL     1     -18.801  21.944  12.695  1.00  0.00     0.293 HD
ENDBRANCH  11  25
ENDBRANCH   1   2
BRANCH   1  27
ATOM     27  C   UNL     1     -22.160  25.628  20.575  1.00  0.00     0.339 C 
ATOM     28  C   UNL     1     -22.404  26.891  19.698  1.00  0.00     0.214 C 
ATOM     29  O   UNL     1     -22.974  25.579  21.746  1.00  0.00    -0.332 OA
ATOM     30  C   UNL     1     -23.786  27.495  20.013  1.00  0.00     0.180 C 
ATOM     31  C   UNL     1     -23.049  26.839  22.377  1.00  0.00     0.179 C 
ATOM     32  C   UNL     1     -23.941  27.788  21.527  1.00  0.00     0.177 C 
BRANCH  28  33
ATOM     33  O   UNL     1     -21.381  27.833  19.934  1.00  0.00    -0.384 OA
ATOM     34  H   UNL     1     -21.793  28.734  19.861  1.00  0.00     0.211 HD
ENDBRANCH  28  33
BRANCH  30  35
ATOM     35  O   UNL     1     -24.008  28.664  19.258  1.00  0.00    -0.387 OA
ATOM     36  H   UNL     1     -23.173  28.833  18.736  1.00  0.00     0.211 HD
ENDBRANCH  30  35
BRANCH  31  37
ATOM     37  C   UNL     1     -23.620  26.650  23.785  1.00  0.00     0.191 C 
BRANCH  37  38
ATOM     38  O   UNL     1     -23.645  25.288  24.116  1.00  0.00    -0.394 OA
ATOM     39  H   UNL     1     -24.596  25.048  24.227  1.00  0.00     0.210 HD
ENDBRANCH  37  38
ENDBRANCH  31  37
BRANCH  32  40
ATOM     40  O   UNL     1     -23.667  29.140  21.841  1.00  0.00    -0.387 OA
ATOM     41  H   UNL     1     -24.527  29.564  22.112  1.00  0.00     0.211 HD
ENDBRANCH  32  40
ENDBRANCH   1  27
TORSDOF 12
ENDMDL
MODEL 7
REMARK VINA RESULT:    -3.855      3.068      7.158
REMARK INTER + INTRA:          -6.041
REMARK INTER:                  -6.193
REMARK INTRA:                   0.152
REMARK UNBOUND:                -0.383
REMARK SMILES O=c1c(O[C@@H]2O[C@H](CO)[C@@H](O)[C@@H](O)[C@H]2O)c(-c2ccc(O)c(O)c2)oc2cc(O)cc(O)c12
REMARK SMILES IDX 4 1 3 2 16 3 25 4 2 5 26 6 1 7 33 8 27 9 31 10 28 11 30 12
REMARK SMILES IDX 17 13 18 14 19 15 20 16 24 17 22 18 21 19 23 21 32 23 29 25
REMARK SMILES IDX 5 27 14 28 6 29 12 30 7 31 10 32 15 33 13 35 8 37 9 38 11 40
REMARK H PARENT 21 20 23 22 32 24 29 26 15 34 13 36 9 39 11 41
REMARK Flexibility Score: inf
ROOT
ATOM      1  O   UNL     1     -20.120  25.461  22.272  1.00  0.00    -0.454 OA
ENDROOT
BRANCH   1   2
ATOM      2  C   UNL     1     -20.071  24.913  20.982  1.00  0.00     0.214 A 
ATOM      3  C   UNL     1     -18.850  24.409  20.509  1.00  0.00     0.180 A 
ATOM      4  O   UNL     1     -18.727  24.023  19.240  1.00  0.00    -0.452 OA
ATOM      5  C   UNL     1     -21.194  24.848  20.146  1.00  0.00     0.239 A 
ATOM      6  C   UNL     1     -19.756  23.976  18.398  1.00  0.00     0.146 A 
ATOM      7  O   UNL     1     -22.320  25.212  20.577  1.00  0.00    -0.285 OA
ATOM      8  C   UNL     1     -21.056  24.336  18.839  1.00  0.00     0.111 A 
ATOM      9  C   UNL     1     -19.557  23.513  17.089  1.00  0.00     0.094 A 
ATOM     10  C   UNL     1     -22.157  24.129  17.970  1.00  0.00     0.134 A 
ATOM     11  C   UNL     1     -20.650  23.353  16.222  1.00  0.00     0.123 A 
ATOM     12  C   UNL     1     -21.943  23.649  16.671  1.00  0.00     0.093 A 
BRANCH   3  13
ATOM     13  C   UNL     1     -17.680  24.285  21.407  1.00  0.00     0.025 A 
ATOM     14  C   UNL     1     -16.885  23.127  21.387  1.00  0.00     0.016 A 
ATOM     15  C   UNL     1     -15.806  23.003  22.270  1.00  0.00     0.051 A 
ATOM     16  C   UNL     1     -15.537  24.016  23.207  1.00  0.00     0.157 A 
ATOM     17  C   UNL     1     -17.390  25.310  22.327  1.00  0.00     0.062 A 
ATOM     18  C   UNL     1     -16.322  25.178  23.220  1.00  0.00     0.158 A 
BRANCH  16  19
ATOM     19  O   UNL     1     -14.505  23.877  24.124  1.00  0.00    -0.504 OA
ATOM     20  H   UNL     1     -14.098  24.694  24.576  1.00  0.00     0.293 HD
ENDBRANCH  16  19
BRANCH  18  21
ATOM     21  O   UNL     1     -16.024  26.203  24.117  1.00  0.00    -0.504 OA
ATOM     22  H   UNL     1     -16.729  26.572  24.739  1.00  0.00     0.293 HD
ENDBRANCH  18  21
ENDBRANCH   3  13
BRANCH  10  23
ATOM     23  O   UNL     1     -23.468  24.354  18.407  1.00  0.00    -0.507 OA
ATOM     24  H   UNL     1     -23.976  25.187  18.144  1.00  0.00     0.293 HD
ENDBRANCH  10  23
BRANCH  11  25
ATOM     25  O   UNL     1     -20.475  22.875  14.926  1.00  0.00    -0.508 OA
ATOM     26  H   UNL     1     -20.747  23.419  14.112  1.00  0.00     0.293 HD
ENDBRANCH  11  25
ENDBRANCH   1   2
BRANCH   1  27
ATOM     27  C   UNL     1     -20.212  26.868  22.531  1.00  0.00     0.339 C 
ATOM     28  C   UNL     1     -19.613  27.641  21.319  1.00  0.00     0.214 C 
ATOM     29  O   UNL     1     -21.582  27.174  22.783  1.00  0.00    -0.332 OA
ATOM     30  C   UNL     1     -20.744  28.131  20.393  1.00  0.00     0.180 C 
ATOM     31  C   UNL     1     -21.832  28.559  22.672  1.00  0.00     0.179 C 
ATOM     32  C   UNL     1     -21.786  28.971  21.174  1.00  0.00     0.177 C 
BRANCH  28  33
ATOM     33  O   UNL     1     -18.845  28.727  21.787  1.00  0.00    -0.384 OA
ATOM     34  H   UNL     1     -18.182  28.359  22.430  1.00  0.00     0.211 HD
ENDBRANCH  28  33
BRANCH  30  35
ATOM     35  O   UNL     1     -20.223  28.870  19.312  1.00  0.00    -0.387 OA
ATOM     36  H   UNL     1     -19.438  29.380  19.662  1.00  0.00     0.211 HD
ENDBRANCH  30  35
BRANCH  31  37
ATOM     37  C   UNL     1     -23.198  28.864  23.293  1.00  0.00     0.191 C 
BRANCH  37  38
ATOM     38  O   UNL     1     -23.974  29.621  22.405  1.00  0.00    -0.394 OA
ATOM     39  H   UNL     1     -23.652  29.401  21.499  1.00  0.00     0.210 HD
ENDBRANCH  37  38
ENDBRANCH  31  37
BRANCH  32  40
ATOM     40  O   UNL     1     -21.556  30.361  21.047  1.00  0.00    -0.387 OA
ATOM     41  H   UNL     1     -21.339  30.712  21.954  1.00  0.00     0.211 HD
ENDBRANCH  32  40
ENDBRANCH   1  27
TORSDOF 12
ENDMDL
MODEL 8
REMARK VINA RESULT:    -3.653      1.803      2.088
REMARK INTER + INTRA:          -5.744
REMARK INTER:                  -4.852
REMARK INTRA:                  -0.892
REMARK UNBOUND:                -0.383
REMARK SMILES O=c1c(O[C@@H]2O[C@H](CO)[C@@H](O)[C@@H](O)[C@H]2O)c(-c2ccc(O)c(O)c2)oc2cc(O)cc(O)c12
REMARK SMILES IDX 4 1 3 2 16 3 25 4 2 5 26 6 1 7 33 8 27 9 31 10 28 11 30 12
REMARK SMILES IDX 17 13 18 14 19 15 20 16 24 17 22 18 21 19 23 21 32 23 29 25
REMARK SMILES IDX 5 27 14 28 6 29 12 30 7 31 10 32 15 33 13 35 8 37 9 38 11 40
REMARK H PARENT 21 20 23 22 32 24 29 26 15 34 13 36 9 39 11 41
REMARK Flexibility Score: inf
ROOT
ATOM      1  O   UNL     1     -21.085  27.903  20.374  1.00  0.00    -0.454 OA
ENDROOT
BRANCH   1   2
ATOM      2  C   UNL     1     -21.421  29.091  21.038  1.00  0.00     0.214 A 
ATOM      3  C   UNL     1     -20.764  29.403  22.239  1.00  0.00     0.180 A 
ATOM      4  O   UNL     1     -21.162  30.441  22.973  1.00  0.00    -0.452 OA
ATOM      5  C   UNL     1     -22.387  29.982  20.549  1.00  0.00     0.239 A 
ATOM      6  C   UNL     1     -22.098  31.294  22.569  1.00  0.00     0.146 A 
ATOM      7  O   UNL     1     -22.928  29.772  19.432  1.00  0.00    -0.285 OA
ATOM      8  C   UNL     1     -22.714  31.130  21.301  1.00  0.00     0.111 A 
ATOM      9  C   UNL     1     -22.429  32.391  23.378  1.00  0.00     0.094 A 
ATOM     10  C   UNL     1     -23.592  32.138  20.829  1.00  0.00     0.134 A 
ATOM     11  C   UNL     1     -23.334  33.361  22.918  1.00  0.00     0.123 A 
ATOM     12  C   UNL     1     -23.899  33.236  21.643  1.00  0.00     0.093 A 
BRANCH   3  13
ATOM     13  C   UNL     1     -19.614  28.599  22.706  1.00  0.00     0.025 A 
ATOM     14  C   UNL     1     -18.352  29.191  22.880  1.00  0.00     0.016 A 
ATOM     15  C   UNL     1     -17.262  28.411  23.284  1.00  0.00     0.051 A 
ATOM     16  C   UNL     1     -17.413  27.027  23.476  1.00  0.00     0.157 A 
ATOM     17  C   UNL     1     -19.768  27.217  22.928  1.00  0.00     0.062 A 
ATOM     18  C   UNL     1     -18.674  26.435  23.314  1.00  0.00     0.158 A 
BRANCH  16  19
ATOM     19  O   UNL     1     -16.326  26.236  23.821  1.00  0.00    -0.504 OA
ATOM     20  H   UNL     1     -15.382  26.619  23.809  1.00  0.00     0.293 HD
ENDBRANCH  16  19
BRANCH  18  21
ATOM     21  O   UNL     1     -18.834  25.071  23.553  1.00  0.00    -0.504 OA
ATOM     22  H   UNL     1     -18.033  24.465  23.669  1.00  0.00     0.293 HD
ENDBRANCH  18  21
ENDBRANCH   3  13
BRANCH  10  23
ATOM     23  O   UNL     1     -24.125  32.078  19.535  1.00  0.00    -0.507 OA
ATOM     24  H   UNL     1     -25.025  31.655  19.355  1.00  0.00     0.293 HD
ENDBRANCH  10  23
BRANCH  11  25
ATOM     25  O   UNL     1     -23.660  34.466  23.700  1.00  0.00    -0.508 OA
ATOM     26  H   UNL     1     -22.963  35.147  23.985  1.00  0.00     0.293 HD
ENDBRANCH  11  25
ENDBRANCH   1   2
BRANCH   1  27
ATOM     27  C   UNL     1     -21.986  26.797  20.229  1.00  0.00     0.339 C 
ATOM     28  C   UNL     1     -21.202  25.584  19.648  1.00  0.00     0.214 C 
ATOM     29  O   UNL     1     -22.569  26.542  21.505  1.00  0.00    -0.332 OA
ATOM     30  C   UNL     1     -20.811  24.615  20.780  1.00  0.00     0.180 C 
ATOM     31  C   UNL     1     -23.165  25.262  21.556  1.00  0.00     0.179 C 
ATOM     32  C   UNL     1     -22.050  24.179  21.602  1.00  0.00     0.177 C 
BRANCH  28  33
ATOM     33  O   UNL     1     -21.996  24.930  18.682  1.00  0.00    -0.384 OA
ATOM     34  H   UNL     1     -21.604  24.026  18.547  1.00  0.00     0.211 HD
ENDBRANCH  28  33
BRANCH  30  35
ATOM     35  O   UNL     1     -20.137  23.488  20.268  1.00  0.00    -0.387 OA
ATOM     36  H   UNL     1     -19.531  23.160  20.991  1.00  0.00     0.211 HD
ENDBRANCH  30  35
BRANCH  31  37
ATOM     37  C   UNL     1     -24.066  25.188  22.791  1.00  0.00     0.191 C 
BRANCH  37  38
ATOM     38  O   UNL     1     -23.419  24.490  23.820  1.00  0.00    -0.394 OA
ATOM     39  H   UNL     1     -22.553  24.194  23.451  1.00  0.00     0.210 HD
ENDBRANCH  37  38
ENDBRANCH  31  37
BRANCH  32  40
ATOM     40  O   UNL     1     -22.558  22.927  21.181  1.00  0.00    -0.387 OA
ATOM     41  H   UNL     1     -22.908  22.459  21.987  1.00  0.00     0.211 HD
ENDBRANCH  32  40
ENDBRANCH   1  27
TORSDOF 12
ENDMDL
MODEL 9
REMARK VINA RESULT:    -3.447      2.538      6.757
REMARK INTER + INTRA:          -5.442
REMARK INTER:                  -4.776
REMARK INTRA:                  -0.666
REMARK UNBOUND:                -0.383
REMARK SMILES O=c1c(O[C@@H]2O[C@H](CO)[C@@H](O)[C@@H](O)[C@H]2O)c(-c2ccc(O)c(O)c2)oc2cc(O)cc(O)c12
REMARK SMILES IDX 4 1 3 2 16 3 25 4 2 5 26 6 1 7 33 8 27 9 31 10 28 11 30 12
REMARK SMILES IDX 17 13 18 14 19 15 20 16 24 17 22 18 21 19 23 21 32 23 29 25
REMARK SMILES IDX 5 27 14 28 6 29 12 30 7 31 10 32 15 33 13 35 8 37 9 38 11 40
REMARK H PARENT 21 20 23 22 32 24 29 26 15 34 13 36 9 39 11 41
REMARK Flexibility Score: inf
ROOT
ATOM      1  O   UNL     1     -20.072  27.535  20.484  1.00  0.00    -0.454 OA
ENDROOT
BRANCH   1   2
ATOM      2  C   UNL     1     -19.097  26.890  21.258  1.00  0.00     0.214 A 
ATOM      3  C   UNL     1     -18.623  27.527  22.415  1.00  0.00     0.180 A 
ATOM      4  O   UNL     1     -17.593  27.018  23.090  1.00  0.00    -0.452 OA
ATOM      5  C   UNL     1     -18.577  25.632  20.922  1.00  0.00     0.239 A 
ATOM      6  C   UNL     1     -17.043  25.845  22.789  1.00  0.00     0.146 A 
ATOM      7  O   UNL     1     -19.046  25.000  19.940  1.00  0.00    -0.285 OA
ATOM      8  C   UNL     1     -17.556  25.070  21.717  1.00  0.00     0.111 A 
ATOM      9  C   UNL     1     -15.990  25.354  23.576  1.00  0.00     0.094 A 
ATOM     10  C   UNL     1     -17.055  23.759  21.517  1.00  0.00     0.134 A 
ATOM     11  C   UNL     1     -15.472  24.070  23.341  1.00  0.00     0.123 A 
ATOM     12  C   UNL     1     -16.015  23.277  22.323  1.00  0.00     0.093 A 
BRANCH   3  13
ATOM     13  C   UNL     1     -19.262  28.763  22.917  1.00  0.00     0.025 A 
ATOM     14  C   UNL     1     -20.590  28.747  23.372  1.00  0.00     0.016 A 
ATOM     15  C   UNL     1     -21.197  29.932  23.806  1.00  0.00     0.051 A 
ATOM     16  C   UNL     1     -20.495  31.149  23.751  1.00  0.00     0.157 A 
ATOM     17  C   UNL     1     -18.552  29.979  22.890  1.00  0.00     0.062 A 
ATOM     18  C   UNL     1     -19.165  31.165  23.308  1.00  0.00     0.158 A 
BRANCH  16  19
ATOM     19  O   UNL     1     -21.107  32.337  24.125  1.00  0.00    -0.504 OA
ATOM     20  H   UNL     1     -20.556  33.112  24.488  1.00  0.00     0.293 HD
ENDBRANCH  16  19
BRANCH  18  21
ATOM     21  O   UNL     1     -18.455  32.365  23.300  1.00  0.00    -0.504 OA
ATOM     22  H   UNL     1     -17.795  32.585  24.034  1.00  0.00     0.293 HD
ENDBRANCH  18  21
ENDBRANCH   3  13
BRANCH  10  23
ATOM     23  O   UNL     1     -17.617  22.915  20.551  1.00  0.00    -0.507 OA
ATOM     24  H   UNL     1     -17.109  22.656  19.717  1.00  0.00     0.293 HD
ENDBRANCH  10  23
BRANCH  11  25
ATOM     25  O   UNL     1     -14.441  23.558  24.124  1.00  0.00    -0.508 OA
ATOM     26  H   UNL     1     -13.485  23.502  23.784  1.00  0.00     0.293 HD
ENDBRANCH  11  25
ENDBRANCH   1   2
BRANCH   1  27
ATOM     27  C   UNL     1     -21.466  27.204  20.532  1.00  0.00     0.339 C 
ATOM     28  C   UNL     1     -21.896  26.640  19.145  1.00  0.00     0.214 C 
ATOM     29  O   UNL     1     -21.656  26.284  21.606  1.00  0.00    -0.332 OA
ATOM     30  C   UNL     1     -21.926  25.100  19.186  1.00  0.00     0.180 C 
ATOM     31  C   UNL     1     -22.895  25.614  21.501  1.00  0.00     0.179 C 
ATOM     32  C   UNL     1     -22.824  24.584  20.338  1.00  0.00     0.177 C 
BRANCH  28  33
ATOM     33  O   UNL     1     -23.163  27.156  18.801  1.00  0.00    -0.384 OA
ATOM     34  H   UNL     1     -23.696  26.400  18.437  1.00  0.00     0.211 HD
ENDBRANCH  28  33
BRANCH  30  35
ATOM     35  O   UNL     1     -22.354  24.573  17.951  1.00  0.00    -0.387 OA
ATOM     36  H   UNL     1     -22.791  25.322  17.453  1.00  0.00     0.211 HD
ENDBRANCH  30  35
BRANCH  31  37
ATOM     37  C   UNL     1     -23.198  24.930  22.836  1.00  0.00     0.191 C 
BRANCH  37  38
ATOM     38  O   UNL     1     -23.480  23.572  22.629  1.00  0.00    -0.394 OA
ATOM     39  H   UNL     1     -23.463  23.432  21.652  1.00  0.00     0.210 HD
ENDBRANCH  37  38
ENDBRANCH  31  37
BRANCH  32  40
ATOM     40  O   UNL     1     -24.125  24.249  19.893  1.00  0.00    -0.387 OA
ATOM     41  H   UNL     1     -24.195  23.256  19.898  1.00  0.00     0.211 HD
ENDBRANCH  32  40
ENDBRANCH   1  27
TORSDOF 12
ENDMDL
