MODEL 1
REMARK VINA RESULT:    -3.133      0.000      0.000
REMARK INTER + INTRA:          -9.187
REMARK INTER:                  -6.063
REMARK INTRA:                  -3.124
REMARK UNBOUND:                -3.124
REMARK SMILES CCCCCCCCCCCCCCCCCC(=O)[O-]
REMARK SMILES IDX 10 1 11 2 12 3 13 4 14 5 15 6 16 7 17 8 18 9 19 10 20 11
REMARK SMILES IDX 9 12 8 13 7 14 6 15 5 16 4 17 3 18 2 19 1 20
REMARK H PARENT
REMARK Flexibility Score: inf
ROOT
ATOM      1  C   UNL     1     189.889 177.645 174.452  1.00  0.00     0.000 C 
ENDROOT
BRANCH   1   2
ATOM      2  C   UNL     1     191.288 177.197 174.904  1.00  0.00     0.000 C 
BRANCH   2   3
ATOM      3  C   UNL     1     191.316 176.713 176.362  1.00  0.00     0.000 C 
BRANCH   3   4
ATOM      4  C   UNL     1     191.212 175.183 176.479  1.00  0.00     0.000 C 
BRANCH   4   5
ATOM      5  C   UNL     1     190.564 174.738 177.801  1.00  0.00     0.000 C 
BRANCH   5   6
ATOM      6  C   UNL     1     189.961 175.919 178.583  1.00  0.00     0.000 C 
BRANCH   6   7
ATOM      7  C   UNL     1     188.877 175.477 179.580  1.00  0.00     0.006 C 
BRANCH   7   8
ATOM      8  C   UNL     1     188.159 174.193 179.144  1.00  0.00     0.053 C 
BRANCH   8   9
ATOM      9  C   UNL     1     186.691 174.298 179.414  1.00  0.00     0.041 C 
ATOM     10  O   UNL     1     185.873 173.618 178.740  1.00  0.00    -0.550 OA
ATOM     11  O   UNL     1     186.230 175.110 180.442  1.00  0.00    -0.550 OA
ENDBRANCH   8   9
ENDBRANCH   7   8
ENDBRANCH   6   7
ENDBRANCH   5   6
ENDBRANCH   4   5
ENDBRANCH   3   4
ENDBRANCH   2   3
ENDBRANCH   1   2
BRANCH   1  12
ATOM     12  C   UNL     1     189.573 177.245 173.001  1.00  0.00     0.000 C 
BRANCH  12  13
ATOM     13  C   UNL     1     190.543 176.190 172.427  1.00  0.00    -0.000 C 
BRANCH  13  14
ATOM     14  C   UNL     1     189.896 174.798 172.330  1.00  0.00    -0.000 C 
BRANCH  14  15
ATOM     15  C   UNL     1     190.670 173.727 173.115  1.00  0.00    -0.000 C 
BRANCH  15  16
ATOM     16  C   UNL     1     189.803 173.023 174.169  1.00  0.00    -0.000 C 
BRANCH  16  17
ATOM     17  C   UNL     1     188.364 173.557 174.138  1.00  0.00    -0.000 C 
BRANCH  17  18
ATOM     18  C   UNL     1     187.813 173.861 175.541  1.00  0.00    -0.000 C 
BRANCH  18  19
ATOM     19  C   UNL     1     187.453 175.342 175.727  1.00  0.00    -0.003 C 
ATOM     20  C   UNL     1     186.543 175.832 174.604  1.00  0.00     0.004 C 
ENDBRANCH  18  19
ENDBRANCH  17  18
ENDBRANCH  16  17
ENDBRANCH  15  16
ENDBRANCH  14  15
ENDBRANCH  13  14
ENDBRANCH  12  13
ENDBRANCH   1  12
TORSDOF 16
ENDMDL
MODEL 2
REMARK VINA RESULT:    -3.124      2.015      4.178
REMARK INTER + INTRA:          -9.171
REMARK INTER:                  -6.285
REMARK INTRA:                  -2.886
REMARK UNBOUND:                -3.124
REMARK SMILES CCCCCCCCCCCCCCCCCC(=O)[O-]
REMARK SMILES IDX 10 1 11 2 12 3 13 4 14 5 15 6 16 7 17 8 18 9 19 10 20 11
REMARK SMILES IDX 9 12 8 13 7 14 6 15 5 16 4 17 3 18 2 19 1 20
REMARK H PARENT
REMARK Flexibility Score: inf
ROOT
ATOM      1  C   UNL     1     190.698 174.012 175.401  1.00  0.00     0.000 C 
ENDROOT
BRANCH   1   2
ATOM      2  C   UNL     1     189.198 173.723 175.230  1.00  0.00     0.000 C 
BRANCH   2   3
ATOM      3  C   UNL     1     188.317 174.591 176.142  1.00  0.00     0.000 C 
BRANCH   3   4
ATOM      4  C   UNL     1     187.080 173.837 176.661  1.00  0.00     0.000 C 
BRANCH   4   5
ATOM      5  C   UNL     1     187.095 173.669 178.191  1.00  0.00     0.000 C 
BRANCH   5   6
ATOM      6  C   UNL     1     188.410 174.161 178.820  1.00  0.00     0.000 C 
BRANCH   6   7
ATOM      7  C   UNL     1     188.215 175.400 179.708  1.00  0.00     0.006 C 
BRANCH   7   8
ATOM      8  C   UNL     1     188.920 176.645 179.153  1.00  0.00     0.053 C 
BRANCH   8   9
ATOM      9  C   UNL     1     190.137 176.961 179.964  1.00  0.00     0.041 C 
ATOM     10  O   UNL     1     191.159 177.444 179.409  1.00  0.00    -0.550 OA
ATOM     11  O   UNL     1     190.126 176.767 181.339  1.00  0.00    -0.550 OA
ENDBRANCH   8   9
ENDBRANCH   7   8
ENDBRANCH   6   7
ENDBRANCH   5   6
ENDBRANCH   4   5
ENDBRANCH   3   4
ENDBRANCH   2   3
ENDBRANCH   1   2
BRANCH   1  12
ATOM     12  C   UNL     1     190.973 175.230 176.299  1.00  0.00     0.000 C 
BRANCH  12  13
ATOM     13  C   UNL     1     191.437 176.479 175.520  1.00  0.00    -0.000 C 
BRANCH  13  14
ATOM     14  C   UNL     1     190.696 177.751 175.967  1.00  0.00    -0.000 C 
BRANCH  14  15
ATOM     15  C   UNL     1     189.593 178.172 174.983  1.00  0.00    -0.000 C 
BRANCH  15  16
ATOM     16  C   UNL     1     189.819 177.621 173.567  1.00  0.00    -0.000 C 
BRANCH  16  17
ATOM     17  C   UNL     1     188.596 176.825 173.088  1.00  0.00    -0.000 C 
BRANCH  17  18
ATOM     18  C   UNL     1     188.974 175.654 172.166  1.00  0.00    -0.000 C 
BRANCH  18  19
ATOM     19  C   UNL     1     190.450 175.689 171.741  1.00  0.00    -0.003 C 
ATOM     20  C   UNL     1     191.146 174.371 172.066  1.00  0.00     0.004 C 
ENDBRANCH  18  19
ENDBRANCH  17  18
ENDBRANCH  16  17
ENDBRANCH  15  16
ENDBRANCH  14  15
ENDBRANCH  13  14
ENDBRANCH  12  13
ENDBRANCH   1  12
TORSDOF 16
ENDMDL
MODEL 3
REMARK VINA RESULT:    -3.123      1.587      2.828
REMARK INTER + INTRA:          -9.169
REMARK INTER:                  -6.463
REMARK INTRA:                  -2.706
REMARK UNBOUND:                -3.124
REMARK SMILES CCCCCCCCCCCCCCCCCC(=O)[O-]
REMARK SMILES IDX 10 1 11 2 12 3 13 4 14 5 15 6 16 7 17 8 18 9 19 10 20 11
REMARK SMILES IDX 9 12 8 13 7 14 6 15 5 16 4 17 3 18 2 19 1 20
REMARK H PARENT
REMARK Flexibility Score: inf
ROOT
ATOM      1  C   UNL     1     190.148 176.499 173.466  1.00  0.00     0.000 C 
ENDROOT
BRANCH   1   2
ATOM      2  C   UNL     1     191.344 176.319 174.414  1.00  0.00     0.000 C 
BRANCH   2   3
ATOM      3  C   UNL     1     190.955 176.447 175.895  1.00  0.00     0.000 C 
BRANCH   3   4
ATOM      4  C   UNL     1     191.207 175.152 176.686  1.00  0.00     0.000 C 
BRANCH   4   5
ATOM      5  C   UNL     1     190.395 175.094 177.991  1.00  0.00     0.000 C 
BRANCH   5   6
ATOM      6  C   UNL     1     189.767 176.453 178.351  1.00  0.00     0.000 C 
BRANCH   6   7
ATOM      7  C   UNL     1     190.621 177.254 179.346  1.00  0.00     0.006 C 
BRANCH   7   8
ATOM      8  C   UNL     1     189.785 177.902 180.458  1.00  0.00     0.053 C 
BRANCH   8   9
ATOM      9  C   UNL     1     189.284 176.860 181.408  1.00  0.00     0.041 C 
ATOM     10  O   UNL     1     190.088 176.251 182.162  1.00  0.00    -0.550 OA
ATOM     11  O   UNL     1     187.924 176.595 181.494  1.00  0.00    -0.550 OA
ENDBRANCH   8   9
ENDBRANCH   7   8
ENDBRANCH   6   7
ENDBRANCH   5   6
ENDBRANCH   4   5
ENDBRANCH   3   4
ENDBRANCH   2   3
ENDBRANCH   1   2
BRANCH   1  12
ATOM     12  C   UNL     1     189.760 175.200 172.740  1.00  0.00     0.000 C 
BRANCH  12  13
ATOM     13  C   UNL     1     190.620 173.985 173.149  1.00  0.00    -0.000 C 
BRANCH  13  14
ATOM     14  C   UNL     1     189.848 173.003 174.049  1.00  0.00    -0.000 C 
BRANCH  14  15
ATOM     15  C   UNL     1     188.356 173.352 174.163  1.00  0.00    -0.000 C 
BRANCH  15  16
ATOM     16  C   UNL     1     187.920 173.623 175.611  1.00  0.00    -0.000 C 
BRANCH  16  17
ATOM     17  C   UNL     1     187.427 175.069 175.771  1.00  0.00    -0.000 C 
BRANCH  17  18
ATOM     18  C   UNL     1     186.468 175.242 176.959  1.00  0.00    -0.000 C 
BRANCH  18  19
ATOM     19  C   UNL     1     186.322 173.959 177.792  1.00  0.00    -0.003 C 
ATOM     20  C   UNL     1     186.998 174.107 179.151  1.00  0.00     0.004 C 
ENDBRANCH  18  19
ENDBRANCH  17  18
ENDBRANCH  16  17
ENDBRANCH  15  16
ENDBRANCH  14  15
ENDBRANCH  13  14
ENDBRANCH  12  13
ENDBRANCH   1  12
TORSDOF 16
ENDMDL
MODEL 4
REMARK VINA RESULT:    -3.123      1.669      3.697
REMARK INTER + INTRA:          -9.169
REMARK INTER:                  -6.200
REMARK INTRA:                  -2.969
REMARK UNBOUND:                -3.124
REMARK SMILES CCCCCCCCCCCCCCCCCC(=O)[O-]
REMARK SMILES IDX 10 1 11 2 12 3 13 4 14 5 15 6 16 7 17 8 18 9 19 10 20 11
REMARK SMILES IDX 9 12 8 13 7 14 6 15 5 16 4 17 3 18 2 19 1 20
REMARK H PARENT
REMARK Flexibility Score: inf
ROOT
ATOM      1  C   UNL     1     187.318 176.176 174.681  1.00  0.00     0.000 C 
ENDROOT
BRANCH   1   2
ATOM      2  C   UNL     1     187.243 176.058 176.212  1.00  0.00     0.000 C 
BRANCH   2   3
ATOM      3  C   UNL     1     185.924 175.435 176.697  1.00  0.00     0.000 C 
BRANCH   3   4
ATOM      4  C   UNL     1     186.136 174.395 177.811  1.00  0.00     0.000 C 
BRANCH   4   5
ATOM      5  C   UNL     1     187.544 173.776 177.774  1.00  0.00     0.000 C 
BRANCH   5   6
ATOM      6  C   UNL     1     188.261 173.872 179.133  1.00  0.00     0.000 C 
BRANCH   6   7
ATOM      7  C   UNL     1     189.433 174.866 179.115  1.00  0.00     0.006 C 
BRANCH   7   8
ATOM      8  C   UNL     1     189.008 176.290 179.499  1.00  0.00     0.053 C 
BRANCH   8   9
ATOM      9  C   UNL     1     188.982 176.445 180.987  1.00  0.00     0.041 C 
ATOM     10  O   UNL     1     190.039 176.718 181.613  1.00  0.00    -0.550 OA
ATOM     11  O   UNL     1     187.782 176.333 181.676  1.00  0.00    -0.550 OA
ENDBRANCH   8   9
ENDBRANCH   7   8
ENDBRANCH   6   7
ENDBRANCH   5   6
ENDBRANCH   4   5
ENDBRANCH   3   4
ENDBRANCH   2   3
ENDBRANCH   1   2
BRANCH   1  12
ATOM     12  C   UNL     1     186.931 174.872 173.962  1.00  0.00     0.000 C 
BRANCH  12  13
ATOM     13  C   UNL     1     188.128 174.150 173.308  1.00  0.00    -0.000 C 
BRANCH  13  14
ATOM     14  C   UNL     1     188.805 173.159 174.271  1.00  0.00    -0.000 C 
BRANCH  14  15
ATOM     15  C   UNL     1     190.318 173.397 174.402  1.00  0.00    -0.000 C 
BRANCH  15  16
ATOM     16  C   UNL     1     190.716 173.939 175.783  1.00  0.00    -0.000 C 
BRANCH  16  17
ATOM     17  C   UNL     1     190.940 175.457 175.729  1.00  0.00    -0.000 C 
BRANCH  17  18
ATOM     18  C   UNL     1     191.267 175.959 174.313  1.00  0.00    -0.000 C 
BRANCH  18  19
ATOM     19  C   UNL     1     190.567 177.285 173.980  1.00  0.00    -0.003 C 
ATOM     20  C   UNL     1     190.789 178.316 175.082  1.00  0.00     0.004 C 
ENDBRANCH  18  19
ENDBRANCH  17  18
ENDBRANCH  16  17
ENDBRANCH  15  16
ENDBRANCH  14  15
ENDBRANCH  13  14
ENDBRANCH  12  13
ENDBRANCH   1  12
TORSDOF 16
ENDMDL
MODEL 5
REMARK VINA RESULT:    -3.100      2.369      6.065
REMARK INTER + INTRA:          -9.124
REMARK INTER:                  -6.556
REMARK INTRA:                  -2.568
REMARK UNBOUND:                -3.124
REMARK SMILES CCCCCCCCCCCCCCCCCC(=O)[O-]
REMARK SMILES IDX 10 1 11 2 12 3 13 4 14 5 15 6 16 7 17 8 18 9 19 10 20 11
REMARK SMILES IDX 9 12 8 13 7 14 6 15 5 16 4 17 3 18 2 19 1 20
REMARK H PARENT
REMARK Flexibility Score: inf
ROOT
ATOM      1  C   UNL     1     188.479 175.455 176.994  1.00  0.00     0.000 C 
ENDROOT
BRANCH   1   2
ATOM      2  C   UNL     1     189.676 174.725 177.626  1.00  0.00     0.000 C 
BRANCH   2   3
ATOM      3  C   UNL     1     191.028 175.243 177.110  1.00  0.00     0.000 C 
BRANCH   3   4
ATOM      4  C   UNL     1     190.966 176.714 176.663  1.00  0.00     0.000 C 
BRANCH   4   5
ATOM      5  C   UNL     1     191.514 176.918 175.240  1.00  0.00     0.000 C 
BRANCH   5   6
ATOM      6  C   UNL     1     190.436 176.710 174.162  1.00  0.00     0.000 C 
BRANCH   6   7
ATOM      7  C   UNL     1     190.677 175.447 173.320  1.00  0.00     0.006 C 
BRANCH   7   8
ATOM      8  C   UNL     1     189.415 174.586 173.169  1.00  0.00     0.053 C 
BRANCH   8   9
ATOM      9  C   UNL     1     189.488 173.390 174.065  1.00  0.00     0.041 C 
ATOM     10  O   UNL     1     188.449 172.726 174.320  1.00  0.00    -0.550 OA
ATOM     11  O   UNL     1     190.711 172.981 174.580  1.00  0.00    -0.550 OA
ENDBRANCH   8   9
ENDBRANCH   7   8
ENDBRANCH   6   7
ENDBRANCH   5   6
ENDBRANCH   4   5
ENDBRANCH   3   4
ENDBRANCH   2   3
ENDBRANCH   1   2
BRANCH   1  12
ATOM     12  C   UNL     1     187.185 174.623 177.033  1.00  0.00     0.000 C 
BRANCH  12  13
ATOM     13  C   UNL     1     187.099 173.673 178.245  1.00  0.00    -0.000 C 
BRANCH  13  14
ATOM     14  C   UNL     1     185.904 174.001 179.157  1.00  0.00    -0.000 C 
BRANCH  14  15
ATOM     15  C   UNL     1     186.309 174.818 180.395  1.00  0.00    -0.000 C 
BRANCH  15  16
ATOM     16  C   UNL     1     186.195 176.333 180.169  1.00  0.00    -0.000 C 
BRANCH  16  17
ATOM     17  C   UNL     1     187.308 177.082 180.916  1.00  0.00    -0.000 C 
BRANCH  17  18
ATOM     18  C   UNL     1     188.681 176.403 180.772  1.00  0.00    -0.000 C 
BRANCH  18  19
ATOM     19  C   UNL     1     189.740 177.336 180.166  1.00  0.00    -0.003 C 
ATOM     20  C   UNL     1     190.769 177.752 181.213  1.00  0.00     0.004 C 
ENDBRANCH  18  19
ENDBRANCH  17  18
ENDBRANCH  16  17
ENDBRANCH  15  16
ENDBRANCH  14  15
ENDBRANCH  13  14
ENDBRANCH  12  13
ENDBRANCH   1  12
TORSDOF 16
ENDMDL
MODEL 6
REMARK VINA RESULT:    -3.081      2.447      4.817
REMARK INTER + INTRA:          -9.087
REMARK INTER:                  -6.924
REMARK INTRA:                  -2.163
REMARK UNBOUND:                -3.124
REMARK SMILES CCCCCCCCCCCCCCCCCC(=O)[O-]
REMARK SMILES IDX 10 1 11 2 12 3 13 4 14 5 15 6 16 7 17 8 18 9 19 10 20 11
REMARK SMILES IDX 9 12 8 13 7 14 6 15 5 16 4 17 3 18 2 19 1 20
REMARK H PARENT
REMARK Flexibility Score: inf
ROOT
ATOM      1  C   UNL     1     188.696 174.534 177.666  1.00  0.00     0.000 C 
ENDROOT
BRANCH   1   2
ATOM      2  C   UNL     1     187.902 173.798 178.757  1.00  0.00     0.000 C 
BRANCH   2   3
ATOM      3  C   UNL     1     186.447 174.281 178.863  1.00  0.00     0.000 C 
BRANCH   3   4
ATOM      4  C   UNL     1     186.063 174.690 180.296  1.00  0.00     0.000 C 
BRANCH   4   5
ATOM      5  C   UNL     1     187.043 175.712 180.896  1.00  0.00     0.000 C 
BRANCH   5   6
ATOM      6  C   UNL     1     187.040 177.046 180.129  1.00  0.00     0.000 C 
BRANCH   6   7
ATOM      7  C   UNL     1     188.456 177.587 179.875  1.00  0.00     0.006 C 
BRANCH   7   8
ATOM      8  C   UNL     1     189.523 176.872 180.715  1.00  0.00     0.053 C 
BRANCH   8   9
ATOM      9  C   UNL     1     190.204 177.841 181.629  1.00  0.00     0.041 C 
ATOM     10  O   UNL     1     191.358 177.594 182.068  1.00  0.00    -0.550 OA
ATOM     11  O   UNL     1     189.583 179.038 181.960  1.00  0.00    -0.550 OA
ENDBRANCH   8   9
ENDBRANCH   7   8
ENDBRANCH   6   7
ENDBRANCH   5   6
ENDBRANCH   4   5
ENDBRANCH   3   4
ENDBRANCH   2   3
ENDBRANCH   1   2
BRANCH   1  12
ATOM     12  C   UNL     1     190.175 174.735 178.037  1.00  0.00     0.000 C 
BRANCH  12  13
ATOM     13  C   UNL     1     191.063 175.136 176.840  1.00  0.00    -0.000 C 
BRANCH  13  14
ATOM     14  C   UNL     1     191.241 176.661 176.734  1.00  0.00    -0.000 C 
BRANCH  14  15
ATOM     15  C   UNL     1     191.130 177.173 175.289  1.00  0.00    -0.000 C 
BRANCH  15  16
ATOM     16  C   UNL     1     191.323 176.059 174.250  1.00  0.00    -0.000 C 
BRANCH  16  17
ATOM     17  C   UNL     1     190.273 176.165 173.135  1.00  0.00    -0.000 C 
BRANCH  17  18
ATOM     18  C   UNL     1     189.812 174.792 172.619  1.00  0.00    -0.000 C 
BRANCH  18  19
ATOM     19  C   UNL     1     190.251 173.640 173.536  1.00  0.00    -0.003 C 
ATOM     20  C   UNL     1     189.060 173.051 174.287  1.00  0.00     0.004 C 
ENDBRANCH  18  19
ENDBRANCH  17  18
ENDBRANCH  16  17
ENDBRANCH  15  16
ENDBRANCH  14  15
ENDBRANCH  13  14
ENDBRANCH  12  13
ENDBRANCH   1  12
TORSDOF 16
ENDMDL
MODEL 7
REMARK VINA RESULT:    -3.048      3.098      6.013
REMARK INTER + INTRA:          -9.023
REMARK INTER:                  -6.056
REMARK INTRA:                  -2.967
REMARK UNBOUND:                -3.124
REMARK SMILES CCCCCCCCCCCCCCCCCC(=O)[O-]
REMARK SMILES IDX 10 1 11 2 12 3 13 4 14 5 15 6 16 7 17 8 18 9 19 10 20 11
REMARK SMILES IDX 9 12 8 13 7 14 6 15 5 16 4 17 3 18 2 19 1 20
REMARK H PARENT
REMARK Flexibility Score: inf
ROOT
ATOM      1  C   UNL     1     187.160 174.891 174.820  1.00  0.00     0.000 C 
ENDROOT
BRANCH   1   2
ATOM      2  C   UNL     1     187.871 174.091 173.716  1.00  0.00     0.000 C 
BRANCH   2   3
ATOM      3  C   UNL     1     188.754 172.963 174.274  1.00  0.00     0.000 C 
BRANCH   3   4
ATOM      4  C   UNL     1     190.244 173.345 174.312  1.00  0.00     0.000 C 
BRANCH   4   5
ATOM      5  C   UNL     1     190.695 173.810 175.707  1.00  0.00     0.000 C 
BRANCH   5   6
ATOM      6  C   UNL     1     191.036 175.310 175.742  1.00  0.00     0.000 C 
BRANCH   6   7
ATOM      7  C   UNL     1     191.240 175.904 174.339  1.00  0.00     0.006 C 
BRANCH   7   8
ATOM      8  C   UNL     1     190.214 176.995 174.003  1.00  0.00     0.053 C 
BRANCH   8   9
ATOM      9  C   UNL     1     189.963 177.039 172.528  1.00  0.00     0.041 C 
ATOM     10  O   UNL     1     189.501 178.082 171.996  1.00  0.00    -0.550 OA
ATOM     11  O   UNL     1     190.284 175.945 171.736  1.00  0.00    -0.550 OA
ENDBRANCH   8   9
ENDBRANCH   7   8
ENDBRANCH   6   7
ENDBRANCH   5   6
ENDBRANCH   4   5
ENDBRANCH   3   4
ENDBRANCH   2   3
ENDBRANCH   1   2
BRANCH   1  12
ATOM     12  C   UNL     1     187.016 174.100 176.132  1.00  0.00     0.000 C 
BRANCH  12  13
ATOM     13  C   UNL     1     187.425 174.904 177.384  1.00  0.00    -0.000 C 
BRANCH  13  14
ATOM     14  C   UNL     1     188.139 174.028 178.429  1.00  0.00    -0.000 C 
BRANCH  14  15
ATOM     15  C   UNL     1     189.343 174.735 179.072  1.00  0.00    -0.000 C 
BRANCH  15  16
ATOM     16  C   UNL     1     189.109 176.239 179.273  1.00  0.00    -0.000 C 
BRANCH  16  17
ATOM     17  C   UNL     1     190.433 177.013 179.191  1.00  0.00    -0.000 C 
BRANCH  17  18
ATOM     18  C   UNL     1     190.455 178.032 178.040  1.00  0.00    -0.000 C 
BRANCH  18  19
ATOM     19  C   UNL     1     191.880 178.394 177.597  1.00  0.00    -0.003 C 
ATOM     20  C   UNL     1     191.861 179.410 176.460  1.00  0.00     0.004 C 
ENDBRANCH  18  19
ENDBRANCH  17  18
ENDBRANCH  16  17
ENDBRANCH  15  16
ENDBRANCH  14  15
ENDBRANCH  13  14
ENDBRANCH  12  13
ENDBRANCH   1  12
TORSDOF 16
ENDMDL
MODEL 8
REMARK VINA RESULT:    -3.044      1.745      3.651
REMARK INTER + INTRA:          -9.016
REMARK INTER:                  -6.061
REMARK INTRA:                  -2.955
REMARK UNBOUND:                -3.124
REMARK SMILES CCCCCCCCCCCCCCCCCC(=O)[O-]
REMARK SMILES IDX 10 1 11 2 12 3 13 4 14 5 15 6 16 7 17 8 18 9 19 10 20 11
REMARK SMILES IDX 9 12 8 13 7 14 6 15 5 16 4 17 3 18 2 19 1 20
REMARK H PARENT
REMARK Flexibility Score: inf
ROOT
ATOM      1  C   UNL     1     187.236 175.095 176.134  1.00  0.00     0.000 C 
ENDROOT
BRANCH   1   2
ATOM      2  C   UNL     1     187.637 174.066 177.204  1.00  0.00     0.000 C 
BRANCH   2   3
ATOM      3  C   UNL     1     188.617 174.636 178.241  1.00  0.00     0.000 C 
BRANCH   3   4
ATOM      4  C   UNL     1     189.007 176.096 177.945  1.00  0.00     0.000 C 
BRANCH   4   5
ATOM      5  C   UNL     1     190.301 176.514 178.663  1.00  0.00     0.000 C 
BRANCH   5   6
ATOM      6  C   UNL     1     190.104 177.758 179.547  1.00  0.00     0.000 C 
BRANCH   6   7
ATOM      7  C   UNL     1     190.569 177.535 180.995  1.00  0.00     0.006 C 
BRANCH   7   8
ATOM      8  C   UNL     1     189.698 176.519 181.747  1.00  0.00     0.053 C 
BRANCH   8   9
ATOM      9  C   UNL     1     188.281 176.996 181.817  1.00  0.00     0.041 C 
ATOM     10  O   UNL     1     187.989 178.015 182.496  1.00  0.00    -0.550 OA
ATOM     11  O   UNL     1     187.292 176.343 181.094  1.00  0.00    -0.550 OA
ENDBRANCH   8   9
ENDBRANCH   7   8
ENDBRANCH   6   7
ENDBRANCH   5   6
ENDBRANCH   4   5
ENDBRANCH   3   4
ENDBRANCH   2   3
ENDBRANCH   1   2
BRANCH   1  12
ATOM     12  C   UNL     1     187.235 174.508 174.712  1.00  0.00     0.000 C 
BRANCH  12  13
ATOM     13  C   UNL     1     188.061 173.211 174.579  1.00  0.00    -0.000 C 
BRANCH  13  14
ATOM     14  C   UNL     1     189.440 173.463 173.945  1.00  0.00    -0.000 C 
BRANCH  14  15
ATOM     15  C   UNL     1     190.596 173.250 174.934  1.00  0.00    -0.000 C 
BRANCH  15  16
ATOM     16  C   UNL     1     191.114 174.566 175.533  1.00  0.00    -0.000 C 
BRANCH  16  17
ATOM     17  C   UNL     1     191.019 175.707 174.510  1.00  0.00    -0.000 C 
BRANCH  17  18
ATOM     18  C   UNL     1     191.354 177.079 175.117  1.00  0.00    -0.000 C 
BRANCH  18  19
ATOM     19  C   UNL     1     190.173 178.059 175.051  1.00  0.00    -0.003 C 
ATOM     20  C   UNL     1     189.163 177.632 173.990  1.00  0.00     0.004 C 
ENDBRANCH  18  19
ENDBRANCH  17  18
ENDBRANCH  16  17
ENDBRANCH  15  16
ENDBRANCH  14  15
ENDBRANCH  13  14
ENDBRANCH  12  13
ENDBRANCH   1  12
TORSDOF 16
ENDMDL
MODEL 9
REMARK VINA RESULT:    -2.980      2.121      3.671
REMARK INTER + INTRA:          -8.891
REMARK INTER:                  -5.690
REMARK INTRA:                  -3.201
REMARK UNBOUND:                -3.124
REMARK SMILES CCCCCCCCCCCCCCCCCC(=O)[O-]
REMARK SMILES IDX 10 1 11 2 12 3 13 4 14 5 15 6 16 7 17 8 18 9 19 10 20 11
REMARK SMILES IDX 9 12 8 13 7 14 6 15 5 16 4 17 3 18 2 19 1 20
REMARK H PARENT
REMARK Flexibility Score: inf
ROOT
ATOM      1  C   UNL     1     189.573 174.894 172.027  1.00  0.00     0.000 C 
ENDROOT
BRANCH   1   2
ATOM      2  C   UNL     1     190.626 174.361 173.012  1.00  0.00     0.000 C 
BRANCH   2   3
ATOM      3  C   UNL     1     190.028 173.420 174.070  1.00  0.00     0.000 C 
BRANCH   3   4
ATOM      4  C   UNL     1     190.854 173.392 175.369  1.00  0.00     0.000 C 
BRANCH   4   5
ATOM      5  C   UNL     1     191.050 174.794 175.969  1.00  0.00     0.000 C 
BRANCH   5   6
ATOM      6  C   UNL     1     190.623 174.864 177.446  1.00  0.00     0.000 C 
BRANCH   6   7
ATOM      7  C   UNL     1     190.660 176.294 178.007  1.00  0.00     0.006 C 
BRANCH   7   8
ATOM      8  C   UNL     1     189.887 176.435 179.325  1.00  0.00     0.053 C 
BRANCH   8   9
ATOM      9  C   UNL     1     190.542 177.447 180.210  1.00  0.00     0.041 C 
ATOM     10  O   UNL     1     191.243 178.366 179.710  1.00  0.00    -0.550 OA
ATOM     11  O   UNL     1     190.342 177.404 181.583  1.00  0.00    -0.550 OA
ENDBRANCH   8   9
ENDBRANCH   7   8
ENDBRANCH   6   7
ENDBRANCH   5   6
ENDBRANCH   4   5
ENDBRANCH   3   4
ENDBRANCH   2   3
ENDBRANCH   1   2
BRANCH   1  12
ATOM     12  C   UNL     1     189.203 176.364 172.285  1.00  0.00     0.000 C 
BRANCH  12  13
ATOM     13  C   UNL     1     190.256 177.128 173.116  1.00  0.00    -0.000 C 
BRANCH  13  14
ATOM     14  C   UNL     1     189.672 177.678 174.429  1.00  0.00    -0.000 C 
BRANCH  14  15
ATOM     15  C   UNL     1     188.278 177.112 174.742  1.00  0.00    -0.000 C 
BRANCH  15  16
ATOM     16  C   UNL     1     187.841 177.379 176.190  1.00  0.00    -0.000 C 
BRANCH  16  17
ATOM     17  C   UNL     1     187.006 176.209 176.732  1.00  0.00    -0.000 C 
BRANCH  17  18
ATOM     18  C   UNL     1     187.039 174.979 175.811  1.00  0.00    -0.000 C 
BRANCH  18  19
ATOM     19  C   UNL     1     187.270 173.670 176.582  1.00  0.00    -0.003 C 
ATOM     20  C   UNL     1     187.066 173.871 178.080  1.00  0.00     0.004 C 
ENDBRANCH  18  19
ENDBRANCH  17  18
ENDBRANCH  16  17
ENDBRANCH  15  16
ENDBRANCH  14  15
ENDBRANCH  13  14
ENDBRANCH  12  13
ENDBRANCH   1  12
TORSDOF 16
ENDMDL
