MODEL 1
REMARK VINA RESULT:    -6.702      0.000      0.000
REMARK INTER + INTRA:         -10.932
REMARK INTER:                  -9.248
REMARK INTRA:                  -1.684
REMARK UNBOUND:                -1.684
REMARK SMILES CC[C@@H](CC[C@H](C)[C@H]1CC[C@H]2C3=CC[C@H]4C[C@@H](O)CC[C@]4(C)[C@H]3CC[C@]12C)C(C)C
REMARK SMILES IDX 5 1 4 2 3 3 2 4 1 5 28 6 29 7 30 8 6 9 7 10 8 11 9 12 26 13
REMARK SMILES IDX 10 14 11 15 25 16 27 17 12 18 24 19 23 20 13 21 21 22 14 23
REMARK SMILES IDX 15 24 20 25 22 26 16 27 19 28 17 29 18 30
REMARK H PARENT 18 31
REMARK Flexibility Score: inf
ROOT
ATOM      1  C   UNL     1     147.893 141.282 137.882  1.00  0.00     0.004 C 
ENDROOT
BRANCH   1   2
ATOM      2  C   UNL     1     146.682 141.562 136.967  1.00  0.00     0.004 C 
BRANCH   2   3
ATOM      3  C   UNL     1     145.727 140.344 136.825  1.00  0.00    -0.009 C 
BRANCH   3   4
ATOM      4  C   UNL     1     146.015 139.470 135.568  1.00  0.00     0.000 C 
ATOM      5  C   UNL     1     145.738 137.971 135.710  1.00  0.00     0.004 C 
ENDBRANCH   3   4
BRANCH   3   6
ATOM      6  C   UNL     1     144.230 140.746 137.054  1.00  0.00    -0.014 C 
ATOM      7  C   UNL     1     143.445 139.680 137.831  1.00  0.00     0.007 C 
ATOM      8  C   UNL     1     143.458 141.166 135.788  1.00  0.00     0.007 C 
ENDBRANCH   3   6
ENDBRANCH   2   3
ENDBRANCH   1   2
BRANCH   1   9
ATOM      9  C   UNL     1     147.529 140.962 139.358  1.00  0.00    -0.011 C 
ATOM     10  C   UNL     1     147.476 142.252 140.206  1.00  0.00     0.008 C 
BRANCH   9  11
ATOM     11  C   UNL     1     148.385 139.783 139.946  1.00  0.00    -0.002 C 
ATOM     12  C   UNL     1     148.267 139.501 141.469  1.00  0.00     0.005 C 
ATOM     13  C   UNL     1     148.207 138.391 139.280  1.00  0.00    -0.023 C 
ATOM     14  C   UNL     1     148.553 137.999 141.654  1.00  0.00     0.009 C 
ATOM     15  C   UNL     1     148.989 137.526 140.267  1.00  0.00     0.021 C 
ATOM     16  C   UNL     1     148.822 138.265 137.847  1.00  0.00     0.008 C 
ATOM     17  C   UNL     1     146.703 137.983 139.227  1.00  0.00     0.012 C 
ATOM     18  C   UNL     1     148.925 136.081 139.843  1.00  0.00    -0.067 C 
ATOM     19  C   UNL     1     149.777 137.055 137.606  1.00  0.00     0.009 C 
ATOM     20  C   UNL     1     149.617 135.779 138.517  1.00  0.00     0.021 C 
ATOM     21  C   UNL     1     148.341 135.114 140.584  1.00  0.00    -0.027 C 
ATOM     22  C   UNL     1     149.077 134.484 137.809  1.00  0.00    -0.023 C 
ATOM     23  C   UNL     1     148.148 133.703 140.087  1.00  0.00     0.031 C 
ATOM     24  C   UNL     1     149.061 133.356 138.896  1.00  0.00     0.002 C 
ATOM     25  C   UNL     1     150.058 134.042 136.672  1.00  0.00     0.010 C 
ATOM     26  C   UNL     1     147.669 134.737 137.210  1.00  0.00     0.012 C 
ATOM     27  C   UNL     1     148.706 131.973 138.317  1.00  0.00     0.036 C 
ATOM     28  C   UNL     1     149.757 132.643 136.106  1.00  0.00     0.032 C 
ATOM     29  C   UNL     1     149.702 131.580 137.214  1.00  0.00     0.114 C 
BRANCH  29  30
ATOM     30  O   UNL     1     149.376 130.321 136.680  1.00  0.00    -0.393 OA
ATOM     31  H   UNL     1     148.423 130.139 136.888  1.00  0.00     0.210 HD
ENDBRANCH  29  30
ENDBRANCH   9  11
ENDBRANCH   1   9
TORSDOF 7
ENDMDL
MODEL 2
REMARK VINA RESULT:    -6.339      7.200      9.895
REMARK INTER + INTRA:         -10.431
REMARK INTER:                  -9.188
REMARK INTRA:                  -1.243
REMARK UNBOUND:                -1.684
REMARK SMILES CC[C@@H](CC[C@H](C)[C@H]1CC[C@H]2C3=CC[C@H]4C[C@@H](O)CC[C@]4(C)[C@H]3CC[C@]12C)C(C)C
REMARK SMILES IDX 5 1 4 2 3 3 2 4 1 5 28 6 29 7 30 8 6 9 7 10 8 11 9 12 26 13
REMARK SMILES IDX 10 14 11 15 25 16 27 17 12 18 24 19 23 20 13 21 21 22 14 23
REMARK SMILES IDX 15 24 20 25 22 26 16 27 19 28 17 29 18 30
REMARK H PARENT 18 31
REMARK Flexibility Score: inf
ROOT
ATOM      1  C   UNL     1     136.007 136.467 140.977  1.00  0.00     0.004 C 
ENDROOT
BRANCH   1   2
ATOM      2  C   UNL     1     134.727 136.150 141.779  1.00  0.00     0.004 C 
BRANCH   2   3
ATOM      3  C   UNL     1     133.913 137.418 142.160  1.00  0.00    -0.009 C 
BRANCH   3   4
ATOM      4  C   UNL     1     133.559 138.320 140.940  1.00  0.00     0.000 C 
ATOM      5  C   UNL     1     132.453 137.803 140.016  1.00  0.00     0.004 C 
ENDBRANCH   3   4
BRANCH   3   6
ATOM      6  C   UNL     1     134.522 138.152 143.403  1.00  0.00    -0.014 C 
ATOM      7  C   UNL     1     133.809 137.785 144.712  1.00  0.00     0.007 C 
ATOM      8  C   UNL     1     134.649 139.682 143.270  1.00  0.00     0.007 C 
ENDBRANCH   3   6
ENDBRANCH   2   3
ENDBRANCH   1   2
BRANCH   1   9
ATOM      9  C   UNL     1     137.332 136.117 141.707  1.00  0.00    -0.011 C 
ATOM     10  C   UNL     1     137.054 135.375 143.033  1.00  0.00     0.008 C 
BRANCH   9  11
ATOM     11  C   UNL     1     138.311 137.344 141.796  1.00  0.00    -0.002 C 
ATOM     12  C   UNL     1     138.177 138.281 143.027  1.00  0.00     0.005 C 
ATOM     13  C   UNL     1     139.830 137.032 141.710  1.00  0.00    -0.023 C 
ATOM     14  C   UNL     1     139.576 138.880 143.268  1.00  0.00     0.009 C 
ATOM     15  C   UNL     1     140.400 138.402 142.073  1.00  0.00     0.021 C 
ATOM     16  C   UNL     1     140.333 136.596 140.295  1.00  0.00     0.008 C 
ATOM     17  C   UNL     1     140.239 135.947 142.752  1.00  0.00     0.012 C 
ATOM     18  C   UNL     1     141.906 138.340 142.096  1.00  0.00    -0.067 C 
ATOM     19  C   UNL     1     141.562 137.371 139.726  1.00  0.00     0.009 C 
ATOM     20  C   UNL     1     142.550 138.061 140.741  1.00  0.00     0.021 C 
ATOM     21  C   UNL     1     142.641 138.550 143.210  1.00  0.00    -0.027 C 
ATOM     22  C   UNL     1     143.987 137.435 140.846  1.00  0.00    -0.023 C 
ATOM     23  C   UNL     1     144.134 138.337 143.260  1.00  0.00     0.031 C 
ATOM     24  C   UNL     1     144.785 138.319 141.864  1.00  0.00     0.002 C 
ATOM     25  C   UNL     1     144.714 137.518 139.463  1.00  0.00     0.010 C 
ATOM     26  C   UNL     1     143.905 135.954 141.301  1.00  0.00     0.012 C 
ATOM     27  C   UNL     1     146.272 137.929 141.956  1.00  0.00     0.036 C 
ATOM     28  C   UNL     1     146.213 137.180 139.532  1.00  0.00     0.032 C 
ATOM     29  C   UNL     1     146.944 138.038 140.578  1.00  0.00     0.114 C 
BRANCH  29  30
ATOM     30  O   UNL     1     148.299 137.676 140.659  1.00  0.00    -0.393 OA
ATOM     31  H   UNL     1     148.674 137.687 139.740  1.00  0.00     0.210 HD
ENDBRANCH  29  30
ENDBRANCH   9  11
ENDBRANCH   1   9
TORSDOF 7
ENDMDL
MODEL 3
REMARK VINA RESULT:    -6.247      4.060      7.252
REMARK INTER + INTRA:         -10.304
REMARK INTER:                  -8.181
REMARK INTRA:                  -2.123
REMARK UNBOUND:                -1.684
REMARK SMILES CC[C@@H](CC[C@H](C)[C@H]1CC[C@H]2C3=CC[C@H]4C[C@@H](O)CC[C@]4(C)[C@H]3CC[C@]12C)C(C)C
REMARK SMILES IDX 5 1 4 2 3 3 2 4 1 5 28 6 29 7 30 8 6 9 7 10 8 11 9 12 26 13
REMARK SMILES IDX 10 14 11 15 25 16 27 17 12 18 24 19 23 20 13 21 21 22 14 23
REMARK SMILES IDX 15 24 20 25 22 26 16 27 19 28 17 29 18 30
REMARK H PARENT 18 31
REMARK Flexibility Score: inf
ROOT
ATOM      1  C   UNL     1     149.727 138.489 140.254  1.00  0.00     0.004 C 
ENDROOT
BRANCH   1   2
ATOM      2  C   UNL     1     149.879 139.993 139.947  1.00  0.00     0.004 C 
BRANCH   2   3
ATOM      3  C   UNL     1     149.402 140.907 141.110  1.00  0.00    -0.009 C 
BRANCH   3   4
ATOM      4  C   UNL     1     148.616 140.145 142.219  1.00  0.00     0.000 C 
ATOM      5  C   UNL     1     147.256 140.732 142.607  1.00  0.00     0.004 C 
ENDBRANCH   3   4
BRANCH   3   6
ATOM      6  C   UNL     1     148.742 142.227 140.584  1.00  0.00    -0.014 C 
ATOM      7  C   UNL     1     148.140 142.066 139.180  1.00  0.00     0.007 C 
ATOM      8  C   UNL     1     149.633 143.482 140.646  1.00  0.00     0.007 C 
ENDBRANCH   3   6
ENDBRANCH   2   3
ENDBRANCH   1   2
BRANCH   1   9
ATOM      9  C   UNL     1     148.759 137.729 139.306  1.00  0.00    -0.011 C 
ATOM     10  C   UNL     1     149.476 137.311 138.003  1.00  0.00     0.008 C 
BRANCH   9  11
ATOM     11  C   UNL     1     147.384 138.471 139.130  1.00  0.00    -0.002 C 
ATOM     12  C   UNL     1     146.999 138.937 137.700  1.00  0.00     0.005 C 
ATOM     13  C   UNL     1     146.121 137.730 139.649  1.00  0.00    -0.023 C 
ATOM     14  C   UNL     1     145.459 138.936 137.645  1.00  0.00     0.009 C 
ATOM     15  C   UNL     1     145.033 138.641 139.083  1.00  0.00     0.021 C 
ATOM     16  C   UNL     1     146.000 137.650 141.207  1.00  0.00     0.008 C 
ATOM     17  C   UNL     1     146.031 136.292 139.056  1.00  0.00     0.012 C 
ATOM     18  C   UNL     1     143.673 138.091 139.431  1.00  0.00    -0.067 C 
ATOM     19  C   UNL     1     144.649 138.127 141.824  1.00  0.00     0.009 C 
ATOM     20  C   UNL     1     143.356 138.084 140.924  1.00  0.00     0.021 C 
ATOM     21  C   UNL     1     142.782 137.671 138.507  1.00  0.00    -0.027 C 
ATOM     22  C   UNL     1     142.264 137.029 141.328  1.00  0.00    -0.023 C 
ATOM     23  C   UNL     1     141.489 136.983 138.867  1.00  0.00     0.031 C 
ATOM     24  C   UNL     1     141.071 137.218 140.331  1.00  0.00     0.002 C 
ATOM     25  C   UNL     1     141.736 137.325 142.772  1.00  0.00     0.010 C 
ATOM     26  C   UNL     1     142.847 135.592 141.274  1.00  0.00     0.012 C 
ATOM     27  C   UNL     1     139.845 136.360 140.697  1.00  0.00     0.036 C 
ATOM     28  C   UNL     1     140.482 136.517 143.148  1.00  0.00     0.032 C 
ATOM     29  C   UNL     1     139.358 136.695 142.115  1.00  0.00     0.114 C 
BRANCH  29  30
ATOM     30  O   UNL     1     138.243 135.909 142.454  1.00  0.00    -0.393 OA
ATOM     31  H   UNL     1     137.573 136.499 142.887  1.00  0.00     0.210 HD
ENDBRANCH  29  30
ENDBRANCH   9  11
ENDBRANCH   1   9
TORSDOF 7
ENDMDL
MODEL 4
REMARK VINA RESULT:    -6.215      4.970      8.390
REMARK INTER + INTRA:         -10.261
REMARK INTER:                  -8.418
REMARK INTRA:                  -1.843
REMARK UNBOUND:                -1.684
REMARK SMILES CC[C@@H](CC[C@H](C)[C@H]1CC[C@H]2C3=CC[C@H]4C[C@@H](O)CC[C@]4(C)[C@H]3CC[C@]12C)C(C)C
REMARK SMILES IDX 5 1 4 2 3 3 2 4 1 5 28 6 29 7 30 8 6 9 7 10 8 11 9 12 26 13
REMARK SMILES IDX 10 14 11 15 25 16 27 17 12 18 24 19 23 20 13 21 21 22 14 23
REMARK SMILES IDX 15 24 20 25 22 26 16 27 19 28 17 29 18 30
REMARK H PARENT 18 31
REMARK Flexibility Score: inf
ROOT
ATOM      1  C   UNL     1     147.631 138.691 142.095  1.00  0.00     0.004 C 
ENDROOT
BRANCH   1   2
ATOM      2  C   UNL     1     147.141 140.124 141.796  1.00  0.00     0.004 C 
BRANCH   2   3
ATOM      3  C   UNL     1     148.194 140.988 141.050  1.00  0.00    -0.009 C 
BRANCH   3   4
ATOM      4  C   UNL     1     147.933 142.520 141.158  1.00  0.00     0.000 C 
ATOM      5  C   UNL     1     149.171 143.406 141.322  1.00  0.00     0.004 C 
ENDBRANCH   3   4
BRANCH   3   6
ATOM      6  C   UNL     1     148.484 140.441 139.610  1.00  0.00    -0.014 C 
ATOM      7  C   UNL     1     149.986 140.349 139.305  1.00  0.00     0.007 C 
ATOM      8  C   UNL     1     147.748 141.167 138.467  1.00  0.00     0.007 C 
ENDBRANCH   3   6
ENDBRANCH   2   3
ENDBRANCH   1   2
BRANCH   1   9
ATOM      9  C   UNL     1     146.892 137.577 141.305  1.00  0.00    -0.011 C 
ATOM     10  C   UNL     1     147.888 136.723 140.490  1.00  0.00     0.008 C 
BRANCH   9  11
ATOM     11  C   UNL     1     145.646 138.123 140.518  1.00  0.00    -0.002 C 
ATOM     12  C   UNL     1     145.679 138.030 138.968  1.00  0.00     0.005 C 
ATOM     13  C   UNL     1     144.261 137.538 140.911  1.00  0.00    -0.023 C 
ATOM     14  C   UNL     1     144.213 137.916 138.510  1.00  0.00     0.009 C 
ATOM     15  C   UNL     1     143.403 138.122 139.789  1.00  0.00     0.021 C 
ATOM     16  C   UNL     1     143.722 138.006 142.302  1.00  0.00     0.008 C 
ATOM     17  C   UNL     1     144.278 135.980 140.868  1.00  0.00     0.012 C 
ATOM     18  C   UNL     1     141.979 137.649 139.936  1.00  0.00    -0.067 C 
ATOM     19  C   UNL     1     142.274 138.587 142.325  1.00  0.00     0.009 C 
ATOM     20  C   UNL     1     141.271 138.150 141.191  1.00  0.00     0.021 C 
ATOM     21  C   UNL     1     141.355 136.876 139.020  1.00  0.00    -0.027 C 
ATOM     22  C   UNL     1     140.070 137.242 141.638  1.00  0.00    -0.023 C 
ATOM     23  C   UNL     1     139.987 136.283 139.244  1.00  0.00     0.031 C 
ATOM     24  C   UNL     1     139.198 136.993 140.361  1.00  0.00     0.002 C 
ATOM     25  C   UNL     1     139.184 137.996 142.686  1.00  0.00     0.010 C 
ATOM     26  C   UNL     1     140.589 135.917 142.257  1.00  0.00     0.012 C 
ATOM     27  C   UNL     1     137.886 136.247 140.667  1.00  0.00     0.036 C 
ATOM     28  C   UNL     1     137.844 137.298 142.977  1.00  0.00     0.032 C 
ATOM     29  C   UNL     1     137.048 137.031 141.689  1.00  0.00     0.114 C 
BRANCH  29  30
ATOM     30  O   UNL     1     135.853 136.349 141.976  1.00  0.00    -0.393 OA
ATOM     31  H   UNL     1     136.042 135.693 142.696  1.00  0.00     0.210 HD
ENDBRANCH  29  30
ENDBRANCH   9  11
ENDBRANCH   1   9
TORSDOF 7
ENDMDL
MODEL 5
REMARK VINA RESULT:    -6.209      5.967      9.342
REMARK INTER + INTRA:         -10.251
REMARK INTER:                  -8.816
REMARK INTRA:                  -1.436
REMARK UNBOUND:                -1.684
REMARK SMILES CC[C@@H](CC[C@H](C)[C@H]1CC[C@H]2C3=CC[C@H]4C[C@@H](O)CC[C@]4(C)[C@H]3CC[C@]12C)C(C)C
REMARK SMILES IDX 5 1 4 2 3 3 2 4 1 5 28 6 29 7 30 8 6 9 7 10 8 11 9 12 26 13
REMARK SMILES IDX 10 14 11 15 25 16 27 17 12 18 24 19 23 20 13 21 21 22 14 23
REMARK SMILES IDX 15 24 20 25 22 26 16 27 19 28 17 29 18 30
REMARK H PARENT 18 31
REMARK Flexibility Score: inf
ROOT
ATOM      1  C   UNL     1     146.400 139.004 142.418  1.00  0.00     0.004 C 
ENDROOT
BRANCH   1   2
ATOM      2  C   UNL     1     147.709 139.257 141.641  1.00  0.00     0.004 C 
BRANCH   2   3
ATOM      3  C   UNL     1     147.600 140.422 140.619  1.00  0.00    -0.009 C 
BRANCH   3   4
ATOM      4  C   UNL     1     147.671 139.957 139.134  1.00  0.00     0.000 C 
ATOM      5  C   UNL     1     146.513 140.395 138.233  1.00  0.00     0.004 C 
ENDBRANCH   3   4
BRANCH   3   6
ATOM      6  C   UNL     1     148.524 141.627 141.006  1.00  0.00    -0.014 C 
ATOM      7  C   UNL     1     149.035 141.538 142.451  1.00  0.00     0.007 C 
ATOM      8  C   UNL     1     147.939 143.025 140.727  1.00  0.00     0.007 C 
ENDBRANCH   3   6
ENDBRANCH   2   3
ENDBRANCH   1   2
BRANCH   1   9
ATOM      9  C   UNL     1     145.608 137.749 141.962  1.00  0.00    -0.011 C 
ATOM     10  C   UNL     1     146.552 136.692 141.348  1.00  0.00     0.008 C 
BRANCH   9  11
ATOM     11  C   UNL     1     144.338 138.116 141.112  1.00  0.00    -0.002 C 
ATOM     12  C   UNL     1     144.320 137.678 139.622  1.00  0.00     0.005 C 
ATOM     13  C   UNL     1     142.966 137.645 141.670  1.00  0.00    -0.023 C 
ATOM     14  C   UNL     1     142.840 137.476 139.248  1.00  0.00     0.009 C 
ATOM     15  C   UNL     1     142.072 137.970 140.474  1.00  0.00     0.021 C 
ATOM     16  C   UNL     1     142.473 138.417 142.937  1.00  0.00     0.008 C 
ATOM     17  C   UNL     1     142.979 136.117 141.976  1.00  0.00     0.012 C 
ATOM     18  C   UNL     1     140.653 137.554 140.768  1.00  0.00    -0.067 C 
ATOM     19  C   UNL     1     141.027 139.001 142.876  1.00  0.00     0.009 C 
ATOM     20  C   UNL     1     139.987 138.330 141.901  1.00  0.00     0.021 C 
ATOM     21  C   UNL     1     139.999 136.601 140.069  1.00  0.00    -0.027 C 
ATOM     22  C   UNL     1     138.800 137.554 142.578  1.00  0.00    -0.023 C 
ATOM     23  C   UNL     1     138.638 136.084 140.464  1.00  0.00     0.031 C 
ATOM     24  C   UNL     1     137.887 137.034 141.417  1.00  0.00     0.002 C 
ATOM     25  C   UNL     1     137.950 138.531 143.458  1.00  0.00     0.010 C 
ATOM     26  C   UNL     1     139.338 136.397 143.461  1.00  0.00     0.012 C 
ATOM     27  C   UNL     1     136.585 136.386 141.925  1.00  0.00     0.036 C 
ATOM     28  C   UNL     1     136.620 137.927 143.941  1.00  0.00     0.032 C 
ATOM     29  C   UNL     1     135.782 137.386 142.771  1.00  0.00     0.114 C 
BRANCH  29  30
ATOM     30  O   UNL     1     134.596 136.795 143.241  1.00  0.00    -0.393 OA
ATOM     31  H   UNL     1     134.777 136.425 144.144  1.00  0.00     0.210 HD
ENDBRANCH  29  30
ENDBRANCH   9  11
ENDBRANCH   1   9
TORSDOF 7
ENDMDL
MODEL 6
REMARK VINA RESULT:    -6.106      4.280      7.062
REMARK INTER + INTRA:         -10.109
REMARK INTER:                  -8.153
REMARK INTRA:                  -1.957
REMARK UNBOUND:                -1.684
REMARK SMILES CC[C@@H](CC[C@H](C)[C@H]1CC[C@H]2C3=CC[C@H]4C[C@@H](O)CC[C@]4(C)[C@H]3CC[C@]12C)C(C)C
REMARK SMILES IDX 5 1 4 2 3 3 2 4 1 5 28 6 29 7 30 8 6 9 7 10 8 11 9 12 26 13
REMARK SMILES IDX 10 14 11 15 25 16 27 17 12 18 24 19 23 20 13 21 21 22 14 23
REMARK SMILES IDX 15 24 20 25 22 26 16 27 19 28 17 29 18 30
REMARK H PARENT 18 31
REMARK Flexibility Score: inf
ROOT
ATOM      1  C   UNL     1     149.025 138.287 137.726  1.00  0.00     0.004 C 
ENDROOT
BRANCH   1   2
ATOM      2  C   UNL     1     149.534 139.699 138.083  1.00  0.00     0.004 C 
BRANCH   2   3
ATOM      3  C   UNL     1     148.614 140.446 139.089  1.00  0.00    -0.009 C 
BRANCH   3   4
ATOM      4  C   UNL     1     147.739 141.552 138.429  1.00  0.00     0.000 C 
ATOM      5  C   UNL     1     146.527 141.067 137.628  1.00  0.00     0.004 C 
ENDBRANCH   3   4
BRANCH   3   6
ATOM      6  C   UNL     1     149.386 140.864 140.387  1.00  0.00    -0.014 C 
ATOM      7  C   UNL     1     149.054 139.965 141.586  1.00  0.00     0.007 C 
ATOM      8  C   UNL     1     149.263 142.350 140.779  1.00  0.00     0.007 C 
ENDBRANCH   3   6
ENDBRANCH   2   3
ENDBRANCH   1   2
BRANCH   1   9
ATOM      9  C   UNL     1     148.838 137.339 138.941  1.00  0.00    -0.011 C 
ATOM     10  C   UNL     1     150.122 136.524 139.210  1.00  0.00     0.008 C 
BRANCH   9  11
ATOM     11  C   UNL     1     147.502 136.516 138.861  1.00  0.00    -0.002 C 
ATOM     12  C   UNL     1     147.604 134.969 138.966  1.00  0.00     0.005 C 
ATOM     13  C   UNL     1     146.385 136.898 139.871  1.00  0.00    -0.023 C 
ATOM     14  C   UNL     1     146.275 134.488 139.576  1.00  0.00     0.009 C 
ATOM     15  C   UNL     1     145.410 135.747 139.632  1.00  0.00     0.021 C 
ATOM     16  C   UNL     1     145.684 138.267 139.587  1.00  0.00     0.008 C 
ATOM     17  C   UNL     1     146.926 136.896 141.333  1.00  0.00     0.012 C 
ATOM     18  C   UNL     1     144.224 135.880 140.554  1.00  0.00    -0.067 C 
ATOM     19  C   UNL     1     144.125 138.249 139.528  1.00  0.00     0.009 C 
ATOM     20  C   UNL     1     143.357 137.109 140.298  1.00  0.00     0.021 C 
ATOM     21  C   UNL     1     143.921 134.974 141.509  1.00  0.00    -0.027 C 
ATOM     22  C   UNL     1     142.520 137.558 141.550  1.00  0.00    -0.023 C 
ATOM     23  C   UNL     1     142.827 135.188 142.524  1.00  0.00     0.031 C 
ATOM     24  C   UNL     1     141.817 136.271 142.101  1.00  0.00     0.002 C 
ATOM     25  C   UNL     1     141.406 138.569 141.119  1.00  0.00     0.010 C 
ATOM     26  C   UNL     1     143.439 138.219 142.611  1.00  0.00     0.012 C 
ATOM     27  C   UNL     1     140.825 136.574 143.239  1.00  0.00     0.036 C 
ATOM     28  C   UNL     1     140.372 138.854 142.223  1.00  0.00     0.032 C 
ATOM     29  C   UNL     1     139.745 137.559 142.765  1.00  0.00     0.114 C 
BRANCH  29  30
ATOM     30  O   UNL     1     138.843 137.842 143.805  1.00  0.00    -0.393 OA
ATOM     31  H   UNL     1     138.512 136.979 144.165  1.00  0.00     0.210 HD
ENDBRANCH  29  30
ENDBRANCH   9  11
ENDBRANCH   1   9
TORSDOF 7
ENDMDL
MODEL 7
REMARK VINA RESULT:    -6.097      3.262      6.699
REMARK INTER + INTRA:         -10.097
REMARK INTER:                  -7.699
REMARK INTRA:                  -2.399
REMARK UNBOUND:                -1.684
REMARK SMILES CC[C@@H](CC[C@H](C)[C@H]1CC[C@H]2C3=CC[C@H]4C[C@@H](O)CC[C@]4(C)[C@H]3CC[C@]12C)C(C)C
REMARK SMILES IDX 5 1 4 2 3 3 2 4 1 5 28 6 29 7 30 8 6 9 7 10 8 11 9 12 26 13
REMARK SMILES IDX 10 14 11 15 25 16 27 17 12 18 24 19 23 20 13 21 21 22 14 23
REMARK SMILES IDX 15 24 20 25 22 26 16 27 19 28 17 29 18 30
REMARK H PARENT 18 31
REMARK Flexibility Score: inf
ROOT
ATOM      1  C   UNL     1     146.702 133.660 136.500  1.00  0.00     0.004 C 
ENDROOT
BRANCH   1   2
ATOM      2  C   UNL     1     145.273 133.992 136.980  1.00  0.00     0.004 C 
BRANCH   2   3
ATOM      3  C   UNL     1     144.632 135.183 136.215  1.00  0.00    -0.009 C 
BRANCH   3   4
ATOM      4  C   UNL     1     145.574 135.819 135.150  1.00  0.00     0.000 C 
ATOM      5  C   UNL     1     145.641 137.349 135.133  1.00  0.00     0.004 C 
ENDBRANCH   3   4
BRANCH   3   6
ATOM      6  C   UNL     1     143.919 136.185 137.187  1.00  0.00    -0.014 C 
ATOM      7  C   UNL     1     143.898 135.685 138.638  1.00  0.00     0.007 C 
ATOM      8  C   UNL     1     142.511 136.637 136.753  1.00  0.00     0.007 C 
ENDBRANCH   3   6
ENDBRANCH   2   3
ENDBRANCH   1   2
BRANCH   1   9
ATOM      9  C   UNL     1     147.814 133.917 137.552  1.00  0.00    -0.011 C 
ATOM     10  C   UNL     1     148.586 132.618 137.872  1.00  0.00     0.008 C 
BRANCH   9  11
ATOM     11  C   UNL     1     147.293 134.733 138.791  1.00  0.00    -0.002 C 
ATOM     12  C   UNL     1     147.365 134.048 140.183  1.00  0.00     0.005 C 
ATOM     13  C   UNL     1     147.922 136.136 139.017  1.00  0.00    -0.023 C 
ATOM     14  C   UNL     1     147.515 135.181 141.215  1.00  0.00     0.009 C 
ATOM     15  C   UNL     1     147.348 136.460 140.395  1.00  0.00     0.021 C 
ATOM     16  C   UNL     1     147.487 137.225 137.982  1.00  0.00     0.008 C 
ATOM     17  C   UNL     1     149.478 136.055 139.048  1.00  0.00     0.012 C 
ATOM     18  C   UNL     1     147.863 137.798 140.862  1.00  0.00    -0.067 C 
ATOM     19  C   UNL     1     146.948 138.565 138.570  1.00  0.00     0.009 C 
ATOM     20  C   UNL     1     147.398 138.984 140.021  1.00  0.00     0.021 C 
ATOM     21  C   UNL     1     148.641 137.955 141.954  1.00  0.00    -0.027 C 
ATOM     22  C   UNL     1     148.346 140.233 140.120  1.00  0.00    -0.023 C 
ATOM     23  C   UNL     1     149.276 139.272 142.327  1.00  0.00     0.031 C 
ATOM     24  C   UNL     1     148.602 140.478 141.646  1.00  0.00     0.002 C 
ATOM     25  C   UNL     1     147.631 141.500 139.543  1.00  0.00     0.010 C 
ATOM     26  C   UNL     1     149.663 139.982 139.341  1.00  0.00     0.012 C 
ATOM     27  C   UNL     1     149.389 141.773 141.920  1.00  0.00     0.036 C 
ATOM     28  C   UNL     1     148.370 142.816 139.843  1.00  0.00     0.032 C 
ATOM     29  C   UNL     1     148.642 142.988 141.346  1.00  0.00     0.114 C 
BRANCH  29  30
ATOM     30  O   UNL     1     149.362 144.171 141.588  1.00  0.00    -0.393 OA
ATOM     31  H   UNL     1     150.329 143.950 141.564  1.00  0.00     0.210 HD
ENDBRANCH  29  30
ENDBRANCH   9  11
ENDBRANCH   1   9
TORSDOF 7
ENDMDL
MODEL 8
REMARK VINA RESULT:    -5.962      4.830      7.492
REMARK INTER + INTRA:          -9.911
REMARK INTER:                  -7.990
REMARK INTRA:                  -1.921
REMARK UNBOUND:                -1.684
REMARK SMILES CC[C@@H](CC[C@H](C)[C@H]1CC[C@H]2C3=CC[C@H]4C[C@@H](O)CC[C@]4(C)[C@H]3CC[C@]12C)C(C)C
REMARK SMILES IDX 5 1 4 2 3 3 2 4 1 5 28 6 29 7 30 8 6 9 7 10 8 11 9 12 26 13
REMARK SMILES IDX 10 14 11 15 25 16 27 17 12 18 24 19 23 20 13 21 21 22 14 23
REMARK SMILES IDX 15 24 20 25 22 26 16 27 19 28 17 29 18 30
REMARK H PARENT 18 31
REMARK Flexibility Score: inf
ROOT
ATOM      1  C   UNL     1     146.764 139.982 138.042  1.00  0.00     0.004 C 
ENDROOT
BRANCH   1   2
ATOM      2  C   UNL     1     148.247 139.910 138.464  1.00  0.00     0.004 C 
BRANCH   2   3
ATOM      3  C   UNL     1     148.460 140.114 139.990  1.00  0.00    -0.009 C 
BRANCH   3   4
ATOM      4  C   UNL     1     148.835 141.576 140.376  1.00  0.00     0.000 C 
ATOM      5  C   UNL     1     147.872 142.291 141.328  1.00  0.00     0.004 C 
ENDBRANCH   3   4
BRANCH   3   6
ATOM      6  C   UNL     1     149.356 138.988 140.610  1.00  0.00    -0.014 C 
ATOM      7  C   UNL     1     149.081 137.609 139.994  1.00  0.00     0.007 C 
ATOM      8  C   UNL     1     149.338 138.903 142.149  1.00  0.00     0.007 C 
ENDBRANCH   3   6
ENDBRANCH   2   3
ENDBRANCH   1   2
BRANCH   1   9
ATOM      9  C   UNL     1     145.982 138.649 138.193  1.00  0.00    -0.011 C 
ATOM     10  C   UNL     1     145.727 137.998 136.815  1.00  0.00     0.008 C 
BRANCH   9  11
ATOM     11  C   UNL     1     144.730 138.790 139.132  1.00  0.00    -0.002 C 
ATOM     12  C   UNL     1     143.328 138.590 138.494  1.00  0.00     0.005 C 
ATOM     13  C   UNL     1     144.708 137.897 140.403  1.00  0.00    -0.023 C 
ATOM     14  C   UNL     1     142.414 138.063 139.616  1.00  0.00     0.009 C 
ATOM     15  C   UNL     1     143.277 138.149 140.875  1.00  0.00     0.021 C 
ATOM     16  C   UNL     1     145.724 138.315 141.517  1.00  0.00     0.008 C 
ATOM     17  C   UNL     1     144.936 136.399 140.041  1.00  0.00     0.012 C 
ATOM     18  C   UNL     1     142.994 137.335 142.112  1.00  0.00    -0.067 C 
ATOM     19  C   UNL     1     145.143 138.499 142.953  1.00  0.00     0.009 C 
ATOM     20  C   UNL     1     143.821 137.730 143.333  1.00  0.00     0.021 C 
ATOM     21  C   UNL     1     142.063 136.358 142.162  1.00  0.00    -0.027 C 
ATOM     22  C   UNL     1     143.967 136.577 144.391  1.00  0.00    -0.023 C 
ATOM     23  C   UNL     1     141.892 135.448 143.353  1.00  0.00     0.031 C 
ATOM     24  C   UNL     1     142.527 136.013 144.637  1.00  0.00     0.002 C 
ATOM     25  C   UNL     1     144.497 137.153 145.746  1.00  0.00     0.010 C 
ATOM     26  C   UNL     1     144.941 135.485 143.876  1.00  0.00     0.012 C 
ATOM     27  C   UNL     1     142.478 134.977 145.776  1.00  0.00     0.036 C 
ATOM     28  C   UNL     1     144.416 136.155 146.914  1.00  0.00     0.032 C 
ATOM     29  C   UNL     1     142.996 135.592 147.086  1.00  0.00     0.114 C 
BRANCH  29  30
ATOM     30  O   UNL     1     142.958 134.647 148.125  1.00  0.00    -0.393 OA
ATOM     31  H   UNL     1     142.860 135.138 148.981  1.00  0.00     0.210 HD
ENDBRANCH  29  30
ENDBRANCH   9  11
ENDBRANCH   1   9
TORSDOF 7
ENDMDL
MODEL 9
REMARK VINA RESULT:    -5.953      3.578      6.944
REMARK INTER + INTRA:          -9.899
REMARK INTER:                  -8.160
REMARK INTRA:                  -1.739
REMARK UNBOUND:                -1.684
REMARK SMILES CC[C@@H](CC[C@H](C)[C@H]1CC[C@H]2C3=CC[C@H]4C[C@@H](O)CC[C@]4(C)[C@H]3CC[C@]12C)C(C)C
REMARK SMILES IDX 5 1 4 2 3 3 2 4 1 5 28 6 29 7 30 8 6 9 7 10 8 11 9 12 26 13
REMARK SMILES IDX 10 14 11 15 25 16 27 17 12 18 24 19 23 20 13 21 21 22 14 23
REMARK SMILES IDX 15 24 20 25 22 26 16 27 19 28 17 29 18 30
REMARK H PARENT 18 31
REMARK Flexibility Score: inf
ROOT
ATOM      1  C   UNL     1     148.112 141.144 138.742  1.00  0.00     0.004 C 
ENDROOT
BRANCH   1   2
ATOM      2  C   UNL     1     148.899 140.244 139.718  1.00  0.00     0.004 C 
BRANCH   2   3
ATOM      3  C   UNL     1     148.009 139.620 140.829  1.00  0.00    -0.009 C 
BRANCH   3   4
ATOM      4  C   UNL     1     147.736 140.583 142.022  1.00  0.00     0.000 C 
ATOM      5  C   UNL     1     148.922 141.428 142.494  1.00  0.00     0.004 C 
ENDBRANCH   3   4
BRANCH   3   6
ATOM      6  C   UNL     1     148.476 138.173 141.208  1.00  0.00    -0.014 C 
ATOM      7  C   UNL     1     148.981 137.380 139.994  1.00  0.00     0.007 C 
ATOM      8  C   UNL     1     147.458 137.339 142.010  1.00  0.00     0.007 C 
ENDBRANCH   3   6
ENDBRANCH   2   3
ENDBRANCH   1   2
BRANCH   1   9
ATOM      9  C   UNL     1     147.348 140.378 137.628  1.00  0.00    -0.011 C 
ATOM     10  C   UNL     1     147.903 140.734 136.232  1.00  0.00     0.008 C 
BRANCH   9  11
ATOM     11  C   UNL     1     145.787 140.473 137.795  1.00  0.00    -0.002 C 
ATOM     12  C   UNL     1     144.996 141.254 136.711  1.00  0.00     0.005 C 
ATOM     13  C   UNL     1     145.019 139.131 137.945  1.00  0.00    -0.023 C 
ATOM     14  C   UNL     1     143.591 140.625 136.664  1.00  0.00     0.009 C 
ATOM     15  C   UNL     1     143.582 139.639 137.832  1.00  0.00     0.021 C 
ATOM     16  C   UNL     1     145.228 138.403 139.313  1.00  0.00     0.008 C 
ATOM     17  C   UNL     1     145.372 138.151 136.786  1.00  0.00     0.012 C 
ATOM     18  C   UNL     1     142.622 138.479 137.911  1.00  0.00    -0.067 C 
ATOM     19  C   UNL     1     143.936 137.981 140.079  1.00  0.00     0.009 C 
ATOM     20  C   UNL     1     142.614 137.753 139.253  1.00  0.00     0.021 C 
ATOM     21  C   UNL     1     141.802 138.123 136.898  1.00  0.00    -0.027 C 
ATOM     22  C   UNL     1     142.098 136.272 139.161  1.00  0.00    -0.023 C 
ATOM     23  C   UNL     1     140.957 136.875 136.927  1.00  0.00     0.031 C 
ATOM     24  C   UNL     1     140.760 136.315 138.348  1.00  0.00     0.002 C 
ATOM     25  C   UNL     1     141.775 135.724 140.591  1.00  0.00     0.010 C 
ATOM     26  C   UNL     1     143.161 135.365 138.487  1.00  0.00     0.012 C 
ATOM     27  C   UNL     1     140.041 134.953 138.308  1.00  0.00     0.036 C 
ATOM     28  C   UNL     1     141.014 134.387 140.582  1.00  0.00     0.032 C 
ATOM     29  C   UNL     1     139.735 134.464 139.732  1.00  0.00     0.114 C 
BRANCH  29  30
ATOM     30  O   UNL     1     139.085 133.218 139.698  1.00  0.00    -0.393 OA
ATOM     31  H   UNL     1     138.108 133.383 139.743  1.00  0.00     0.210 HD
ENDBRANCH  29  30
ENDBRANCH   9  11
ENDBRANCH   1   9
TORSDOF 7
ENDMDL
