MODEL 1
REMARK VINA RESULT:    -4.296      0.000      0.000
REMARK INTER + INTRA:          -5.036
REMARK INTER:                  -5.175
REMARK INTRA:                   0.139
REMARK UNBOUND:                 0.139
REMARK SMILES O=c1c(O)c(-c2ccc(O)c(O)c2)oc2cc(O)cc(O)c12
REMARK SMILES IDX 5 1 3 2 2 3 1 4 22 5 20 6 19 7 17 8 16 9 15 10 14 11 6 12
REMARK SMILES IDX 7 13 8 14 9 15 13 16 11 17 10 18 12 20 4 22 21 24 18 26
REMARK H PARENT 10 19 12 21 4 23 21 25 18 27
REMARK Flexibility Score: inf
ROOT
ATOM      1  C   UNL     1      72.917  41.380  20.296  1.00  0.00     0.180 A 
ATOM      2  C   UNL     1      73.538  41.588  19.053  1.00  0.00     0.208 A 
ATOM      3  C   UNL     1      74.938  41.691  19.000  1.00  0.00     0.238 A 
ATOM      4  O   UNL     1      75.492  41.801  17.875  1.00  0.00    -0.285 OA
ATOM      5  C   UNL     1      75.694  41.643  20.196  1.00  0.00     0.111 A 
ATOM      6  C   UNL     1      77.114  41.782  20.266  1.00  0.00     0.134 A 
ATOM      7  C   UNL     1      77.765  41.610  21.493  1.00  0.00     0.093 A 
ATOM      8  C   UNL     1      77.046  41.370  22.663  1.00  0.00     0.123 A 
ATOM      9  C   UNL     1      75.654  41.286  22.617  1.00  0.00     0.094 A 
ATOM     10  C   UNL     1      74.979  41.414  21.400  1.00  0.00     0.146 A 
ATOM     11  O   UNL     1      73.655  41.308  21.398  1.00  0.00    -0.452 OA
ENDROOT
BRANCH   1  12
ATOM     12  C   UNL     1      71.449  41.247  20.431  1.00  0.00     0.025 A 
ATOM     13  C   UNL     1      70.609  42.125  19.726  1.00  0.00     0.016 A 
ATOM     14  C   UNL     1      69.221  42.031  19.855  1.00  0.00     0.051 A 
ATOM     15  C   UNL     1      68.651  41.074  20.699  1.00  0.00     0.157 A 
ATOM     16  C   UNL     1      70.874  40.299  21.295  1.00  0.00     0.062 A 
ATOM     17  C   UNL     1      69.481  40.205  21.428  1.00  0.00     0.158 A 
BRANCH  15  18
ATOM     18  O   UNL     1      67.263  41.003  20.805  1.00  0.00    -0.504 OA
ATOM     19  H   UNL     1      66.761  40.127  20.724  1.00  0.00     0.293 HD
ENDBRANCH  15  18
BRANCH  17  20
ATOM     20  O   UNL     1      68.920  39.257  22.282  1.00  0.00    -0.504 OA
ATOM     21  H   UNL     1      68.030  39.415  22.738  1.00  0.00     0.293 HD
ENDBRANCH  17  20
ENDBRANCH   1  12
BRANCH   2  22
ATOM     22  O   UNL     1      72.768  41.709  17.893  1.00  0.00    -0.502 OA
ATOM     23  H   UNL     1      72.845  41.060  17.119  1.00  0.00     0.293 HD
ENDBRANCH   2  22
BRANCH   6  24
ATOM     24  O   UNL     1      77.923  42.110  19.173  1.00  0.00    -0.507 OA
ATOM     25  H   UNL     1      78.894  42.373  19.230  1.00  0.00     0.293 HD
ENDBRANCH   6  24
BRANCH   8  26
ATOM     26  O   UNL     1      77.727  41.221  23.870  1.00  0.00    -0.508 OA
ATOM     27  H   UNL     1      77.685  41.931  24.592  1.00  0.00     0.293 HD
ENDBRANCH   8  26
TORSDOF 6
ENDMDL
MODEL 2
REMARK VINA RESULT:    -3.557      1.405      2.992
REMARK INTER + INTRA:          -4.145
REMARK INTER:                  -4.610
REMARK INTRA:                   0.465
REMARK UNBOUND:                 0.139
REMARK SMILES O=c1c(O)c(-c2ccc(O)c(O)c2)oc2cc(O)cc(O)c12
REMARK SMILES IDX 5 1 3 2 2 3 1 4 22 5 20 6 19 7 17 8 16 9 15 10 14 11 6 12
REMARK SMILES IDX 7 13 8 14 9 15 13 16 11 17 10 18 12 20 4 22 21 24 18 26
REMARK H PARENT 10 19 12 21 4 23 21 25 18 27
REMARK Flexibility Score: inf
ROOT
ATOM      1  C   UNL     1      73.731  41.516  20.412  1.00  0.00     0.180 A 
ATOM      2  C   UNL     1      74.100  41.291  21.749  1.00  0.00     0.208 A 
ATOM      3  C   UNL     1      75.463  41.270  22.085  1.00  0.00     0.238 A 
ATOM      4  O   UNL     1      75.784  41.143  23.296  1.00  0.00    -0.285 OA
ATOM      5  C   UNL     1      76.441  41.416  21.073  1.00  0.00     0.111 A 
ATOM      6  C   UNL     1      77.852  41.365  21.291  1.00  0.00     0.134 A 
ATOM      7  C   UNL     1      78.725  41.629  20.230  1.00  0.00     0.093 A 
ATOM      8  C   UNL     1      78.244  41.878  18.945  1.00  0.00     0.123 A 
ATOM      9  C   UNL     1      76.869  41.875  18.707  1.00  0.00     0.094 A 
ATOM     10  C   UNL     1      75.971  41.654  19.755  1.00  0.00     0.146 A 
ATOM     11  O   UNL     1      74.671  41.681  19.488  1.00  0.00    -0.452 OA
ENDROOT
BRANCH   1  12
ATOM     12  C   UNL     1      72.315  41.567  19.983  1.00  0.00     0.025 A 
ATOM     13  C   UNL     1      72.006  41.948  18.668  1.00  0.00     0.016 A 
ATOM     14  C   UNL     1      70.675  42.024  18.247  1.00  0.00     0.051 A 
ATOM     15  C   UNL     1      69.635  41.737  19.135  1.00  0.00     0.157 A 
ATOM     16  C   UNL     1      71.266  41.299  20.881  1.00  0.00     0.062 A 
ATOM     17  C   UNL     1      69.930  41.377  20.462  1.00  0.00     0.158 A 
BRANCH  15  18
ATOM     18  O   UNL     1      68.318  41.819  18.687  1.00  0.00    -0.504 OA
ATOM     19  H   UNL     1      67.620  41.127  18.935  1.00  0.00     0.293 HD
ENDBRANCH  15  18
BRANCH  17  20
ATOM     20  O   UNL     1      68.897  41.103  21.356  1.00  0.00    -0.504 OA
ATOM     21  H   UNL     1      68.224  40.367  21.181  1.00  0.00     0.293 HD
ENDBRANCH  17  20
ENDBRANCH   1  12
BRANCH   2  22
ATOM     22  O   UNL     1      73.120  41.073  22.722  1.00  0.00    -0.502 OA
ATOM     23  H   UNL     1      72.194  41.480  22.662  1.00  0.00     0.293 HD
ENDBRANCH   2  22
BRANCH   6  24
ATOM     24  O   UNL     1      78.442  41.037  22.516  1.00  0.00    -0.507 OA
ATOM     25  H   UNL     1      79.366  40.651  22.628  1.00  0.00     0.293 HD
ENDBRANCH   6  24
BRANCH   8  26
ATOM     26  O   UNL     1      79.144  42.119  17.908  1.00  0.00    -0.508 OA
ATOM     27  H   UNL     1      79.458  41.375  17.296  1.00  0.00     0.293 HD
ENDBRANCH   8  26
TORSDOF 6
ENDMDL
MODEL 3
REMARK VINA RESULT:    -3.276      1.669      7.196
REMARK INTER + INTRA:          -3.807
REMARK INTER:                  -4.262
REMARK INTRA:                   0.456
REMARK UNBOUND:                 0.139
REMARK SMILES O=c1c(O)c(-c2ccc(O)c(O)c2)oc2cc(O)cc(O)c12
REMARK SMILES IDX 5 1 3 2 2 3 1 4 22 5 20 6 19 7 17 8 16 9 15 10 14 11 6 12
REMARK SMILES IDX 7 13 8 14 9 15 13 16 11 17 10 18 12 20 4 22 21 24 18 26
REMARK H PARENT 10 19 12 21 4 23 21 25 18 27
REMARK Flexibility Score: inf
ROOT
ATOM      1  C   UNL     1      74.158  41.149  20.120  1.00  0.00     0.180 A 
ATOM      2  C   UNL     1      73.879  40.492  21.330  1.00  0.00     0.208 A 
ATOM      3  C   UNL     1      72.540  40.262  21.687  1.00  0.00     0.238 A 
ATOM      4  O   UNL     1      72.300  39.608  22.735  1.00  0.00    -0.285 OA
ATOM      5  C   UNL     1      71.497  40.742  20.859  1.00  0.00     0.111 A 
ATOM      6  C   UNL     1      70.104  40.607  21.145  1.00  0.00     0.134 A 
ATOM      7  C   UNL     1      69.162  41.027  20.200  1.00  0.00     0.093 A 
ATOM      8  C   UNL     1      69.556  41.635  19.009  1.00  0.00     0.123 A 
ATOM      9  C   UNL     1      70.912  41.824  18.743  1.00  0.00     0.094 A 
ATOM     10  C   UNL     1      71.879  41.380  19.649  1.00  0.00     0.146 A 
ATOM     11  O   UNL     1      73.159  41.560  19.347  1.00  0.00    -0.452 OA
ENDROOT
BRANCH   1  12
ATOM     12  C   UNL     1      75.543  41.414  19.668  1.00  0.00     0.025 A 
ATOM     13  C   UNL     1      75.767  41.862  18.356  1.00  0.00     0.016 A 
ATOM     14  C   UNL     1      77.068  42.098  17.902  1.00  0.00     0.051 A 
ATOM     15  C   UNL     1      78.162  41.876  18.742  1.00  0.00     0.157 A 
ATOM     16  C   UNL     1      76.646  41.172  20.505  1.00  0.00     0.062 A 
ATOM     17  C   UNL     1      77.953  41.406  20.050  1.00  0.00     0.158 A 
BRANCH  15  18
ATOM     18  O   UNL     1      79.447  42.123  18.262  1.00  0.00    -0.504 OA
ATOM     19  H   UNL     1      80.216  41.485  18.430  1.00  0.00     0.293 HD
ENDBRANCH  15  18
BRANCH  17  20
ATOM     20  O   UNL     1      79.040  41.170  20.889  1.00  0.00    -0.504 OA
ATOM     21  H   UNL     1      79.983  41.094  20.527  1.00  0.00     0.293 HD
ENDBRANCH  17  20
ENDBRANCH   1  12
BRANCH   2  22
ATOM     22  O   UNL     1      74.922  40.094  22.171  1.00  0.00    -0.502 OA
ATOM     23  H   UNL     1      74.873  39.256  22.738  1.00  0.00     0.293 HD
ENDBRANCH   2  22
BRANCH   6  24
ATOM     24  O   UNL     1      69.598  40.094  22.343  1.00  0.00    -0.507 OA
ATOM     25  H   UNL     1      69.073  39.238  22.430  1.00  0.00     0.293 HD
ENDBRANCH   6  24
BRANCH   8  26
ATOM     26  O   UNL     1      68.588  42.057  18.099  1.00  0.00    -0.508 OA
ATOM     27  H   UNL     1      67.635  42.243  18.388  1.00  0.00     0.293 HD
ENDBRANCH   8  26
TORSDOF 6
ENDMDL
MODEL 4
REMARK VINA RESULT:    -2.366      1.485      7.402
REMARK INTER + INTRA:          -2.710
REMARK INTER:                  -2.754
REMARK INTRA:                   0.043
REMARK UNBOUND:                 0.139
REMARK SMILES O=c1c(O)c(-c2ccc(O)c(O)c2)oc2cc(O)cc(O)c12
REMARK SMILES IDX 5 1 3 2 2 3 1 4 22 5 20 6 19 7 17 8 16 9 15 10 14 11 6 12
REMARK SMILES IDX 7 13 8 14 9 15 13 16 11 17 10 18 12 20 4 22 21 24 18 26
REMARK H PARENT 10 19 12 21 4 23 21 25 18 27
REMARK Flexibility Score: inf
ROOT
ATOM      1  C   UNL     1      72.372  40.972  20.925  1.00  0.00     0.180 A 
ATOM      2  C   UNL     1      71.847  40.237  22.002  1.00  0.00     0.208 A 
ATOM      3  C   UNL     1      70.462  40.009  22.059  1.00  0.00     0.238 A 
ATOM      4  O   UNL     1      70.008  39.287  22.985  1.00  0.00    -0.285 OA
ATOM      5  C   UNL     1      69.614  40.565  21.071  1.00  0.00     0.111 A 
ATOM      6  C   UNL     1      68.191  40.437  21.055  1.00  0.00     0.134 A 
ATOM      7  C   UNL     1      67.466  40.940  19.969  1.00  0.00     0.093 A 
ATOM      8  C   UNL     1      68.099  41.622  18.932  1.00  0.00     0.123 A 
ATOM      9  C   UNL     1      69.482  41.803  18.964  1.00  0.00     0.094 A 
ATOM     10  C   UNL     1      70.239  41.278  20.015  1.00  0.00     0.146 A 
ATOM     11  O   UNL     1      71.555  41.455  19.996  1.00  0.00    -0.452 OA
ENDROOT
BRANCH   1  12
ATOM     12  C   UNL     1      73.821  41.241  20.788  1.00  0.00     0.025 A 
ATOM     13  C   UNL     1      74.530  41.775  21.876  1.00  0.00     0.016 A 
ATOM     14  C   UNL     1      75.894  42.058  21.762  1.00  0.00     0.051 A 
ATOM     15  C   UNL     1      76.566  41.827  20.559  1.00  0.00     0.157 A 
ATOM     16  C   UNL     1      74.495  41.030  19.572  1.00  0.00     0.062 A 
ATOM     17  C   UNL     1      75.863  41.315  19.455  1.00  0.00     0.158 A 
BRANCH  15  18
ATOM     18  O   UNL     1      77.927  42.116  20.476  1.00  0.00    -0.504 OA
ATOM     19  H   UNL     1      78.619  41.400  20.291  1.00  0.00     0.293 HD
ENDBRANCH  15  18
BRANCH  17  20
ATOM     20  O   UNL     1      76.524  41.095  18.248  1.00  0.00    -0.504 OA
ATOM     21  H   UNL     1      76.982  41.849  17.748  1.00  0.00     0.293 HD
ENDBRANCH  17  20
ENDBRANCH   1  12
BRANCH   2  22
ATOM     22  O   UNL     1      72.692  39.761  23.008  1.00  0.00    -0.502 OA
ATOM     23  H   UNL     1      72.730  40.180  23.929  1.00  0.00     0.293 HD
ENDBRANCH   2  22
BRANCH   6  24
ATOM     24  O   UNL     1      67.447  39.851  22.083  1.00  0.00    -0.507 OA
ATOM     25  H   UNL     1      66.525  39.457  21.978  1.00  0.00     0.293 HD
ENDBRANCH   6  24
BRANCH   8  26
ATOM     26  O   UNL     1      67.342  42.125  17.875  1.00  0.00    -0.508 OA
ATOM     27  H   UNL     1      66.738  42.930  17.993  1.00  0.00     0.293 HD
ENDBRANCH   8  26
TORSDOF 6
ENDMDL
MODEL 5
REMARK VINA RESULT:    -2.104      1.235      6.556
REMARK INTER + INTRA:          -2.395
REMARK INTER:                  -2.936
REMARK INTRA:                   0.541
REMARK UNBOUND:                 0.139
REMARK SMILES O=c1c(O)c(-c2ccc(O)c(O)c2)oc2cc(O)cc(O)c12
REMARK SMILES IDX 5 1 3 2 2 3 1 4 22 5 20 6 19 7 17 8 16 9 15 10 14 11 6 12
REMARK SMILES IDX 7 13 8 14 9 15 13 16 11 17 10 18 12 20 4 22 21 24 18 26
REMARK H PARENT 10 19 12 21 4 23 21 25 18 27
REMARK Flexibility Score: inf
ROOT
ATOM      1  C   UNL     1      73.630  41.203  20.949  1.00  0.00     0.180 A 
ATOM      2  C   UNL     1      73.492  41.651  19.625  1.00  0.00     0.208 A 
ATOM      3  C   UNL     1      72.218  41.652  19.035  1.00  0.00     0.238 A 
ATOM      4  O   UNL     1      72.091  42.125  17.875  1.00  0.00    -0.285 OA
ATOM      5  C   UNL     1      71.107  41.151  19.755  1.00  0.00     0.111 A 
ATOM      6  C   UNL     1      69.777  41.062  19.241  1.00  0.00     0.134 A 
ATOM      7  C   UNL     1      68.738  40.649  20.082  1.00  0.00     0.093 A 
ATOM      8  C   UNL     1      68.986  40.260  21.398  1.00  0.00     0.123 A 
ATOM      9  C   UNL     1      70.289  40.290  21.896  1.00  0.00     0.094 A 
ATOM     10  C   UNL     1      71.342  40.735  21.092  1.00  0.00     0.146 A 
ATOM     11  O   UNL     1      72.564  40.768  21.612  1.00  0.00    -0.452 OA
ENDROOT
BRANCH   1  12
ATOM     12  C   UNL     1      74.937  41.186  21.644  1.00  0.00     0.025 A 
ATOM     13  C   UNL     1      76.067  41.714  20.999  1.00  0.00     0.016 A 
ATOM     14  C   UNL     1      77.316  41.688  21.627  1.00  0.00     0.051 A 
ATOM     15  C   UNL     1      77.458  41.123  22.898  1.00  0.00     0.157 A 
ATOM     16  C   UNL     1      75.086  40.598  22.913  1.00  0.00     0.062 A 
ATOM     17  C   UNL     1      76.339  40.570  23.544  1.00  0.00     0.158 A 
BRANCH  15  18
ATOM     18  O   UNL     1      78.715  41.115  23.500  1.00  0.00    -0.504 OA
ATOM     19  H   UNL     1      79.493  41.647  23.129  1.00  0.00     0.293 HD
ENDBRANCH  15  18
BRANCH  17  20
ATOM     20  O   UNL     1      76.476  39.992  24.804  1.00  0.00    -0.504 OA
ATOM     21  H   UNL     1      76.349  40.531  25.652  1.00  0.00     0.293 HD
ENDBRANCH  17  20
ENDBRANCH   1  12
BRANCH   2  22
ATOM     22  O   UNL     1      74.614  42.070  18.904  1.00  0.00    -0.502 OA
ATOM     23  H   UNL     1      75.120  42.918  19.130  1.00  0.00     0.293 HD
ENDBRANCH   2  22
BRANCH   6  24
ATOM     24  O   UNL     1      69.431  41.340  17.915  1.00  0.00    -0.507 OA
ATOM     25  H   UNL     1      69.590  40.724  17.134  1.00  0.00     0.293 HD
ENDBRANCH   6  24
BRANCH   8  26
ATOM     26  O   UNL     1      67.928  39.838  22.202  1.00  0.00    -0.508 OA
ATOM     27  H   UNL     1      66.999  40.228  22.101  1.00  0.00     0.293 HD
ENDBRANCH   8  26
TORSDOF 6
ENDMDL
MODEL 6
REMARK VINA RESULT:    -1.849      1.584      2.083
REMARK INTER + INTRA:          -2.088
REMARK INTER:                  -1.806
REMARK INTRA:                  -0.282
REMARK UNBOUND:                 0.139
REMARK SMILES O=c1c(O)c(-c2ccc(O)c(O)c2)oc2cc(O)cc(O)c12
REMARK SMILES IDX 5 1 3 2 2 3 1 4 22 5 20 6 19 7 17 8 16 9 15 10 14 11 6 12
REMARK SMILES IDX 7 13 8 14 9 15 13 16 11 17 10 18 12 20 4 22 21 24 18 26
REMARK H PARENT 10 19 12 21 4 23 21 25 18 27
REMARK Flexibility Score: inf
ROOT
ATOM      1  C   UNL     1      74.409  40.754  20.780  1.00  0.00     0.180 A 
ATOM      2  C   UNL     1      74.772  41.087  19.464  1.00  0.00     0.208 A 
ATOM      3  C   UNL     1      76.124  41.332  19.172  1.00  0.00     0.238 A 
ATOM      4  O   UNL     1      76.451  41.556  17.978  1.00  0.00    -0.285 OA
ATOM      5  C   UNL     1      77.086  41.297  20.209  1.00  0.00     0.111 A 
ATOM      6  C   UNL     1      78.478  41.573  20.037  1.00  0.00     0.134 A 
ATOM      7  C   UNL     1      79.354  41.403  21.115  1.00  0.00     0.093 A 
ATOM      8  C   UNL     1      78.885  41.031  22.374  1.00  0.00     0.123 A 
ATOM      9  C   UNL     1      77.521  40.812  22.569  1.00  0.00     0.094 A 
ATOM     10  C   UNL     1      76.626  40.935  21.502  1.00  0.00     0.146 A 
ATOM     11  O   UNL     1      75.339  40.697  21.726  1.00  0.00    -0.452 OA
ENDROOT
BRANCH   1  12
ATOM     12  C   UNL     1      73.007  40.468  21.162  1.00  0.00     0.025 A 
ATOM     13  C   UNL     1      72.447  39.220  20.845  1.00  0.00     0.016 A 
ATOM     14  C   UNL     1      71.119  38.937  21.177  1.00  0.00     0.051 A 
ATOM     15  C   UNL     1      70.328  39.896  21.815  1.00  0.00     0.157 A 
ATOM     16  C   UNL     1      72.204  41.440  21.785  1.00  0.00     0.062 A 
ATOM     17  C   UNL     1      70.870  41.157  22.117  1.00  0.00     0.158 A 
BRANCH  15  18
ATOM     18  O   UNL     1      69.008  39.584  22.135  1.00  0.00    -0.504 OA
ATOM     19  H   UNL     1      68.657  39.639  23.084  1.00  0.00     0.293 HD
ENDBRANCH  15  18
BRANCH  17  20
ATOM     20  O   UNL     1      70.083  42.124  22.739  1.00  0.00    -0.504 OA
ATOM     21  H   UNL     1      69.553  41.918  23.577  1.00  0.00     0.293 HD
ENDBRANCH  17  20
ENDBRANCH   1  12
BRANCH   2  22
ATOM     22  O   UNL     1      73.795  41.191  18.470  1.00  0.00    -0.502 OA
ATOM     23  H   UNL     1      73.965  41.661  17.589  1.00  0.00     0.293 HD
ENDBRANCH   2  22
BRANCH   6  24
ATOM     24  O   UNL     1      79.041  42.038  18.845  1.00  0.00    -0.507 OA
ATOM     25  H   UNL     1      79.856  41.648  18.399  1.00  0.00     0.293 HD
ENDBRANCH   6  24
BRANCH   8  26
ATOM     26  O   UNL     1      79.785  40.889  23.429  1.00  0.00    -0.508 OA
ATOM     27  H   UNL     1      79.549  41.184  24.369  1.00  0.00     0.293 HD
ENDBRANCH   8  26
TORSDOF 6
ENDMDL
MODEL 7
REMARK VINA RESULT:    -1.504      1.268      2.857
REMARK INTER + INTRA:          -1.673
REMARK INTER:                  -2.026
REMARK INTRA:                   0.353
REMARK UNBOUND:                 0.139
REMARK SMILES O=c1c(O)c(-c2ccc(O)c(O)c2)oc2cc(O)cc(O)c12
REMARK SMILES IDX 5 1 3 2 2 3 1 4 22 5 20 6 19 7 17 8 16 9 15 10 14 11 6 12
REMARK SMILES IDX 7 13 8 14 9 15 13 16 11 17 10 18 12 20 4 22 21 24 18 26
REMARK H PARENT 10 19 12 21 4 23 21 25 18 27
REMARK Flexibility Score: inf
ROOT
ATOM      1  C   UNL     1      72.550  41.502  20.471  1.00  0.00     0.180 A 
ATOM      2  C   UNL     1      72.937  41.386  21.817  1.00  0.00     0.208 A 
ATOM      3  C   UNL     1      74.303  41.438  22.140  1.00  0.00     0.238 A 
ATOM      4  O   UNL     1      74.637  41.408  23.353  1.00  0.00    -0.285 OA
ATOM      5  C   UNL     1      75.267  41.548  21.109  1.00  0.00     0.111 A 
ATOM      6  C   UNL     1      76.680  41.564  21.316  1.00  0.00     0.134 A 
ATOM      7  C   UNL     1      77.534  41.784  20.229  1.00  0.00     0.093 A 
ATOM      8  C   UNL     1      77.035  41.924  18.935  1.00  0.00     0.123 A 
ATOM      9  C   UNL     1      75.659  41.855  18.712  1.00  0.00     0.094 A 
ATOM     10  C   UNL     1      74.778  41.675  19.782  1.00  0.00     0.146 A 
ATOM     11  O   UNL     1      73.475  41.636  19.529  1.00  0.00    -0.452 OA
ENDROOT
BRANCH   1  12
ATOM     12  C   UNL     1      71.129  41.471  20.055  1.00  0.00     0.025 A 
ATOM     13  C   UNL     1      70.745  42.112  18.866  1.00  0.00     0.016 A 
ATOM     14  C   UNL     1      69.406  42.114  18.465  1.00  0.00     0.051 A 
ATOM     15  C   UNL     1      68.431  41.491  19.249  1.00  0.00     0.157 A 
ATOM     16  C   UNL     1      70.144  40.863  20.853  1.00  0.00     0.062 A 
ATOM     17  C   UNL     1      68.799  40.866  20.452  1.00  0.00     0.158 A 
BRANCH  15  18
ATOM     18  O   UNL     1      67.104  41.507  18.821  1.00  0.00    -0.504 OA
ATOM     19  H   UNL     1      66.360  41.080  19.359  1.00  0.00     0.293 HD
ENDBRANCH  15  18
BRANCH  17  20
ATOM     20  O   UNL     1      67.831  40.255  21.246  1.00  0.00    -0.504 OA
ATOM     21  H   UNL     1      67.750  40.458  22.236  1.00  0.00     0.293 HD
ENDBRANCH  17  20
ENDBRANCH   1  12
BRANCH   2  22
ATOM     22  O   UNL     1      71.974  41.201  22.813  1.00  0.00    -0.502 OA
ATOM     23  H   UNL     1      71.705  41.939  23.453  1.00  0.00     0.293 HD
ENDBRANCH   2  22
BRANCH   6  24
ATOM     24  O   UNL     1      77.292  41.345  22.554  1.00  0.00    -0.507 OA
ATOM     25  H   UNL     1      78.001  41.934  22.961  1.00  0.00     0.293 HD
ENDBRANCH   6  24
BRANCH   8  26
ATOM     26  O   UNL     1      77.917  42.125  17.875  1.00  0.00    -0.508 OA
ATOM     27  H   UNL     1      78.592  42.880  17.884  1.00  0.00     0.293 HD
ENDBRANCH   8  26
TORSDOF 6
ENDMDL
