MODEL 1
REMARK VINA RESULT:    -4.172      0.000      0.000
REMARK INTER + INTRA:         -15.122
REMARK INTER:                 -10.512
REMARK INTRA:                  -4.610
REMARK UNBOUND:                -4.610
REMARK SMILES CCCCCCCCCCCCCCCCCCCCCCCCCCCC(=O)[O-]
REMARK SMILES IDX 15 1 16 2 17 3 18 4 19 5 20 6 21 7 22 8 23 9 24 10 25 11
REMARK SMILES IDX 26 12 27 13 28 14 29 15 30 16 14 17 13 18 12 19 11 20 10 21
REMARK SMILES IDX 9 22 8 23 7 24 6 25 5 26 4 27 3 28 2 29 1 30
REMARK H PARENT
REMARK Flexibility Score: inf
ROOT
ATOM      1  C   UNL     1      22.256   5.648  15.746  1.00  0.00     0.000 C 
ENDROOT
BRANCH   1   2
ATOM      2  C   UNL     1      21.837   6.740  14.740  1.00  0.00     0.000 C 
BRANCH   2   3
ATOM      3  C   UNL     1      21.303   6.220  13.391  1.00  0.00     0.000 C 
BRANCH   3   4
ATOM      4  C   UNL     1      20.290   7.145  12.692  1.00  0.00     0.000 C 
BRANCH   4   5
ATOM      5  C   UNL     1      20.373   7.075  11.159  1.00  0.00     0.000 C 
BRANCH   5   6
ATOM      6  C   UNL     1      21.813   6.802  10.706  1.00  0.00     0.000 C 
BRANCH   6   7
ATOM      7  C   UNL     1      21.869   5.627   9.723  1.00  0.00     0.000 C 
BRANCH   7   8
ATOM      8  C   UNL     1      20.958   4.484  10.183  1.00  0.00     0.000 C 
BRANCH   8   9
ATOM      9  C   UNL     1      21.745   3.431  10.978  1.00  0.00     0.000 C 
BRANCH   9  10
ATOM     10  C   UNL     1      23.247   3.439  10.623  1.00  0.00     0.000 C 
BRANCH  10  11
ATOM     11  C   UNL     1      24.157   3.014  11.790  1.00  0.00     0.000 C 
BRANCH  11  12
ATOM     12  C   UNL     1      25.311   3.998  12.042  1.00  0.00     0.006 C 
BRANCH  12  13
ATOM     13  C   UNL     1      24.822   5.447  12.170  1.00  0.00     0.053 C 
BRANCH  13  14
ATOM     14  C   UNL     1      25.686   6.400  11.402  1.00  0.00     0.041 C 
ATOM     15  O   UNL     1      25.322   6.814  10.268  1.00  0.00    -0.550 OA
ATOM     16  O   UNL     1      26.901   6.819  11.931  1.00  0.00    -0.550 OA
ENDBRANCH  13  14
ENDBRANCH  12  13
ENDBRANCH  11  12
ENDBRANCH  10  11
ENDBRANCH   9  10
ENDBRANCH   8   9
ENDBRANCH   7   8
ENDBRANCH   6   7
ENDBRANCH   5   6
ENDBRANCH   4   5
ENDBRANCH   3   4
ENDBRANCH   2   3
ENDBRANCH   1   2
BRANCH   1  17
ATOM     17  C   UNL     1      23.736   5.677  16.163  1.00  0.00     0.000 C 
BRANCH  17  18
ATOM     18  C   UNL     1      24.468   6.941  15.683  1.00  0.00     0.000 C 
BRANCH  18  19
ATOM     19  C   UNL     1      25.955   6.683  15.390  1.00  0.00     0.000 C 
BRANCH  19  20
ATOM     20  C   UNL     1      26.332   5.196  15.507  1.00  0.00     0.000 C 
BRANCH  20  21
ATOM     21  C   UNL     1      27.753   4.907  14.998  1.00  0.00     0.000 C 
BRANCH  21  22
ATOM     22  C   UNL     1      28.669   6.141  15.075  1.00  0.00    -0.000 C 
BRANCH  22  23
ATOM     23  C   UNL     1      29.619   6.104  16.281  1.00  0.00    -0.000 C 
BRANCH  23  24
ATOM     24  C   UNL     1      29.871   4.674  16.790  1.00  0.00    -0.000 C 
BRANCH  24  25
ATOM     25  C   UNL     1      29.583   4.520  18.293  1.00  0.00    -0.000 C 
BRANCH  25  26
ATOM     26  C   UNL     1      28.141   4.099  18.637  1.00  0.00    -0.000 C 
BRANCH  26  27
ATOM     27  C   UNL     1      27.799   2.653  18.209  1.00  0.00    -0.000 C 
BRANCH  27  28
ATOM     28  C   UNL     1      26.304   2.313  18.351  1.00  0.00    -0.000 C 
BRANCH  28  29
ATOM     29  C   UNL     1      25.465   3.538  18.745  1.00  0.00    -0.003 C 
ATOM     30  C   UNL     1      23.982   3.186  18.822  1.00  0.00     0.004 C 
ENDBRANCH  28  29
ENDBRANCH  27  28
ENDBRANCH  26  27
ENDBRANCH  25  26
ENDBRANCH  24  25
ENDBRANCH  23  24
ENDBRANCH  22  23
ENDBRANCH  21  22
ENDBRANCH  20  21
ENDBRANCH  19  20
ENDBRANCH  18  19
ENDBRANCH  17  18
ENDBRANCH   1  17
TORSDOF 26
ENDMDL
MODEL 2
REMARK VINA RESULT:    -4.127      2.291      4.968
REMARK INTER + INTRA:         -15.010
REMARK INTER:                 -11.058
REMARK INTRA:                  -3.952
REMARK UNBOUND:                -4.610
REMARK SMILES CCCCCCCCCCCCCCCCCCCCCCCCCCCC(=O)[O-]
REMARK SMILES IDX 15 1 16 2 17 3 18 4 19 5 20 6 21 7 22 8 23 9 24 10 25 11
REMARK SMILES IDX 26 12 27 13 28 14 29 15 30 16 14 17 13 18 12 19 11 20 10 21
REMARK SMILES IDX 9 22 8 23 7 24 6 25 5 26 4 27 3 28 2 29 1 30
REMARK H PARENT
REMARK Flexibility Score: inf
ROOT
ATOM      1  C   UNL     1      22.974   5.753  17.155  1.00  0.00     0.000 C 
ENDROOT
BRANCH   1   2
ATOM      2  C   UNL     1      23.116   6.936  16.174  1.00  0.00     0.000 C 
BRANCH   2   3
ATOM      3  C   UNL     1      24.538   7.516  16.046  1.00  0.00     0.000 C 
BRANCH   3   4
ATOM      4  C   UNL     1      25.335   7.025  14.824  1.00  0.00     0.000 C 
BRANCH   4   5
ATOM      5  C   UNL     1      26.593   6.232  15.208  1.00  0.00     0.000 C 
BRANCH   5   6
ATOM      6  C   UNL     1      26.217   4.861  15.782  1.00  0.00     0.000 C 
BRANCH   6   7
ATOM      7  C   UNL     1      25.706   3.922  14.682  1.00  0.00     0.000 C 
BRANCH   7   8
ATOM      8  C   UNL     1      24.258   3.500  14.951  1.00  0.00     0.000 C 
BRANCH   8   9
ATOM      9  C   UNL     1      23.329   3.944  13.811  1.00  0.00     0.000 C 
BRANCH   9  10
ATOM     10  C   UNL     1      24.114   4.343  12.544  1.00  0.00     0.000 C 
BRANCH  10  11
ATOM     11  C   UNL     1      23.402   5.407  11.688  1.00  0.00     0.000 C 
BRANCH  11  12
ATOM     12  C   UNL     1      22.968   6.639  12.498  1.00  0.00     0.006 C 
BRANCH  12  13
ATOM     13  C   UNL     1      21.905   7.471  11.769  1.00  0.00     0.053 C 
BRANCH  13  14
ATOM     14  C   UNL     1      20.590   7.457  12.488  1.00  0.00     0.041 C 
ATOM     15  O   UNL     1      19.541   7.831  11.899  1.00  0.00    -0.550 OA
ATOM     16  O   UNL     1      20.527   7.045  13.814  1.00  0.00    -0.550 OA
ENDBRANCH  13  14
ENDBRANCH  12  13
ENDBRANCH  11  12
ENDBRANCH  10  11
ENDBRANCH   9  10
ENDBRANCH   8   9
ENDBRANCH   7   8
ENDBRANCH   6   7
ENDBRANCH   5   6
ENDBRANCH   4   5
ENDBRANCH   3   4
ENDBRANCH   2   3
ENDBRANCH   1   2
BRANCH   1  17
ATOM     17  C   UNL     1      23.065   6.125  18.645  1.00  0.00     0.000 C 
BRANCH  17  18
ATOM     18  C   UNL     1      23.017   4.898  19.571  1.00  0.00     0.000 C 
BRANCH  18  19
ATOM     19  C   UNL     1      23.005   3.574  18.789  1.00  0.00     0.000 C 
BRANCH  19  20
ATOM     20  C   UNL     1      24.148   2.631  19.204  1.00  0.00     0.000 C 
BRANCH  20  21
ATOM     21  C   UNL     1      25.531   3.175  18.816  1.00  0.00     0.000 C 
BRANCH  21  22
ATOM     22  C   UNL     1      26.610   2.078  18.788  1.00  0.00    -0.000 C 
BRANCH  22  23
ATOM     23  C   UNL     1      28.037   2.647  18.775  1.00  0.00    -0.000 C 
BRANCH  23  24
ATOM     24  C   UNL     1      28.529   2.973  17.355  1.00  0.00    -0.000 C 
BRANCH  24  25
ATOM     25  C   UNL     1      29.683   3.991  17.346  1.00  0.00    -0.000 C 
BRANCH  25  26
ATOM     26  C   UNL     1      29.537   5.144  18.358  1.00  0.00    -0.000 C 
BRANCH  26  27
ATOM     27  C   UNL     1      30.887   5.736  18.823  1.00  0.00    -0.000 C 
BRANCH  27  28
ATOM     28  C   UNL     1      31.929   4.664  19.193  1.00  0.00    -0.000 C 
BRANCH  28  29
ATOM     29  C   UNL     1      32.353   4.752  20.667  1.00  0.00    -0.003 C 
ATOM     30  C   UNL     1      31.626   3.710  21.511  1.00  0.00     0.004 C 
ENDBRANCH  28  29
ENDBRANCH  27  28
ENDBRANCH  26  27
ENDBRANCH  25  26
ENDBRANCH  24  25
ENDBRANCH  23  24
ENDBRANCH  22  23
ENDBRANCH  21  22
ENDBRANCH  20  21
ENDBRANCH  19  20
ENDBRANCH  18  19
ENDBRANCH  17  18
ENDBRANCH   1  17
TORSDOF 26
ENDMDL
MODEL 3
REMARK VINA RESULT:    -4.113      1.937      5.535
REMARK INTER + INTRA:         -14.974
REMARK INTER:                 -10.289
REMARK INTRA:                  -4.685
REMARK UNBOUND:                -4.610
REMARK SMILES CCCCCCCCCCCCCCCCCCCCCCCCCCCC(=O)[O-]
REMARK SMILES IDX 15 1 16 2 17 3 18 4 19 5 20 6 21 7 22 8 23 9 24 10 25 11
REMARK SMILES IDX 26 12 27 13 28 14 29 15 30 16 14 17 13 18 12 19 11 20 10 21
REMARK SMILES IDX 9 22 8 23 7 24 6 25 5 26 4 27 3 28 2 29 1 30
REMARK H PARENT
REMARK Flexibility Score: inf
ROOT
ATOM      1  C   UNL     1      26.885   3.513  18.706  1.00  0.00     0.000 C 
ENDROOT
BRANCH   1   2
ATOM      2  C   UNL     1      28.017   2.612  18.171  1.00  0.00     0.000 C 
BRANCH   2   3
ATOM      3  C   UNL     1      27.565   1.480  17.227  1.00  0.00     0.000 C 
BRANCH   3   4
ATOM      4  C   UNL     1      27.970   1.660  15.753  1.00  0.00     0.000 C 
BRANCH   4   5
ATOM      5  C   UNL     1      26.870   2.316  14.905  1.00  0.00     0.000 C 
BRANCH   5   6
ATOM      6  C   UNL     1      25.505   1.684  15.204  1.00  0.00     0.000 C 
BRANCH   6   7
ATOM      7  C   UNL     1      24.369   2.497  14.572  1.00  0.00     0.000 C 
BRANCH   7   8
ATOM      8  C   UNL     1      23.995   1.937  13.195  1.00  0.00     0.000 C 
BRANCH   8   9
ATOM      9  C   UNL     1      23.404   3.031  12.293  1.00  0.00     0.000 C 
BRANCH   9  10
ATOM     10  C   UNL     1      24.430   3.556  11.267  1.00  0.00     0.000 C 
BRANCH  10  11
ATOM     11  C   UNL     1      24.737   5.057  11.417  1.00  0.00     0.000 C 
BRANCH  11  12
ATOM     12  C   UNL     1      23.809   5.763  12.419  1.00  0.00     0.006 C 
BRANCH  12  13
ATOM     13  C   UNL     1      23.240   7.074  11.862  1.00  0.00     0.053 C 
BRANCH  13  14
ATOM     14  C   UNL     1      21.754   7.010  11.684  1.00  0.00     0.041 C 
ATOM     15  O   UNL     1      21.200   5.927  11.357  1.00  0.00    -0.550 OA
ATOM     16  O   UNL     1      20.982   8.152  11.863  1.00  0.00    -0.550 OA
ENDBRANCH  13  14
ENDBRANCH  12  13
ENDBRANCH  11  12
ENDBRANCH  10  11
ENDBRANCH   9  10
ENDBRANCH   8   9
ENDBRANCH   7   8
ENDBRANCH   6   7
ENDBRANCH   5   6
ENDBRANCH   4   5
ENDBRANCH   3   4
ENDBRANCH   2   3
ENDBRANCH   1   2
BRANCH   1  17
ATOM     17  C   UNL     1      25.525   2.818  18.885  1.00  0.00     0.000 C 
BRANCH  17  18
ATOM     18  C   UNL     1      24.380   3.552  18.166  1.00  0.00     0.000 C 
BRANCH  18  19
ATOM     19  C   UNL     1      23.515   4.378  19.132  1.00  0.00     0.000 C 
BRANCH  19  20
ATOM     20  C   UNL     1      23.022   5.694  18.508  1.00  0.00     0.000 C 
BRANCH  20  21
ATOM     21  C   UNL     1      23.232   5.740  16.986  1.00  0.00     0.000 C 
BRANCH  21  22
ATOM     22  C   UNL     1      23.555   7.157  16.478  1.00  0.00    -0.000 C 
BRANCH  22  23
ATOM     23  C   UNL     1      24.781   7.191  15.553  1.00  0.00    -0.000 C 
BRANCH  23  24
ATOM     24  C   UNL     1      25.607   5.896  15.619  1.00  0.00    -0.000 C 
BRANCH  24  25
ATOM     25  C   UNL     1      26.873   5.954  14.747  1.00  0.00    -0.000 C 
BRANCH  25  26
ATOM     26  C   UNL     1      28.151   6.389  15.489  1.00  0.00    -0.000 C 
BRANCH  26  27
ATOM     27  C   UNL     1      28.974   5.208  16.053  1.00  0.00    -0.000 C 
BRANCH  27  28
ATOM     28  C   UNL     1      30.477   5.517  16.179  1.00  0.00    -0.000 C 
BRANCH  28  29
ATOM     29  C   UNL     1      30.803   6.298  17.461  1.00  0.00    -0.003 C 
ATOM     30  C   UNL     1      30.069   5.710  18.664  1.00  0.00     0.004 C 
ENDBRANCH  28  29
ENDBRANCH  27  28
ENDBRANCH  26  27
ENDBRANCH  25  26
ENDBRANCH  24  25
ENDBRANCH  23  24
ENDBRANCH  22  23
ENDBRANCH  21  22
ENDBRANCH  20  21
ENDBRANCH  19  20
ENDBRANCH  18  19
ENDBRANCH  17  18
ENDBRANCH   1  17
TORSDOF 26
ENDMDL
MODEL 4
REMARK VINA RESULT:    -4.109      1.915      7.255
REMARK INTER + INTRA:         -14.965
REMARK INTER:                 -10.190
REMARK INTRA:                  -4.775
REMARK UNBOUND:                -4.610
REMARK SMILES CCCCCCCCCCCCCCCCCCCCCCCCCCCC(=O)[O-]
REMARK SMILES IDX 15 1 16 2 17 3 18 4 19 5 20 6 21 7 22 8 23 9 24 10 25 11
REMARK SMILES IDX 26 12 27 13 28 14 29 15 30 16 14 17 13 18 12 19 11 20 10 21
REMARK SMILES IDX 9 22 8 23 7 24 6 25 5 26 4 27 3 28 2 29 1 30
REMARK H PARENT
REMARK Flexibility Score: inf
ROOT
ATOM      1  C   UNL     1      22.278   6.209  16.520  1.00  0.00     0.000 C 
ENDROOT
BRANCH   1   2
ATOM      2  C   UNL     1      22.994   6.192  17.887  1.00  0.00     0.000 C 
BRANCH   2   3
ATOM      3  C   UNL     1      23.210   4.794  18.499  1.00  0.00     0.000 C 
BRANCH   3   4
ATOM      4  C   UNL     1      24.537   4.114  18.118  1.00  0.00     0.000 C 
BRANCH   4   5
ATOM      5  C   UNL     1      24.341   2.848  17.271  1.00  0.00     0.000 C 
BRANCH   5   6
ATOM      6  C   UNL     1      23.725   1.723  18.112  1.00  0.00     0.000 C 
BRANCH   6   7
ATOM      7  C   UNL     1      24.631   0.486  18.129  1.00  0.00     0.000 C 
BRANCH   7   8
ATOM      8  C   UNL     1      25.885   0.737  18.972  1.00  0.00     0.000 C 
BRANCH   8   9
ATOM      9  C   UNL     1      27.147   0.764  18.095  1.00  0.00     0.000 C 
BRANCH   9  10
ATOM     10  C   UNL     1      27.856   2.134  18.138  1.00  0.00     0.000 C 
BRANCH  10  11
ATOM     11  C   UNL     1      27.932   2.831  16.767  1.00  0.00     0.000 C 
BRANCH  11  12
ATOM     12  C   UNL     1      28.201   4.341  16.875  1.00  0.00     0.006 C 
BRANCH  12  13
ATOM     13  C   UNL     1      28.998   4.876  15.678  1.00  0.00     0.053 C 
BRANCH  13  14
ATOM     14  C   UNL     1      29.432   6.296  15.882  1.00  0.00     0.041 C 
ATOM     15  O   UNL     1      28.960   7.215  15.161  1.00  0.00    -0.550 OA
ATOM     16  O   UNL     1      30.372   6.602  16.860  1.00  0.00    -0.550 OA
ENDBRANCH  13  14
ENDBRANCH  12  13
ENDBRANCH  11  12
ENDBRANCH  10  11
ENDBRANCH   9  10
ENDBRANCH   8   9
ENDBRANCH   7   8
ENDBRANCH   6   7
ENDBRANCH   5   6
ENDBRANCH   4   5
ENDBRANCH   3   4
ENDBRANCH   2   3
ENDBRANCH   1   2
BRANCH   1  17
ATOM     17  C   UNL     1      23.111   6.764  15.352  1.00  0.00     0.000 C 
BRANCH  17  18
ATOM     18  C   UNL     1      24.531   7.178  15.775  1.00  0.00     0.000 C 
BRANCH  18  19
ATOM     19  C   UNL     1      25.618   6.386  15.031  1.00  0.00     0.000 C 
BRANCH  19  20
ATOM     20  C   UNL     1      25.062   5.140  14.320  1.00  0.00     0.000 C 
BRANCH  20  21
ATOM     21  C   UNL     1      26.128   4.412  13.486  1.00  0.00     0.000 C 
BRANCH  21  22
ATOM     22  C   UNL     1      25.672   4.161  12.038  1.00  0.00    -0.000 C 
BRANCH  22  23
ATOM     23  C   UNL     1      24.538   3.129  11.941  1.00  0.00    -0.000 C 
BRANCH  23  24
ATOM     24  C   UNL     1      23.628   3.365  10.724  1.00  0.00    -0.000 C 
BRANCH  24  25
ATOM     25  C   UNL     1      22.177   3.689  11.122  1.00  0.00    -0.000 C 
BRANCH  25  26
ATOM     26  C   UNL     1      21.758   5.156  10.905  1.00  0.00    -0.000 C 
BRANCH  26  27
ATOM     27  C   UNL     1      22.256   6.114  12.012  1.00  0.00    -0.000 C 
BRANCH  27  28
ATOM     28  C   UNL     1      23.324   7.108  11.522  1.00  0.00    -0.000 C 
BRANCH  28  29
ATOM     29  C   UNL     1      23.390   7.182   9.990  1.00  0.00    -0.003 C 
ATOM     30  C   UNL     1      24.776   6.794   9.480  1.00  0.00     0.004 C 
ENDBRANCH  28  29
ENDBRANCH  27  28
ENDBRANCH  26  27
ENDBRANCH  25  26
ENDBRANCH  24  25
ENDBRANCH  23  24
ENDBRANCH  22  23
ENDBRANCH  21  22
ENDBRANCH  20  21
ENDBRANCH  19  20
ENDBRANCH  18  19
ENDBRANCH  17  18
ENDBRANCH   1  17
TORSDOF 26
ENDMDL
MODEL 5
REMARK VINA RESULT:    -4.108      8.757     12.429
REMARK INTER + INTRA:         -14.961
REMARK INTER:                  -9.692
REMARK INTRA:                  -5.270
REMARK UNBOUND:                -4.610
REMARK SMILES CCCCCCCCCCCCCCCCCCCCCCCCCCCC(=O)[O-]
REMARK SMILES IDX 15 1 16 2 17 3 18 4 19 5 20 6 21 7 22 8 23 9 24 10 25 11
REMARK SMILES IDX 26 12 27 13 28 14 29 15 30 16 14 17 13 18 12 19 11 20 10 21
REMARK SMILES IDX 9 22 8 23 7 24 6 25 5 26 4 27 3 28 2 29 1 30
REMARK H PARENT
REMARK Flexibility Score: inf
ROOT
ATOM      1  C   UNL     1      30.127  -1.216  10.244  1.00  0.00     0.000 C 
ENDROOT
BRANCH   1   2
ATOM      2  C   UNL     1      31.439  -2.019  10.359  1.00  0.00     0.000 C 
BRANCH   2   3
ATOM      3  C   UNL     1      31.304  -3.410  11.010  1.00  0.00     0.000 C 
BRANCH   3   4
ATOM      4  C   UNL     1      30.781  -3.403  12.457  1.00  0.00     0.000 C 
BRANCH   4   5
ATOM      5  C   UNL     1      31.657  -2.573  13.408  1.00  0.00     0.000 C 
BRANCH   5   6
ATOM      6  C   UNL     1      30.855  -2.129  14.637  1.00  0.00     0.000 C 
BRANCH   6   7
ATOM      7  C   UNL     1      30.090  -3.307  15.253  1.00  0.00     0.000 C 
BRANCH   7   8
ATOM      8  C   UNL     1      28.814  -2.825  15.952  1.00  0.00     0.000 C 
BRANCH   8   9
ATOM      9  C   UNL     1      27.564  -3.178  15.131  1.00  0.00     0.000 C 
BRANCH   9  10
ATOM     10  C   UNL     1      26.962  -1.942  14.429  1.00  0.00     0.000 C 
BRANCH  10  11
ATOM     11  C   UNL     1      27.558  -1.675  13.034  1.00  0.00     0.000 C 
BRANCH  11  12
ATOM     12  C   UNL     1      27.091  -2.689  11.977  1.00  0.00     0.006 C 
BRANCH  12  13
ATOM     13  C   UNL     1      26.596  -2.007  10.695  1.00  0.00     0.053 C 
BRANCH  13  14
ATOM     14  C   UNL     1      25.101  -1.933  10.640  1.00  0.00     0.041 C 
ATOM     15  O   UNL     1      24.466  -2.566   9.754  1.00  0.00    -0.550 OA
ATOM     16  O   UNL     1      24.408  -1.152  11.558  1.00  0.00    -0.550 OA
ENDBRANCH  13  14
ENDBRANCH  12  13
ENDBRANCH  11  12
ENDBRANCH  10  11
ENDBRANCH   9  10
ENDBRANCH   8   9
ENDBRANCH   7   8
ENDBRANCH   6   7
ENDBRANCH   5   6
ENDBRANCH   4   5
ENDBRANCH   3   4
ENDBRANCH   2   3
ENDBRANCH   1   2
BRANCH   1  17
ATOM     17  C   UNL     1      30.129  -0.107   9.178  1.00  0.00     0.000 C 
BRANCH  17  18
ATOM     18  C   UNL     1      31.096  -0.396   8.018  1.00  0.00     0.000 C 
BRANCH  18  19
ATOM     19  C   UNL     1      30.462  -0.124   6.644  1.00  0.00     0.000 C 
BRANCH  19  20
ATOM     20  C   UNL     1      28.974  -0.512   6.592  1.00  0.00     0.000 C 
BRANCH  20  21
ATOM     21  C   UNL     1      28.671  -1.538   5.489  1.00  0.00     0.000 C 
BRANCH  21  22
ATOM     22  C   UNL     1      28.509  -2.966   6.040  1.00  0.00    -0.000 C 
BRANCH  22  23
ATOM     23  C   UNL     1      28.204  -2.992   7.545  1.00  0.00    -0.000 C 
BRANCH  23  24
ATOM     24  C   UNL     1      28.938  -4.128   8.277  1.00  0.00    -0.000 C 
BRANCH  24  25
ATOM     25  C   UNL     1      29.853  -4.940   7.344  1.00  0.00    -0.000 C 
BRANCH  25  26
ATOM     26  C   UNL     1      31.360  -4.808   7.639  1.00  0.00    -0.000 C 
BRANCH  26  27
ATOM     27  C   UNL     1      32.058  -3.703   6.814  1.00  0.00    -0.000 C 
BRANCH  27  28
ATOM     28  C   UNL     1      32.727  -4.230   5.531  1.00  0.00    -0.000 C 
BRANCH  28  29
ATOM     29  C   UNL     1      31.794  -4.149   4.314  1.00  0.00    -0.003 C 
ATOM     30  C   UNL     1      31.628  -2.707   3.844  1.00  0.00     0.004 C 
ENDBRANCH  28  29
ENDBRANCH  27  28
ENDBRANCH  26  27
ENDBRANCH  25  26
ENDBRANCH  24  25
ENDBRANCH  23  24
ENDBRANCH  22  23
ENDBRANCH  21  22
ENDBRANCH  20  21
ENDBRANCH  19  20
ENDBRANCH  18  19
ENDBRANCH  17  18
ENDBRANCH   1  17
TORSDOF 26
ENDMDL
MODEL 6
REMARK VINA RESULT:    -4.083      2.445      5.300
REMARK INTER + INTRA:         -14.899
REMARK INTER:                  -9.374
REMARK INTRA:                  -5.525
REMARK UNBOUND:                -4.610
REMARK SMILES CCCCCCCCCCCCCCCCCCCCCCCCCCCC(=O)[O-]
REMARK SMILES IDX 15 1 16 2 17 3 18 4 19 5 20 6 21 7 22 8 23 9 24 10 25 11
REMARK SMILES IDX 26 12 27 13 28 14 29 15 30 16 14 17 13 18 12 19 11 20 10 21
REMARK SMILES IDX 9 22 8 23 7 24 6 25 5 26 4 27 3 28 2 29 1 30
REMARK H PARENT
REMARK Flexibility Score: inf
ROOT
ATOM      1  C   UNL     1      26.754   0.079  15.501  1.00  0.00     0.000 C 
ENDROOT
BRANCH   1   2
ATOM      2  C   UNL     1      25.808   0.344  14.311  1.00  0.00     0.000 C 
BRANCH   2   3
ATOM      3  C   UNL     1      24.315   0.477  14.675  1.00  0.00     0.000 C 
BRANCH   3   4
ATOM      4  C   UNL     1      23.822   1.920  14.882  1.00  0.00     0.000 C 
BRANCH   4   5
ATOM      5  C   UNL     1      24.343   2.891  13.811  1.00  0.00     0.000 C 
BRANCH   5   6
ATOM      6  C   UNL     1      23.309   3.986  13.523  1.00  0.00     0.000 C 
BRANCH   6   7
ATOM      7  C   UNL     1      22.141   3.918  14.514  1.00  0.00     0.000 C 
BRANCH   7   8
ATOM      8  C   UNL     1      22.019   5.223  15.308  1.00  0.00     0.000 C 
BRANCH   8   9
ATOM      9  C   UNL     1      22.568   5.058  16.733  1.00  0.00     0.000 C 
BRANCH   9  10
ATOM     10  C   UNL     1      23.550   6.187  17.112  1.00  0.00     0.000 C 
BRANCH  10  11
ATOM     11  C   UNL     1      23.932   7.094  15.928  1.00  0.00     0.000 C 
BRANCH  11  12
ATOM     12  C   UNL     1      25.340   6.808  15.381  1.00  0.00     0.006 C 
BRANCH  12  13
ATOM     13  C   UNL     1      25.375   6.784  13.848  1.00  0.00     0.053 C 
BRANCH  13  14
ATOM     14  C   UNL     1      26.725   6.398  13.323  1.00  0.00     0.041 C 
ATOM     15  O   UNL     1      27.496   7.275  12.849  1.00  0.00    -0.550 OA
ATOM     16  O   UNL     1      27.125   5.067  13.344  1.00  0.00    -0.550 OA
ENDBRANCH  13  14
ENDBRANCH  12  13
ENDBRANCH  11  12
ENDBRANCH  10  11
ENDBRANCH   9  10
ENDBRANCH   8   9
ENDBRANCH   7   8
ENDBRANCH   6   7
ENDBRANCH   5   6
ENDBRANCH   4   5
ENDBRANCH   3   4
ENDBRANCH   2   3
ENDBRANCH   1   2
BRANCH   1  17
ATOM     17  C   UNL     1      26.064  -0.395  16.792  1.00  0.00     0.000 C 
BRANCH  17  18
ATOM     18  C   UNL     1      26.775   0.097  18.064  1.00  0.00     0.000 C 
BRANCH  18  19
ATOM     19  C   UNL     1      25.811   0.773  19.051  1.00  0.00     0.000 C 
BRANCH  19  20
ATOM     20  C   UNL     1      24.863   1.771  18.363  1.00  0.00     0.000 C 
BRANCH  20  21
ATOM     21  C   UNL     1      25.082   3.216  18.839  1.00  0.00     0.000 C 
BRANCH  21  22
ATOM     22  C   UNL     1      26.399   3.816  18.316  1.00  0.00    -0.000 C 
BRANCH  22  23
ATOM     23  C   UNL     1      26.554   3.674  16.794  1.00  0.00    -0.000 C 
BRANCH  23  24
ATOM     24  C   UNL     1      27.999   3.354  16.375  1.00  0.00    -0.000 C 
BRANCH  24  25
ATOM     25  C   UNL     1      28.825   2.740  17.518  1.00  0.00    -0.000 C 
BRANCH  25  26
ATOM     26  C   UNL     1      30.337   2.634  17.239  1.00  0.00    -0.000 C 
BRANCH  26  27
ATOM     27  C   UNL     1      31.175   3.732  17.933  1.00  0.00    -0.000 C 
BRANCH  27  28
ATOM     28  C   UNL     1      30.364   4.578  18.932  1.00  0.00    -0.000 C 
BRANCH  28  29
ATOM     29  C   UNL     1      30.359   6.068  18.562  1.00  0.00    -0.003 C 
ATOM     30  C   UNL     1      30.299   6.258  17.049  1.00  0.00     0.004 C 
ENDBRANCH  28  29
ENDBRANCH  27  28
ENDBRANCH  26  27
ENDBRANCH  25  26
ENDBRANCH  24  25
ENDBRANCH  23  24
ENDBRANCH  22  23
ENDBRANCH  21  22
ENDBRANCH  20  21
ENDBRANCH  19  20
ENDBRANCH  18  19
ENDBRANCH  17  18
ENDBRANCH   1  17
TORSDOF 26
ENDMDL
MODEL 7
REMARK VINA RESULT:    -4.034      3.712      7.250
REMARK INTER + INTRA:         -14.774
REMARK INTER:                  -9.042
REMARK INTRA:                  -5.732
REMARK UNBOUND:                -4.610
REMARK SMILES CCCCCCCCCCCCCCCCCCCCCCCCCCCC(=O)[O-]
REMARK SMILES IDX 15 1 16 2 17 3 18 4 19 5 20 6 21 7 22 8 23 9 24 10 25 11
REMARK SMILES IDX 26 12 27 13 28 14 29 15 30 16 14 17 13 18 12 19 11 20 10 21
REMARK SMILES IDX 9 22 8 23 7 24 6 25 5 26 4 27 3 28 2 29 1 30
REMARK H PARENT
REMARK Flexibility Score: inf
ROOT
ATOM      1  C   UNL     1      27.038   1.617  18.659  1.00  0.00     0.000 C 
ENDROOT
BRANCH   1   2
ATOM      2  C   UNL     1      26.814   3.143  18.620  1.00  0.00     0.000 C 
BRANCH   2   3
ATOM      3  C   UNL     1      26.751   3.762  17.209  1.00  0.00     0.000 C 
BRANCH   3   4
ATOM      4  C   UNL     1      27.992   4.575  16.800  1.00  0.00     0.000 C 
BRANCH   4   5
ATOM      5  C   UNL     1      28.212   4.609  15.279  1.00  0.00     0.000 C 
BRANCH   5   6
ATOM      6  C   UNL     1      28.264   3.187  14.707  1.00  0.00     0.000 C 
BRANCH   6   7
ATOM      7  C   UNL     1      27.390   3.065  13.453  1.00  0.00     0.000 C 
BRANCH   7   8
ATOM      8  C   UNL     1      26.333   1.969  13.627  1.00  0.00     0.000 C 
BRANCH   8   9
ATOM      9  C   UNL     1      26.833   0.860  14.566  1.00  0.00     0.000 C 
BRANCH   9  10
ATOM     10  C   UNL     1      25.756   0.432  15.585  1.00  0.00     0.000 C 
BRANCH  10  11
ATOM     11  C   UNL     1      24.560   1.399  15.660  1.00  0.00     0.000 C 
BRANCH  11  12
ATOM     12  C   UNL     1      23.227   0.736  15.274  1.00  0.00     0.006 C 
BRANCH  12  13
ATOM     13  C   UNL     1      23.345  -0.790  15.168  1.00  0.00     0.053 C 
BRANCH  13  14
ATOM     14  C   UNL     1      22.877  -1.476  16.416  1.00  0.00     0.041 C 
ATOM     15  O   UNL     1      23.383  -2.577  16.762  1.00  0.00    -0.550 OA
ATOM     16  O   UNL     1      21.870  -0.908  17.187  1.00  0.00    -0.550 OA
ENDBRANCH  13  14
ENDBRANCH  12  13
ENDBRANCH  11  12
ENDBRANCH  10  11
ENDBRANCH   9  10
ENDBRANCH   8   9
ENDBRANCH   7   8
ENDBRANCH   6   7
ENDBRANCH   5   6
ENDBRANCH   4   5
ENDBRANCH   3   4
ENDBRANCH   2   3
ENDBRANCH   1   2
BRANCH   1  17
ATOM     17  C   UNL     1      26.026   0.829  19.509  1.00  0.00     0.000 C 
BRANCH  17  18
ATOM     18  C   UNL     1      24.825   1.683  19.952  1.00  0.00     0.000 C 
BRANCH  18  19
ATOM     19  C   UNL     1      23.596   1.477  19.053  1.00  0.00     0.000 C 
BRANCH  19  20
ATOM     20  C   UNL     1      22.704   2.728  18.973  1.00  0.00     0.000 C 
BRANCH  20  21
ATOM     21  C   UNL     1      23.312   3.933  19.706  1.00  0.00     0.000 C 
BRANCH  21  22
ATOM     22  C   UNL     1      23.305   5.211  18.848  1.00  0.00    -0.000 C 
BRANCH  22  23
ATOM     23  C   UNL     1      22.995   4.932  17.369  1.00  0.00    -0.000 C 
BRANCH  23  24
ATOM     24  C   UNL     1      22.561   6.197  16.609  1.00  0.00    -0.000 C 
BRANCH  24  25
ATOM     25  C   UNL     1      23.743   7.123  16.274  1.00  0.00    -0.000 C 
BRANCH  25  26
ATOM     26  C   UNL     1      24.951   6.420  15.624  1.00  0.00    -0.000 C 
BRANCH  26  27
ATOM     27  C   UNL     1      25.129   6.751  14.125  1.00  0.00    -0.000 C 
BRANCH  27  28
ATOM     28  C   UNL     1      24.078   6.077  13.223  1.00  0.00    -0.000 C 
BRANCH  28  29
ATOM     29  C   UNL     1      23.955   4.572  13.501  1.00  0.00    -0.003 C 
ATOM     30  C   UNL     1      22.492   4.137  13.532  1.00  0.00     0.004 C 
ENDBRANCH  28  29
ENDBRANCH  27  28
ENDBRANCH  26  27
ENDBRANCH  25  26
ENDBRANCH  24  25
ENDBRANCH  23  24
ENDBRANCH  22  23
ENDBRANCH  21  22
ENDBRANCH  20  21
ENDBRANCH  19  20
ENDBRANCH  18  19
ENDBRANCH  17  18
ENDBRANCH   1  17
TORSDOF 26
ENDMDL
MODEL 8
REMARK VINA RESULT:    -4.031      2.932      6.436
REMARK INTER + INTRA:         -14.767
REMARK INTER:                  -9.533
REMARK INTRA:                  -5.234
REMARK UNBOUND:                -4.610
REMARK SMILES CCCCCCCCCCCCCCCCCCCCCCCCCCCC(=O)[O-]
REMARK SMILES IDX 15 1 16 2 17 3 18 4 19 5 20 6 21 7 22 8 23 9 24 10 25 11
REMARK SMILES IDX 26 12 27 13 28 14 29 15 30 16 14 17 13 18 12 19 11 20 10 21
REMARK SMILES IDX 9 22 8 23 7 24 6 25 5 26 4 27 3 28 2 29 1 30
REMARK H PARENT
REMARK Flexibility Score: inf
ROOT
ATOM      1  C   UNL     1      26.064   2.245  13.900  1.00  0.00     0.000 C 
ENDROOT
BRANCH   1   2
ATOM      2  C   UNL     1      25.880   2.279  15.431  1.00  0.00     0.000 C 
BRANCH   2   3
ATOM      3  C   UNL     1      24.620   1.564  15.957  1.00  0.00     0.000 C 
BRANCH   3   4
ATOM      4  C   UNL     1      24.469   1.553  17.489  1.00  0.00     0.000 C 
BRANCH   4   5
ATOM      5  C   UNL     1      25.680   2.157  18.215  1.00  0.00     0.000 C 
BRANCH   5   6
ATOM      6  C   UNL     1      25.283   3.437  18.960  1.00  0.00     0.000 C 
BRANCH   6   7
ATOM      7  C   UNL     1      23.823   3.376  19.425  1.00  0.00     0.000 C 
BRANCH   7   8
ATOM      8  C   UNL     1      23.076   4.661  19.052  1.00  0.00     0.000 C 
BRANCH   8   9
ATOM      9  C   UNL     1      23.207   4.964  17.552  1.00  0.00     0.000 C 
BRANCH   9  10
ATOM     10  C   UNL     1      23.010   6.463  17.242  1.00  0.00     0.000 C 
BRANCH  10  11
ATOM     11  C   UNL     1      23.965   6.999  16.160  1.00  0.00     0.000 C 
BRANCH  11  12
ATOM     12  C   UNL     1      24.906   5.919  15.601  1.00  0.00     0.006 C 
BRANCH  12  13
ATOM     13  C   UNL     1      24.719   5.709  14.093  1.00  0.00     0.053 C 
BRANCH  13  14
ATOM     14  C   UNL     1      25.886   6.224  13.306  1.00  0.00     0.041 C 
ATOM     15  O   UNL     1      26.249   7.425  13.423  1.00  0.00    -0.550 OA
ATOM     16  O   UNL     1      26.561   5.382  12.430  1.00  0.00    -0.550 OA
ENDBRANCH  13  14
ENDBRANCH  12  13
ENDBRANCH  11  12
ENDBRANCH  10  11
ENDBRANCH   9  10
ENDBRANCH   8   9
ENDBRANCH   7   8
ENDBRANCH   6   7
ENDBRANCH   5   6
ENDBRANCH   4   5
ENDBRANCH   3   4
ENDBRANCH   2   3
ENDBRANCH   1   2
BRANCH   1  17
ATOM     17  C   UNL     1      27.350   1.556  13.410  1.00  0.00     0.000 C 
BRANCH  17  18
ATOM     18  C   UNL     1      27.072   0.363  12.480  1.00  0.00     0.000 C 
BRANCH  18  19
ATOM     19  C   UNL     1      26.201  -0.712  13.150  1.00  0.00     0.000 C 
BRANCH  19  20
ATOM     20  C   UNL     1      26.926  -2.062  13.287  1.00  0.00     0.000 C 
BRANCH  20  21
ATOM     21  C   UNL     1      27.312  -2.378  14.740  1.00  0.00     0.000 C 
BRANCH  21  22
ATOM     22  C   UNL     1      26.401  -1.671  15.760  1.00  0.00    -0.000 C 
BRANCH  22  23
ATOM     23  C   UNL     1      27.191  -0.932  16.851  1.00  0.00    -0.000 C 
BRANCH  23  24
ATOM     24  C   UNL     1      28.689  -0.819  16.521  1.00  0.00    -0.000 C 
BRANCH  24  25
ATOM     25  C   UNL     1      29.158   0.640  16.388  1.00  0.00    -0.000 C 
BRANCH  25  26
ATOM     26  C   UNL     1      30.321   1.034  17.320  1.00  0.00    -0.000 C 
BRANCH  26  27
ATOM     27  C   UNL     1      30.378   2.546  17.636  1.00  0.00    -0.000 C 
BRANCH  27  28
ATOM     28  C   UNL     1      29.317   2.996  18.658  1.00  0.00    -0.000 C 
BRANCH  28  29
ATOM     29  C   UNL     1      28.766   4.394  18.344  1.00  0.00    -0.003 C 
ATOM     30  C   UNL     1      28.486   4.552  16.852  1.00  0.00     0.004 C 
ENDBRANCH  28  29
ENDBRANCH  27  28
ENDBRANCH  26  27
ENDBRANCH  25  26
ENDBRANCH  24  25
ENDBRANCH  23  24
ENDBRANCH  22  23
ENDBRANCH  21  22
ENDBRANCH  20  21
ENDBRANCH  19  20
ENDBRANCH  18  19
ENDBRANCH  17  18
ENDBRANCH   1  17
TORSDOF 26
ENDMDL
MODEL 9
REMARK VINA RESULT:    -3.981      4.233      8.510
REMARK INTER + INTRA:         -14.642
REMARK INTER:                  -9.505
REMARK INTRA:                  -5.137
REMARK UNBOUND:                -4.610
REMARK SMILES CCCCCCCCCCCCCCCCCCCCCCCCCCCC(=O)[O-]
REMARK SMILES IDX 15 1 16 2 17 3 18 4 19 5 20 6 21 7 22 8 23 9 24 10 25 11
REMARK SMILES IDX 26 12 27 13 28 14 29 15 30 16 14 17 13 18 12 19 11 20 10 21
REMARK SMILES IDX 9 22 8 23 7 24 6 25 5 26 4 27 3 28 2 29 1 30
REMARK H PARENT
REMARK Flexibility Score: inf
ROOT
ATOM      1  C   UNL     1      27.870   1.064  15.626  1.00  0.00     0.000 C 
ENDROOT
BRANCH   1   2
ATOM      2  C   UNL     1      29.409   1.168  15.642  1.00  0.00     0.000 C 
BRANCH   2   3
ATOM      3  C   UNL     1      30.033   1.466  17.020  1.00  0.00     0.000 C 
BRANCH   3   4
ATOM      4  C   UNL     1      29.857   2.913  17.515  1.00  0.00     0.000 C 
BRANCH   4   5
ATOM      5  C   UNL     1      29.081   3.004  18.838  1.00  0.00     0.000 C 
BRANCH   5   6
ATOM      6  C   UNL     1      27.722   3.682  18.625  1.00  0.00     0.000 C 
BRANCH   6   7
ATOM      7  C   UNL     1      26.572   2.688  18.819  1.00  0.00     0.000 C 
BRANCH   7   8
ATOM      8  C   UNL     1      25.238   3.301  18.380  1.00  0.00     0.000 C 
BRANCH   8   9
ATOM      9  C   UNL     1      24.455   2.338  17.475  1.00  0.00     0.000 C 
BRANCH   9  10
ATOM     10  C   UNL     1      24.591   2.702  15.981  1.00  0.00     0.000 C 
BRANCH  10  11
ATOM     11  C   UNL     1      24.945   4.181  15.738  1.00  0.00     0.000 C 
BRANCH  11  12
ATOM     12  C   UNL     1      26.114   4.365  14.757  1.00  0.00     0.006 C 
BRANCH  12  13
ATOM     13  C   UNL     1      27.351   4.971  15.431  1.00  0.00     0.053 C 
BRANCH  13  14
ATOM     14  C   UNL     1      27.416   6.458  15.253  1.00  0.00     0.041 C 
ATOM     15  O   UNL     1      28.529   7.035  15.133  1.00  0.00    -0.550 OA
ATOM     16  O   UNL     1      26.245   7.207  15.236  1.00  0.00    -0.550 OA
ENDBRANCH  13  14
ENDBRANCH  12  13
ENDBRANCH  11  12
ENDBRANCH  10  11
ENDBRANCH   9  10
ENDBRANCH   8   9
ENDBRANCH   7   8
ENDBRANCH   6   7
ENDBRANCH   5   6
ENDBRANCH   4   5
ENDBRANCH   3   4
ENDBRANCH   2   3
ENDBRANCH   1   2
BRANCH   1  17
ATOM     17  C   UNL     1      27.279  -0.033  16.528  1.00  0.00     0.000 C 
BRANCH  17  18
ATOM     18  C   UNL     1      26.042  -0.710  15.914  1.00  0.00     0.000 C 
BRANCH  18  19
ATOM     19  C   UNL     1      26.100  -2.242  16.017  1.00  0.00     0.000 C 
BRANCH  19  20
ATOM     20  C   UNL     1      27.489  -2.756  16.432  1.00  0.00     0.000 C 
BRANCH  20  21
ATOM     21  C   UNL     1      28.227  -3.456  15.280  1.00  0.00     0.000 C 
BRANCH  21  22
ATOM     22  C   UNL     1      29.265  -2.543  14.604  1.00  0.00    -0.000 C 
BRANCH  22  23
ATOM     23  C   UNL     1      28.716  -1.846  13.349  1.00  0.00    -0.000 C 
BRANCH  23  24
ATOM     24  C   UNL     1      27.597  -2.653  12.668  1.00  0.00    -0.000 C 
BRANCH  24  25
ATOM     25  C   UNL     1      26.370  -1.790  12.324  1.00  0.00    -0.000 C 
BRANCH  25  26
ATOM     26  C   UNL     1      26.690  -0.332  11.945  1.00  0.00    -0.000 C 
BRANCH  26  27
ATOM     27  C   UNL     1      26.630  -0.058  10.424  1.00  0.00    -0.000 C 
BRANCH  27  28
ATOM     28  C   UNL     1      27.866  -0.570   9.663  1.00  0.00    -0.000 C 
BRANCH  28  29
ATOM     29  C   UNL     1      27.575  -1.862   8.885  1.00  0.00    -0.003 C 
ATOM     30  C   UNL     1      28.679  -2.893   9.098  1.00  0.00     0.004 C 
ENDBRANCH  28  29
ENDBRANCH  27  28
ENDBRANCH  26  27
ENDBRANCH  25  26
ENDBRANCH  24  25
ENDBRANCH  23  24
ENDBRANCH  22  23
ENDBRANCH  21  22
ENDBRANCH  20  21
ENDBRANCH  19  20
ENDBRANCH  18  19
ENDBRANCH  17  18
ENDBRANCH   1  17
TORSDOF 26
ENDMDL
