MODEL 1
REMARK VINA RESULT:    -2.943      0.000      0.000
REMARK INTER + INTRA:          -3.029
REMARK INTER:                  -3.029
REMARK INTRA:                   0.000
REMARK UNBOUND:                 0.000
REMARK SMILES O=c1ccc2ccc(O)cc2o1
REMARK SMILES IDX 6 1 7 2 8 3 10 4 11 5 5 6 4 7 3 8 2 9 1 10 12 11 9 12
REMARK H PARENT 9 13
REMARK Flexibility Score: inf
ROOT
ATOM      1  C   UNL     1     -29.459 -23.749  42.696  1.00  0.00     0.016 A 
ATOM      2  C   UNL     1     -28.809 -23.604  41.467  1.00  0.00     0.047 A 
ATOM      3  C   UNL     1     -27.545 -24.170  41.262  1.00  0.00     0.119 A 
ATOM      4  C   UNL     1     -26.924 -24.887  42.297  1.00  0.00     0.094 A 
ATOM      5  C   UNL     1     -27.566 -25.038  43.531  1.00  0.00     0.142 A 
ATOM      6  C   UNL     1     -28.842 -24.465  43.732  1.00  0.00     0.018 A 
ATOM      7  C   UNL     1     -29.460 -24.632  44.975  1.00  0.00     0.019 A 
ATOM      8  C   UNL     1     -28.804 -25.353  45.973  1.00  0.00     0.094 A 
ATOM      9  C   UNL     1     -27.540 -25.892  45.703  1.00  0.00     0.336 A 
ATOM     10  O   UNL     1     -26.933 -26.545  46.590  1.00  0.00    -0.246 OA
ATOM     11  O   UNL     1     -26.976 -25.718  44.511  1.00  0.00    -0.423 OA
ENDROOT
BRANCH   3  12
ATOM     12  O   UNL     1     -26.913 -24.015  40.031  1.00  0.00    -0.508 OA
ATOM     13  H   UNL     1     -25.914 -23.856  39.964  1.00  0.00     0.293 HD
ENDBRANCH   3  12
TORSDOF 1
ENDMDL
MODEL 2
REMARK VINA RESULT:    -2.937     23.946     24.612
REMARK INTER + INTRA:          -3.023
REMARK INTER:                  -3.023
REMARK INTRA:                   0.000
REMARK UNBOUND:                 0.000
REMARK SMILES O=c1ccc2ccc(O)cc2o1
REMARK SMILES IDX 6 1 7 2 8 3 10 4 11 5 5 6 4 7 3 8 2 9 1 10 12 11 9 12
REMARK H PARENT 9 13
REMARK Flexibility Score: inf
ROOT
ATOM      1  C   UNL     1     -44.441 -42.887  42.433  1.00  0.00     0.016 A 
ATOM      2  C   UNL     1     -45.184 -42.959  41.250  1.00  0.00     0.047 A 
ATOM      3  C   UNL     1     -46.399 -42.274  41.133  1.00  0.00     0.119 A 
ATOM      4  C   UNL     1     -46.877 -41.511  42.210  1.00  0.00     0.094 A 
ATOM      5  C   UNL     1     -46.142 -41.432  43.397  1.00  0.00     0.142 A 
ATOM      6  C   UNL     1     -44.916 -42.125  43.509  1.00  0.00     0.018 A 
ATOM      7  C   UNL     1     -44.202 -42.028  44.708  1.00  0.00     0.019 A 
ATOM      8  C   UNL     1     -44.717 -41.256  45.750  1.00  0.00     0.094 A 
ATOM      9  C   UNL     1     -45.939 -40.598  45.567  1.00  0.00     0.336 A 
ATOM     10  O   UNL     1     -46.420 -39.897  46.495  1.00  0.00    -0.246 OA
ATOM     11  O   UNL     1     -46.597 -40.708  44.416  1.00  0.00    -0.423 OA
ENDROOT
BRANCH   3  12
ATOM     12  O   UNL     1     -47.125 -42.359  39.948  1.00  0.00    -0.508 OA
ATOM     13  H   UNL     1     -48.114 -42.141  39.915  1.00  0.00     0.293 HD
ENDBRANCH   3  12
TORSDOF 1
ENDMDL
MODEL 3
REMARK VINA RESULT:    -2.927     16.766     17.600
REMARK INTER + INTRA:          -3.013
REMARK INTER:                  -3.013
REMARK INTRA:                   0.000
REMARK UNBOUND:                 0.000
REMARK SMILES O=c1ccc2ccc(O)cc2o1
REMARK SMILES IDX 6 1 7 2 8 3 10 4 11 5 5 6 4 7 3 8 2 9 1 10 12 11 9 12
REMARK H PARENT 9 13
REMARK Flexibility Score: inf
ROOT
ATOM      1  C   UNL     1     -46.799 -25.537  41.834  1.00  0.00     0.016 A 
ATOM      2  C   UNL     1     -46.788 -24.775  40.663  1.00  0.00     0.047 A 
ATOM      3  C   UNL     1     -45.998 -23.622  40.574  1.00  0.00     0.119 A 
ATOM      4  C   UNL     1     -45.212 -23.229  41.668  1.00  0.00     0.094 A 
ATOM      5  C   UNL     1     -45.215 -23.985  42.845  1.00  0.00     0.142 A 
ATOM      6  C   UNL     1     -46.014 -25.147  42.929  1.00  0.00     0.018 A 
ATOM      7  C   UNL     1     -45.997 -25.883  44.118  1.00  0.00     0.019 A 
ATOM      8  C   UNL     1     -45.200 -25.453  45.177  1.00  0.00     0.094 A 
ATOM      9  C   UNL     1     -44.434 -24.291  45.023  1.00  0.00     0.336 A 
ATOM     10  O   UNL     1     -43.708 -23.886  45.967  1.00  0.00    -0.246 OA
ATOM     11  O   UNL     1     -44.469 -23.609  43.881  1.00  0.00    -0.423 OA
ENDROOT
BRANCH   3  12
ATOM     12  O   UNL     1     -46.001 -22.875  39.399  1.00  0.00    -0.508 OA
ATOM     13  H   UNL     1     -45.631 -21.932  39.369  1.00  0.00     0.293 HD
ENDBRANCH   3  12
TORSDOF 1
ENDMDL
MODEL 4
REMARK VINA RESULT:    -2.904     16.906     17.752
REMARK INTER + INTRA:          -2.989
REMARK INTER:                  -2.989
REMARK INTRA:                   0.000
REMARK UNBOUND:                 0.000
REMARK SMILES O=c1ccc2ccc(O)cc2o1
REMARK SMILES IDX 6 1 7 2 8 3 10 4 11 5 5 6 4 7 3 8 2 9 1 10 12 11 9 12
REMARK H PARENT 9 13
REMARK Flexibility Score: inf
ROOT
ATOM      1  C   UNL     1     -44.857 -22.875  41.043  1.00  0.00     0.016 A 
ATOM      2  C   UNL     1     -45.541 -23.255  39.884  1.00  0.00     0.047 A 
ATOM      3  C   UNL     1     -46.376 -24.379  39.891  1.00  0.00     0.119 A 
ATOM      4  C   UNL     1     -46.528 -25.130  41.067  1.00  0.00     0.094 A 
ATOM      5  C   UNL     1     -45.849 -24.758  42.231  1.00  0.00     0.142 A 
ATOM      6  C   UNL     1     -45.007 -23.623  42.220  1.00  0.00     0.018 A 
ATOM      7  C   UNL     1     -44.341 -23.274  43.399  1.00  0.00     0.019 A 
ATOM      8  C   UNL     1     -44.524 -24.051  44.542  1.00  0.00     0.094 A 
ATOM      9  C   UNL     1     -45.372 -25.163  44.480  1.00  0.00     0.336 A 
ATOM     10  O   UNL     1     -45.551 -25.876  45.501  1.00  0.00    -0.246 OA
ATOM     11  O   UNL     1     -45.994 -25.472  43.345  1.00  0.00    -0.423 OA
ENDROOT
BRANCH   3  12
ATOM     12  O   UNL     1     -47.048 -24.743  38.727  1.00  0.00    -0.508 OA
ATOM     13  H   UNL     1     -46.620 -25.346  38.034  1.00  0.00     0.293 HD
ENDBRANCH   3  12
TORSDOF 1
ENDMDL
MODEL 5
REMARK VINA RESULT:    -2.861      2.045      2.701
REMARK INTER + INTRA:          -2.944
REMARK INTER:                  -2.944
REMARK INTRA:                   0.000
REMARK UNBOUND:                 0.000
REMARK SMILES O=c1ccc2ccc(O)cc2o1
REMARK SMILES IDX 6 1 7 2 8 3 10 4 11 5 5 6 4 7 3 8 2 9 1 10 12 11 9 12
REMARK H PARENT 9 13
REMARK Flexibility Score: inf
ROOT
ATOM      1  C   UNL     1     -26.882 -24.930  41.732  1.00  0.00     0.016 A 
ATOM      2  C   UNL     1     -27.030 -24.382  40.455  1.00  0.00     0.047 A 
ATOM      3  C   UNL     1     -28.189 -23.672  40.118  1.00  0.00     0.119 A 
ATOM      4  C   UNL     1     -29.209 -23.509  41.068  1.00  0.00     0.094 A 
ATOM      5  C   UNL     1     -29.070 -24.053  42.349  1.00  0.00     0.142 A 
ATOM      6  C   UNL     1     -27.899 -24.768  42.684  1.00  0.00     0.018 A 
ATOM      7  C   UNL     1     -27.788 -25.301  43.972  1.00  0.00     0.019 A 
ATOM      8  C   UNL     1     -28.828 -25.113  44.882  1.00  0.00     0.094 A 
ATOM      9  C   UNL     1     -29.960 -24.394  44.480  1.00  0.00     0.336 A 
ATOM     10  O   UNL     1     -30.908 -24.213  45.286  1.00  0.00    -0.246 OA
ATOM     11  O   UNL     1     -30.039 -23.898  43.248  1.00  0.00    -0.423 OA
ENDROOT
BRANCH   3  12
ATOM     12  O   UNL     1     -28.319 -23.134  38.840  1.00  0.00    -0.508 OA
ATOM     13  H   UNL     1     -28.072 -22.172  38.642  1.00  0.00     0.293 HD
ENDBRANCH   3  12
TORSDOF 1
ENDMDL
MODEL 6
REMARK VINA RESULT:    -2.762      2.041      5.016
REMARK INTER + INTRA:          -2.842
REMARK INTER:                  -2.842
REMARK INTRA:                   0.000
REMARK UNBOUND:                 0.000
REMARK SMILES O=c1ccc2ccc(O)cc2o1
REMARK SMILES IDX 6 1 7 2 8 3 10 4 11 5 5 6 4 7 3 8 2 9 1 10 12 11 9 12
REMARK H PARENT 9 13
REMARK Flexibility Score: inf
ROOT
ATOM      1  C   UNL     1     -27.696 -25.605  43.226  1.00  0.00     0.016 A 
ATOM      2  C   UNL     1     -28.482 -25.303  44.343  1.00  0.00     0.047 A 
ATOM      3  C   UNL     1     -29.509 -24.355  44.252  1.00  0.00     0.119 A 
ATOM      4  C   UNL     1     -29.751 -23.703  43.033  1.00  0.00     0.094 A 
ATOM      5  C   UNL     1     -28.971 -23.997  41.910  1.00  0.00     0.142 A 
ATOM      6  C   UNL     1     -27.937 -24.954  42.007  1.00  0.00     0.018 A 
ATOM      7  C   UNL     1     -27.173 -25.229  40.868  1.00  0.00     0.019 A 
ATOM      8  C   UNL     1     -27.452 -24.555  39.680  1.00  0.00     0.094 A 
ATOM      9  C   UNL     1     -28.492 -23.618  39.658  1.00  0.00     0.336 A 
ATOM     10  O   UNL     1     -28.759 -23.000  38.595  1.00  0.00    -0.246 OA
ATOM     11  O   UNL     1     -29.203 -23.377  40.756  1.00  0.00    -0.423 OA
ENDROOT
BRANCH   3  12
ATOM     12  O   UNL     1     -30.280 -24.068  45.375  1.00  0.00    -0.508 OA
ATOM     13  H   UNL     1     -31.270 -23.865  45.300  1.00  0.00     0.293 HD
ENDBRANCH   3  12
TORSDOF 1
ENDMDL
MODEL 7
REMARK VINA RESULT:    -2.753     16.906     18.105
REMARK INTER + INTRA:          -2.834
REMARK INTER:                  -2.834
REMARK INTRA:                   0.000
REMARK UNBOUND:                 0.000
REMARK SMILES O=c1ccc2ccc(O)cc2o1
REMARK SMILES IDX 6 1 7 2 8 3 10 4 11 5 5 6 4 7 3 8 2 9 1 10 12 11 9 12
REMARK H PARENT 9 13
REMARK Flexibility Score: inf
ROOT
ATOM      1  C   UNL     1     -45.647 -25.909  44.932  1.00  0.00     0.016 A 
ATOM      2  C   UNL     1     -44.866 -25.067  45.728  1.00  0.00     0.047 A 
ATOM      3  C   UNL     1     -44.369 -23.864  45.211  1.00  0.00     0.119 A 
ATOM      4  C   UNL     1     -44.656 -23.501  43.886  1.00  0.00     0.094 A 
ATOM      5  C   UNL     1     -45.437 -24.337  43.082  1.00  0.00     0.142 A 
ATOM      6  C   UNL     1     -45.936 -25.549  43.608  1.00  0.00     0.018 A 
ATOM      7  C   UNL     1     -46.715 -26.365  42.781  1.00  0.00     0.019 A 
ATOM      8  C   UNL     1     -46.974 -25.962  41.471  1.00  0.00     0.094 A 
ATOM      9  C   UNL     1     -46.445 -24.748  41.017  1.00  0.00     0.336 A 
ATOM     10  O   UNL     1     -46.668 -24.367  39.839  1.00  0.00    -0.246 OA
ATOM     11  O   UNL     1     -45.707 -23.991  41.826  1.00  0.00    -0.423 OA
ENDROOT
BRANCH   3  12
ATOM     12  O   UNL     1     -43.591 -23.038  46.019  1.00  0.00    -0.508 OA
ATOM     13  H   UNL     1     -43.955 -22.172  46.398  1.00  0.00     0.293 HD
ENDBRANCH   3  12
TORSDOF 1
ENDMDL
MODEL 8
REMARK VINA RESULT:    -2.740      0.772      4.233
REMARK INTER + INTRA:          -2.820
REMARK INTER:                  -2.820
REMARK INTRA:                   0.000
REMARK UNBOUND:                 0.000
REMARK SMILES O=c1ccc2ccc(O)cc2o1
REMARK SMILES IDX 6 1 7 2 8 3 10 4 11 5 5 6 4 7 3 8 2 9 1 10 12 11 9 12
REMARK H PARENT 9 13
REMARK Flexibility Score: inf
ROOT
ATOM      1  C   UNL     1     -29.642 -24.662  45.141  1.00  0.00     0.016 A 
ATOM      2  C   UNL     1     -29.026 -25.405  46.153  1.00  0.00     0.047 A 
ATOM      3  C   UNL     1     -27.754 -25.956  45.954  1.00  0.00     0.119 A 
ATOM      4  C   UNL     1     -27.093 -25.763  44.731  1.00  0.00     0.094 A 
ATOM      5  C   UNL     1     -27.701 -25.021  43.713  1.00  0.00     0.142 A 
ATOM      6  C   UNL     1     -28.984 -24.468  43.919  1.00  0.00     0.018 A 
ATOM      7  C   UNL     1     -29.567 -23.731  42.883  1.00  0.00     0.019 A 
ATOM      8  C   UNL     1     -28.871 -23.566  41.686  1.00  0.00     0.094 A 
ATOM      9  C   UNL     1     -27.603 -24.144  41.552  1.00  0.00     0.336 A 
ATOM     10  O   UNL     1     -26.960 -24.006  40.480  1.00  0.00    -0.246 OA
ATOM     11  O   UNL     1     -27.072 -24.840  42.554  1.00  0.00    -0.423 OA
ENDROOT
BRANCH   3  12
ATOM     12  O   UNL     1     -27.157 -26.693  46.973  1.00  0.00    -0.508 OA
ATOM     13  H   UNL     1     -27.657 -26.924  47.824  1.00  0.00     0.293 HD
ENDBRANCH   3  12
TORSDOF 1
ENDMDL
MODEL 9
REMARK VINA RESULT:    -2.709     24.040     24.574
REMARK INTER + INTRA:          -2.788
REMARK INTER:                  -2.788
REMARK INTRA:                   0.000
REMARK UNBOUND:                 0.000
REMARK SMILES O=c1ccc2ccc(O)cc2o1
REMARK SMILES IDX 6 1 7 2 8 3 10 4 11 5 5 6 4 7 3 8 2 9 1 10 12 11 9 12
REMARK H PARENT 9 13
REMARK Flexibility Score: inf
ROOT
ATOM      1  C   UNL     1     -47.117 -40.632  40.920  1.00  0.00     0.016 A 
ATOM      2  C   UNL     1     -46.829 -41.370  39.768  1.00  0.00     0.047 A 
ATOM      3  C   UNL     1     -45.884 -42.402  39.805  1.00  0.00     0.119 A 
ATOM      4  C   UNL     1     -45.219 -42.698  41.005  1.00  0.00     0.094 A 
ATOM      5  C   UNL     1     -45.500 -41.966  42.164  1.00  0.00     0.142 A 
ATOM      6  C   UNL     1     -46.456 -40.926  42.121  1.00  0.00     0.018 A 
ATOM      7  C   UNL     1     -46.716 -40.211  43.294  1.00  0.00     0.019 A 
ATOM      8  C   UNL     1     -46.031 -40.543  44.463  1.00  0.00     0.094 A 
ATOM      9  C   UNL     1     -45.097 -41.585  44.431  1.00  0.00     0.336 A 
ATOM     10  O   UNL     1     -44.469 -41.899  45.475  1.00  0.00    -0.246 OA
ATOM     11  O   UNL     1     -44.869 -42.249  43.300  1.00  0.00    -0.423 OA
ENDROOT
BRANCH   3  12
ATOM     12  O   UNL     1     -45.610 -43.125  38.647  1.00  0.00    -0.508 OA
ATOM     13  H   UNL     1     -44.837 -42.880  38.039  1.00  0.00     0.293 HD
ENDBRANCH   3  12
TORSDOF 1
ENDMDL
