MODEL 1
REMARK VINA RESULT:    -4.778      0.000      0.000
REMARK INTER + INTRA:         -11.895
REMARK INTER:                  -9.247
REMARK INTRA:                  -2.648
REMARK UNBOUND:                -2.648
REMARK SMILES CCCCCCCCCCCCCCCCCC(=O)[O-]
REMARK SMILES IDX 10 1 11 2 12 3 13 4 14 5 15 6 16 7 17 8 18 9 19 10 20 11
REMARK SMILES IDX 9 12 8 13 7 14 6 15 5 16 4 17 3 18 2 19 1 20
REMARK H PARENT
REMARK Flexibility Score: inf
ROOT
ATOM      1  C   UNL     1     -23.444  59.322  28.394  1.00  0.00     0.000 C 
ENDROOT
BRANCH   1   2
ATOM      2  C   UNL     1     -23.428  58.592  29.741  1.00  0.00     0.000 C 
BRANCH   2   3
ATOM      3  C   UNL     1     -24.732  58.831  30.513  1.00  0.00     0.000 C 
BRANCH   3   4
ATOM      4  C   UNL     1     -24.556  58.511  32.003  1.00  0.00     0.000 C 
BRANCH   4   5
ATOM      5  C   UNL     1     -25.513  59.349  32.861  1.00  0.00     0.000 C 
BRANCH   5   6
ATOM      6  C   UNL     1     -26.559  60.106  32.026  1.00  0.00     0.000 C 
BRANCH   6   7
ATOM      7  C   UNL     1     -26.715  61.589  32.424  1.00  0.00     0.006 C 
BRANCH   7   8
ATOM      8  C   UNL     1     -28.070  61.871  33.088  1.00  0.00     0.053 C 
BRANCH   8   9
ATOM      9  C   UNL     1     -27.956  61.764  34.576  1.00  0.00     0.041 C 
ATOM     10  O   UNL     1     -27.752  62.794  35.271  1.00  0.00    -0.550 OA
ATOM     11  O   UNL     1     -28.125  60.534  35.198  1.00  0.00    -0.550 OA
ENDBRANCH   8   9
ENDBRANCH   7   8
ENDBRANCH   6   7
ENDBRANCH   5   6
ENDBRANCH   4   5
ENDBRANCH   3   4
ENDBRANCH   2   3
ENDBRANCH   1   2
BRANCH   1  12
ATOM     12  C   UNL     1     -24.409  60.513  28.425  1.00  0.00     0.000 C 
BRANCH  12  13
ATOM     13  C   UNL     1     -23.647  61.837  28.555  1.00  0.00    -0.000 C 
BRANCH  13  14
ATOM     14  C   UNL     1     -24.204  62.683  29.705  1.00  0.00    -0.000 C 
BRANCH  14  15
ATOM     15  C   UNL     1     -23.595  62.257  31.048  1.00  0.00    -0.000 C 
BRANCH  15  16
ATOM     16  C   UNL     1     -22.077  62.014  30.966  1.00  0.00    -0.000 C 
BRANCH  16  17
ATOM     17  C   UNL     1     -21.470  61.275  32.177  1.00  0.00    -0.000 C 
BRANCH  17  18
ATOM     18  C   UNL     1     -22.340  61.279  33.450  1.00  0.00    -0.000 C 
BRANCH  18  19
ATOM     19  C   UNL     1     -21.727  62.024  34.649  1.00  0.00    -0.003 C 
ATOM     20  C   UNL     1     -20.241  61.724  34.841  1.00  0.00     0.004 C 
ENDBRANCH  18  19
ENDBRANCH  17  18
ENDBRANCH  16  17
ENDBRANCH  15  16
ENDBRANCH  14  15
ENDBRANCH  13  14
ENDBRANCH  12  13
ENDBRANCH   1  12
TORSDOF 16
ENDMDL
MODEL 2
REMARK VINA RESULT:    -4.766      1.536      3.951
REMARK INTER + INTRA:         -11.872
REMARK INTER:                  -9.072
REMARK INTRA:                  -2.800
REMARK UNBOUND:                -2.648
REMARK SMILES CCCCCCCCCCCCCCCCCC(=O)[O-]
REMARK SMILES IDX 10 1 11 2 12 3 13 4 14 5 15 6 16 7 17 8 18 9 19 10 20 11
REMARK SMILES IDX 9 12 8 13 7 14 6 15 5 16 4 17 3 18 2 19 1 20
REMARK H PARENT
REMARK Flexibility Score: inf
ROOT
ATOM      1  C   UNL     1     -21.940  62.363  31.194  1.00  0.00     0.000 C 
ENDROOT
BRANCH   1   2
ATOM      2  C   UNL     1     -21.117  61.879  32.393  1.00  0.00     0.000 C 
BRANCH   2   3
ATOM      3  C   UNL     1     -21.988  61.082  33.373  1.00  0.00     0.000 C 
BRANCH   3   4
ATOM      4  C   UNL     1     -21.921  61.683  34.782  1.00  0.00     0.000 C 
BRANCH   4   5
ATOM      5  C   UNL     1     -23.191  61.357  35.579  1.00  0.00     0.000 C 
BRANCH   5   6
ATOM      6  C   UNL     1     -24.238  60.593  34.750  1.00  0.00     0.000 C 
BRANCH   6   7
ATOM      7  C   UNL     1     -25.677  61.122  34.930  1.00  0.00     0.006 C 
BRANCH   7   8
ATOM      8  C   UNL     1     -26.688  60.354  34.070  1.00  0.00     0.053 C 
BRANCH   8   9
ATOM      9  C   UNL     1     -26.899  61.049  32.761  1.00  0.00     0.041 C 
ATOM     10  O   UNL     1     -26.858  60.398  31.684  1.00  0.00    -0.550 OA
ATOM     11  O   UNL     1     -27.189  62.407  32.736  1.00  0.00    -0.550 OA
ENDBRANCH   8   9
ENDBRANCH   7   8
ENDBRANCH   6   7
ENDBRANCH   5   6
ENDBRANCH   4   5
ENDBRANCH   3   4
ENDBRANCH   2   3
ENDBRANCH   1   2
BRANCH   1  12
ATOM     12  C   UNL     1     -23.412  61.955  31.335  1.00  0.00     0.000 C 
BRANCH  12  13
ATOM     13  C   UNL     1     -24.302  62.768  30.389  1.00  0.00    -0.000 C 
BRANCH  13  14
ATOM     14  C   UNL     1     -24.845  61.892  29.254  1.00  0.00    -0.000 C 
BRANCH  14  15
ATOM     15  C   UNL     1     -23.721  61.471  28.297  1.00  0.00    -0.000 C 
BRANCH  15  16
ATOM     16  C   UNL     1     -23.574  59.943  28.180  1.00  0.00    -0.000 C 
BRANCH  16  17
ATOM     17  C   UNL     1     -22.302  59.360  28.829  1.00  0.00    -0.000 C 
BRANCH  17  18
ATOM     18  C   UNL     1     -22.540  58.519  30.098  1.00  0.00    -0.000 C 
BRANCH  18  19
ATOM     19  C   UNL     1     -24.017  58.368  30.506  1.00  0.00    -0.003 C 
ATOM     20  C   UNL     1     -24.200  58.123  32.003  1.00  0.00     0.004 C 
ENDBRANCH  18  19
ENDBRANCH  17  18
ENDBRANCH  16  17
ENDBRANCH  15  16
ENDBRANCH  14  15
ENDBRANCH  13  14
ENDBRANCH  12  13
ENDBRANCH   1  12
TORSDOF 16
ENDMDL
MODEL 3
REMARK VINA RESULT:    -4.720      2.930      4.553
REMARK INTER + INTRA:         -11.782
REMARK INTER:                  -9.029
REMARK INTRA:                  -2.753
REMARK UNBOUND:                -2.648
REMARK SMILES CCCCCCCCCCCCCCCCCC(=O)[O-]
REMARK SMILES IDX 10 1 11 2 12 3 13 4 14 5 15 6 16 7 17 8 18 9 19 10 20 11
REMARK SMILES IDX 9 12 8 13 7 14 6 15 5 16 4 17 3 18 2 19 1 20
REMARK H PARENT
REMARK Flexibility Score: inf
ROOT
ATOM      1  C   UNL     1     -24.395  58.617  30.608  1.00  0.00     0.000 C 
ENDROOT
BRANCH   1   2
ATOM      2  C   UNL     1     -25.843  59.096  30.763  1.00  0.00     0.000 C 
BRANCH   2   3
ATOM      3  C   UNL     1     -26.025  59.887  32.065  1.00  0.00     0.000 C 
BRANCH   3   4
ATOM      4  C   UNL     1     -25.025  59.428  33.133  1.00  0.00     0.000 C 
BRANCH   4   5
ATOM      5  C   UNL     1     -24.505  60.620  33.948  1.00  0.00     0.000 C 
BRANCH   5   6
ATOM      6  C   UNL     1     -23.048  60.441  34.406  1.00  0.00     0.000 C 
BRANCH   6   7
ATOM      7  C   UNL     1     -22.536  61.587  35.304  1.00  0.00     0.006 C 
BRANCH   7   8
ATOM      8  C   UNL     1     -21.357  62.337  34.669  1.00  0.00     0.053 C 
BRANCH   8   9
ATOM      9  C   UNL     1     -20.090  61.559  34.837  1.00  0.00     0.041 C 
ATOM     10  O   UNL     1     -19.188  61.621  33.960  1.00  0.00    -0.550 OA
ATOM     11  O   UNL     1     -19.885  60.806  35.985  1.00  0.00    -0.550 OA
ENDBRANCH   8   9
ENDBRANCH   7   8
ENDBRANCH   6   7
ENDBRANCH   5   6
ENDBRANCH   4   5
ENDBRANCH   3   4
ENDBRANCH   2   3
ENDBRANCH   1   2
BRANCH   1  12
ATOM     12  C   UNL     1     -23.871  58.899  29.195  1.00  0.00     0.000 C 
BRANCH  12  13
ATOM     13  C   UNL     1     -24.647  60.046  28.539  1.00  0.00    -0.000 C 
BRANCH  13  14
ATOM     14  C   UNL     1     -23.859  61.358  28.612  1.00  0.00    -0.000 C 
BRANCH  14  15
ATOM     15  C   UNL     1     -24.511  62.338  29.599  1.00  0.00    -0.000 C 
BRANCH  15  16
ATOM     16  C   UNL     1     -23.582  62.718  30.766  1.00  0.00    -0.000 C 
BRANCH  16  17
ATOM     17  C   UNL     1     -22.422  61.734  31.022  1.00  0.00    -0.000 C 
BRANCH  17  18
ATOM     18  C   UNL     1     -21.012  62.356  30.979  1.00  0.00    -0.000 C 
BRANCH  18  19
ATOM     19  C   UNL     1     -20.009  61.622  30.072  1.00  0.00    -0.003 C 
ATOM     20  C   UNL     1     -20.376  61.701  28.591  1.00  0.00     0.004 C 
ENDBRANCH  18  19
ENDBRANCH  17  18
ENDBRANCH  16  17
ENDBRANCH  15  16
ENDBRANCH  14  15
ENDBRANCH  13  14
ENDBRANCH  12  13
ENDBRANCH   1  12
TORSDOF 16
ENDMDL
MODEL 4
REMARK VINA RESULT:    -4.643      2.467      4.829
REMARK INTER + INTRA:         -11.634
REMARK INTER:                  -8.765
REMARK INTRA:                  -2.868
REMARK UNBOUND:                -2.648
REMARK SMILES CCCCCCCCCCCCCCCCCC(=O)[O-]
REMARK SMILES IDX 10 1 11 2 12 3 13 4 14 5 15 6 16 7 17 8 18 9 19 10 20 11
REMARK SMILES IDX 9 12 8 13 7 14 6 15 5 16 4 17 3 18 2 19 1 20
REMARK H PARENT
REMARK Flexibility Score: inf
ROOT
ATOM      1  C   UNL     1     -22.403  58.505  29.538  1.00  0.00     0.000 C 
ENDROOT
BRANCH   1   2
ATOM      2  C   UNL     1     -22.365  59.201  28.173  1.00  0.00     0.000 C 
BRANCH   2   3
ATOM      3  C   UNL     1     -23.527  60.191  28.026  1.00  0.00     0.000 C 
BRANCH   3   4
ATOM      4  C   UNL     1     -23.098  61.607  28.428  1.00  0.00     0.000 C 
BRANCH   4   5
ATOM      5  C   UNL     1     -24.241  62.350  29.132  1.00  0.00     0.000 C 
BRANCH   5   6
ATOM      6  C   UNL     1     -23.920  62.689  30.598  1.00  0.00     0.000 C 
BRANCH   6   7
ATOM      7  C   UNL     1     -22.609  62.054  31.108  1.00  0.00     0.006 C 
BRANCH   7   8
ATOM      8  C   UNL     1     -22.797  61.338  32.452  1.00  0.00     0.053 C 
BRANCH   8   9
ATOM      9  C   UNL     1     -21.608  61.559  33.334  1.00  0.00     0.041 C 
ATOM     10  O   UNL     1     -20.794  62.485  33.079  1.00  0.00    -0.550 OA
ATOM     11  O   UNL     1     -21.427  60.773  34.465  1.00  0.00    -0.550 OA
ENDBRANCH   8   9
ENDBRANCH   7   8
ENDBRANCH   6   7
ENDBRANCH   5   6
ENDBRANCH   4   5
ENDBRANCH   3   4
ENDBRANCH   2   3
ENDBRANCH   1   2
BRANCH   1  12
ATOM     12  C   UNL     1     -23.846  58.218  29.969  1.00  0.00     0.000 C 
BRANCH  12  13
ATOM     13  C   UNL     1     -23.933  57.989  31.482  1.00  0.00    -0.000 C 
BRANCH  13  14
ATOM     14  C   UNL     1     -25.173  58.671  32.072  1.00  0.00    -0.000 C 
BRANCH  14  15
ATOM     15  C   UNL     1     -25.871  59.548  31.022  1.00  0.00    -0.000 C 
BRANCH  15  16
ATOM     16  C   UNL     1     -26.722  60.667  31.648  1.00  0.00    -0.000 C 
BRANCH  16  17
ATOM     17  C   UNL     1     -27.167  60.410  33.102  1.00  0.00    -0.000 C 
BRANCH  17  18
ATOM     18  C   UNL     1     -27.272  61.668  33.987  1.00  0.00    -0.000 C 
BRANCH  18  19
ATOM     19  C   UNL     1     -26.479  61.599  35.305  1.00  0.00    -0.003 C 
ATOM     20  C   UNL     1     -25.130  60.900  35.152  1.00  0.00     0.004 C 
ENDBRANCH  18  19
ENDBRANCH  17  18
ENDBRANCH  16  17
ENDBRANCH  15  16
ENDBRANCH  14  15
ENDBRANCH  13  14
ENDBRANCH  12  13
ENDBRANCH   1  12
TORSDOF 16
ENDMDL
MODEL 5
REMARK VINA RESULT:    -4.641      3.536      5.397
REMARK INTER + INTRA:         -11.630
REMARK INTER:                  -8.456
REMARK INTRA:                  -3.174
REMARK UNBOUND:                -2.648
REMARK SMILES CCCCCCCCCCCCCCCCCC(=O)[O-]
REMARK SMILES IDX 10 1 11 2 12 3 13 4 14 5 15 6 16 7 17 8 18 9 19 10 20 11
REMARK SMILES IDX 9 12 8 13 7 14 6 15 5 16 4 17 3 18 2 19 1 20
REMARK H PARENT
REMARK Flexibility Score: inf
ROOT
ATOM      1  C   UNL     1     -25.171  59.418  29.295  1.00  0.00     0.000 C 
ENDROOT
BRANCH   1   2
ATOM      2  C   UNL     1     -25.161  60.922  28.997  1.00  0.00     0.000 C 
BRANCH   2   3
ATOM      3  C   UNL     1     -25.343  61.739  30.282  1.00  0.00     0.000 C 
BRANCH   3   4
ATOM      4  C   UNL     1     -24.136  62.651  30.531  1.00  0.00     0.000 C 
BRANCH   4   5
ATOM      5  C   UNL     1     -23.132  61.986  31.483  1.00  0.00     0.000 C 
BRANCH   5   6
ATOM      6  C   UNL     1     -21.729  61.845  30.869  1.00  0.00     0.000 C 
BRANCH   6   7
ATOM      7  C   UNL     1     -21.514  60.516  30.114  1.00  0.00     0.006 C 
BRANCH   7   8
ATOM      8  C   UNL     1     -20.818  60.723  28.763  1.00  0.00     0.053 C 
BRANCH   8   9
ATOM      9  C   UNL     1     -21.829  60.873  27.670  1.00  0.00     0.041 C 
ATOM     10  O   UNL     1     -22.153  62.018  27.260  1.00  0.00    -0.550 OA
ATOM     11  O   UNL     1     -22.377  59.746  27.072  1.00  0.00    -0.550 OA
ENDBRANCH   8   9
ENDBRANCH   7   8
ENDBRANCH   6   7
ENDBRANCH   5   6
ENDBRANCH   4   5
ENDBRANCH   3   4
ENDBRANCH   2   3
ENDBRANCH   1   2
BRANCH   1  12
ATOM     12  C   UNL     1     -25.494  59.151  30.770  1.00  0.00     0.000 C 
BRANCH  12  13
ATOM     13  C   UNL     1     -24.373  58.351  31.443  1.00  0.00    -0.000 C 
BRANCH  13  14
ATOM     14  C   UNL     1     -24.249  58.716  32.926  1.00  0.00    -0.000 C 
BRANCH  14  15
ATOM     15  C   UNL     1     -25.358  59.690  33.349  1.00  0.00    -0.000 C 
BRANCH  15  16
ATOM     16  C   UNL     1     -24.927  60.632  34.486  1.00  0.00    -0.000 C 
BRANCH  16  17
ATOM     17  C   UNL     1     -23.453  60.493  34.922  1.00  0.00    -0.000 C 
BRANCH  17  18
ATOM     18  C   UNL     1     -22.792  61.794  35.420  1.00  0.00    -0.000 C 
BRANCH  18  19
ATOM     19  C   UNL     1     -21.359  62.027  34.909  1.00  0.00    -0.003 C 
ATOM     20  C   UNL     1     -20.744  60.782  34.272  1.00  0.00     0.004 C 
ENDBRANCH  18  19
ENDBRANCH  17  18
ENDBRANCH  16  17
ENDBRANCH  15  16
ENDBRANCH  14  15
ENDBRANCH  13  14
ENDBRANCH  12  13
ENDBRANCH   1  12
TORSDOF 16
ENDMDL
MODEL 6
REMARK VINA RESULT:    -4.621      1.701      3.316
REMARK INTER + INTRA:         -11.592
REMARK INTER:                  -9.435
REMARK INTRA:                  -2.156
REMARK UNBOUND:                -2.648
REMARK SMILES CCCCCCCCCCCCCCCCCC(=O)[O-]
REMARK SMILES IDX 10 1 11 2 12 3 13 4 14 5 15 6 16 7 17 8 18 9 19 10 20 11
REMARK SMILES IDX 9 12 8 13 7 14 6 15 5 16 4 17 3 18 2 19 1 20
REMARK H PARENT
REMARK Flexibility Score: inf
ROOT
ATOM      1  C   UNL     1     -21.019  60.882  29.022  1.00  0.00     0.000 C 
ENDROOT
BRANCH   1   2
ATOM      2  C   UNL     1     -21.485  61.628  27.766  1.00  0.00     0.000 C 
BRANCH   2   3
ATOM      3  C   UNL     1     -23.003  61.850  27.788  1.00  0.00     0.000 C 
BRANCH   3   4
ATOM      4  C   UNL     1     -23.728  60.634  28.378  1.00  0.00     0.000 C 
BRANCH   4   5
ATOM      5  C   UNL     1     -24.940  61.068  29.213  1.00  0.00     0.000 C 
BRANCH   5   6
ATOM      6  C   UNL     1     -24.826  62.514  29.725  1.00  0.00     0.000 C 
BRANCH   6   7
ATOM      7  C   UNL     1     -25.491  62.739  31.099  1.00  0.00     0.006 C 
BRANCH   7   8
ATOM      8  C   UNL     1     -25.699  61.425  31.864  1.00  0.00     0.053 C 
BRANCH   8   9
ATOM      9  C   UNL     1     -26.762  61.587  32.905  1.00  0.00     0.041 C 
ATOM     10  O   UNL     1     -26.502  61.368  34.117  1.00  0.00    -0.550 OA
ATOM     11  O   UNL     1     -28.028  62.029  32.540  1.00  0.00    -0.550 OA
ENDBRANCH   8   9
ENDBRANCH   7   8
ENDBRANCH   6   7
ENDBRANCH   5   6
ENDBRANCH   4   5
ENDBRANCH   3   4
ENDBRANCH   2   3
ENDBRANCH   1   2
BRANCH   1  12
ATOM     12  C   UNL     1     -20.238  61.813  29.957  1.00  0.00     0.000 C 
BRANCH  12  13
ATOM     13  C   UNL     1     -21.144  62.376  31.057  1.00  0.00    -0.000 C 
BRANCH  13  14
ATOM     14  C   UNL     1     -22.017  61.275  31.669  1.00  0.00    -0.000 C 
BRANCH  14  15
ATOM     15  C   UNL     1     -22.017  61.360  33.202  1.00  0.00    -0.000 C 
BRANCH  15  16
ATOM     16  C   UNL     1     -20.771  62.071  33.761  1.00  0.00    -0.000 C 
BRANCH  16  17
ATOM     17  C   UNL     1     -20.734  62.206  35.298  1.00  0.00    -0.000 C 
BRANCH  17  18
ATOM     18  C   UNL     1     -22.005  61.726  36.028  1.00  0.00    -0.000 C 
BRANCH  18  19
ATOM     19  C   UNL     1     -21.796  60.521  36.962  1.00  0.00    -0.003 C 
ATOM     20  C   UNL     1     -20.527  59.732  36.643  1.00  0.00     0.004 C 
ENDBRANCH  18  19
ENDBRANCH  17  18
ENDBRANCH  16  17
ENDBRANCH  15  16
ENDBRANCH  14  15
ENDBRANCH  13  14
ENDBRANCH  12  13
ENDBRANCH   1  12
TORSDOF 16
ENDMDL
MODEL 7
REMARK VINA RESULT:    -4.590      2.977      5.351
REMARK INTER + INTRA:         -11.532
REMARK INTER:                  -9.057
REMARK INTRA:                  -2.475
REMARK UNBOUND:                -2.648
REMARK SMILES CCCCCCCCCCCCCCCCCC(=O)[O-]
REMARK SMILES IDX 10 1 11 2 12 3 13 4 14 5 15 6 16 7 17 8 18 9 19 10 20 11
REMARK SMILES IDX 9 12 8 13 7 14 6 15 5 16 4 17 3 18 2 19 1 20
REMARK H PARENT
REMARK Flexibility Score: inf
ROOT
ATOM      1  C   UNL     1     -25.574  61.438  31.710  1.00  0.00     0.000 C 
ENDROOT
BRANCH   1   2
ATOM      2  C   UNL     1     -26.761  61.977  32.515  1.00  0.00     0.000 C 
BRANCH   2   3
ATOM      3  C   UNL     1     -26.836  61.316  33.897  1.00  0.00     0.000 C 
BRANCH   3   4
ATOM      4  C   UNL     1     -25.647  60.373  34.121  1.00  0.00     0.000 C 
BRANCH   4   5
ATOM      5  C   UNL     1     -24.717  60.913  35.216  1.00  0.00     0.000 C 
BRANCH   5   6
ATOM      6  C   UNL     1     -23.231  60.847  34.823  1.00  0.00     0.000 C 
BRANCH   6   7
ATOM      7  C   UNL     1     -22.348  61.871  35.567  1.00  0.00     0.006 C 
BRANCH   7   8
ATOM      8  C   UNL     1     -21.219  62.414  34.682  1.00  0.00     0.053 C 
BRANCH   8   9
ATOM      9  C   UNL     1     -19.997  61.559  34.807  1.00  0.00     0.041 C 
ATOM     10  O   UNL     1     -19.096  61.608  33.930  1.00  0.00    -0.550 OA
ATOM     11  O   UNL     1     -19.833  60.743  35.920  1.00  0.00    -0.550 OA
ENDBRANCH   8   9
ENDBRANCH   7   8
ENDBRANCH   6   7
ENDBRANCH   5   6
ENDBRANCH   4   5
ENDBRANCH   3   4
ENDBRANCH   2   3
ENDBRANCH   1   2
BRANCH   1  12
ATOM     12  C   UNL     1     -25.327  62.287  30.457  1.00  0.00     0.000 C 
BRANCH  12  13
ATOM     13  C   UNL     1     -23.863  62.731  30.373  1.00  0.00    -0.000 C 
BRANCH  13  14
ATOM     14  C   UNL     1     -23.000  61.985  31.398  1.00  0.00    -0.000 C 
BRANCH  14  15
ATOM     15  C   UNL     1     -21.638  61.606  30.799  1.00  0.00    -0.000 C 
BRANCH  15  16
ATOM     16  C   UNL     1     -21.667  61.504  29.263  1.00  0.00    -0.000 C 
BRANCH  16  17
ATOM     17  C   UNL     1     -21.827  60.073  28.710  1.00  0.00    -0.000 C 
BRANCH  17  18
ATOM     18  C   UNL     1     -23.052  59.857  27.799  1.00  0.00    -0.000 C 
BRANCH  18  19
ATOM     19  C   UNL     1     -24.309  59.338  28.519  1.00  0.00    -0.003 C 
ATOM     20  C   UNL     1     -23.989  58.586  29.810  1.00  0.00     0.004 C 
ENDBRANCH  18  19
ENDBRANCH  17  18
ENDBRANCH  16  17
ENDBRANCH  15  16
ENDBRANCH  14  15
ENDBRANCH  13  14
ENDBRANCH  12  13
ENDBRANCH   1  12
TORSDOF 16
ENDMDL
MODEL 8
REMARK VINA RESULT:    -4.584      2.740      4.607
REMARK INTER + INTRA:         -11.521
REMARK INTER:                  -8.740
REMARK INTRA:                  -2.780
REMARK UNBOUND:                -2.648
REMARK SMILES CCCCCCCCCCCCCCCCCC(=O)[O-]
REMARK SMILES IDX 10 1 11 2 12 3 13 4 14 5 15 6 16 7 17 8 18 9 19 10 20 11
REMARK SMILES IDX 9 12 8 13 7 14 6 15 5 16 4 17 3 18 2 19 1 20
REMARK H PARENT
REMARK Flexibility Score: inf
ROOT
ATOM      1  C   UNL     1     -22.907  60.220  27.846  1.00  0.00     0.000 C 
ENDROOT
BRANCH   1   2
ATOM      2  C   UNL     1     -23.819  59.189  28.522  1.00  0.00     0.000 C 
BRANCH   2   3
ATOM      3  C   UNL     1     -23.058  58.401  29.596  1.00  0.00     0.000 C 
BRANCH   3   4
ATOM      4  C   UNL     1     -23.981  58.033  30.765  1.00  0.00     0.000 C 
BRANCH   4   5
ATOM      5  C   UNL     1     -23.711  58.927  31.982  1.00  0.00     0.000 C 
BRANCH   5   6
ATOM      6  C   UNL     1     -22.460  59.807  31.812  1.00  0.00     0.000 C 
BRANCH   6   7
ATOM      7  C   UNL     1     -22.579  61.190  32.485  1.00  0.00     0.006 C 
BRANCH   7   8
ATOM      8  C   UNL     1     -21.322  62.045  32.279  1.00  0.00     0.053 C 
BRANCH   8   9
ATOM      9  C   UNL     1     -20.490  62.062  33.523  1.00  0.00     0.041 C 
ATOM     10  O   UNL     1     -20.910  62.642  34.558  1.00  0.00    -0.550 OA
ATOM     11  O   UNL     1     -19.272  61.395  33.552  1.00  0.00    -0.550 OA
ENDBRANCH   8   9
ENDBRANCH   7   8
ENDBRANCH   6   7
ENDBRANCH   5   6
ENDBRANCH   4   5
ENDBRANCH   3   4
ENDBRANCH   2   3
ENDBRANCH   1   2
BRANCH   1  12
ATOM     12  C   UNL     1     -23.232  61.640  28.326  1.00  0.00     0.000 C 
BRANCH  12  13
ATOM     13  C   UNL     1     -24.586  61.683  29.042  1.00  0.00    -0.000 C 
BRANCH  13  14
ATOM     14  C   UNL     1     -24.638  62.833  30.054  1.00  0.00    -0.000 C 
BRANCH  14  15
ATOM     15  C   UNL     1     -25.677  62.555  31.151  1.00  0.00    -0.000 C 
BRANCH  15  16
ATOM     16  C   UNL     1     -26.222  61.116  31.107  1.00  0.00    -0.000 C 
BRANCH  16  17
ATOM     17  C   UNL     1     -27.176  60.747  32.263  1.00  0.00    -0.000 C 
BRANCH  17  18
ATOM     18  C   UNL     1     -27.505  61.898  33.233  1.00  0.00    -0.000 C 
BRANCH  18  19
ATOM     19  C   UNL     1     -26.949  61.723  34.657  1.00  0.00    -0.003 C 
ATOM     20  C   UNL     1     -25.695  60.852  34.704  1.00  0.00     0.004 C 
ENDBRANCH  18  19
ENDBRANCH  17  18
ENDBRANCH  16  17
ENDBRANCH  15  16
ENDBRANCH  14  15
ENDBRANCH  13  14
ENDBRANCH  12  13
ENDBRANCH   1  12
TORSDOF 16
ENDMDL
MODEL 9
REMARK VINA RESULT:    -4.567      1.584      3.787
REMARK INTER + INTRA:         -11.486
REMARK INTER:                  -8.466
REMARK INTRA:                  -3.020
REMARK UNBOUND:                -2.648
REMARK SMILES CCCCCCCCCCCCCCCCCC(=O)[O-]
REMARK SMILES IDX 10 1 11 2 12 3 13 4 14 5 15 6 16 7 17 8 18 9 19 10 20 11
REMARK SMILES IDX 9 12 8 13 7 14 6 15 5 16 4 17 3 18 2 19 1 20
REMARK H PARENT
REMARK Flexibility Score: inf
ROOT
ATOM      1  C   UNL     1     -20.438  60.678  29.666  1.00  0.00     0.000 C 
ENDROOT
BRANCH   1   2
ATOM      2  C   UNL     1     -20.683  61.994  30.413  1.00  0.00     0.000 C 
BRANCH   2   3
ATOM      3  C   UNL     1     -21.281  61.736  31.803  1.00  0.00     0.000 C 
BRANCH   3   4
ATOM      4  C   UNL     1     -20.858  60.363  32.337  1.00  0.00     0.000 C 
BRANCH   4   5
ATOM      5  C   UNL     1     -21.699  59.965  33.558  1.00  0.00     0.000 C 
BRANCH   5   6
ATOM      6  C   UNL     1     -22.853  60.945  33.834  1.00  0.00     0.000 C 
BRANCH   6   7
ATOM      7  C   UNL     1     -24.168  60.252  34.247  1.00  0.00     0.006 C 
BRANCH   7   8
ATOM      8  C   UNL     1     -25.041  61.148  35.136  1.00  0.00     0.053 C 
BRANCH   8   9
ATOM      9  C   UNL     1     -26.483  61.014  34.759  1.00  0.00     0.041 C 
ATOM     10  O   UNL     1     -27.359  61.696  35.353  1.00  0.00    -0.550 OA
ATOM     11  O   UNL     1     -26.853  60.171  33.719  1.00  0.00    -0.550 OA
ENDBRANCH   8   9
ENDBRANCH   7   8
ENDBRANCH   6   7
ENDBRANCH   5   6
ENDBRANCH   4   5
ENDBRANCH   3   4
ENDBRANCH   2   3
ENDBRANCH   1   2
BRANCH   1  12
ATOM     12  C   UNL     1     -21.583  60.378  28.691  1.00  0.00     0.000 C 
BRANCH  12  13
ATOM     13  C   UNL     1     -22.242  61.672  28.201  1.00  0.00    -0.000 C 
BRANCH  13  14
ATOM     14  C   UNL     1     -23.767  61.601  28.339  1.00  0.00    -0.000 C 
BRANCH  14  15
ATOM     15  C   UNL     1     -24.252  62.446  29.525  1.00  0.00    -0.000 C 
BRANCH  15  16
ATOM     16  C   UNL     1     -24.790  61.592  30.688  1.00  0.00    -0.000 C 
BRANCH  16  17
ATOM     17  C   UNL     1     -25.900  60.593  30.302  1.00  0.00    -0.000 C 
BRANCH  17  18
ATOM     18  C   UNL     1     -25.524  59.106  30.451  1.00  0.00    -0.000 C 
BRANCH  18  19
ATOM     19  C   UNL     1     -24.080  58.848  30.919  1.00  0.00    -0.003 C 
ATOM     20  C   UNL     1     -23.439  57.642  30.235  1.00  0.00     0.004 C 
ENDBRANCH  18  19
ENDBRANCH  17  18
ENDBRANCH  16  17
ENDBRANCH  15  16
ENDBRANCH  14  15
ENDBRANCH  13  14
ENDBRANCH  12  13
ENDBRANCH   1  12
TORSDOF 16
ENDMDL
