MODEL 1
REMARK VINA RESULT:    -4.858      0.000      0.000
REMARK INTER + INTRA:          -9.003
REMARK INTER:                  -8.266
REMARK INTRA:                  -0.737
REMARK UNBOUND:                -0.737
REMARK SMILES CCCCCCCCCCCCCC(=O)[O-]
REMARK SMILES IDX 8 1 9 2 10 3 11 4 12 5 13 6 14 7 15 8 16 9 7 10 6 11 5 12
REMARK SMILES IDX 4 13 3 14 2 15 1 16
REMARK H PARENT
REMARK Flexibility Score: inf
ROOT
ATOM      1  C   UNL     1      36.189  58.218  15.952  1.00  0.00     0.000 C 
ENDROOT
BRANCH   1   2
ATOM      2  C   UNL     1      36.183  57.644  14.518  1.00  0.00     0.000 C 
BRANCH   2   3
ATOM      3  C   UNL     1      34.771  57.449  13.933  1.00  0.00     0.000 C 
BRANCH   3   4
ATOM      4  C   UNL     1      34.184  56.035  14.104  1.00  0.00     0.000 C 
BRANCH   4   5
ATOM      5  C   UNL     1      32.823  55.980  14.825  1.00  0.00     0.006 C 
BRANCH   5   6
ATOM      6  C   UNL     1      32.913  56.388  16.300  1.00  0.00     0.053 C 
BRANCH   6   7
ATOM      7  C   UNL     1      31.555  56.387  16.926  1.00  0.00     0.041 C 
ATOM      8  O   UNL     1      31.137  55.365  17.533  1.00  0.00    -0.550 OA
ATOM      9  O   UNL     1      30.768  57.532  16.883  1.00  0.00    -0.550 OA
ENDBRANCH   6   7
ENDBRANCH   5   6
ENDBRANCH   4   5
ENDBRANCH   3   4
ENDBRANCH   2   3
ENDBRANCH   1   2
BRANCH   1  10
ATOM     10  C   UNL     1      36.525  57.156  17.009  1.00  0.00     0.000 C 
BRANCH  10  11
ATOM     11  C   UNL     1      37.969  56.664  16.856  1.00  0.00    -0.000 C 
BRANCH  11  12
ATOM     12  C   UNL     1      38.838  57.139  18.029  1.00  0.00    -0.000 C 
BRANCH  12  13
ATOM     13  C   UNL     1      39.967  56.152  18.366  1.00  0.00    -0.000 C 
BRANCH  13  14
ATOM     14  C   UNL     1      40.917  55.912  17.179  1.00  0.00    -0.000 C 
BRANCH  14  15
ATOM     15  C   UNL     1      42.311  55.447  17.626  1.00  0.00    -0.003 C 
ATOM     16  C   UNL     1      42.877  54.340  16.737  1.00  0.00     0.004 C 
ENDBRANCH  14  15
ENDBRANCH  13  14
ENDBRANCH  12  13
ENDBRANCH  11  12
ENDBRANCH  10  11
ENDBRANCH   1  10
TORSDOF 12
ENDMDL
MODEL 2
REMARK VINA RESULT:    -4.849      5.663      9.697
REMARK INTER + INTRA:          -8.987
REMARK INTER:                  -8.282
REMARK INTRA:                  -0.705
REMARK UNBOUND:                -0.737
REMARK SMILES CCCCCCCCCCCCCC(=O)[O-]
REMARK SMILES IDX 8 1 9 2 10 3 11 4 12 5 13 6 14 7 15 8 16 9 7 10 6 11 5 12
REMARK SMILES IDX 4 13 3 14 2 15 1 16
REMARK H PARENT
REMARK Flexibility Score: inf
ROOT
ATOM      1  C   UNL     1      42.527  55.569  17.593  1.00  0.00     0.000 C 
ENDROOT
BRANCH   1   2
ATOM      2  C   UNL     1      42.923  54.113  17.261  1.00  0.00     0.000 C 
BRANCH   2   3
ATOM      3  C   UNL     1      42.732  53.740  15.779  1.00  0.00     0.000 C 
BRANCH   3   4
ATOM      4  C   UNL     1      44.034  53.490  14.995  1.00  0.00     0.000 C 
BRANCH   4   5
ATOM      5  C   UNL     1      44.872  54.751  14.710  1.00  0.00     0.006 C 
BRANCH   5   6
ATOM      6  C   UNL     1      46.201  54.769  15.475  1.00  0.00     0.053 C 
BRANCH   6   7
ATOM      7  C   UNL     1      46.263  55.954  16.386  1.00  0.00     0.041 C 
ATOM      8  O   UNL     1      45.411  56.877  16.285  1.00  0.00    -0.550 OA
ATOM      9  O   UNL     1      47.231  56.017  17.381  1.00  0.00    -0.550 OA
ENDBRANCH   6   7
ENDBRANCH   5   6
ENDBRANCH   4   5
ENDBRANCH   3   4
ENDBRANCH   2   3
ENDBRANCH   1   2
BRANCH   1  10
ATOM     10  C   UNL     1      41.102  55.910  17.132  1.00  0.00     0.000 C 
BRANCH  10  11
ATOM     11  C   UNL     1      40.147  56.016  18.327  1.00  0.00    -0.000 C 
BRANCH  11  12
ATOM     12  C   UNL     1      39.071  57.082  18.077  1.00  0.00    -0.000 C 
BRANCH  12  13
ATOM     13  C   UNL     1      38.026  56.635  17.042  1.00  0.00    -0.000 C 
BRANCH  13  14
ATOM     14  C   UNL     1      36.730  57.464  17.115  1.00  0.00    -0.000 C 
BRANCH  14  15
ATOM     15  C   UNL     1      35.833  57.261  15.884  1.00  0.00    -0.003 C 
ATOM     16  C   UNL     1      34.479  56.646  16.237  1.00  0.00     0.004 C 
ENDBRANCH  14  15
ENDBRANCH  13  14
ENDBRANCH  12  13
ENDBRANCH  11  12
ENDBRANCH  10  11
ENDBRANCH   1  10
TORSDOF 12
ENDMDL
MODEL 3
REMARK VINA RESULT:    -4.819      4.920      8.727
REMARK INTER + INTRA:          -8.936
REMARK INTER:                  -8.155
REMARK INTRA:                  -0.780
REMARK UNBOUND:                -0.737
REMARK SMILES CCCCCCCCCCCCCC(=O)[O-]
REMARK SMILES IDX 8 1 9 2 10 3 11 4 12 5 13 6 14 7 15 8 16 9 7 10 6 11 5 12
REMARK SMILES IDX 4 13 3 14 2 15 1 16
REMARK H PARENT
REMARK Flexibility Score: inf
ROOT
ATOM      1  C   UNL     1      37.877  56.733  16.808  1.00  0.00     0.000 C 
ENDROOT
BRANCH   1   2
ATOM      2  C   UNL     1      38.749  57.139  18.016  1.00  0.00     0.000 C 
BRANCH   2   3
ATOM      3  C   UNL     1      39.887  56.146  18.323  1.00  0.00     0.000 C 
BRANCH   3   4
ATOM      4  C   UNL     1      40.975  56.045  17.238  1.00  0.00     0.000 C 
BRANCH   4   5
ATOM      5  C   UNL     1      42.281  55.364  17.689  1.00  0.00     0.006 C 
BRANCH   5   6
ATOM      6  C   UNL     1      42.891  54.467  16.605  1.00  0.00     0.053 C 
BRANCH   6   7
ATOM      7  C   UNL     1      44.214  55.007  16.164  1.00  0.00     0.041 C 
ATOM      8  O   UNL     1      44.604  56.135  16.564  1.00  0.00    -0.550 OA
ATOM      9  O   UNL     1      45.041  54.242  15.350  1.00  0.00    -0.550 OA
ENDBRANCH   6   7
ENDBRANCH   5   6
ENDBRANCH   4   5
ENDBRANCH   3   4
ENDBRANCH   2   3
ENDBRANCH   1   2
BRANCH   1  10
ATOM     10  C   UNL     1      36.417  57.187  16.958  1.00  0.00     0.000 C 
BRANCH  10  11
ATOM     11  C   UNL     1      36.010  58.120  15.812  1.00  0.00    -0.000 C 
BRANCH  11  12
ATOM     12  C   UNL     1      36.377  57.511  14.451  1.00  0.00    -0.000 C 
BRANCH  12  13
ATOM     13  C   UNL     1      35.370  56.444  13.990  1.00  0.00    -0.000 C 
BRANCH  13  14
ATOM     14  C   UNL     1      33.909  56.906  14.140  1.00  0.00    -0.000 C 
BRANCH  14  15
ATOM     15  C   UNL     1      33.055  55.905  14.932  1.00  0.00    -0.003 C 
ATOM     16  C   UNL     1      32.711  56.403  16.335  1.00  0.00     0.004 C 
ENDBRANCH  14  15
ENDBRANCH  13  14
ENDBRANCH  12  13
ENDBRANCH  11  12
ENDBRANCH  10  11
ENDBRANCH   1  10
TORSDOF 12
ENDMDL
MODEL 4
REMARK VINA RESULT:    -4.804      2.288      5.025
REMARK INTER + INTRA:          -8.911
REMARK INTER:                  -8.357
REMARK INTRA:                  -0.553
REMARK UNBOUND:                -0.737
REMARK SMILES CCCCCCCCCCCCCC(=O)[O-]
REMARK SMILES IDX 8 1 9 2 10 3 11 4 12 5 13 6 14 7 15 8 16 9 7 10 6 11 5 12
REMARK SMILES IDX 4 13 3 14 2 15 1 16
REMARK H PARENT
REMARK Flexibility Score: inf
ROOT
ATOM      1  C   UNL     1      41.079  55.944  17.171  1.00  0.00     0.000 C 
ENDROOT
BRANCH   1   2
ATOM      2  C   UNL     1      40.035  56.084  18.301  1.00  0.00     0.000 C 
BRANCH   2   3
ATOM      3  C   UNL     1      38.928  57.111  18.000  1.00  0.00     0.000 C 
BRANCH   3   4
ATOM      4  C   UNL     1      37.894  56.667  16.948  1.00  0.00     0.000 C 
BRANCH   4   5
ATOM      5  C   UNL     1      36.565  57.446  16.974  1.00  0.00     0.006 C 
BRANCH   5   6
ATOM      6  C   UNL     1      36.002  57.710  15.572  1.00  0.00     0.053 C 
BRANCH   6   7
ATOM      7  C   UNL     1      34.720  56.966  15.376  1.00  0.00     0.041 C 
ATOM      8  O   UNL     1      34.086  57.069  14.292  1.00  0.00    -0.550 OA
ATOM      9  O   UNL     1      34.249  56.117  16.370  1.00  0.00    -0.550 OA
ENDBRANCH   6   7
ENDBRANCH   5   6
ENDBRANCH   4   5
ENDBRANCH   3   4
ENDBRANCH   2   3
ENDBRANCH   1   2
BRANCH   1  10
ATOM     10  C   UNL     1      42.490  55.659  17.707  1.00  0.00     0.000 C 
BRANCH  10  11
ATOM     11  C   UNL     1      42.982  54.279  17.256  1.00  0.00    -0.000 C 
BRANCH  11  12
ATOM     12  C   UNL     1      42.589  54.005  15.797  1.00  0.00    -0.000 C 
BRANCH  12  13
ATOM     13  C   UNL     1      43.731  53.371  14.987  1.00  0.00    -0.000 C 
BRANCH  13  14
ATOM     14  C   UNL     1      44.864  54.368  14.682  1.00  0.00    -0.000 C 
BRANCH  14  15
ATOM     15  C   UNL     1      46.251  53.708  14.710  1.00  0.00    -0.003 C 
ATOM     16  C   UNL     1      46.201  52.216  14.383  1.00  0.00     0.004 C 
ENDBRANCH  14  15
ENDBRANCH  13  14
ENDBRANCH  12  13
ENDBRANCH  11  12
ENDBRANCH  10  11
ENDBRANCH   1  10
TORSDOF 12
ENDMDL
MODEL 5
REMARK VINA RESULT:    -4.788      1.245      3.027
REMARK INTER + INTRA:          -8.883
REMARK INTER:                  -8.330
REMARK INTRA:                  -0.553
REMARK UNBOUND:                -0.737
REMARK SMILES CCCCCCCCCCCCCC(=O)[O-]
REMARK SMILES IDX 8 1 9 2 10 3 11 4 12 5 13 6 14 7 15 8 16 9 7 10 6 11 5 12
REMARK SMILES IDX 4 13 3 14 2 15 1 16
REMARK H PARENT
REMARK Flexibility Score: inf
ROOT
ATOM      1  C   UNL     1      38.871  57.177  18.012  1.00  0.00     0.000 C 
ENDROOT
BRANCH   1   2
ATOM      2  C   UNL     1      37.931  56.639  16.912  1.00  0.00     0.000 C 
BRANCH   2   3
ATOM      3  C   UNL     1      36.492  57.181  17.004  1.00  0.00     0.000 C 
BRANCH   3   4
ATOM      4  C   UNL     1      35.918  57.736  15.687  1.00  0.00     0.000 C 
BRANCH   4   5
ATOM      5  C   UNL     1      34.721  56.950  15.118  1.00  0.00     0.006 C 
BRANCH   5   6
ATOM      6  C   UNL     1      33.992  56.121  16.182  1.00  0.00     0.053 C 
BRANCH   6   7
ATOM      7  C   UNL     1      32.512  56.304  16.063  1.00  0.00     0.041 C 
ATOM      8  O   UNL     1      31.990  56.538  14.942  1.00  0.00    -0.550 OA
ATOM      9  O   UNL     1      31.702  56.167  17.184  1.00  0.00    -0.550 OA
ENDBRANCH   6   7
ENDBRANCH   5   6
ENDBRANCH   4   5
ENDBRANCH   3   4
ENDBRANCH   2   3
ENDBRANCH   1   2
BRANCH   1  10
ATOM     10  C   UNL     1      39.988  56.184  18.369  1.00  0.00     0.000 C 
BRANCH  10  11
ATOM     11  C   UNL     1      40.884  55.905  17.157  1.00  0.00    -0.000 C 
BRANCH  11  12
ATOM     12  C   UNL     1      42.336  55.659  17.593  1.00  0.00    -0.000 C 
BRANCH  12  13
ATOM     13  C   UNL     1      42.835  54.254  17.222  1.00  0.00    -0.000 C 
BRANCH  13  14
ATOM     14  C   UNL     1      43.660  54.243  15.922  1.00  0.00    -0.000 C 
BRANCH  14  15
ATOM     15  C   UNL     1      43.114  53.247  14.888  1.00  0.00    -0.003 C 
ATOM     16  C   UNL     1      41.802  53.711  14.257  1.00  0.00     0.004 C 
ENDBRANCH  14  15
ENDBRANCH  13  14
ENDBRANCH  12  13
ENDBRANCH  11  12
ENDBRANCH  10  11
ENDBRANCH   1  10
TORSDOF 12
ENDMDL
MODEL 6
REMARK VINA RESULT:    -4.781      2.747      5.227
REMARK INTER + INTRA:          -8.872
REMARK INTER:                  -8.427
REMARK INTRA:                  -0.445
REMARK UNBOUND:                -0.737
REMARK SMILES CCCCCCCCCCCCCC(=O)[O-]
REMARK SMILES IDX 8 1 9 2 10 3 11 4 12 5 13 6 14 7 15 8 16 9 7 10 6 11 5 12
REMARK SMILES IDX 4 13 3 14 2 15 1 16
REMARK H PARENT
REMARK Flexibility Score: inf
ROOT
ATOM      1  C   UNL     1      41.198  55.984  17.254  1.00  0.00     0.000 C 
ENDROOT
BRANCH   1   2
ATOM      2  C   UNL     1      40.082  55.998  18.321  1.00  0.00     0.000 C 
BRANCH   2   3
ATOM      3  C   UNL     1      38.977  57.038  18.051  1.00  0.00     0.000 C 
BRANCH   3   4
ATOM      4  C   UNL     1      38.025  56.691  16.891  1.00  0.00     0.000 C 
BRANCH   4   5
ATOM      5  C   UNL     1      36.565  57.138  17.094  1.00  0.00     0.006 C 
BRANCH   5   6
ATOM      6  C   UNL     1      35.978  57.836  15.861  1.00  0.00     0.053 C 
BRANCH   6   7
ATOM      7  C   UNL     1      35.162  56.875  15.057  1.00  0.00     0.041 C 
ATOM      8  O   UNL     1      35.701  56.188  14.149  1.00  0.00    -0.550 OA
ATOM      9  O   UNL     1      33.813  56.700  15.342  1.00  0.00    -0.550 OA
ENDBRANCH   6   7
ENDBRANCH   5   6
ENDBRANCH   4   5
ENDBRANCH   3   4
ENDBRANCH   2   3
ENDBRANCH   1   2
BRANCH   1  10
ATOM     10  C   UNL     1      42.485  55.314  17.758  1.00  0.00     0.000 C 
BRANCH  10  11
ATOM     11  C   UNL     1      42.849  54.101  16.894  1.00  0.00    -0.000 C 
BRANCH  11  12
ATOM     12  C   UNL     1      43.947  54.458  15.881  1.00  0.00    -0.000 C 
BRANCH  12  13
ATOM     13  C   UNL     1      44.814  55.641  16.341  1.00  0.00    -0.000 C 
BRANCH  13  14
ATOM     14  C   UNL     1      46.285  55.498  15.913  1.00  0.00    -0.000 C 
BRANCH  14  15
ATOM     15  C   UNL     1      47.234  56.340  16.779  1.00  0.00    -0.003 C 
ATOM     16  C   UNL     1      48.037  55.495  17.767  1.00  0.00     0.004 C 
ENDBRANCH  14  15
ENDBRANCH  13  14
ENDBRANCH  12  13
ENDBRANCH  11  12
ENDBRANCH  10  11
ENDBRANCH   1  10
TORSDOF 12
ENDMDL
MODEL 7
REMARK VINA RESULT:    -4.707      5.438      9.050
REMARK INTER + INTRA:          -8.746
REMARK INTER:                  -8.076
REMARK INTRA:                  -0.670
REMARK UNBOUND:                -0.737
REMARK SMILES CCCCCCCCCCCCCC(=O)[O-]
REMARK SMILES IDX 8 1 9 2 10 3 11 4 12 5 13 6 14 7 15 8 16 9 7 10 6 11 5 12
REMARK SMILES IDX 4 13 3 14 2 15 1 16
REMARK H PARENT
REMARK Flexibility Score: inf
ROOT
ATOM      1  C   UNL     1      40.076  56.045  18.314  1.00  0.00     0.000 C 
ENDROOT
BRANCH   1   2
ATOM      2  C   UNL     1      41.055  55.924  17.126  1.00  0.00     0.000 C 
BRANCH   2   3
ATOM      3  C   UNL     1      42.493  55.559  17.540  1.00  0.00     0.000 C 
BRANCH   3   4
ATOM      4  C   UNL     1      42.923  54.119  17.203  1.00  0.00     0.000 C 
BRANCH   4   5
ATOM      5  C   UNL     1      42.624  53.673  15.759  1.00  0.00     0.006 C 
BRANCH   5   6
ATOM      6  C   UNL     1      43.546  54.336  14.728  1.00  0.00     0.053 C 
BRANCH   6   7
ATOM      7  C   UNL     1      44.959  53.889  14.927  1.00  0.00     0.041 C 
ATOM      8  O   UNL     1      45.293  52.703  14.668  1.00  0.00    -0.550 OA
ATOM      9  O   UNL     1      45.922  54.797  15.352  1.00  0.00    -0.550 OA
ENDBRANCH   6   7
ENDBRANCH   5   6
ENDBRANCH   4   5
ENDBRANCH   3   4
ENDBRANCH   2   3
ENDBRANCH   1   2
BRANCH   1  10
ATOM     10  C   UNL     1      38.959  57.067  18.054  1.00  0.00     0.000 C 
BRANCH  10  11
ATOM     11  C   UNL     1      38.065  56.621  16.890  1.00  0.00    -0.000 C 
BRANCH  11  12
ATOM     12  C   UNL     1      36.596  56.977  17.158  1.00  0.00    -0.000 C 
BRANCH  12  13
ATOM     13  C   UNL     1      36.004  57.896  16.078  1.00  0.00    -0.000 C 
BRANCH  13  14
ATOM     14  C   UNL     1      36.291  57.393  14.652  1.00  0.00    -0.000 C 
BRANCH  14  15
ATOM     15  C   UNL     1      35.286  56.327  14.191  1.00  0.00    -0.003 C 
ATOM     16  C   UNL     1      33.876  56.574  14.727  1.00  0.00     0.004 C 
ENDBRANCH  14  15
ENDBRANCH  13  14
ENDBRANCH  12  13
ENDBRANCH  11  12
ENDBRANCH  10  11
ENDBRANCH   1  10
TORSDOF 12
ENDMDL
MODEL 8
REMARK VINA RESULT:    -4.667      1.092      1.833
REMARK INTER + INTRA:          -8.678
REMARK INTER:                  -7.918
REMARK INTRA:                  -0.760
REMARK UNBOUND:                -0.737
REMARK SMILES CCCCCCCCCCCCCC(=O)[O-]
REMARK SMILES IDX 8 1 9 2 10 3 11 4 12 5 13 6 14 7 15 8 16 9 7 10 6 11 5 12
REMARK SMILES IDX 4 13 3 14 2 15 1 16
REMARK H PARENT
REMARK Flexibility Score: inf
ROOT
ATOM      1  C   UNL     1      36.347  57.103  16.864  1.00  0.00     0.000 C 
ENDROOT
BRANCH   1   2
ATOM      2  C   UNL     1      35.993  58.217  15.855  1.00  0.00     0.000 C 
BRANCH   2   3
ATOM      3  C   UNL     1      36.167  57.799  14.383  1.00  0.00     0.000 C 
BRANCH   3   4
ATOM      4  C   UNL     1      35.487  56.473  13.995  1.00  0.00     0.000 C 
BRANCH   4   5
ATOM      5  C   UNL     1      33.949  56.483  14.079  1.00  0.00     0.006 C 
BRANCH   5   6
ATOM      6  C   UNL     1      33.375  55.181  14.652  1.00  0.00     0.053 C 
BRANCH   6   7
ATOM      7  C   UNL     1      33.037  55.352  16.099  1.00  0.00     0.041 C 
ATOM      8  O   UNL     1      32.894  56.504  16.585  1.00  0.00    -0.550 OA
ATOM      9  O   UNL     1      32.829  54.236  16.900  1.00  0.00    -0.550 OA
ENDBRANCH   6   7
ENDBRANCH   5   6
ENDBRANCH   4   5
ENDBRANCH   3   4
ENDBRANCH   2   3
ENDBRANCH   1   2
BRANCH   1  10
ATOM     10  C   UNL     1      37.831  56.708  16.807  1.00  0.00     0.000 C 
BRANCH  10  11
ATOM     11  C   UNL     1      38.597  57.271  18.010  1.00  0.00    -0.000 C 
BRANCH  11  12
ATOM     12  C   UNL     1      39.752  56.341  18.409  1.00  0.00    -0.000 C 
BRANCH  12  13
ATOM     13  C   UNL     1      40.682  56.014  17.230  1.00  0.00    -0.000 C 
BRANCH  13  14
ATOM     14  C   UNL     1      42.014  55.388  17.683  1.00  0.00    -0.000 C 
BRANCH  14  15
ATOM     15  C   UNL     1      42.950  55.081  16.505  1.00  0.00    -0.003 C 
ATOM     16  C   UNL     1      44.412  55.402  16.814  1.00  0.00     0.004 C 
ENDBRANCH  14  15
ENDBRANCH  13  14
ENDBRANCH  12  13
ENDBRANCH  11  12
ENDBRANCH  10  11
ENDBRANCH   1  10
TORSDOF 12
ENDMDL
MODEL 9
REMARK VINA RESULT:    -4.620      5.238      9.161
REMARK INTER + INTRA:          -8.597
REMARK INTER:                  -8.123
REMARK INTRA:                  -0.475
REMARK UNBOUND:                -0.737
REMARK SMILES CCCCCCCCCCCCCC(=O)[O-]
REMARK SMILES IDX 8 1 9 2 10 3 11 4 12 5 13 6 14 7 15 8 16 9 7 10 6 11 5 12
REMARK SMILES IDX 4 13 3 14 2 15 1 16
REMARK H PARENT
REMARK Flexibility Score: inf
ROOT
ATOM      1  C   UNL     1      38.962  57.166  17.995  1.00  0.00     0.000 C 
ENDROOT
BRANCH   1   2
ATOM      2  C   UNL     1      40.012  56.082  18.321  1.00  0.00     0.000 C 
BRANCH   2   3
ATOM      3  C   UNL     1      41.076  55.898  17.222  1.00  0.00     0.000 C 
BRANCH   3   4
ATOM      4  C   UNL     1      42.432  55.354  17.711  1.00  0.00     0.000 C 
BRANCH   4   5
ATOM      5  C   UNL     1      43.015  54.206  16.865  1.00  0.00     0.006 C 
BRANCH   5   6
ATOM      6  C   UNL     1      43.514  54.671  15.492  1.00  0.00     0.053 C 
BRANCH   6   7
ATOM      7  C   UNL     1      44.936  55.128  15.581  1.00  0.00     0.041 C 
ATOM      8  O   UNL     1      45.873  54.350  15.263  1.00  0.00    -0.550 OA
ATOM      9  O   UNL     1      45.224  56.431  15.968  1.00  0.00    -0.550 OA
ENDBRANCH   6   7
ENDBRANCH   5   6
ENDBRANCH   4   5
ENDBRANCH   3   4
ENDBRANCH   2   3
ENDBRANCH   1   2
BRANCH   1  10
ATOM     10  C   UNL     1      37.949  56.705  16.936  1.00  0.00     0.000 C 
BRANCH  10  11
ATOM     11  C   UNL     1      36.579  57.355  17.164  1.00  0.00    -0.000 C 
BRANCH  11  12
ATOM     12  C   UNL     1      35.943  57.776  15.831  1.00  0.00    -0.000 C 
BRANCH  12  13
ATOM     13  C   UNL     1      34.965  56.724  15.284  1.00  0.00    -0.000 C 
BRANCH  13  14
ATOM     14  C   UNL     1      34.126  56.064  16.394  1.00  0.00    -0.000 C 
BRANCH  14  15
ATOM     15  C   UNL     1      32.640  56.444  16.312  1.00  0.00    -0.003 C 
ATOM     16  C   UNL     1      32.122  56.495  14.875  1.00  0.00     0.004 C 
ENDBRANCH  14  15
ENDBRANCH  13  14
ENDBRANCH  12  13
ENDBRANCH  11  12
ENDBRANCH  10  11
ENDBRANCH   1  10
TORSDOF 12
ENDMDL
