MODEL 1
REMARK VINA RESULT:    -6.370      0.000      0.000
REMARK INTER + INTRA:          -7.981
REMARK INTER:                  -7.674
REMARK INTRA:                  -0.307
REMARK UNBOUND:                -0.307
REMARK SMILES O=c1c(O)c(-c2ccc(O)cc2O)oc2cc(O)cc(O)c12
REMARK SMILES IDX 5 1 3 2 2 3 1 4 22 5 20 6 19 7 17 8 16 9 15 10 14 11 6 12
REMARK SMILES IDX 8 13 7 14 9 15 11 16 12 17 10 18 13 20 4 22 21 24 18 26
REMARK H PARENT 10 19 13 21 4 23 21 25 18 27
REMARK Flexibility Score: inf
ROOT
ATOM      1  C   UNL     1     -33.419   3.012  15.889  1.00  0.00     0.184 A 
ATOM      2  C   UNL     1     -32.513   2.578  16.869  1.00  0.00     0.208 A 
ATOM      3  C   UNL     1     -32.366   3.333  18.043  1.00  0.00     0.238 A 
ATOM      4  O   UNL     1     -31.513   2.970  18.893  1.00  0.00    -0.285 OA
ATOM      5  C   UNL     1     -33.140   4.506  18.226  1.00  0.00     0.111 A 
ATOM      6  C   UNL     1     -33.102   5.327  19.393  1.00  0.00     0.134 A 
ATOM      7  C   UNL     1     -33.814   6.533  19.412  1.00  0.00     0.093 A 
ATOM      8  C   UNL     1     -34.613   6.914  18.335  1.00  0.00     0.123 A 
ATOM      9  C   UNL     1     -34.704   6.090  17.213  1.00  0.00     0.094 A 
ATOM     10  C   UNL     1     -33.977   4.899  17.150  1.00  0.00     0.146 A 
ATOM     11  O   UNL     1     -34.083   4.148  16.058  1.00  0.00    -0.451 OA
ENDROOT
BRANCH   1  12
ATOM     12  C   UNL     1     -33.635   2.252  14.640  1.00  0.00     0.063 A 
ATOM     13  C   UNL     1     -33.438   2.139  12.219  1.00  0.00     0.047 A 
ATOM     14  C   UNL     1     -33.245   2.827  13.419  1.00  0.00     0.020 A 
ATOM     15  C   UNL     1     -34.037   0.873  12.222  1.00  0.00     0.119 A 
ATOM     16  C   UNL     1     -34.451   0.305  13.430  1.00  0.00     0.093 A 
ATOM     17  C   UNL     1     -34.265   0.991  14.639  1.00  0.00     0.130 A 
BRANCH  15  18
ATOM     18  O   UNL     1     -34.232   0.177  11.032  1.00  0.00    -0.508 OA
ATOM     19  H   UNL     1     -34.025   0.597  10.133  1.00  0.00     0.293 HD
ENDBRANCH  15  18
BRANCH  17  20
ATOM     20  O   UNL     1     -34.726   0.433  15.831  1.00  0.00    -0.507 OA
ATOM     21  H   UNL     1     -34.964  -0.550  15.902  1.00  0.00     0.293 HD
ENDBRANCH  17  20
ENDBRANCH   1  12
BRANCH   2  22
ATOM     22  O   UNL     1     -31.749   1.428  16.654  1.00  0.00    -0.502 OA
ATOM     23  H   UNL     1     -30.756   1.389  16.857  1.00  0.00     0.293 HD
ENDBRANCH   2  22
BRANCH   6  24
ATOM     24  O   UNL     1     -32.408   4.994  20.560  1.00  0.00    -0.507 OA
ATOM     25  H   UNL     1     -31.466   4.633  20.585  1.00  0.00     0.293 HD
ENDBRANCH   6  24
BRANCH   8  26
ATOM     26  O   UNL     1     -35.320   8.114  18.395  1.00  0.00    -0.508 OA
ATOM     27  H   UNL     1     -35.229   8.819  17.673  1.00  0.00     0.293 HD
ENDBRANCH   8  26
TORSDOF 6
ENDMDL
MODEL 2
REMARK VINA RESULT:    -6.354      3.182      4.539
REMARK INTER + INTRA:          -7.962
REMARK INTER:                  -7.602
REMARK INTRA:                  -0.360
REMARK UNBOUND:                -0.307
REMARK SMILES O=c1c(O)c(-c2ccc(O)cc2O)oc2cc(O)cc(O)c12
REMARK SMILES IDX 5 1 3 2 2 3 1 4 22 5 20 6 19 7 17 8 16 9 15 10 14 11 6 12
REMARK SMILES IDX 8 13 7 14 9 15 11 16 12 17 10 18 13 20 4 22 21 24 18 26
REMARK H PARENT 10 19 13 21 4 23 21 25 18 27
REMARK Flexibility Score: inf
ROOT
ATOM      1  C   UNL     1     -34.304   0.782  16.115  1.00  0.00     0.184 A 
ATOM      2  C   UNL     1     -35.206   1.657  16.740  1.00  0.00     0.208 A 
ATOM      3  C   UNL     1     -35.198   1.757  18.140  1.00  0.00     0.238 A 
ATOM      4  O   UNL     1     -36.044   2.502  18.698  1.00  0.00    -0.285 OA
ATOM      5  C   UNL     1     -34.275   0.991  18.894  1.00  0.00     0.111 A 
ATOM      6  C   UNL     1     -34.151   1.043  20.315  1.00  0.00     0.134 A 
ATOM      7  C   UNL     1     -33.295   0.146  20.966  1.00  0.00     0.093 A 
ATOM      8  C   UNL     1     -32.510  -0.753  20.246  1.00  0.00     0.123 A 
ATOM      9  C   UNL     1     -32.580  -0.772  18.853  1.00  0.00     0.094 A 
ATOM     10  C   UNL     1     -33.452   0.085  18.176  1.00  0.00     0.146 A 
ATOM     11  O   UNL     1     -33.496   0.028  16.850  1.00  0.00    -0.451 OA
ENDROOT
BRANCH   1  12
ATOM     12  C   UNL     1     -34.249   0.643  14.645  1.00  0.00     0.063 A 
ATOM     13  C   UNL     1     -33.850   1.668  12.476  1.00  0.00     0.047 A 
ATOM     14  C   UNL     1     -33.907   1.762  13.868  1.00  0.00     0.020 A 
ATOM     15  C   UNL     1     -34.150   0.456  11.840  1.00  0.00     0.119 A 
ATOM     16  C   UNL     1     -34.516  -0.655  12.603  1.00  0.00     0.093 A 
ATOM     17  C   UNL     1     -34.580  -0.568  14.002  1.00  0.00     0.130 A 
BRANCH  15  18
ATOM     18  O   UNL     1     -34.094   0.350  10.453  1.00  0.00    -0.508 OA
ATOM     19  H   UNL     1     -34.054  -0.552   9.992  1.00  0.00     0.293 HD
ENDBRANCH  15  18
BRANCH  17  20
ATOM     20  O   UNL     1     -34.993  -1.671  14.748  1.00  0.00    -0.507 OA
ATOM     21  H   UNL     1     -34.424  -2.507  14.823  1.00  0.00     0.293 HD
ENDBRANCH  17  20
ENDBRANCH   1  12
BRANCH   2  22
ATOM     22  O   UNL     1     -36.117   2.387  15.972  1.00  0.00    -0.502 OA
ATOM     23  H   UNL     1     -36.603   3.200  16.333  1.00  0.00     0.293 HD
ENDBRANCH   2  22
BRANCH   6  24
ATOM     24  O   UNL     1     -34.821   1.966  21.125  1.00  0.00    -0.507 OA
ATOM     25  H   UNL     1     -34.638   2.958  21.136  1.00  0.00     0.293 HD
ENDBRANCH   6  24
BRANCH   8  26
ATOM     26  O   UNL     1     -31.658  -1.620  20.927  1.00  0.00    -0.508 OA
ATOM     27  H   UNL     1     -31.965  -2.539  21.224  1.00  0.00     0.293 HD
ENDBRANCH   8  26
TORSDOF 6
ENDMDL
MODEL 3
REMARK VINA RESULT:    -6.305      2.054      3.307
REMARK INTER + INTRA:          -7.903
REMARK INTER:                  -7.484
REMARK INTRA:                  -0.419
REMARK UNBOUND:                -0.307
REMARK SMILES O=c1c(O)c(-c2ccc(O)cc2O)oc2cc(O)cc(O)c12
REMARK SMILES IDX 5 1 3 2 2 3 1 4 22 5 20 6 19 7 17 8 16 9 15 10 14 11 6 12
REMARK SMILES IDX 8 13 7 14 9 15 11 16 12 17 10 18 13 20 4 22 21 24 18 26
REMARK H PARENT 10 19 13 21 4 23 21 25 18 27
REMARK Flexibility Score: inf
ROOT
ATOM      1  C   UNL     1     -33.555   2.503  15.510  1.00  0.00     0.184 A 
ATOM      2  C   UNL     1     -34.518   3.182  16.272  1.00  0.00     0.208 A 
ATOM      3  C   UNL     1     -34.113   4.259  17.077  1.00  0.00     0.238 A 
ATOM      4  O   UNL     1     -34.970   4.830  17.799  1.00  0.00    -0.285 OA
ATOM      5  C   UNL     1     -32.751   4.651  17.094  1.00  0.00     0.111 A 
ATOM      6  C   UNL     1     -32.236   5.752  17.841  1.00  0.00     0.134 A 
ATOM      7  C   UNL     1     -30.853   5.968  17.886  1.00  0.00     0.093 A 
ATOM      8  C   UNL     1     -29.974   5.165  17.161  1.00  0.00     0.123 A 
ATOM      9  C   UNL     1     -30.473   4.122  16.380  1.00  0.00     0.094 A 
ATOM     10  C   UNL     1     -31.844   3.859  16.343  1.00  0.00     0.146 A 
ATOM     11  O   UNL     1     -32.277   2.849  15.596  1.00  0.00    -0.451 OA
ENDROOT
BRANCH   1  12
ATOM     12  C   UNL     1     -33.918   1.374  14.629  1.00  0.00     0.063 A 
ATOM     13  C   UNL     1     -34.531  -0.969  14.401  1.00  0.00     0.047 A 
ATOM     14  C   UNL     1     -34.190   0.122  15.205  1.00  0.00     0.020 A 
ATOM     15  C   UNL     1     -34.591  -0.826  13.009  1.00  0.00     0.119 A 
ATOM     16  C   UNL     1     -34.299   0.410  12.426  1.00  0.00     0.093 A 
ATOM     17  C   UNL     1     -33.951   1.509  13.226  1.00  0.00     0.130 A 
BRANCH  15  18
ATOM     18  O   UNL     1     -34.934  -1.905  12.199  1.00  0.00    -0.508 OA
ATOM     19  H   UNL     1     -35.747  -2.478  12.396  1.00  0.00     0.293 HD
ENDBRANCH  15  18
BRANCH  17  20
ATOM     20  O   UNL     1     -33.614   2.723  12.627  1.00  0.00    -0.507 OA
ATOM     21  H   UNL     1     -33.208   2.765  11.699  1.00  0.00     0.293 HD
ENDBRANCH  17  20
ENDBRANCH   1  12
BRANCH   2  22
ATOM     22  O   UNL     1     -35.850   2.763  16.249  1.00  0.00    -0.502 OA
ATOM     23  H   UNL     1     -36.624   3.415  16.187  1.00  0.00     0.293 HD
ENDBRANCH   2  22
BRANCH   6  24
ATOM     24  O   UNL     1     -33.033   6.671  18.530  1.00  0.00    -0.507 OA
ATOM     25  H   UNL     1     -33.768   6.424  19.174  1.00  0.00     0.293 HD
ENDBRANCH   6  24
BRANCH   8  26
ATOM     26  O   UNL     1     -28.605   5.419  17.217  1.00  0.00    -0.508 OA
ATOM     27  H   UNL     1     -28.242   6.285  17.599  1.00  0.00     0.293 HD
ENDBRANCH   8  26
TORSDOF 6
ENDMDL
MODEL 4
REMARK VINA RESULT:    -6.162      3.365      5.393
REMARK INTER + INTRA:          -7.730
REMARK INTER:                  -7.324
REMARK INTRA:                  -0.405
REMARK UNBOUND:                -0.307
REMARK SMILES O=c1c(O)c(-c2ccc(O)cc2O)oc2cc(O)cc(O)c12
REMARK SMILES IDX 5 1 3 2 2 3 1 4 22 5 20 6 19 7 17 8 16 9 15 10 14 11 6 12
REMARK SMILES IDX 8 13 7 14 9 15 11 16 12 17 10 18 13 20 4 22 21 24 18 26
REMARK H PARENT 10 19 13 21 4 23 21 25 18 27
REMARK Flexibility Score: inf
ROOT
ATOM      1  C   UNL     1     -32.316   0.358  17.216  1.00  0.00     0.184 A 
ATOM      2  C   UNL     1     -33.362   0.108  16.315  1.00  0.00     0.208 A 
ATOM      3  C   UNL     1     -34.032   1.195  15.732  1.00  0.00     0.238 A 
ATOM      4  O   UNL     1     -35.004   0.966  14.967  1.00  0.00    -0.285 OA
ATOM      5  C   UNL     1     -33.633   2.518  16.047  1.00  0.00     0.111 A 
ATOM      6  C   UNL     1     -34.214   3.694  15.484  1.00  0.00     0.134 A 
ATOM      7  C   UNL     1     -33.830   4.952  15.965  1.00  0.00     0.093 A 
ATOM      8  C   UNL     1     -32.840   5.079  16.939  1.00  0.00     0.123 A 
ATOM      9  C   UNL     1     -32.224   3.938  17.453  1.00  0.00     0.094 A 
ATOM     10  C   UNL     1     -32.611   2.667  17.020  1.00  0.00     0.146 A 
ATOM     11  O   UNL     1     -32.007   1.606  17.543  1.00  0.00    -0.451 OA
ENDROOT
BRANCH   1  12
ATOM     12  C   UNL     1     -31.559  -0.741  17.851  1.00  0.00     0.063 A 
ATOM     13  C   UNL     1     -29.994  -2.588  17.621  1.00  0.00     0.047 A 
ATOM     14  C   UNL     1     -30.720  -1.538  17.055  1.00  0.00     0.020 A 
ATOM     15  C   UNL     1     -30.109  -2.866  18.989  1.00  0.00     0.119 A 
ATOM     16  C   UNL     1     -30.961  -2.094  19.784  1.00  0.00     0.093 A 
ATOM     17  C   UNL     1     -31.697  -1.040  19.222  1.00  0.00     0.130 A 
BRANCH  15  18
ATOM     18  O   UNL     1     -29.387  -3.909  19.565  1.00  0.00    -0.508 OA
ATOM     19  H   UNL     1     -28.581  -3.733  20.153  1.00  0.00     0.293 HD
ENDBRANCH  15  18
BRANCH  17  20
ATOM     20  O   UNL     1     -32.579  -0.309  20.017  1.00  0.00    -0.507 OA
ATOM     21  H   UNL     1     -33.401   0.139  19.628  1.00  0.00     0.293 HD
ENDBRANCH  17  20
ENDBRANCH   1  12
BRANCH   2  22
ATOM     22  O   UNL     1     -33.746  -1.206  16.037  1.00  0.00    -0.502 OA
ATOM     23  H   UNL     1     -33.428  -1.702  15.212  1.00  0.00     0.293 HD
ENDBRANCH   2  22
BRANCH   6  24
ATOM     24  O   UNL     1     -35.146   3.683  14.441  1.00  0.00    -0.507 OA
ATOM     25  H   UNL     1     -35.160   3.009  13.691  1.00  0.00     0.293 HD
ENDBRANCH   6  24
BRANCH   8  26
ATOM     26  O   UNL     1     -32.472   6.347  17.383  1.00  0.00    -0.508 OA
ATOM     27  H   UNL     1     -33.161   7.014  17.711  1.00  0.00     0.293 HD
ENDBRANCH   8  26
TORSDOF 6
ENDMDL
MODEL 5
REMARK VINA RESULT:    -6.099     13.532     15.603
REMARK INTER + INTRA:          -7.654
REMARK INTER:                  -7.310
REMARK INTRA:                  -0.344
REMARK UNBOUND:                -0.307
REMARK SMILES O=c1c(O)c(-c2ccc(O)cc2O)oc2cc(O)cc(O)c12
REMARK SMILES IDX 5 1 3 2 2 3 1 4 22 5 20 6 19 7 17 8 16 9 15 10 14 11 6 12
REMARK SMILES IDX 8 13 7 14 9 15 11 16 12 17 10 18 13 20 4 22 21 24 18 26
REMARK H PARENT 10 19 13 21 4 23 21 25 18 27
REMARK Flexibility Score: inf
ROOT
ATOM      1  C   UNL     1     -26.617   3.136   3.068  1.00  0.00     0.184 A 
ATOM      2  C   UNL     1     -27.513   4.115   2.609  1.00  0.00     0.208 A 
ATOM      3  C   UNL     1     -27.058   5.434   2.454  1.00  0.00     0.238 A 
ATOM      4  O   UNL     1     -27.878   6.318   2.095  1.00  0.00    -0.285 OA
ATOM      5  C   UNL     1     -25.708   5.751   2.746  1.00  0.00     0.111 A 
ATOM      6  C   UNL     1     -25.129   7.046   2.587  1.00  0.00     0.134 A 
ATOM      7  C   UNL     1     -23.820   7.275   3.029  1.00  0.00     0.093 A 
ATOM      8  C   UNL     1     -23.048   6.243   3.562  1.00  0.00     0.123 A 
ATOM      9  C   UNL     1     -23.585   4.960   3.667  1.00  0.00     0.094 A 
ATOM     10  C   UNL     1     -24.900   4.708   3.268  1.00  0.00     0.146 A 
ATOM     11  O   UNL     1     -25.377   3.475   3.396  1.00  0.00    -0.451 OA
ENDROOT
BRANCH   1  12
ATOM     12  C   UNL     1     -27.027   1.726   3.235  1.00  0.00     0.063 A 
ATOM     13  C   UNL     1     -26.972  -0.564   2.419  1.00  0.00     0.047 A 
ATOM     14  C   UNL     1     -26.598   0.776   2.294  1.00  0.00     0.020 A 
ATOM     15  C   UNL     1     -27.792  -0.970   3.479  1.00  0.00     0.119 A 
ATOM     16  C   UNL     1     -28.244  -0.027   4.407  1.00  0.00     0.093 A 
ATOM     17  C   UNL     1     -27.877   1.322   4.286  1.00  0.00     0.130 A 
BRANCH  15  18
ATOM     18  O   UNL     1     -28.167  -2.304   3.615  1.00  0.00    -0.508 OA
ATOM     19  H   UNL     1     -28.416  -2.869   2.812  1.00  0.00     0.293 HD
ENDBRANCH  15  18
BRANCH  17  20
ATOM     20  O   UNL     1     -28.374   2.259   5.190  1.00  0.00    -0.507 OA
ATOM     21  H   UNL     1     -28.048   3.219   5.196  1.00  0.00     0.293 HD
ENDBRANCH  17  20
ENDBRANCH   1  12
BRANCH   2  22
ATOM     22  O   UNL     1     -28.843   3.777   2.347  1.00  0.00    -0.502 OA
ATOM     23  H   UNL     1     -29.619   4.358   2.643  1.00  0.00     0.293 HD
ENDBRANCH   2  22
BRANCH   6  24
ATOM     24  O   UNL     1     -25.781   8.125   1.982  1.00  0.00    -0.507 OA
ATOM     25  H   UNL     1     -25.463   9.081   2.020  1.00  0.00     0.293 HD
ENDBRANCH   6  24
BRANCH   8  26
ATOM     26  O   UNL     1     -21.744   6.504   3.977  1.00  0.00    -0.508 OA
ATOM     27  H   UNL     1     -21.449   7.437   4.242  1.00  0.00     0.293 HD
ENDBRANCH   8  26
TORSDOF 6
ENDMDL
MODEL 6
REMARK VINA RESULT:    -6.058      2.023      7.172
REMARK INTER + INTRA:          -7.605
REMARK INTER:                  -7.186
REMARK INTRA:                  -0.419
REMARK UNBOUND:                -0.307
REMARK SMILES O=c1c(O)c(-c2ccc(O)cc2O)oc2cc(O)cc(O)c12
REMARK SMILES IDX 5 1 3 2 2 3 1 4 22 5 20 6 19 7 17 8 16 9 15 10 14 11 6 12
REMARK SMILES IDX 8 13 7 14 9 15 11 16 12 17 10 18 13 20 4 22 21 24 18 26
REMARK H PARENT 10 19 13 21 4 23 21 25 18 27
REMARK Flexibility Score: inf
ROOT
ATOM      1  C   UNL     1     -33.870   2.032  15.962  1.00  0.00     0.184 A 
ATOM      2  C   UNL     1     -33.598   2.749  14.786  1.00  0.00     0.208 A 
ATOM      3  C   UNL     1     -33.708   2.095  13.549  1.00  0.00     0.238 A 
ATOM      4  O   UNL     1     -33.411   2.726  12.502  1.00  0.00    -0.285 OA
ATOM      5  C   UNL     1     -34.104   0.735  13.506  1.00  0.00     0.111 A 
ATOM      6  C   UNL     1     -34.287  -0.017  12.307  1.00  0.00     0.134 A 
ATOM      7  C   UNL     1     -34.554  -1.389  12.386  1.00  0.00     0.093 A 
ATOM      8  C   UNL     1     -34.710  -2.022  13.619  1.00  0.00     0.123 A 
ATOM      9  C   UNL     1     -34.593  -1.284  14.796  1.00  0.00     0.094 A 
ATOM     10  C   UNL     1     -34.290   0.079  14.750  1.00  0.00     0.146 A 
ATOM     11  O   UNL     1     -34.175   0.742  15.895  1.00  0.00    -0.451 OA
ENDROOT
BRANCH   1  12
ATOM     12  C   UNL     1     -33.790   2.667  17.294  1.00  0.00     0.063 A 
ATOM     13  C   UNL     1     -32.482   3.165  19.282  1.00  0.00     0.047 A 
ATOM     14  C   UNL     1     -32.590   2.580  18.018  1.00  0.00     0.020 A 
ATOM     15  C   UNL     1     -33.577   3.831  19.845  1.00  0.00     0.119 A 
ATOM     16  C   UNL     1     -34.783   3.901  19.143  1.00  0.00     0.093 A 
ATOM     17  C   UNL     1     -34.902   3.313  17.874  1.00  0.00     0.130 A 
BRANCH  15  18
ATOM     18  O   UNL     1     -33.479   4.420  21.104  1.00  0.00    -0.508 OA
ATOM     19  H   UNL     1     -33.976   5.274  21.329  1.00  0.00     0.293 HD
ENDBRANCH  15  18
BRANCH  17  20
ATOM     20  O   UNL     1     -36.125   3.348  17.205  1.00  0.00    -0.507 OA
ATOM     21  H   UNL     1     -36.731   4.159  17.247  1.00  0.00     0.293 HD
ENDBRANCH  17  20
ENDBRANCH   1  12
BRANCH   2  22
ATOM     22  O   UNL     1     -33.191   4.084  14.860  1.00  0.00    -0.502 OA
ATOM     23  H   UNL     1     -33.427   4.681  15.645  1.00  0.00     0.293 HD
ENDBRANCH   2  22
BRANCH   6  24
ATOM     24  O   UNL     1     -34.243   0.537  11.023  1.00  0.00    -0.507 OA
ATOM     25  H   UNL     1     -34.839   0.259  10.258  1.00  0.00     0.293 HD
ENDBRANCH   6  24
BRANCH   8  26
ATOM     26  O   UNL     1     -34.991  -3.387  13.659  1.00  0.00    -0.508 OA
ATOM     27  H   UNL     1     -34.795  -3.943  14.483  1.00  0.00     0.293 HD
ENDBRANCH   8  26
TORSDOF 6
ENDMDL
MODEL 7
REMARK VINA RESULT:    -6.056      1.847      6.762
REMARK INTER + INTRA:          -7.602
REMARK INTER:                  -7.426
REMARK INTRA:                  -0.176
REMARK UNBOUND:                -0.307
REMARK SMILES O=c1c(O)c(-c2ccc(O)cc2O)oc2cc(O)cc(O)c12
REMARK SMILES IDX 5 1 3 2 2 3 1 4 22 5 20 6 19 7 17 8 16 9 15 10 14 11 6 12
REMARK SMILES IDX 8 13 7 14 9 15 11 16 12 17 10 18 13 20 4 22 21 24 18 26
REMARK H PARENT 10 19 13 21 4 23 21 25 18 27
REMARK Flexibility Score: inf
ROOT
ATOM      1  C   UNL     1     -34.300   2.960  15.994  1.00  0.00     0.184 A 
ATOM      2  C   UNL     1     -35.101   1.853  15.672  1.00  0.00     0.208 A 
ATOM      3  C   UNL     1     -34.952   1.249  14.413  1.00  0.00     0.238 A 
ATOM      4  O   UNL     1     -35.709   0.292  14.108  1.00  0.00    -0.285 OA
ATOM      5  C   UNL     1     -33.992   1.752  13.501  1.00  0.00     0.111 A 
ATOM      6  C   UNL     1     -33.727   1.194  12.215  1.00  0.00     0.134 A 
ATOM      7  C   UNL     1     -32.848   1.852  11.345  1.00  0.00     0.093 A 
ATOM      8  C   UNL     1     -32.175   3.008  11.738  1.00  0.00     0.123 A 
ATOM      9  C   UNL     1     -32.381   3.528  13.015  1.00  0.00     0.094 A 
ATOM     10  C   UNL     1     -33.280   2.916  13.893  1.00  0.00     0.146 A 
ATOM     11  O   UNL     1     -33.456   3.451  15.096  1.00  0.00    -0.451 OA
ENDROOT
BRANCH   1  12
ATOM     12  C   UNL     1     -34.395   3.630  17.308  1.00  0.00     0.063 A 
ATOM     13  C   UNL     1     -34.479   3.446  19.732  1.00  0.00     0.047 A 
ATOM     14  C   UNL     1     -34.386   2.846  18.474  1.00  0.00     0.020 A 
ATOM     15  C   UNL     1     -34.598   4.837  19.840  1.00  0.00     0.119 A 
ATOM     16  C   UNL     1     -34.633   5.623  18.685  1.00  0.00     0.093 A 
ATOM     17  C   UNL     1     -34.545   5.028  17.418  1.00  0.00     0.130 A 
BRANCH  15  18
ATOM     18  O   UNL     1     -34.688   5.446  21.090  1.00  0.00    -0.508 OA
ATOM     19  H   UNL     1     -35.412   6.124  21.298  1.00  0.00     0.293 HD
ENDBRANCH  15  18
BRANCH  17  20
ATOM     20  O   UNL     1     -34.630   5.819  16.272  1.00  0.00    -0.507 OA
ATOM     21  H   UNL     1     -34.080   5.619  15.445  1.00  0.00     0.293 HD
ENDBRANCH  17  20
ENDBRANCH   1  12
BRANCH   2  22
ATOM     22  O   UNL     1     -36.052   1.389  16.584  1.00  0.00    -0.502 OA
ATOM     23  H   UNL     1     -36.977   1.086  16.297  1.00  0.00     0.293 HD
ENDBRANCH   2  22
BRANCH   6  24
ATOM     24  O   UNL     1     -34.276  -0.007  11.756  1.00  0.00    -0.507 OA
ATOM     25  H   UNL     1     -33.879  -0.577  11.025  1.00  0.00     0.293 HD
ENDBRANCH   6  24
BRANCH   8  26
ATOM     26  O   UNL     1     -31.296   3.626  10.851  1.00  0.00    -0.508 OA
ATOM     27  H   UNL     1     -31.632   4.151  10.053  1.00  0.00     0.293 HD
ENDBRANCH   8  26
TORSDOF 6
ENDMDL
MODEL 8
REMARK VINA RESULT:    -6.013      3.155      4.195
REMARK INTER + INTRA:          -7.550
REMARK INTER:                  -7.130
REMARK INTRA:                  -0.421
REMARK UNBOUND:                -0.307
REMARK SMILES O=c1c(O)c(-c2ccc(O)cc2O)oc2cc(O)cc(O)c12
REMARK SMILES IDX 5 1 3 2 2 3 1 4 22 5 20 6 19 7 17 8 16 9 15 10 14 11 6 12
REMARK SMILES IDX 8 13 7 14 9 15 11 16 12 17 10 18 13 20 4 22 21 24 18 26
REMARK H PARENT 10 19 13 21 4 23 21 25 18 27
REMARK Flexibility Score: inf
ROOT
ATOM      1  C   UNL     1     -32.164   3.887  16.516  1.00  0.00     0.184 A 
ATOM      2  C   UNL     1     -32.461   4.623  17.674  1.00  0.00     0.208 A 
ATOM      3  C   UNL     1     -31.519   5.545  18.155  1.00  0.00     0.238 A 
ATOM      4  O   UNL     1     -31.767   6.163  19.222  1.00  0.00    -0.285 OA
ATOM      5  C   UNL     1     -30.298   5.729  17.460  1.00  0.00     0.111 A 
ATOM      6  C   UNL     1     -29.287   6.665  17.834  1.00  0.00     0.134 A 
ATOM      7  C   UNL     1     -28.065   6.671  17.150  1.00  0.00     0.093 A 
ATOM      8  C   UNL     1     -27.841   5.823  16.067  1.00  0.00     0.123 A 
ATOM      9  C   UNL     1     -28.844   4.945  15.656  1.00  0.00     0.094 A 
ATOM     10  C   UNL     1     -30.061   4.890  16.341  1.00  0.00     0.146 A 
ATOM     11  O   UNL     1     -30.985   4.032  15.924  1.00  0.00    -0.451 OA
ENDROOT
BRANCH   1  12
ATOM     12  C   UNL     1     -33.120   2.913  15.949  1.00  0.00     0.063 A 
ATOM     13  C   UNL     1     -35.168   2.497  14.705  1.00  0.00     0.047 A 
ATOM     14  C   UNL     1     -34.242   3.389  15.251  1.00  0.00     0.020 A 
ATOM     15  C   UNL     1     -34.993   1.117  14.864  1.00  0.00     0.119 A 
ATOM     16  C   UNL     1     -33.892   0.635  15.578  1.00  0.00     0.093 A 
ATOM     17  C   UNL     1     -32.960   1.524  16.132  1.00  0.00     0.130 A 
BRANCH  15  18
ATOM     18  O   UNL     1     -35.908   0.218  14.321  1.00  0.00    -0.508 OA
ATOM     19  H   UNL     1     -36.576  -0.273  14.903  1.00  0.00     0.293 HD
ENDBRANCH  15  18
BRANCH  17  20
ATOM     20  O   UNL     1     -31.893   1.031  16.884  1.00  0.00    -0.507 OA
ATOM     21  H   UNL     1     -31.706   0.038  16.954  1.00  0.00     0.293 HD
ENDBRANCH  17  20
ENDBRANCH   1  12
BRANCH   2  22
ATOM     22  O   UNL     1     -33.665   4.407  18.349  1.00  0.00    -0.502 OA
ATOM     23  H   UNL     1     -34.353   5.140  18.480  1.00  0.00     0.293 HD
ENDBRANCH   2  22
BRANCH   6  24
ATOM     24  O   UNL     1     -29.442   7.621  18.843  1.00  0.00    -0.507 OA
ATOM     25  H   UNL     1     -29.525   8.614  18.686  1.00  0.00     0.293 HD
ENDBRANCH   6  24
BRANCH   8  26
ATOM     26  O   UNL     1     -26.618   5.867  15.401  1.00  0.00    -0.508 OA
ATOM     27  H   UNL     1     -26.490   5.426  14.498  1.00  0.00     0.293 HD
ENDBRANCH   8  26
TORSDOF 6
ENDMDL
MODEL 9
REMARK VINA RESULT:    -5.991     14.864     16.175
REMARK INTER + INTRA:          -7.524
REMARK INTER:                  -7.102
REMARK INTRA:                  -0.422
REMARK UNBOUND:                -0.307
REMARK SMILES O=c1c(O)c(-c2ccc(O)cc2O)oc2cc(O)cc(O)c12
REMARK SMILES IDX 5 1 3 2 2 3 1 4 22 5 20 6 19 7 17 8 16 9 15 10 14 11 6 12
REMARK SMILES IDX 8 13 7 14 9 15 11 16 12 17 10 18 13 20 4 22 21 24 18 26
REMARK H PARENT 10 19 13 21 4 23 21 25 18 27
REMARK Flexibility Score: inf
ROOT
ATOM      1  C   UNL     1     -26.927   1.121   2.146  1.00  0.00     0.184 A 
ATOM      2  C   UNL     1     -27.894   1.909   1.502  1.00  0.00     0.208 A 
ATOM      3  C   UNL     1     -27.689   3.294   1.406  1.00  0.00     0.238 A 
ATOM      4  O   UNL     1     -28.584   4.002   0.875  1.00  0.00    -0.285 OA
ATOM      5  C   UNL     1     -26.511   3.870   1.943  1.00  0.00     0.111 A 
ATOM      6  C   UNL     1     -26.181   5.256   1.868  1.00  0.00     0.134 A 
ATOM      7  C   UNL     1     -25.054   5.735   2.547  1.00  0.00     0.093 A 
ATOM      8  C   UNL     1     -24.210   4.870   3.242  1.00  0.00     0.123 A 
ATOM      9  C   UNL     1     -24.491   3.504   3.272  1.00  0.00     0.094 A 
ATOM     10  C   UNL     1     -25.628   3.001   2.635  1.00  0.00     0.146 A 
ATOM     11  O   UNL     1     -25.865   1.696   2.698  1.00  0.00    -0.451 OA
ENDROOT
BRANCH   1  12
ATOM     12  C   UNL     1     -27.073  -0.344   2.265  1.00  0.00     0.063 A 
ATOM     13  C   UNL     1     -26.923  -2.537   1.225  1.00  0.00     0.047 A 
ATOM     14  C   UNL     1     -26.790  -1.149   1.149  1.00  0.00     0.020 A 
ATOM     15  C   UNL     1     -27.354  -3.139   2.414  1.00  0.00     0.119 A 
ATOM     16  C   UNL     1     -27.661  -2.345   3.522  1.00  0.00     0.093 A 
ATOM     17  C   UNL     1     -27.535  -0.949   3.452  1.00  0.00     0.130 A 
BRANCH  15  18
ATOM     18  O   UNL     1     -27.486  -4.523   2.502  1.00  0.00    -0.508 OA
ATOM     19  H   UNL     1     -28.338  -4.993   2.218  1.00  0.00     0.293 HD
ENDBRANCH  15  18
BRANCH  17  20
ATOM     20  O   UNL     1     -27.891  -0.165   4.550  1.00  0.00    -0.507 OA
ATOM     21  H   UNL     1     -27.347  -0.167   5.405  1.00  0.00     0.293 HD
ENDBRANCH  17  20
ENDBRANCH   1  12
BRANCH   2  22
ATOM     22  O   UNL     1     -29.054   1.316   0.997  1.00  0.00    -0.502 OA
ATOM     23  H   UNL     1     -29.140   0.314   0.868  1.00  0.00     0.293 HD
ENDBRANCH   2  22
BRANCH   6  24
ATOM     24  O   UNL     1     -26.906   6.193   1.124  1.00  0.00    -0.507 OA
ATOM     25  H   UNL     1     -26.830   6.316   0.126  1.00  0.00     0.293 HD
ENDBRANCH   6  24
BRANCH   8  26
ATOM     26  O   UNL     1     -23.089   5.380   3.893  1.00  0.00    -0.508 OA
ATOM     27  H   UNL     1     -22.844   6.362   3.836  1.00  0.00     0.293 HD
ENDBRANCH   8  26
TORSDOF 6
ENDMDL
