MODEL 1
REMARK VINA RESULT:    -8.049      0.000      0.000
REMARK INTER + INTRA:         -16.002
REMARK INTER:                 -13.225
REMARK INTRA:                  -2.777
REMARK UNBOUND:                -2.777
REMARK SMILES C[C@H]1O[C@@H](OC[C@H]2O[C@H](Oc3c(-c4ccc(O)c(O)c4)oc4cc(O)cc(O)c4c3=O)[C@@H](O)[C@@H](O)[C@H]2O)[C@H](O)[C@@H](O)[C@H]1O
REMARK SMILES IDX 7 1 36 2 34 3 32 4 9 5 8 6 6 7 5 8 4 9 1 10 2 11 42 12 3 13
REMARK SMILES IDX 40 14 38 15 43 16 41 18 39 20 37 22 35 24 10 26 11 27 12 28
REMARK SMILES IDX 30 29 21 30 29 31 31 32 22 33 27 34 23 35 26 36 24 37 13 38
REMARK SMILES IDX 20 39 14 40 18 41 15 42 16 43 19 44 17 46 28 48 25 50 33 52
REMARK H PARENT 43 17 41 19 39 21 37 23 35 25 19 45 17 47 28 49 25 51 33 53
REMARK Flexibility Score: inf
ROOT
ATOM      1  C   UNL     1      26.048 119.612 298.770  1.00  0.00     0.180 C 
ATOM      2  C   UNL     1      25.948 118.436 299.766  1.00  0.00     0.177 C 
ATOM      3  C   UNL     1      27.329 117.766 299.907  1.00  0.00     0.180 C 
ATOM      4  C   UNL     1      28.420 118.813 300.204  1.00  0.00     0.214 C 
ATOM      5  C   UNL     1      28.328 119.981 299.202  1.00  0.00     0.339 C 
ATOM      6  O   UNL     1      27.024 120.547 299.199  1.00  0.00    -0.332 OA
ENDROOT
BRANCH   1   7
ATOM      7  C   UNL     1      24.712 120.348 298.597  1.00  0.00     0.198 C 
BRANCH   7   8
ATOM      8  O   UNL     1      23.638 119.452 298.820  1.00  0.00    -0.347 OA
BRANCH   8   9
ATOM      9  C   UNL     1      23.085 119.018 297.587  1.00  0.00     0.281 C 
ATOM     10  C   UNL     1      21.088 120.927 299.066  1.00  0.00     0.041 C 
ATOM     11  C   UNL     1      20.934 120.051 297.813  1.00  0.00     0.150 C 
ATOM     12  C   UNL     1      20.248 118.682 298.062  1.00  0.00     0.174 C 
ATOM     13  O   UNL     1      22.147 119.956 297.070  1.00  0.00    -0.344 OA
ATOM     14  C   UNL     1      21.224 117.635 298.611  1.00  0.00     0.179 C 
ATOM     15  C   UNL     1      22.491 117.606 297.741  1.00  0.00     0.202 C 
BRANCH  12  16
ATOM     16  O   UNL     1      19.153 118.812 298.932  1.00  0.00    -0.388 OA
ATOM     17  H   UNL     1      18.430 118.235 298.572  1.00  0.00     0.211 HD
ENDBRANCH  12  16
BRANCH  14  18
ATOM     18  O   UNL     1      21.543 117.916 299.950  1.00  0.00    -0.387 OA
ATOM     19  H   UNL     1      20.890 117.421 300.511  1.00  0.00     0.211 HD
ENDBRANCH  14  18
BRANCH  15  20
ATOM     20  O   UNL     1      22.190 117.093 296.468  1.00  0.00    -0.385 OA
ATOM     21  H   UNL     1      22.037 117.873 295.873  1.00  0.00     0.211 HD
ENDBRANCH  15  20
ENDBRANCH   8   9
ENDBRANCH   7   8
ENDBRANCH   1   7
BRANCH   2  22
ATOM     22  O   UNL     1      25.496 118.902 301.012  1.00  0.00    -0.387 OA
ATOM     23  H   UNL     1      25.295 119.869 300.906  1.00  0.00     0.211 HD
ENDBRANCH   2  22
BRANCH   3  24
ATOM     24  O   UNL     1      27.290 116.793 300.920  1.00  0.00    -0.387 OA
ATOM     25  H   UNL     1      26.616 117.097 301.582  1.00  0.00     0.211 HD
ENDBRANCH   3  24
BRANCH   5  26
ATOM     26  O   UNL     1      28.724 119.544 297.896  1.00  0.00    -0.454 OA
BRANCH  26  27
ATOM     27  C   UNL     1      29.618 120.189 297.015  1.00  0.00     0.214 A 
ATOM     28  C   UNL     1      29.097 120.747 295.833  1.00  0.00     0.180 A 
ATOM     29  C   UNL     1      31.013 120.281 297.236  1.00  0.00     0.239 A 
ATOM     30  O   UNL     1      29.900 121.346 294.963  1.00  0.00    -0.452 OA
ATOM     31  C   UNL     1      31.824 121.005 296.331  1.00  0.00     0.111 A 
ATOM     32  O   UNL     1      31.530 119.669 298.204  1.00  0.00    -0.285 OA
ATOM     33  C   UNL     1      31.203 121.495 295.155  1.00  0.00     0.146 A 
ATOM     34  C   UNL     1      33.222 121.237 296.507  1.00  0.00     0.134 A 
ATOM     35  C   UNL     1      31.954 122.140 294.170  1.00  0.00     0.094 A 
ATOM     36  C   UNL     1      33.956 121.852 295.485  1.00  0.00     0.093 A 
ATOM     37  C   UNL     1      33.331 122.308 294.325  1.00  0.00     0.123 A 
BRANCH  28  38
ATOM     38  C   UNL     1      27.659 120.662 295.499  1.00  0.00     0.025 A 
ATOM     39  C   UNL     1      27.097 119.418 295.176  1.00  0.00     0.062 A 
ATOM     40  C   UNL     1      26.855 121.810 295.458  1.00  0.00     0.016 A 
ATOM     41  C   UNL     1      25.735 119.314 294.856  1.00  0.00     0.158 A 
ATOM     42  C   UNL     1      25.498 121.712 295.141  1.00  0.00     0.051 A 
ATOM     43  C   UNL     1      24.931 120.468 294.844  1.00  0.00     0.157 A 
BRANCH  41  44
ATOM     44  O   UNL     1      25.179 118.073 294.552  1.00  0.00    -0.504 OA
ATOM     45  H   UNL     1      24.190 117.967 294.362  1.00  0.00     0.293 HD
ENDBRANCH  41  44
BRANCH  43  46
ATOM     46  O   UNL     1      23.572 120.397 294.536  1.00  0.00    -0.504 OA
ATOM     47  H   UNL     1      22.863 120.803 295.135  1.00  0.00     0.293 HD
ENDBRANCH  43  46
ENDBRANCH  28  38
BRANCH  34  48
ATOM     48  O   UNL     1      33.923 120.915 297.673  1.00  0.00    -0.507 OA
ATOM     49  H   UNL     1      34.069 119.976 298.012  1.00  0.00     0.293 HD
ENDBRANCH  34  48
BRANCH  37  50
ATOM     50  O   UNL     1      34.087 122.936 293.337  1.00  0.00    -0.508 OA
ATOM     51  H   UNL     1      35.100 122.923 293.358  1.00  0.00     0.293 HD
ENDBRANCH  37  50
ENDBRANCH  26  27
ENDBRANCH   5  26
BRANCH   4  52
ATOM     52  O   UNL     1      28.273 119.294 301.516  1.00  0.00    -0.384 OA
ATOM     53  H   UNL     1      28.438 120.274 301.482  1.00  0.00     0.211 HD
ENDBRANCH   4  52
TORSDOF 16
ENDMDL
MODEL 2
REMARK VINA RESULT:    -7.980      2.795      8.929
REMARK INTER + INTRA:         -15.888
REMARK INTER:                 -13.027
REMARK INTRA:                  -2.861
REMARK UNBOUND:                -2.777
REMARK SMILES C[C@H]1O[C@@H](OC[C@H]2O[C@H](Oc3c(-c4ccc(O)c(O)c4)oc4cc(O)cc(O)c4c3=O)[C@@H](O)[C@@H](O)[C@H]2O)[C@H](O)[C@@H](O)[C@H]1O
REMARK SMILES IDX 7 1 36 2 34 3 32 4 9 5 8 6 6 7 5 8 4 9 1 10 2 11 42 12 3 13
REMARK SMILES IDX 40 14 38 15 43 16 41 18 39 20 37 22 35 24 10 26 11 27 12 28
REMARK SMILES IDX 30 29 21 30 29 31 31 32 22 33 27 34 23 35 26 36 24 37 13 38
REMARK SMILES IDX 20 39 14 40 18 41 15 42 16 43 19 44 17 46 28 48 25 50 33 52
REMARK H PARENT 43 17 41 19 39 21 37 23 35 25 19 45 17 47 28 49 25 51 33 53
REMARK Flexibility Score: inf
ROOT
ATOM      1  C   UNL     1      25.926 119.953 299.404  1.00  0.00     0.180 C 
ATOM      2  C   UNL     1      26.479 120.579 300.702  1.00  0.00     0.177 C 
ATOM      3  C   UNL     1      25.315 121.166 301.524  1.00  0.00     0.180 C 
ATOM      4  C   UNL     1      24.188 120.129 301.700  1.00  0.00     0.214 C 
ATOM      5  C   UNL     1      23.817 119.507 300.339  1.00  0.00     0.339 C 
ATOM      6  O   UNL     1      24.963 118.956 299.702  1.00  0.00    -0.332 OA
ENDROOT
BRANCH   1   7
ATOM      7  C   UNL     1      27.028 119.322 298.543  1.00  0.00     0.198 C 
BRANCH   7   8
ATOM      8  O   UNL     1      27.376 120.201 297.488  1.00  0.00    -0.347 OA
BRANCH   8   9
ATOM      9  C   UNL     1      26.325 120.283 296.538  1.00  0.00     0.281 C 
ATOM     10  C   UNL     1      28.796 118.803 295.303  1.00  0.00     0.041 C 
ATOM     11  C   UNL     1      27.487 119.313 294.680  1.00  0.00     0.150 C 
ATOM     12  C   UNL     1      27.602 120.688 293.971  1.00  0.00     0.174 C 
ATOM     13  O   UNL     1      26.390 119.227 295.586  1.00  0.00    -0.344 OA
ATOM     14  C   UNL     1      27.526 121.859 294.957  1.00  0.00     0.179 C 
ATOM     15  C   UNL     1      26.312 121.675 295.881  1.00  0.00     0.202 C 
BRANCH  12  16
ATOM     16  O   UNL     1      28.786 120.776 293.219  1.00  0.00    -0.388 OA
ATOM     17  H   UNL     1      29.528 120.899 293.867  1.00  0.00     0.211 HD
ENDBRANCH  12  16
BRANCH  14  18
ATOM     18  O   UNL     1      28.714 121.948 295.704  1.00  0.00    -0.387 OA
ATOM     19  H   UNL     1      29.428 121.523 295.160  1.00  0.00     0.211 HD
ENDBRANCH  14  18
BRANCH  15  20
ATOM     20  O   UNL     1      25.122 121.828 295.150  1.00  0.00    -0.385 OA
ATOM     21  H   UNL     1      24.374 121.669 295.782  1.00  0.00     0.211 HD
ENDBRANCH  15  20
ENDBRANCH   8   9
ENDBRANCH   7   8
ENDBRANCH   1   7
BRANCH   2  22
ATOM     22  O   UNL     1      27.166 119.606 301.447  1.00  0.00    -0.387 OA
ATOM     23  H   UNL     1      26.547 119.292 302.157  1.00  0.00     0.211 HD
ENDBRANCH   2  22
BRANCH   3  24
ATOM     24  O   UNL     1      25.781 121.604 302.775  1.00  0.00    -0.387 OA
ATOM     25  H   UNL     1      26.712 121.271 302.866  1.00  0.00     0.211 HD
ENDBRANCH   3  24
BRANCH   5  26
ATOM     26  O   UNL     1      23.161 120.478 299.513  1.00  0.00    -0.454 OA
BRANCH  26  27
ATOM     27  C   UNL     1      21.772 120.697 299.392  1.00  0.00     0.214 A 
ATOM     28  C   UNL     1      21.093 120.074 298.329  1.00  0.00     0.180 A 
ATOM     29  C   UNL     1      21.029 121.531 300.260  1.00  0.00     0.239 A 
ATOM     30  O   UNL     1      19.791 120.266 298.161  1.00  0.00    -0.452 OA
ATOM     31  C   UNL     1      19.626 121.640 300.104  1.00  0.00     0.111 A 
ATOM     32  O   UNL     1      21.626 122.216 301.128  1.00  0.00    -0.285 OA
ATOM     33  C   UNL     1      19.050 121.000 298.979  1.00  0.00     0.146 A 
ATOM     34  C   UNL     1      18.771 122.377 300.977  1.00  0.00     0.134 A 
ATOM     35  C   UNL     1      17.687 121.136 298.703  1.00  0.00     0.094 A 
ATOM     36  C   UNL     1      17.416 122.529 300.654  1.00  0.00     0.093 A 
ATOM     37  C   UNL     1      16.872 121.910 299.531  1.00  0.00     0.123 A 
BRANCH  28  38
ATOM     38  C   UNL     1      21.797 119.219 297.349  1.00  0.00     0.025 A 
ATOM     39  C   UNL     1      22.386 119.804 296.218  1.00  0.00     0.062 A 
ATOM     40  C   UNL     1      21.850 117.827 297.507  1.00  0.00     0.016 A 
ATOM     41  C   UNL     1      23.058 119.012 295.276  1.00  0.00     0.158 A 
ATOM     42  C   UNL     1      22.519 117.034 296.572  1.00  0.00     0.051 A 
ATOM     43  C   UNL     1      23.129 117.620 295.458  1.00  0.00     0.157 A 
BRANCH  41  44
ATOM     44  O   UNL     1      23.655 119.602 294.163  1.00  0.00    -0.504 OA
ATOM     45  H   UNL     1      23.469 120.564 293.910  1.00  0.00     0.293 HD
ENDBRANCH  41  44
BRANCH  43  46
ATOM     46  O   UNL     1      23.796 116.805 294.542  1.00  0.00    -0.504 OA
ATOM     47  H   UNL     1      23.392 116.560 293.646  1.00  0.00     0.293 HD
ENDBRANCH  43  46
ENDBRANCH  28  38
BRANCH  34  48
ATOM     48  O   UNL     1      19.194 122.947 302.181  1.00  0.00    -0.507 OA
ATOM     49  H   UNL     1      19.009 122.559 303.094  1.00  0.00     0.293 HD
ENDBRANCH  34  48
BRANCH  37  50
ATOM     50  O   UNL     1      15.515 122.063 299.251  1.00  0.00    -0.508 OA
ATOM     51  H   UNL     1      14.814 122.000 299.980  1.00  0.00     0.293 HD
ENDBRANCH  37  50
ENDBRANCH  26  27
ENDBRANCH   5  26
BRANCH   4  52
ATOM     52  O   UNL     1      24.601 119.124 302.590  1.00  0.00    -0.384 OA
ATOM     53  H   UNL     1      24.486 119.489 303.508  1.00  0.00     0.211 HD
ENDBRANCH   4  52
TORSDOF 16
ENDMDL
MODEL 3
REMARK VINA RESULT:    -7.969      3.927      7.326
REMARK INTER + INTRA:         -15.871
REMARK INTER:                 -13.409
REMARK INTRA:                  -2.461
REMARK UNBOUND:                -2.777
REMARK SMILES C[C@H]1O[C@@H](OC[C@H]2O[C@H](Oc3c(-c4ccc(O)c(O)c4)oc4cc(O)cc(O)c4c3=O)[C@@H](O)[C@@H](O)[C@H]2O)[C@H](O)[C@@H](O)[C@H]1O
REMARK SMILES IDX 7 1 36 2 34 3 32 4 9 5 8 6 6 7 5 8 4 9 1 10 2 11 42 12 3 13
REMARK SMILES IDX 40 14 38 15 43 16 41 18 39 20 37 22 35 24 10 26 11 27 12 28
REMARK SMILES IDX 30 29 21 30 29 31 31 32 22 33 27 34 23 35 26 36 24 37 13 38
REMARK SMILES IDX 20 39 14 40 18 41 15 42 16 43 19 44 17 46 28 48 25 50 33 52
REMARK H PARENT 43 17 41 19 39 21 37 23 35 25 19 45 17 47 28 49 25 51 33 53
REMARK Flexibility Score: inf
ROOT
ATOM      1  C   UNL     1      22.483 121.121 299.947  1.00  0.00     0.180 C 
ATOM      2  C   UNL     1      21.208 121.092 300.817  1.00  0.00     0.177 C 
ATOM      3  C   UNL     1      20.117 120.273 300.098  1.00  0.00     0.180 C 
ATOM      4  C   UNL     1      20.663 118.902 299.651  1.00  0.00     0.214 C 
ATOM      5  C   UNL     1      21.995 119.078 298.895  1.00  0.00     0.339 C 
ATOM      6  O   UNL     1      22.934 119.804 299.678  1.00  0.00    -0.332 OA
ENDROOT
BRANCH   1   7
ATOM      7  C   UNL     1      23.627 121.899 300.612  1.00  0.00     0.198 C 
BRANCH   7   8
ATOM      8  O   UNL     1      24.822 121.141 300.553  1.00  0.00    -0.347 OA
BRANCH   8   9
ATOM      9  C   UNL     1      25.718 121.539 301.578  1.00  0.00     0.281 C 
ATOM     10  C   UNL     1      26.690 118.869 300.257  1.00  0.00     0.041 C 
ATOM     11  C   UNL     1      27.171 119.635 301.499  1.00  0.00     0.150 C 
ATOM     12  C   UNL     1      26.617 119.095 302.845  1.00  0.00     0.174 C 
ATOM     13  O   UNL     1      27.034 121.045 301.350  1.00  0.00    -0.344 OA
ATOM     14  C   UNL     1      25.203 119.609 303.139  1.00  0.00     0.179 C 
ATOM     15  C   UNL     1      25.163 121.135 302.955  1.00  0.00     0.202 C 
BRANCH  12  16
ATOM     16  O   UNL     1      26.626 117.690 302.872  1.00  0.00    -0.388 OA
ATOM     17  H   UNL     1      26.022 117.414 303.610  1.00  0.00     0.211 HD
ENDBRANCH  12  16
BRANCH  14  18
ATOM     18  O   UNL     1      24.268 118.980 302.300  1.00  0.00    -0.387 OA
ATOM     19  H   UNL     1      24.502 119.232 301.368  1.00  0.00     0.211 HD
ENDBRANCH  14  18
BRANCH  15  20
ATOM     20  O   UNL     1      25.921 121.761 303.959  1.00  0.00    -0.385 OA
ATOM     21  H   UNL     1      25.281 122.065 304.655  1.00  0.00     0.211 HD
ENDBRANCH  15  20
ENDBRANCH   8   9
ENDBRANCH   7   8
ENDBRANCH   1   7
BRANCH   2  22
ATOM     22  O   UNL     1      21.498 120.531 302.072  1.00  0.00    -0.387 OA
ATOM     23  H   UNL     1      21.609 119.554 301.936  1.00  0.00     0.211 HD
ENDBRANCH   2  22
BRANCH   3  24
ATOM     24  O   UNL     1      19.005 120.110 300.940  1.00  0.00    -0.387 OA
ATOM     25  H   UNL     1      18.860 120.980 301.395  1.00  0.00     0.211 HD
ENDBRANCH   3  24
BRANCH   5  26
ATOM     26  O   UNL     1      21.763 119.701 297.624  1.00  0.00    -0.454 OA
BRANCH  26  27
ATOM     27  C   UNL     1      22.435 119.441 296.411  1.00  0.00     0.214 A 
ATOM     28  C   UNL     1      21.749 118.723 295.414  1.00  0.00     0.180 A 
ATOM     29  C   UNL     1      23.769 119.834 296.151  1.00  0.00     0.239 A 
ATOM     30  O   UNL     1      22.346 118.436 294.264  1.00  0.00    -0.452 OA
ATOM     31  C   UNL     1      24.341 119.589 294.879  1.00  0.00     0.111 A 
ATOM     32  O   UNL     1      24.458 120.346 297.069  1.00  0.00    -0.285 OA
ATOM     33  C   UNL     1      23.576 118.827 293.962  1.00  0.00     0.146 A 
ATOM     34  C   UNL     1      25.641 120.024 294.481  1.00  0.00     0.134 A 
ATOM     35  C   UNL     1      24.106 118.464 292.722  1.00  0.00     0.094 A 
ATOM     36  C   UNL     1      26.161 119.613 293.247  1.00  0.00     0.093 A 
ATOM     37  C   UNL     1      25.401 118.844 292.367  1.00  0.00     0.123 A 
BRANCH  28  38
ATOM     38  C   UNL     1      20.368 118.236 295.616  1.00  0.00     0.025 A 
ATOM     39  C   UNL     1      19.302 118.903 294.994  1.00  0.00     0.062 A 
ATOM     40  C   UNL     1      20.099 117.144 296.454  1.00  0.00     0.016 A 
ATOM     41  C   UNL     1      17.984 118.458 295.173  1.00  0.00     0.158 A 
ATOM     42  C   UNL     1      18.788 116.696 296.634  1.00  0.00     0.051 A 
ATOM     43  C   UNL     1      17.728 117.345 295.993  1.00  0.00     0.157 A 
BRANCH  41  44
ATOM     44  O   UNL     1      16.931 119.115 294.539  1.00  0.00    -0.504 OA
ATOM     45  H   UNL     1      15.978 119.032 294.871  1.00  0.00     0.293 HD
ENDBRANCH  41  44
BRANCH  43  46
ATOM     46  O   UNL     1      16.428 116.874 296.185  1.00  0.00    -0.504 OA
ATOM     47  H   UNL     1      15.920 117.034 297.047  1.00  0.00     0.293 HD
ENDBRANCH  43  46
ENDBRANCH  28  38
BRANCH  34  48
ATOM     48  O   UNL     1      26.441 120.882 295.242  1.00  0.00    -0.507 OA
ATOM     49  H   UNL     1      27.273 121.341 294.901  1.00  0.00     0.293 HD
ENDBRANCH  34  48
BRANCH  37  50
ATOM     50  O   UNL     1      25.941 118.471 291.138  1.00  0.00    -0.508 OA
ATOM     51  H   UNL     1      25.395 117.963 290.452  1.00  0.00     0.293 HD
ENDBRANCH  37  50
ENDBRANCH  26  27
ENDBRANCH   5  26
BRANCH   4  52
ATOM     52  O   UNL     1      20.855 118.079 300.773  1.00  0.00    -0.384 OA
ATOM     53  H   UNL     1      20.069 118.216 301.367  1.00  0.00     0.211 HD
ENDBRANCH   4  52
TORSDOF 16
ENDMDL
MODEL 4
REMARK VINA RESULT:    -7.871      2.625      6.834
REMARK INTER + INTRA:         -15.709
REMARK INTER:                 -13.237
REMARK INTRA:                  -2.472
REMARK UNBOUND:                -2.777
REMARK SMILES C[C@H]1O[C@@H](OC[C@H]2O[C@H](Oc3c(-c4ccc(O)c(O)c4)oc4cc(O)cc(O)c4c3=O)[C@@H](O)[C@@H](O)[C@H]2O)[C@H](O)[C@@H](O)[C@H]1O
REMARK SMILES IDX 7 1 36 2 34 3 32 4 9 5 8 6 6 7 5 8 4 9 1 10 2 11 42 12 3 13
REMARK SMILES IDX 40 14 38 15 43 16 41 18 39 20 37 22 35 24 10 26 11 27 12 28
REMARK SMILES IDX 30 29 21 30 29 31 31 32 22 33 27 34 23 35 26 36 24 37 13 38
REMARK SMILES IDX 20 39 14 40 18 41 15 42 16 43 19 44 17 46 28 48 25 50 33 52
REMARK H PARENT 43 17 41 19 39 21 37 23 35 25 19 45 17 47 28 49 25 51 33 53
REMARK Flexibility Score: inf
ROOT
ATOM      1  C   UNL     1      24.521 119.894 301.609  1.00  0.00     0.180 C 
ATOM      2  C   UNL     1      25.809 119.669 302.430  1.00  0.00     0.177 C 
ATOM      3  C   UNL     1      26.920 119.136 301.504  1.00  0.00     0.180 C 
ATOM      4  C   UNL     1      27.063 120.022 300.251  1.00  0.00     0.214 C 
ATOM      5  C   UNL     1      25.685 120.254 299.600  1.00  0.00     0.339 C 
ATOM      6  O   UNL     1      24.763 120.793 300.539  1.00  0.00    -0.332 OA
ENDROOT
BRANCH   1   7
ATOM      7  C   UNL     1      23.373 120.452 302.462  1.00  0.00     0.198 C 
BRANCH   7   8
ATOM      8  O   UNL     1      22.131 120.031 301.929  1.00  0.00    -0.347 OA
BRANCH   8   9
ATOM      9  C   UNL     1      21.406 121.137 301.413  1.00  0.00     0.281 C 
ATOM     10  C   UNL     1      19.794 119.758 303.721  1.00  0.00     0.041 C 
ATOM     11  C   UNL     1      19.416 120.860 302.719  1.00  0.00     0.150 C 
ATOM     12  C   UNL     1      18.616 120.364 301.485  1.00  0.00     0.174 C 
ATOM     13  O   UNL     1      20.525 121.690 302.385  1.00  0.00    -0.344 OA
ATOM     14  C   UNL     1      19.526 119.768 300.405  1.00  0.00     0.179 C 
ATOM     15  C   UNL     1      20.683 120.737 300.115  1.00  0.00     0.202 C 
BRANCH  12  16
ATOM     16  O   UNL     1      17.640 119.424 301.855  1.00  0.00    -0.388 OA
ATOM     17  H   UNL     1      17.974 118.971 302.673  1.00  0.00     0.211 HD
ENDBRANCH  12  16
BRANCH  14  18
ATOM     18  O   UNL     1      20.014 118.515 300.812  1.00  0.00    -0.387 OA
ATOM     19  H   UNL     1      20.580 118.673 301.613  1.00  0.00     0.211 HD
ENDBRANCH  14  18
BRANCH  15  20
ATOM     20  O   UNL     1      20.195 121.895 299.485  1.00  0.00    -0.385 OA
ATOM     21  H   UNL     1      20.963 122.517 299.394  1.00  0.00     0.211 HD
ENDBRANCH  15  20
ENDBRANCH   8   9
ENDBRANCH   7   8
ENDBRANCH   1   7
BRANCH   2  22
ATOM     22  O   UNL     1      26.207 120.873 303.035  1.00  0.00    -0.387 OA
ATOM     23  H   UNL     1      25.439 121.194 303.577  1.00  0.00     0.211 HD
ENDBRANCH   2  22
BRANCH   3  24
ATOM     24  O   UNL     1      28.137 119.069 302.202  1.00  0.00    -0.387 OA
ATOM     25  H   UNL     1      28.811 119.542 301.648  1.00  0.00     0.211 HD
ENDBRANCH   3  24
BRANCH   5  26
ATOM     26  O   UNL     1      25.203 119.038 299.014  1.00  0.00    -0.454 OA
BRANCH  26  27
ATOM     27  C   UNL     1      24.174 118.900 298.059  1.00  0.00     0.214 A 
ATOM     28  C   UNL     1      24.407 119.384 296.759  1.00  0.00     0.180 A 
ATOM     29  C   UNL     1      22.910 118.330 298.342  1.00  0.00     0.239 A 
ATOM     30  O   UNL     1      23.462 119.296 295.831  1.00  0.00    -0.452 OA
ATOM     31  C   UNL     1      21.960 118.171 297.304  1.00  0.00     0.111 A 
ATOM     32  O   UNL     1      22.616 118.022 299.524  1.00  0.00    -0.285 OA
ATOM     33  C   UNL     1      22.283 118.727 296.041  1.00  0.00     0.146 A 
ATOM     34  C   UNL     1      20.695 117.527 297.458  1.00  0.00     0.134 A 
ATOM     35  C   UNL     1      21.362 118.693 294.992  1.00  0.00     0.094 A 
ATOM     36  C   UNL     1      19.777 117.543 296.401  1.00  0.00     0.093 A 
ATOM     37  C   UNL     1      20.105 118.114 295.172  1.00  0.00     0.123 A 
BRANCH  28  38
ATOM     38  C   UNL     1      25.682 120.032 296.386  1.00  0.00     0.025 A 
ATOM     39  C   UNL     1      26.877 119.300 296.456  1.00  0.00     0.062 A 
ATOM     40  C   UNL     1      25.726 121.381 296.005  1.00  0.00     0.016 A 
ATOM     41  C   UNL     1      28.097 119.896 296.106  1.00  0.00     0.158 A 
ATOM     42  C   UNL     1      26.939 121.979 295.655  1.00  0.00     0.051 A 
ATOM     43  C   UNL     1      28.126 121.241 295.699  1.00  0.00     0.157 A 
BRANCH  41  44
ATOM     44  O   UNL     1      29.278 119.157 296.162  1.00  0.00    -0.504 OA
ATOM     45  H   UNL     1      29.742 118.836 295.322  1.00  0.00     0.293 HD
ENDBRANCH  41  44
BRANCH  43  46
ATOM     46  O   UNL     1      29.324 121.861 295.340  1.00  0.00    -0.504 OA
ATOM     47  H   UNL     1      30.179 121.727 295.868  1.00  0.00     0.293 HD
ENDBRANCH  43  46
ENDBRANCH  28  38
BRANCH  34  48
ATOM     48  O   UNL     1      20.310 116.836 298.610  1.00  0.00    -0.507 OA
ATOM     49  H   UNL     1      20.044 117.274 299.480  1.00  0.00     0.293 HD
ENDBRANCH  34  48
BRANCH  37  50
ATOM     50  O   UNL     1      19.176 118.092 294.134  1.00  0.00    -0.508 OA
ATOM     51  H   UNL     1      19.034 118.896 293.534  1.00  0.00     0.293 HD
ENDBRANCH  37  50
ENDBRANCH  26  27
ENDBRANCH   5  26
BRANCH   4  52
ATOM     52  O   UNL     1      27.641 121.253 300.603  1.00  0.00    -0.384 OA
ATOM     53  H   UNL     1      28.480 121.337 300.077  1.00  0.00     0.211 HD
ENDBRANCH   4  52
TORSDOF 16
ENDMDL
MODEL 5
REMARK VINA RESULT:    -7.842      3.232      7.754
REMARK INTER + INTRA:         -15.661
REMARK INTER:                 -13.137
REMARK INTRA:                  -2.525
REMARK UNBOUND:                -2.777
REMARK SMILES C[C@H]1O[C@@H](OC[C@H]2O[C@H](Oc3c(-c4ccc(O)c(O)c4)oc4cc(O)cc(O)c4c3=O)[C@@H](O)[C@@H](O)[C@H]2O)[C@H](O)[C@@H](O)[C@H]1O
REMARK SMILES IDX 7 1 36 2 34 3 32 4 9 5 8 6 6 7 5 8 4 9 1 10 2 11 42 12 3 13
REMARK SMILES IDX 40 14 38 15 43 16 41 18 39 20 37 22 35 24 10 26 11 27 12 28
REMARK SMILES IDX 30 29 21 30 29 31 31 32 22 33 27 34 23 35 26 36 24 37 13 38
REMARK SMILES IDX 20 39 14 40 18 41 15 42 16 43 19 44 17 46 28 48 25 50 33 52
REMARK H PARENT 43 17 41 19 39 21 37 23 35 25 19 45 17 47 28 49 25 51 33 53
REMARK Flexibility Score: inf
ROOT
ATOM      1  C   UNL     1      26.910 119.803 300.300  1.00  0.00     0.180 C 
ATOM      2  C   UNL     1      28.311 119.234 299.988  1.00  0.00     0.177 C 
ATOM      3  C   UNL     1      28.252 118.416 298.683  1.00  0.00     0.180 C 
ATOM      4  C   UNL     1      27.584 119.227 297.555  1.00  0.00     0.214 C 
ATOM      5  C   UNL     1      26.252 119.827 298.045  1.00  0.00     0.339 C 
ATOM      6  O   UNL     1      26.443 120.599 299.224  1.00  0.00    -0.332 OA
ENDROOT
BRANCH   1   7
ATOM      7  C   UNL     1      26.895 120.655 301.577  1.00  0.00     0.198 C 
BRANCH   7   8
ATOM      8  O   UNL     1      25.949 120.133 302.492  1.00  0.00    -0.347 OA
BRANCH   8   9
ATOM      9  C   UNL     1      25.933 120.898 303.687  1.00  0.00     0.281 C 
ATOM     10  C   UNL     1      24.220 118.297 304.035  1.00  0.00     0.041 C 
ATOM     11  C   UNL     1      24.399 119.536 304.926  1.00  0.00     0.150 C 
ATOM     12  C   UNL     1      23.273 120.596 304.792  1.00  0.00     0.174 C 
ATOM     13  O   UNL     1      25.712 120.082 304.833  1.00  0.00    -0.344 OA
ATOM     14  C   UNL     1      23.475 121.506 303.575  1.00  0.00     0.179 C 
ATOM     15  C   UNL     1      24.914 122.045 303.569  1.00  0.00     0.202 C 
BRANCH  12  16
ATOM     16  O   UNL     1      22.008 119.989 304.726  1.00  0.00    -0.388 OA
ATOM     17  H   UNL     1      21.582 120.116 305.614  1.00  0.00     0.211 HD
ENDBRANCH  12  16
BRANCH  14  18
ATOM     18  O   UNL     1      23.199 120.806 302.389  1.00  0.00    -0.387 OA
ATOM     19  H   UNL     1      22.520 121.337 301.893  1.00  0.00     0.211 HD
ENDBRANCH  14  18
BRANCH  15  20
ATOM     20  O   UNL     1      25.099 122.937 304.640  1.00  0.00    -0.385 OA
ATOM     21  H   UNL     1      24.923 122.425 305.473  1.00  0.00     0.211 HD
ENDBRANCH  15  20
ENDBRANCH   8   9
ENDBRANCH   7   8
ENDBRANCH   1   7
BRANCH   2  22
ATOM     22  O   UNL     1      29.238 120.284 299.870  1.00  0.00    -0.387 OA
ATOM     23  H   UNL     1      28.799 121.101 300.227  1.00  0.00     0.211 HD
ENDBRANCH   2  22
BRANCH   3  24
ATOM     24  O   UNL     1      29.545 118.019 298.305  1.00  0.00    -0.387 OA
ATOM     25  H   UNL     1      30.147 118.246 299.062  1.00  0.00     0.211 HD
ENDBRANCH   3  24
BRANCH   5  26
ATOM     26  O   UNL     1      25.282 118.789 298.238  1.00  0.00    -0.454 OA
BRANCH  26  27
ATOM     27  C   UNL     1      23.879 118.929 298.286  1.00  0.00     0.214 A 
ATOM     28  C   UNL     1      23.191 119.130 297.075  1.00  0.00     0.180 A 
ATOM     29  C   UNL     1      23.127 118.909 299.484  1.00  0.00     0.239 A 
ATOM     30  O   UNL     1      21.874 119.288 297.071  1.00  0.00    -0.452 OA
ATOM     31  C   UNL     1      21.715 118.990 299.431  1.00  0.00     0.111 A 
ATOM     32  O   UNL     1      23.721 118.878 300.591  1.00  0.00    -0.285 OA
ATOM     33  C   UNL     1      21.128 119.228 298.164  1.00  0.00     0.146 A 
ATOM     34  C   UNL     1      20.857 118.887 300.568  1.00  0.00     0.134 A 
ATOM     35  C   UNL     1      19.748 119.412 298.042  1.00  0.00     0.094 A 
ATOM     36  C   UNL     1      19.483 119.114 300.422  1.00  0.00     0.093 A 
ATOM     37  C   UNL     1      18.926 119.368 299.169  1.00  0.00     0.123 A 
BRANCH  28  38
ATOM     38  C   UNL     1      23.900 119.207 295.780  1.00  0.00     0.025 A 
ATOM     39  C   UNL     1      24.136 118.032 295.049  1.00  0.00     0.062 A 
ATOM     40  C   UNL     1      24.381 120.429 295.288  1.00  0.00     0.016 A 
ATOM     41  C   UNL     1      24.807 118.083 293.819  1.00  0.00     0.158 A 
ATOM     42  C   UNL     1      25.050 120.484 294.063  1.00  0.00     0.051 A 
ATOM     43  C   UNL     1      25.261 119.317 293.322  1.00  0.00     0.157 A 
BRANCH  41  44
ATOM     44  O   UNL     1      25.023 116.914 293.091  1.00  0.00    -0.504 OA
ATOM     45  H   UNL     1      25.169 116.023 293.549  1.00  0.00     0.293 HD
ENDBRANCH  41  44
BRANCH  43  46
ATOM     46  O   UNL     1      25.926 119.401 292.098  1.00  0.00    -0.504 OA
ATOM     47  H   UNL     1      25.860 120.219 291.504  1.00  0.00     0.293 HD
ENDBRANCH  43  46
ENDBRANCH  28  38
BRANCH  34  48
ATOM     48  O   UNL     1      21.299 118.533 301.846  1.00  0.00    -0.507 OA
ATOM     49  H   UNL     1      22.124 118.908 302.291  1.00  0.00     0.293 HD
ENDBRANCH  34  48
BRANCH  37  50
ATOM     50  O   UNL     1      17.552 119.568 299.055  1.00  0.00    -0.508 OA
ATOM     51  H   UNL     1      17.125 119.823 298.172  1.00  0.00     0.293 HD
ENDBRANCH  37  50
ENDBRANCH  26  27
ENDBRANCH   5  26
BRANCH   4  52
ATOM     52  O   UNL     1      28.446 120.253 297.134  1.00  0.00    -0.384 OA
ATOM     53  H   UNL     1      29.236 119.812 296.720  1.00  0.00     0.211 HD
ENDBRANCH   4  52
TORSDOF 16
ENDMDL
MODEL 6
REMARK VINA RESULT:    -7.808      3.003      5.842
REMARK INTER + INTRA:         -15.606
REMARK INTER:                 -12.951
REMARK INTRA:                  -2.655
REMARK UNBOUND:                -2.777
REMARK SMILES C[C@H]1O[C@@H](OC[C@H]2O[C@H](Oc3c(-c4ccc(O)c(O)c4)oc4cc(O)cc(O)c4c3=O)[C@@H](O)[C@@H](O)[C@H]2O)[C@H](O)[C@@H](O)[C@H]1O
REMARK SMILES IDX 7 1 36 2 34 3 32 4 9 5 8 6 6 7 5 8 4 9 1 10 2 11 42 12 3 13
REMARK SMILES IDX 40 14 38 15 43 16 41 18 39 20 37 22 35 24 10 26 11 27 12 28
REMARK SMILES IDX 30 29 21 30 29 31 31 32 22 33 27 34 23 35 26 36 24 37 13 38
REMARK SMILES IDX 20 39 14 40 18 41 15 42 16 43 19 44 17 46 28 48 25 50 33 52
REMARK H PARENT 43 17 41 19 39 21 37 23 35 25 19 45 17 47 28 49 25 51 33 53
REMARK Flexibility Score: inf
ROOT
ATOM      1  C   UNL     1      21.984 120.057 300.942  1.00  0.00     0.180 C 
ATOM      2  C   UNL     1      22.570 120.182 302.365  1.00  0.00     0.177 C 
ATOM      3  C   UNL     1      24.109 120.134 302.290  1.00  0.00     0.180 C 
ATOM      4  C   UNL     1      24.641 121.138 301.248  1.00  0.00     0.214 C 
ATOM      5  C   UNL     1      23.887 120.973 299.914  1.00  0.00     0.339 C 
ATOM      6  O   UNL     1      22.483 121.087 300.104  1.00  0.00    -0.332 OA
ENDROOT
BRANCH   1   7
ATOM      7  C   UNL     1      20.451 120.123 300.933  1.00  0.00     0.198 C 
BRANCH   7   8
ATOM      8  O   UNL     1      20.027 121.461 301.128  1.00  0.00    -0.347 OA
BRANCH   8   9
ATOM      9  C   UNL     1      18.894 121.508 301.980  1.00  0.00     0.281 C 
ATOM     10  C   UNL     1      18.031 121.926 298.996  1.00  0.00     0.041 C 
ATOM     11  C   UNL     1      17.257 122.056 300.317  1.00  0.00     0.150 C 
ATOM     12  C   UNL     1      17.130 123.508 300.851  1.00  0.00     0.174 C 
ATOM     13  O   UNL     1      17.704 121.124 301.298  1.00  0.00    -0.344 OA
ATOM     14  C   UNL     1      18.386 123.962 301.602  1.00  0.00     0.179 C 
ATOM     15  C   UNL     1      18.781 122.896 302.636  1.00  0.00     0.202 C 
BRANCH  12  16
ATOM     16  O   UNL     1      16.847 124.410 299.811  1.00  0.00    -0.388 OA
ATOM     17  H   UNL     1      15.866 124.378 299.662  1.00  0.00     0.211 HD
ENDBRANCH  12  16
BRANCH  14  18
ATOM     18  O   UNL     1      19.438 124.199 300.701  1.00  0.00    -0.387 OA
ATOM     19  H   UNL     1      19.042 124.200 299.790  1.00  0.00     0.211 HD
ENDBRANCH  14  18
BRANCH  15  20
ATOM     20  O   UNL     1      17.824 122.843 303.663  1.00  0.00    -0.385 OA
ATOM     21  H   UNL     1      17.077 122.280 303.331  1.00  0.00     0.211 HD
ENDBRANCH  15  20
ENDBRANCH   8   9
ENDBRANCH   7   8
ENDBRANCH   1   7
BRANCH   2  22
ATOM     22  O   UNL     1      22.143 121.384 302.954  1.00  0.00    -0.387 OA
ATOM     23  H   UNL     1      22.052 122.050 302.223  1.00  0.00     0.211 HD
ENDBRANCH   2  22
BRANCH   3  24
ATOM     24  O   UNL     1      24.661 120.398 303.555  1.00  0.00    -0.387 OA
ATOM     25  H   UNL     1      24.506 119.589 304.109  1.00  0.00     0.211 HD
ENDBRANCH   3  24
BRANCH   5  26
ATOM     26  O   UNL     1      24.245 119.731 299.294  1.00  0.00    -0.454 OA
BRANCH  26  27
ATOM     27  C   UNL     1      24.809 119.546 298.014  1.00  0.00     0.214 A 
ATOM     28  C   UNL     1      23.951 119.189 296.957  1.00  0.00     0.180 A 
ATOM     29  C   UNL     1      26.191 119.670 297.738  1.00  0.00     0.239 A 
ATOM     30  O   UNL     1      24.437 118.984 295.740  1.00  0.00    -0.452 OA
ATOM     31  C   UNL     1      26.659 119.532 296.409  1.00  0.00     0.111 A 
ATOM     32  O   UNL     1      27.001 119.843 298.683  1.00  0.00    -0.285 OA
ATOM     33  C   UNL     1      25.716 119.136 295.429  1.00  0.00     0.146 A 
ATOM     34  C   UNL     1      28.015 119.728 296.007  1.00  0.00     0.134 A 
ATOM     35  C   UNL     1      26.118 118.890 294.114  1.00  0.00     0.094 A 
ATOM     36  C   UNL     1      28.396 119.436 294.691  1.00  0.00     0.093 A 
ATOM     37  C   UNL     1      27.457 119.027 293.745  1.00  0.00     0.123 A 
BRANCH  28  38
ATOM     38  C   UNL     1      22.500 118.996 297.163  1.00  0.00     0.025 A 
ATOM     39  C   UNL     1      22.026 117.767 297.647  1.00  0.00     0.062 A 
ATOM     40  C   UNL     1      21.581 120.006 296.841  1.00  0.00     0.016 A 
ATOM     41  C   UNL     1      20.654 117.564 297.849  1.00  0.00     0.158 A 
ATOM     42  C   UNL     1      20.213 119.808 297.041  1.00  0.00     0.051 A 
ATOM     43  C   UNL     1      19.744 118.593 297.549  1.00  0.00     0.157 A 
BRANCH  41  44
ATOM     44  O   UNL     1      20.192 116.346 298.346  1.00  0.00    -0.504 OA
ATOM     45  H   UNL     1      20.676 115.860 299.091  1.00  0.00     0.293 HD
ENDBRANCH  41  44
BRANCH  43  46
ATOM     46  O   UNL     1      18.372 118.423 297.745  1.00  0.00    -0.504 OA
ATOM     47  H   UNL     1      17.706 118.501 296.986  1.00  0.00     0.293 HD
ENDBRANCH  43  46
ENDBRANCH  28  38
BRANCH  34  48
ATOM     48  O   UNL     1      29.010 120.236 296.847  1.00  0.00    -0.507 OA
ATOM     49  H   UNL     1      29.998 120.059 296.736  1.00  0.00     0.293 HD
ENDBRANCH  34  48
BRANCH  37  50
ATOM     50  O   UNL     1      27.866 118.766 292.439  1.00  0.00    -0.508 OA
ATOM     51  H   UNL     1      28.847 118.716 292.191  1.00  0.00     0.293 HD
ENDBRANCH  37  50
ENDBRANCH  26  27
ENDBRANCH   5  26
BRANCH   4  52
ATOM     52  O   UNL     1      24.484 122.449 301.729  1.00  0.00    -0.384 OA
ATOM     53  H   UNL     1      23.526 122.687 301.605  1.00  0.00     0.211 HD
ENDBRANCH   4  52
TORSDOF 16
ENDMDL
MODEL 7
REMARK VINA RESULT:    -7.805      2.056      8.126
REMARK INTER + INTRA:         -15.601
REMARK INTER:                 -13.028
REMARK INTRA:                  -2.573
REMARK UNBOUND:                -2.777
REMARK SMILES C[C@H]1O[C@@H](OC[C@H]2O[C@H](Oc3c(-c4ccc(O)c(O)c4)oc4cc(O)cc(O)c4c3=O)[C@@H](O)[C@@H](O)[C@H]2O)[C@H](O)[C@@H](O)[C@H]1O
REMARK SMILES IDX 7 1 36 2 34 3 32 4 9 5 8 6 6 7 5 8 4 9 1 10 2 11 42 12 3 13
REMARK SMILES IDX 40 14 38 15 43 16 41 18 39 20 37 22 35 24 10 26 11 27 12 28
REMARK SMILES IDX 30 29 21 30 29 31 31 32 22 33 27 34 23 35 26 36 24 37 13 38
REMARK SMILES IDX 20 39 14 40 18 41 15 42 16 43 19 44 17 46 28 48 25 50 33 52
REMARK H PARENT 43 17 41 19 39 21 37 23 35 25 19 45 17 47 28 49 25 51 33 53
REMARK Flexibility Score: inf
ROOT
ATOM      1  C   UNL     1      26.800 119.672 294.372  1.00  0.00     0.180 C 
ATOM      2  C   UNL     1      26.483 118.741 293.182  1.00  0.00     0.177 C 
ATOM      3  C   UNL     1      25.273 117.853 293.536  1.00  0.00     0.180 C 
ATOM      4  C   UNL     1      24.100 118.704 294.061  1.00  0.00     0.214 C 
ATOM      5  C   UNL     1      24.588 119.664 295.164  1.00  0.00     0.339 C 
ATOM      6  O   UNL     1      25.670 120.463 294.703  1.00  0.00    -0.332 OA
ENDROOT
BRANCH   1   7
ATOM      7  C   UNL     1      27.981 120.609 294.083  1.00  0.00     0.198 C 
BRANCH   7   8
ATOM      8  O   UNL     1      28.838 120.662 295.209  1.00  0.00    -0.347 OA
BRANCH   8   9
ATOM      9  C   UNL     1      30.196 120.723 294.801  1.00  0.00     0.281 C 
ATOM     10  C   UNL     1      29.616 118.009 296.259  1.00  0.00     0.041 C 
ATOM     11  C   UNL     1      30.924 118.660 295.782  1.00  0.00     0.150 C 
ATOM     12  C   UNL     1      31.714 119.409 296.889  1.00  0.00     0.174 C 
ATOM     13  O   UNL     1      30.744 119.425 294.593  1.00  0.00    -0.344 OA
ATOM     14  C   UNL     1      31.166 120.817 297.142  1.00  0.00     0.179 C 
ATOM     15  C   UNL     1      31.013 121.558 295.804  1.00  0.00     0.202 C 
BRANCH  12  16
ATOM     16  O   UNL     1      31.722 118.680 298.090  1.00  0.00    -0.388 OA
ATOM     17  H   UNL     1      30.917 118.098 298.077  1.00  0.00     0.211 HD
ENDBRANCH  12  16
BRANCH  14  18
ATOM     18  O   UNL     1      29.937 120.751 297.819  1.00  0.00    -0.387 OA
ATOM     19  H   UNL     1      30.137 120.835 298.788  1.00  0.00     0.211 HD
ENDBRANCH  14  18
BRANCH  15  20
ATOM     20  O   UNL     1      32.279 121.827 295.254  1.00  0.00    -0.385 OA
ATOM     21  H   UNL     1      32.639 122.616 295.737  1.00  0.00     0.211 HD
ENDBRANCH  15  20
ENDBRANCH   8   9
ENDBRANCH   7   8
ENDBRANCH   1   7
BRANCH   2  22
ATOM     22  O   UNL     1      26.213 119.506 292.035  1.00  0.00    -0.387 OA
ATOM     23  H   UNL     1      26.974 120.133 291.918  1.00  0.00     0.211 HD
ENDBRANCH   2  22
BRANCH   3  24
ATOM     24  O   UNL     1      24.878 117.108 292.412  1.00  0.00    -0.387 OA
ATOM     25  H   UNL     1      25.416 117.439 291.646  1.00  0.00     0.211 HD
ENDBRANCH   3  24
BRANCH   5  26
ATOM     26  O   UNL     1      24.933 118.927 296.344  1.00  0.00    -0.454 OA
BRANCH  26  27
ATOM     27  C   UNL     1      24.840 119.365 297.682  1.00  0.00     0.214 A 
ATOM     28  C   UNL     1      23.585 119.302 298.315  1.00  0.00     0.180 A 
ATOM     29  C   UNL     1      25.930 119.893 298.414  1.00  0.00     0.239 A 
ATOM     30  O   UNL     1      23.443 119.722 299.565  1.00  0.00    -0.452 OA
ATOM     31  C   UNL     1      25.760 120.246 299.774  1.00  0.00     0.111 A 
ATOM     32  O   UNL     1      27.026 120.099 297.836  1.00  0.00    -0.285 OA
ATOM     33  C   UNL     1      24.447 120.178 300.301  1.00  0.00     0.146 A 
ATOM     34  C   UNL     1      26.811 120.700 300.628  1.00  0.00     0.134 A 
ATOM     35  C   UNL     1      24.181 120.597 301.607  1.00  0.00     0.094 A 
ATOM     36  C   UNL     1      26.508 121.150 301.920  1.00  0.00     0.093 A 
ATOM     37  C   UNL     1      25.206 121.095 302.413  1.00  0.00     0.123 A 
BRANCH  28  38
ATOM     38  C   UNL     1      22.383 118.805 297.613  1.00  0.00     0.025 A 
ATOM     39  C   UNL     1      21.449 119.721 297.105  1.00  0.00     0.062 A 
ATOM     40  C   UNL     1      22.135 117.430 297.483  1.00  0.00     0.016 A 
ATOM     41  C   UNL     1      20.302 119.270 296.436  1.00  0.00     0.158 A 
ATOM     42  C   UNL     1      20.995 116.977 296.817  1.00  0.00     0.051 A 
ATOM     43  C   UNL     1      20.078 117.890 296.287  1.00  0.00     0.157 A 
BRANCH  41  44
ATOM     44  O   UNL     1      19.387 120.186 295.919  1.00  0.00    -0.504 OA
ATOM     45  H   UNL     1      19.626 121.163 295.798  1.00  0.00     0.293 HD
ENDBRANCH  41  44
BRANCH  43  46
ATOM     46  O   UNL     1      18.949 117.410 295.621  1.00  0.00    -0.504 OA
ATOM     47  H   UNL     1      18.869 117.434 294.611  1.00  0.00     0.293 HD
ENDBRANCH  43  46
ENDBRANCH  28  38
BRANCH  34  48
ATOM     48  O   UNL     1      28.162 120.695 300.269  1.00  0.00    -0.507 OA
ATOM     49  H   UNL     1      28.920 120.929 300.892  1.00  0.00     0.293 HD
ENDBRANCH  34  48
BRANCH  37  50
ATOM     50  O   UNL     1      24.943 121.530 303.711  1.00  0.00    -0.508 OA
ATOM     51  H   UNL     1      25.687 121.663 304.386  1.00  0.00     0.293 HD
ENDBRANCH  37  50
ENDBRANCH  26  27
ENDBRANCH   5  26
BRANCH   4  52
ATOM     52  O   UNL     1      23.535 119.437 293.004  1.00  0.00    -0.384 OA
ATOM     53  H   UNL     1      24.258 120.009 292.632  1.00  0.00     0.211 HD
ENDBRANCH   4  52
TORSDOF 16
ENDMDL
MODEL 8
REMARK VINA RESULT:    -7.677      2.076      7.227
REMARK INTER + INTRA:         -15.390
REMARK INTER:                 -12.698
REMARK INTRA:                  -2.691
REMARK UNBOUND:                -2.777
REMARK SMILES C[C@H]1O[C@@H](OC[C@H]2O[C@H](Oc3c(-c4ccc(O)c(O)c4)oc4cc(O)cc(O)c4c3=O)[C@@H](O)[C@@H](O)[C@H]2O)[C@H](O)[C@@H](O)[C@H]1O
REMARK SMILES IDX 7 1 36 2 34 3 32 4 9 5 8 6 6 7 5 8 4 9 1 10 2 11 42 12 3 13
REMARK SMILES IDX 40 14 38 15 43 16 41 18 39 20 37 22 35 24 10 26 11 27 12 28
REMARK SMILES IDX 30 29 21 30 29 31 31 32 22 33 27 34 23 35 26 36 24 37 13 38
REMARK SMILES IDX 20 39 14 40 18 41 15 42 16 43 19 44 17 46 28 48 25 50 33 52
REMARK H PARENT 43 17 41 19 39 21 37 23 35 25 19 45 17 47 28 49 25 51 33 53
REMARK Flexibility Score: inf
ROOT
ATOM      1  C   UNL     1      26.948 119.869 299.054  1.00  0.00     0.180 C 
ATOM      2  C   UNL     1      26.445 120.609 300.311  1.00  0.00     0.177 C 
ATOM      3  C   UNL     1      24.943 120.922 300.153  1.00  0.00     0.180 C 
ATOM      4  C   UNL     1      24.157 119.659 299.752  1.00  0.00     0.214 C 
ATOM      5  C   UNL     1      24.838 118.963 298.557  1.00  0.00     0.339 C 
ATOM      6  O   UNL     1      26.203 118.681 298.842  1.00  0.00    -0.332 OA
ENDROOT
BRANCH   1   7
ATOM      7  C   UNL     1      28.435 119.498 299.149  1.00  0.00     0.198 C 
BRANCH   7   8
ATOM      8  O   UNL     1      29.082 119.792 297.925  1.00  0.00    -0.347 OA
BRANCH   8   9
ATOM      9  C   UNL     1      30.481 119.579 298.035  1.00  0.00     0.281 C 
ATOM     10  C   UNL     1      29.821 121.153 295.406  1.00  0.00     0.041 C 
ATOM     11  C   UNL     1      31.120 120.516 295.923  1.00  0.00     0.150 C 
ATOM     12  C   UNL     1      31.429 119.112 295.338  1.00  0.00     0.174 C 
ATOM     13  O   UNL     1      31.223 120.578 297.343  1.00  0.00    -0.344 OA
ATOM     14  C   UNL     1      30.659 118.000 296.059  1.00  0.00     0.179 C 
ATOM     15  C   UNL     1      30.837 118.152 297.578  1.00  0.00     0.202 C 
BRANCH  12  16
ATOM     16  O   UNL     1      31.155 119.063 293.961  1.00  0.00    -0.388 OA
ATOM     17  H   UNL     1      31.645 118.279 293.599  1.00  0.00     0.211 HD
ENDBRANCH  12  16
BRANCH  14  18
ATOM     18  O   UNL     1      29.298 118.040 295.709  1.00  0.00    -0.387 OA
ATOM     19  H   UNL     1      28.792 117.669 296.480  1.00  0.00     0.211 HD
ENDBRANCH  14  18
BRANCH  15  20
ATOM     20  O   UNL     1      32.166 117.873 297.938  1.00  0.00    -0.385 OA
ATOM     21  H   UNL     1      32.292 118.217 298.860  1.00  0.00     0.211 HD
ENDBRANCH  15  20
ENDBRANCH   8   9
ENDBRANCH   7   8
ENDBRANCH   1   7
BRANCH   2  22
ATOM     22  O   UNL     1      26.666 119.819 301.452  1.00  0.00    -0.387 OA
ATOM     23  H   UNL     1      26.609 120.423 302.239  1.00  0.00     0.211 HD
ENDBRANCH   2  22
BRANCH   3  24
ATOM     24  O   UNL     1      24.436 121.460 301.348  1.00  0.00    -0.387 OA
ATOM     25  H   UNL     1      25.209 121.837 301.843  1.00  0.00     0.211 HD
ENDBRANCH   3  24
BRANCH   5  26
ATOM     26  O   UNL     1      24.692 119.757 297.372  1.00  0.00    -0.454 OA
BRANCH  26  27
ATOM     27  C   UNL     1      24.645 119.299 296.039  1.00  0.00     0.214 A 
ATOM     28  C   UNL     1      23.394 118.934 295.507  1.00  0.00     0.180 A 
ATOM     29  C   UNL     1      25.786 119.158 295.214  1.00  0.00     0.239 A 
ATOM     30  O   UNL     1      23.301 118.478 294.265  1.00  0.00    -0.452 OA
ATOM     31  C   UNL     1      25.636 118.755 293.866  1.00  0.00     0.111 A 
ATOM     32  O   UNL     1      26.931 119.335 295.701  1.00  0.00    -0.285 OA
ATOM     33  C   UNL     1      24.337 118.376 293.445  1.00  0.00     0.146 A 
ATOM     34  C   UNL     1      26.706 118.670 292.925  1.00  0.00     0.134 A 
ATOM     35  C   UNL     1      24.124 117.880 292.157  1.00  0.00     0.094 A 
ATOM     36  C   UNL     1      26.469 118.132 291.653  1.00  0.00     0.093 A 
ATOM     37  C   UNL     1      25.188 117.744 291.264  1.00  0.00     0.123 A 
BRANCH  28  38
ATOM     38  C   UNL     1      22.155 119.009 296.310  1.00  0.00     0.025 A 
ATOM     39  C   UNL     1      21.771 117.910 297.094  1.00  0.00     0.062 A 
ATOM     40  C   UNL     1      21.331 120.143 296.267  1.00  0.00     0.016 A 
ATOM     41  C   UNL     1      20.599 117.961 297.863  1.00  0.00     0.158 A 
ATOM     42  C   UNL     1      20.163 120.197 297.032  1.00  0.00     0.051 A 
ATOM     43  C   UNL     1      19.794 119.113 297.835  1.00  0.00     0.157 A 
BRANCH  41  44
ATOM     44  O   UNL     1      20.233 116.872 298.653  1.00  0.00    -0.504 OA
ATOM     45  H   UNL     1      20.066 116.971 299.647  1.00  0.00     0.293 HD
ENDBRANCH  41  44
BRANCH  43  46
ATOM     46  O   UNL     1      18.625 119.196 298.593  1.00  0.00    -0.504 OA
ATOM     47  H   UNL     1      18.440 118.568 299.367  1.00  0.00     0.293 HD
ENDBRANCH  43  46
ENDBRANCH  28  38
BRANCH  34  48
ATOM     48  O   UNL     1      28.002 119.128 293.177  1.00  0.00    -0.507 OA
ATOM     49  H   UNL     1      28.747 118.560 293.554  1.00  0.00     0.293 HD
ENDBRANCH  34  48
BRANCH  37  50
ATOM     50  O   UNL     1      24.983 117.234 289.984  1.00  0.00    -0.508 OA
ATOM     51  H   UNL     1      24.377 117.699 289.319  1.00  0.00     0.293 HD
ENDBRANCH  37  50
ENDBRANCH  26  27
ENDBRANCH   5  26
BRANCH   4  52
ATOM     52  O   UNL     1      24.085 118.777 300.843  1.00  0.00    -0.384 OA
ATOM     53  H   UNL     1      24.974 118.337 300.915  1.00  0.00     0.211 HD
ENDBRANCH   4  52
TORSDOF 16
ENDMDL
MODEL 9
REMARK VINA RESULT:    -7.482      2.733      5.173
REMARK INTER + INTRA:         -15.070
REMARK INTER:                 -12.227
REMARK INTRA:                  -2.843
REMARK UNBOUND:                -2.777
REMARK SMILES C[C@H]1O[C@@H](OC[C@H]2O[C@H](Oc3c(-c4ccc(O)c(O)c4)oc4cc(O)cc(O)c4c3=O)[C@@H](O)[C@@H](O)[C@H]2O)[C@H](O)[C@@H](O)[C@H]1O
REMARK SMILES IDX 7 1 36 2 34 3 32 4 9 5 8 6 6 7 5 8 4 9 1 10 2 11 42 12 3 13
REMARK SMILES IDX 40 14 38 15 43 16 41 18 39 20 37 22 35 24 10 26 11 27 12 28
REMARK SMILES IDX 30 29 21 30 29 31 31 32 22 33 27 34 23 35 26 36 24 37 13 38
REMARK SMILES IDX 20 39 14 40 18 41 15 42 16 43 19 44 17 46 28 48 25 50 33 52
REMARK H PARENT 43 17 41 19 39 21 37 23 35 25 19 45 17 47 28 49 25 51 33 53
REMARK Flexibility Score: inf
ROOT
ATOM      1  C   UNL     1      22.519 119.773 301.383  1.00  0.00     0.180 C 
ATOM      2  C   UNL     1      23.285 120.021 302.701  1.00  0.00     0.177 C 
ATOM      3  C   UNL     1      24.787 120.184 302.396  1.00  0.00     0.180 C 
ATOM      4  C   UNL     1      25.011 121.220 301.277  1.00  0.00     0.214 C 
ATOM      5  C   UNL     1      24.100 120.912 300.072  1.00  0.00     0.339 C 
ATOM      6  O   UNL     1      22.738 120.836 300.471  1.00  0.00    -0.332 OA
ENDROOT
BRANCH   1   7
ATOM      7  C   UNL     1      21.007 119.626 301.605  1.00  0.00     0.198 C 
BRANCH   7   8
ATOM      8  O   UNL     1      20.345 120.809 301.196  1.00  0.00    -0.347 OA
BRANCH   8   9
ATOM      9  C   UNL     1      19.411 120.529 300.164  1.00  0.00     0.281 C 
ATOM     10  C   UNL     1      19.287 123.560 300.955  1.00  0.00     0.041 C 
ATOM     11  C   UNL     1      18.398 122.698 300.045  1.00  0.00     0.150 C 
ATOM     12  C   UNL     1      17.097 122.181 300.715  1.00  0.00     0.174 C 
ATOM     13  O   UNL     1      19.138 121.681 299.374  1.00  0.00    -0.344 OA
ATOM     14  C   UNL     1      17.341 120.932 301.570  1.00  0.00     0.179 C 
ATOM     15  C   UNL     1      18.138 119.900 300.758  1.00  0.00     0.202 C 
BRANCH  12  16
ATOM     16  O   UNL     1      16.494 123.181 301.497  1.00  0.00    -0.388 OA
ATOM     17  H   UNL     1      17.218 123.603 302.029  1.00  0.00     0.211 HD
ENDBRANCH  12  16
BRANCH  14  18
ATOM     18  O   UNL     1      18.023 121.273 302.751  1.00  0.00    -0.387 OA
ATOM     19  H   UNL     1      18.612 120.505 302.974  1.00  0.00     0.211 HD
ENDBRANCH  14  18
BRANCH  15  20
ATOM     20  O   UNL     1      17.346 119.393 299.713  1.00  0.00    -0.385 OA
ATOM     21  H   UNL     1      16.648 120.074 299.526  1.00  0.00     0.211 HD
ENDBRANCH  15  20
ENDBRANCH   8   9
ENDBRANCH   7   8
ENDBRANCH   1   7
BRANCH   2  22
ATOM     22  O   UNL     1      22.783 121.169 303.336  1.00  0.00    -0.387 OA
ATOM     23  H   UNL     1      21.794 121.084 303.352  1.00  0.00     0.211 HD
ENDBRANCH   2  22
BRANCH   3  24
ATOM     24  O   UNL     1      25.476 120.560 303.561  1.00  0.00    -0.387 OA
ATOM     25  H   UNL     1      25.078 120.043 304.308  1.00  0.00     0.211 HD
ENDBRANCH   3  24
BRANCH   5  26
ATOM     26  O   UNL     1      24.534 119.713 299.417  1.00  0.00    -0.454 OA
BRANCH  26  27
ATOM     27  C   UNL     1      25.189 119.610 298.172  1.00  0.00     0.214 A 
ATOM     28  C   UNL     1      24.430 119.218 297.054  1.00  0.00     0.180 A 
ATOM     29  C   UNL     1      26.572 119.848 297.988  1.00  0.00     0.239 A 
ATOM     30  O   UNL     1      25.005 119.087 295.866  1.00  0.00    -0.452 OA
ATOM     31  C   UNL     1      27.131 119.785 296.690  1.00  0.00     0.111 A 
ATOM     32  O   UNL     1      27.306 120.056 298.987  1.00  0.00    -0.285 OA
ATOM     33  C   UNL     1      26.286 119.346 295.641  1.00  0.00     0.146 A 
ATOM     34  C   UNL     1      28.490 120.097 296.380  1.00  0.00     0.134 A 
ATOM     35  C   UNL     1      26.786 119.170 294.349  1.00  0.00     0.094 A 
ATOM     36  C   UNL     1      28.973 119.873 295.084  1.00  0.00     0.093 A 
ATOM     37  C   UNL     1      28.131 119.420 294.071  1.00  0.00     0.123 A 
BRANCH  28  38
ATOM     38  C   UNL     1      22.988 118.909 297.162  1.00  0.00     0.025 A 
ATOM     39  C   UNL     1      22.043 119.903 296.867  1.00  0.00     0.062 A 
ATOM     40  C   UNL     1      22.547 117.650 297.596  1.00  0.00     0.016 A 
ATOM     41  C   UNL     1      20.671 119.630 296.963  1.00  0.00     0.158 A 
ATOM     42  C   UNL     1      21.182 117.374 297.692  1.00  0.00     0.051 A 
ATOM     43  C   UNL     1      20.239 118.357 297.373  1.00  0.00     0.157 A 
BRANCH  41  44
ATOM     44  O   UNL     1      19.737 120.618 296.652  1.00  0.00    -0.504 OA
ATOM     45  H   UNL     1      18.793 120.384 296.371  1.00  0.00     0.293 HD
ENDBRANCH  41  44
BRANCH  43  46
ATOM     46  O   UNL     1      18.881 118.052 297.472  1.00  0.00    -0.504 OA
ATOM     47  H   UNL     1      18.202 118.725 297.808  1.00  0.00     0.293 HD
ENDBRANCH  43  46
ENDBRANCH  28  38
BRANCH  34  48
ATOM     48  O   UNL     1      29.388 120.655 297.294  1.00  0.00    -0.507 OA
ATOM     49  H   UNL     1      29.745 121.598 297.243  1.00  0.00     0.293 HD
ENDBRANCH  34  48
BRANCH  37  50
ATOM     50  O   UNL     1      28.639 119.229 292.787  1.00  0.00    -0.508 OA
ATOM     51  H   UNL     1      28.258 119.722 291.988  1.00  0.00     0.293 HD
ENDBRANCH  37  50
ENDBRANCH  26  27
ENDBRANCH   5  26
BRANCH   4  52
ATOM     52  O   UNL     1      24.743 122.511 301.763  1.00  0.00    -0.384 OA
ATOM     53  H   UNL     1      24.572 123.086 300.970  1.00  0.00     0.211 HD
ENDBRANCH   4  52
TORSDOF 16
ENDMDL
