MODEL 1
REMARK VINA RESULT:    -4.554      0.000      0.000
REMARK INTER + INTRA:          -8.475
REMARK INTER:                  -7.217
REMARK INTRA:                  -1.258
REMARK UNBOUND:                -1.258
REMARK SMILES CCCCCCCCCCCC(=O)[O-]
REMARK SMILES IDX 7 1 8 2 9 3 10 4 11 5 12 6 13 7 14 8 6 9 5 10 4 11 3 12 2 13
REMARK SMILES IDX 1 14
REMARK H PARENT
REMARK Flexibility Score: inf
ROOT
ATOM      1  C   UNL     1       4.409  45.077  11.930  1.00  0.00     0.000 C 
ENDROOT
BRANCH   1   2
ATOM      2  C   UNL     1       4.003  46.243  11.015  1.00  0.00     0.000 C 
BRANCH   2   3
ATOM      3  C   UNL     1       5.236  46.879  10.356  1.00  0.00     0.000 C 
BRANCH   3   4
ATOM      4  C   UNL     1       4.918  47.535   9.000  1.00  0.00     0.006 C 
BRANCH   4   5
ATOM      5  C   UNL     1       3.465  47.354   8.534  1.00  0.00     0.053 C 
BRANCH   5   6
ATOM      6  C   UNL     1       2.961  48.551   7.788  1.00  0.00     0.041 C 
ATOM      7  O   UNL     1       3.772  49.385   7.305  1.00  0.00    -0.550 OA
ATOM      8  O   UNL     1       1.596  48.727   7.596  1.00  0.00    -0.550 OA
ENDBRANCH   5   6
ENDBRANCH   4   5
ENDBRANCH   3   4
ENDBRANCH   2   3
ENDBRANCH   1   2
BRANCH   1   9
ATOM      9  C   UNL     1       3.646  43.780  11.615  1.00  0.00     0.000 C 
BRANCH   9  10
ATOM     10  C   UNL     1       4.108  43.129  10.299  1.00  0.00    -0.000 C 
BRANCH  10  11
ATOM     11  C   UNL     1       3.070  43.273   9.173  1.00  0.00    -0.000 C 
BRANCH  11  12
ATOM     12  C   UNL     1       1.678  43.665   9.699  1.00  0.00    -0.000 C 
BRANCH  12  13
ATOM     13  C   UNL     1       1.031  44.786   8.871  1.00  0.00    -0.003 C 
ATOM     14  C   UNL     1       0.350  45.847   9.738  1.00  0.00     0.004 C 
ENDBRANCH  12  13
ENDBRANCH  11  12
ENDBRANCH  10  11
ENDBRANCH   9  10
ENDBRANCH   1   9
TORSDOF 10
ENDMDL
MODEL 2
REMARK VINA RESULT:    -4.493      1.092      3.308
REMARK INTER + INTRA:          -8.377
REMARK INTER:                  -7.091
REMARK INTRA:                  -1.286
REMARK UNBOUND:                -1.258
REMARK SMILES CCCCCCCCCCCC(=O)[O-]
REMARK SMILES IDX 7 1 8 2 9 3 10 4 11 5 12 6 13 7 14 8 6 9 5 10 4 11 3 12 2 13
REMARK SMILES IDX 1 14
REMARK H PARENT
REMARK Flexibility Score: inf
ROOT
ATOM      1  C   UNL     1       1.552  44.115   9.899  1.00  0.00     0.000 C 
ENDROOT
BRANCH   1   2
ATOM      2  C   UNL     1       1.022  44.988   8.751  1.00  0.00     0.000 C 
BRANCH   2   3
ATOM      3  C   UNL     1       0.972  46.466   9.165  1.00  0.00     0.000 C 
BRANCH   3   4
ATOM      4  C   UNL     1       1.526  47.410   8.081  1.00  0.00     0.006 C 
BRANCH   4   5
ATOM      5  C   UNL     1       1.811  48.838   8.571  1.00  0.00     0.053 C 
BRANCH   5   6
ATOM      6  C   UNL     1       2.919  49.486   7.799  1.00  0.00     0.041 C 
ATOM      7  O   UNL     1       3.110  50.728   7.885  1.00  0.00    -0.550 OA
ATOM      8  O   UNL     1       3.763  48.713   7.011  1.00  0.00    -0.550 OA
ENDBRANCH   5   6
ENDBRANCH   4   5
ENDBRANCH   3   4
ENDBRANCH   2   3
ENDBRANCH   1   2
BRANCH   1   9
ATOM      9  C   UNL     1       2.737  43.232   9.476  1.00  0.00     0.000 C 
BRANCH   9  10
ATOM     10  C   UNL     1       4.097  43.870   9.810  1.00  0.00    -0.000 C 
BRANCH  10  11
ATOM     11  C   UNL     1       4.073  44.650  11.135  1.00  0.00    -0.000 C 
BRANCH  11  12
ATOM     12  C   UNL     1       4.315  46.157  10.937  1.00  0.00    -0.000 C 
BRANCH  12  13
ATOM     13  C   UNL     1       4.739  46.501   9.500  1.00  0.00    -0.003 C 
ATOM     14  C   UNL     1       5.928  47.461   9.446  1.00  0.00     0.004 C 
ENDBRANCH  12  13
ENDBRANCH  11  12
ENDBRANCH  10  11
ENDBRANCH   9  10
ENDBRANCH   1   9
TORSDOF 10
ENDMDL
MODEL 3
REMARK VINA RESULT:    -4.489      1.646      2.730
REMARK INTER + INTRA:          -8.371
REMARK INTER:                  -7.118
REMARK INTRA:                  -1.252
REMARK UNBOUND:                -1.258
REMARK SMILES CCCCCCCCCCCC(=O)[O-]
REMARK SMILES IDX 7 1 8 2 9 3 10 4 11 5 12 6 13 7 14 8 6 9 5 10 4 11 3 12 2 13
REMARK SMILES IDX 1 14
REMARK H PARENT
REMARK Flexibility Score: inf
ROOT
ATOM      1  C   UNL     1       2.078  43.702  11.681  1.00  0.00     0.000 C 
ENDROOT
BRANCH   1   2
ATOM      2  C   UNL     1       3.229  44.353  12.464  1.00  0.00     0.000 C 
BRANCH   2   3
ATOM      3  C   UNL     1       4.386  44.728  11.526  1.00  0.00     0.000 C 
BRANCH   3   4
ATOM      4  C   UNL     1       4.254  46.150  10.951  1.00  0.00     0.006 C 
BRANCH   4   5
ATOM      5  C   UNL     1       4.475  46.244   9.433  1.00  0.00     0.053 C 
BRANCH   5   6
ATOM      6  C   UNL     1       5.211  47.490   9.048  1.00  0.00     0.041 C 
ATOM      7  O   UNL     1       4.657  48.354   8.318  1.00  0.00    -0.550 OA
ATOM      8  O   UNL     1       6.498  47.713   9.523  1.00  0.00    -0.550 OA
ENDBRANCH   5   6
ENDBRANCH   4   5
ENDBRANCH   3   4
ENDBRANCH   2   3
ENDBRANCH   1   2
BRANCH   1   9
ATOM      9  C   UNL     1       2.544  43.053  10.368  1.00  0.00     0.000 C 
BRANCH   9  10
ATOM     10  C   UNL     1       1.836  43.642   9.135  1.00  0.00    -0.000 C 
BRANCH  10  11
ATOM     11  C   UNL     1       1.059  44.929   9.458  1.00  0.00    -0.000 C 
BRANCH  11  12
ATOM     12  C   UNL     1       0.396  45.547   8.214  1.00  0.00    -0.000 C 
BRANCH  12  13
ATOM     13  C   UNL     1       1.072  46.855   7.775  1.00  0.00    -0.003 C 
ATOM     14  C   UNL     1       1.187  47.874   8.910  1.00  0.00     0.004 C 
ENDBRANCH  12  13
ENDBRANCH  11  12
ENDBRANCH  10  11
ENDBRANCH   9  10
ENDBRANCH   1   9
TORSDOF 10
ENDMDL
MODEL 4
REMARK VINA RESULT:    -4.461      1.091      2.162
REMARK INTER + INTRA:          -8.327
REMARK INTER:                  -7.255
REMARK INTRA:                  -1.072
REMARK UNBOUND:                -1.258
REMARK SMILES CCCCCCCCCCCC(=O)[O-]
REMARK SMILES IDX 7 1 8 2 9 3 10 4 11 5 12 6 13 7 14 8 6 9 5 10 4 11 3 12 2 13
REMARK SMILES IDX 1 14
REMARK H PARENT
REMARK Flexibility Score: inf
ROOT
ATOM      1  C   UNL     1       4.026  46.333  10.999  1.00  0.00     0.000 C 
ENDROOT
BRANCH   1   2
ATOM      2  C   UNL     1       4.971  46.622   9.822  1.00  0.00     0.000 C 
BRANCH   2   3
ATOM      3  C   UNL     1       4.273  47.483   8.758  1.00  0.00     0.000 C 
BRANCH   3   4
ATOM      4  C   UNL     1       2.738  47.375   8.815  1.00  0.00     0.006 C 
BRANCH   4   5
ATOM      5  C   UNL     1       2.006  48.181   7.731  1.00  0.00     0.053 C 
BRANCH   5   6
ATOM      6  C   UNL     1       2.246  49.654   7.867  1.00  0.00     0.041 C 
ATOM      7  O   UNL     1       1.616  50.321   8.729  1.00  0.00    -0.550 OA
ATOM      8  O   UNL     1       3.189  50.282   7.064  1.00  0.00    -0.550 OA
ENDBRANCH   5   6
ENDBRANCH   4   5
ENDBRANCH   3   4
ENDBRANCH   2   3
ENDBRANCH   1   2
BRANCH   1   9
ATOM      9  C   UNL     1       4.470  45.120  11.833  1.00  0.00     0.000 C 
BRANCH   9  10
ATOM     10  C   UNL     1       3.287  44.407  12.513  1.00  0.00    -0.000 C 
BRANCH  10  11
ATOM     11  C   UNL     1       2.683  43.297  11.636  1.00  0.00    -0.000 C 
BRANCH  11  12
ATOM     12  C   UNL     1       3.627  42.863  10.501  1.00  0.00    -0.000 C 
BRANCH  12  13
ATOM     13  C   UNL     1       3.033  43.127   9.108  1.00  0.00    -0.003 C 
ATOM     14  C   UNL     1       1.757  43.968   9.158  1.00  0.00     0.004 C 
ENDBRANCH  12  13
ENDBRANCH  11  12
ENDBRANCH  10  11
ENDBRANCH   9  10
ENDBRANCH   1   9
TORSDOF 10
ENDMDL
MODEL 5
REMARK VINA RESULT:    -4.429      1.755      2.706
REMARK INTER + INTRA:          -8.276
REMARK INTER:                  -7.369
REMARK INTRA:                  -0.907
REMARK UNBOUND:                -1.258
REMARK SMILES CCCCCCCCCCCC(=O)[O-]
REMARK SMILES IDX 7 1 8 2 9 3 10 4 11 5 12 6 13 7 14 8 6 9 5 10 4 11 3 12 2 13
REMARK SMILES IDX 1 14
REMARK H PARENT
REMARK Flexibility Score: inf
ROOT
ATOM      1  C   UNL     1       4.861  46.617  10.595  1.00  0.00     0.000 C 
ENDROOT
BRANCH   1   2
ATOM      2  C   UNL     1       4.714  46.662   9.066  1.00  0.00     0.000 C 
BRANCH   2   3
ATOM      3  C   UNL     1       4.513  48.104   8.577  1.00  0.00     0.000 C 
BRANCH   3   4
ATOM      4  C   UNL     1       3.382  48.232   7.539  1.00  0.00     0.006 C 
BRANCH   4   5
ATOM      5  C   UNL     1       2.016  48.605   8.135  1.00  0.00     0.053 C 
BRANCH   5   6
ATOM      6  C   UNL     1       1.106  47.420   8.243  1.00  0.00     0.041 C 
ATOM      7  O   UNL     1       1.021  46.784   9.327  1.00  0.00    -0.550 OA
ATOM      8  O   UNL     1       0.328  47.039   7.157  1.00  0.00    -0.550 OA
ENDBRANCH   5   6
ENDBRANCH   4   5
ENDBRANCH   3   4
ENDBRANCH   2   3
ENDBRANCH   1   2
BRANCH   1   9
ATOM      9  C   UNL     1       3.641  45.992  11.291  1.00  0.00     0.000 C 
BRANCH   9  10
ATOM     10  C   UNL     1       4.015  44.774  12.155  1.00  0.00    -0.000 C 
BRANCH  10  11
ATOM     11  C   UNL     1       2.866  43.759  12.273  1.00  0.00    -0.000 C 
BRANCH  11  12
ATOM     12  C   UNL     1       2.151  43.518  10.932  1.00  0.00    -0.000 C 
BRANCH  12  13
ATOM     13  C   UNL     1       2.893  42.507  10.043  1.00  0.00    -0.003 C 
ATOM     14  C   UNL     1       3.664  43.173   8.903  1.00  0.00     0.004 C 
ENDBRANCH  12  13
ENDBRANCH  11  12
ENDBRANCH  10  11
ENDBRANCH   9  10
ENDBRANCH   1   9
TORSDOF 10
ENDMDL
MODEL 6
REMARK VINA RESULT:    -4.365      2.784      5.545
REMARK INTER + INTRA:          -8.175
REMARK INTER:                  -7.132
REMARK INTRA:                  -1.043
REMARK UNBOUND:                -1.258
REMARK SMILES CCCCCCCCCCCC(=O)[O-]
REMARK SMILES IDX 7 1 8 2 9 3 10 4 11 5 12 6 13 7 14 8 6 9 5 10 4 11 3 12 2 13
REMARK SMILES IDX 1 14
REMARK H PARENT
REMARK Flexibility Score: inf
ROOT
ATOM      1  C   UNL     1       0.700  47.455   7.650  1.00  0.00     0.000 C 
ENDROOT
BRANCH   1   2
ATOM      2  C   UNL     1       0.349  46.017   8.062  1.00  0.00     0.000 C 
BRANCH   2   3
ATOM      3  C   UNL     1       0.787  45.739   9.508  1.00  0.00     0.000 C 
BRANCH   3   4
ATOM      4  C   UNL     1       1.493  44.380   9.668  1.00  0.00     0.006 C 
BRANCH   4   5
ATOM      5  C   UNL     1       1.867  44.027  11.117  1.00  0.00     0.053 C 
BRANCH   5   6
ATOM      6  C   UNL     1       3.350  44.003  11.324  1.00  0.00     0.041 C 
ATOM      7  O   UNL     1       4.119  43.710  10.371  1.00  0.00    -0.550 OA
ATOM      8  O   UNL     1       3.884  44.338  12.562  1.00  0.00    -0.550 OA
ENDBRANCH   5   6
ENDBRANCH   4   5
ENDBRANCH   3   4
ENDBRANCH   2   3
ENDBRANCH   1   2
BRANCH   1   9
ATOM      9  C   UNL     1       1.587  48.170   8.682  1.00  0.00     0.000 C 
BRANCH   9  10
ATOM     10  C   UNL     1       2.757  48.928   8.031  1.00  0.00    -0.000 C 
BRANCH  10  11
ATOM     11  C   UNL     1       4.070  48.127   8.061  1.00  0.00    -0.000 C 
BRANCH  11  12
ATOM     12  C   UNL     1       4.061  47.018   9.128  1.00  0.00    -0.000 C 
BRANCH  12  13
ATOM     13  C   UNL     1       5.323  47.035  10.005  1.00  0.00    -0.003 C 
ATOM     14  C   UNL     1       6.499  47.750   9.338  1.00  0.00     0.004 C 
ENDBRANCH  12  13
ENDBRANCH  11  12
ENDBRANCH  10  11
ENDBRANCH   9  10
ENDBRANCH   1   9
TORSDOF 10
ENDMDL
MODEL 7
REMARK VINA RESULT:    -4.361      2.000      3.918
REMARK INTER + INTRA:          -8.168
REMARK INTER:                  -7.020
REMARK INTRA:                  -1.147
REMARK UNBOUND:                -1.258
REMARK SMILES CCCCCCCCCCCC(=O)[O-]
REMARK SMILES IDX 7 1 8 2 9 3 10 4 11 5 12 6 13 7 14 8 6 9 5 10 4 11 3 12 2 13
REMARK SMILES IDX 1 14
REMARK H PARENT
REMARK Flexibility Score: inf
ROOT
ATOM      1  C   UNL     1       0.731  47.023   7.607  1.00  0.00     0.000 C 
ENDROOT
BRANCH   1   2
ATOM      2  C   UNL     1       1.487  48.032   8.486  1.00  0.00     0.000 C 
BRANCH   2   3
ATOM      3  C   UNL     1       2.576  48.754   7.678  1.00  0.00     0.000 C 
BRANCH   3   4
ATOM      4  C   UNL     1       3.999  48.313   8.065  1.00  0.00     0.006 C 
BRANCH   4   5
ATOM      5  C   UNL     1       4.066  46.967   8.803  1.00  0.00     0.053 C 
BRANCH   5   6
ATOM      6  C   UNL     1       5.014  47.008   9.962  1.00  0.00     0.041 C 
ATOM      7  O   UNL     1       4.661  46.562  11.086  1.00  0.00    -0.550 OA
ATOM      8  O   UNL     1       6.299  47.507   9.792  1.00  0.00    -0.550 OA
ENDBRANCH   5   6
ENDBRANCH   4   5
ENDBRANCH   3   4
ENDBRANCH   2   3
ENDBRANCH   1   2
BRANCH   1   9
ATOM      9  C   UNL     1       0.272  45.781   8.389  1.00  0.00     0.000 C 
BRANCH   9  10
ATOM     10  C   UNL     1       0.676  45.836   9.873  1.00  0.00    -0.000 C 
BRANCH  10  11
ATOM     11  C   UNL     1       1.487  44.604  10.310  1.00  0.00    -0.000 C 
BRANCH  11  12
ATOM     12  C   UNL     1       1.998  43.780   9.115  1.00  0.00    -0.000 C 
BRANCH  12  13
ATOM     13  C   UNL     1       3.328  43.072   9.414  1.00  0.00    -0.003 C 
ATOM     14  C   UNL     1       3.769  43.227  10.870  1.00  0.00     0.004 C 
ENDBRANCH  12  13
ENDBRANCH  11  12
ENDBRANCH  10  11
ENDBRANCH   9  10
ENDBRANCH   1   9
TORSDOF 10
ENDMDL
MODEL 8
REMARK VINA RESULT:    -4.340      2.561      4.760
REMARK INTER + INTRA:          -8.135
REMARK INTER:                  -7.003
REMARK INTRA:                  -1.132
REMARK UNBOUND:                -1.258
REMARK SMILES CCCCCCCCCCCC(=O)[O-]
REMARK SMILES IDX 7 1 8 2 9 3 10 4 11 5 12 6 13 7 14 8 6 9 5 10 4 11 3 12 2 13
REMARK SMILES IDX 1 14
REMARK H PARENT
REMARK Flexibility Score: inf
ROOT
ATOM      1  C   UNL     1       5.398  47.370   9.358  1.00  0.00     0.000 C 
ENDROOT
BRANCH   1   2
ATOM      2  C   UNL     1       4.366  46.239   9.488  1.00  0.00     0.000 C 
BRANCH   2   3
ATOM      3  C   UNL     1       3.712  46.250  10.878  1.00  0.00     0.000 C 
BRANCH   3   4
ATOM      4  C   UNL     1       4.121  45.042  11.740  1.00  0.00     0.006 C 
BRANCH   4   5
ATOM      5  C   UNL     1       3.836  43.677  11.094  1.00  0.00     0.053 C 
BRANCH   5   6
ATOM      6  C   UNL     1       2.391  43.517  10.732  1.00  0.00     0.041 C 
ATOM      7  O   UNL     1       1.510  43.504  11.631  1.00  0.00    -0.550 OA
ATOM      8  O   UNL     1       2.016  43.417   9.398  1.00  0.00    -0.550 OA
ENDBRANCH   5   6
ENDBRANCH   4   5
ENDBRANCH   3   4
ENDBRANCH   2   3
ENDBRANCH   1   2
BRANCH   1   9
ATOM      9  C   UNL     1       4.968  48.455   8.357  1.00  0.00     0.000 C 
BRANCH   9  10
ATOM     10  C   UNL     1       3.612  48.146   7.698  1.00  0.00    -0.000 C 
BRANCH  10  11
ATOM     11  C   UNL     1       2.572  49.254   7.939  1.00  0.00    -0.000 C 
BRANCH  11  12
ATOM     12  C   UNL     1       1.134  48.709   8.009  1.00  0.00    -0.000 C 
BRANCH  12  13
ATOM     13  C   UNL     1       1.080  47.176   7.914  1.00  0.00    -0.003 C 
ATOM     14  C   UNL     1       0.463  46.526   9.152  1.00  0.00     0.004 C 
ENDBRANCH  12  13
ENDBRANCH  11  12
ENDBRANCH  10  11
ENDBRANCH   9  10
ENDBRANCH   1   9
TORSDOF 10
ENDMDL
MODEL 9
REMARK VINA RESULT:    -4.324      2.735      4.689
REMARK INTER + INTRA:          -8.110
REMARK INTER:                  -7.021
REMARK INTRA:                  -1.089
REMARK UNBOUND:                -1.258
REMARK SMILES CCCCCCCCCCCC(=O)[O-]
REMARK SMILES IDX 7 1 8 2 9 3 10 4 11 5 12 6 13 7 14 8 6 9 5 10 4 11 3 12 2 13
REMARK SMILES IDX 1 14
REMARK H PARENT
REMARK Flexibility Score: inf
ROOT
ATOM      1  C   UNL     1       3.926  47.119   8.743  1.00  0.00     0.000 C 
ENDROOT
BRANCH   1   2
ATOM      2  C   UNL     1       5.024  46.960   9.807  1.00  0.00     0.000 C 
BRANCH   2   3
ATOM      3  C   UNL     1       4.490  46.210  11.037  1.00  0.00     0.000 C 
BRANCH   3   4
ATOM      4  C   UNL     1       2.979  45.924  10.954  1.00  0.00     0.006 C 
BRANCH   4   5
ATOM      5  C   UNL     1       2.589  44.476  11.286  1.00  0.00     0.053 C 
BRANCH   5   6
ATOM      6  C   UNL     1       3.054  43.513  10.236  1.00  0.00     0.041 C 
ATOM      7  O   UNL     1       2.380  43.348   9.185  1.00  0.00    -0.550 OA
ATOM      8  O   UNL     1       4.249  42.825  10.404  1.00  0.00    -0.550 OA
ENDBRANCH   5   6
ENDBRANCH   4   5
ENDBRANCH   3   4
ENDBRANCH   2   3
ENDBRANCH   1   2
BRANCH   1   9
ATOM      9  C   UNL     1       4.005  48.465   8.005  1.00  0.00     0.000 C 
BRANCH   9  10
ATOM     10  C   UNL     1       2.616  49.035   7.666  1.00  0.00    -0.000 C 
BRANCH  10  11
ATOM     11  C   UNL     1       1.495  48.389   8.497  1.00  0.00    -0.000 C 
BRANCH  11  12
ATOM     12  C   UNL     1       0.543  47.534   7.641  1.00  0.00    -0.000 C 
BRANCH  12  13
ATOM     13  C   UNL     1       0.368  46.113   8.198  1.00  0.00    -0.003 C 
ATOM     14  C   UNL     1      -0.098  45.114   7.139  1.00  0.00     0.004 C 
ENDBRANCH  12  13
ENDBRANCH  11  12
ENDBRANCH  10  11
ENDBRANCH   9  10
ENDBRANCH   1   9
TORSDOF 10
ENDMDL
