MODEL 1
REMARK VINA RESULT:     5.068      0.000      0.000
REMARK INTER + INTRA:          11.976
REMARK INTER:                  13.363
REMARK INTRA:                  -1.387
REMARK UNBOUND:                -1.387
REMARK SMILES CCCCCCCCCCCCCCCCCCCCCCCCCCCCCC(=O)[O-]
REMARK SMILES IDX 16 1 17 2 18 3 19 4 20 5 21 6 22 7 23 8 24 9 25 10 26 11
REMARK SMILES IDX 27 12 28 13 29 14 30 15 31 16 32 17 15 18 14 19 13 20 12 21
REMARK SMILES IDX 11 22 10 23 9 24 8 25 7 26 6 27 5 28 4 29 3 30 2 31 1 32
REMARK H PARENT
REMARK Flexibility Score: inf
ROOT
ATOM      1  C   UNL     1      -1.621  37.991  19.245  1.00  0.00     0.000 C 
ENDROOT
BRANCH   1   2
ATOM      2  C   UNL     1      -1.123  38.095  17.787  1.00  0.00     0.000 C 
BRANCH   2   3
ATOM      3  C   UNL     1      -0.499  36.798  17.237  1.00  0.00     0.000 C 
BRANCH   3   4
ATOM      4  C   UNL     1      -1.315  36.090  16.144  1.00  0.00     0.000 C 
BRANCH   4   5
ATOM      5  C   UNL     1      -2.482  36.942  15.619  1.00  0.00     0.000 C 
BRANCH   5   6
ATOM      6  C   UNL     1      -3.832  36.286  15.942  1.00  0.00     0.000 C 
BRANCH   6   7
ATOM      7  C   UNL     1      -3.744  35.279  17.103  1.00  0.00     0.000 C 
BRANCH   7   8
ATOM      8  C   UNL     1      -5.011  34.429  17.322  1.00  0.00     0.000 C 
BRANCH   8   9
ATOM      9  C   UNL     1      -5.382  34.177  18.797  1.00  0.00     0.000 C 
BRANCH   9  10
ATOM     10  C   UNL     1      -6.097  35.347  19.497  1.00  0.00     0.000 C 
BRANCH  10  11
ATOM     11  C   UNL     1      -5.380  36.690  19.292  1.00  0.00     0.000 C 
BRANCH  11  12
ATOM     12  C   UNL     1      -6.017  37.790  20.154  1.00  0.00     0.000 C 
BRANCH  12  13
ATOM     13  C   UNL     1      -5.723  37.620  21.656  1.00  0.00     0.006 C 
BRANCH  13  14
ATOM     14  C   UNL     1      -4.580  38.502  22.183  1.00  0.00     0.053 C 
BRANCH  14  15
ATOM     15  C   UNL     1      -5.081  39.805  22.725  1.00  0.00     0.041 C 
ATOM     16  O   UNL     1      -4.944  40.079  23.947  1.00  0.00    -0.550 OA
ATOM     17  O   UNL     1      -5.660  40.736  21.872  1.00  0.00    -0.550 OA
ENDBRANCH  14  15
ENDBRANCH  13  14
ENDBRANCH  12  13
ENDBRANCH  11  12
ENDBRANCH  10  11
ENDBRANCH   9  10
ENDBRANCH   8   9
ENDBRANCH   7   8
ENDBRANCH   6   7
ENDBRANCH   5   6
ENDBRANCH   4   5
ENDBRANCH   3   4
ENDBRANCH   2   3
ENDBRANCH   1   2
BRANCH   1  18
ATOM     18  C   UNL     1      -2.725  36.931  19.423  1.00  0.00     0.000 C 
BRANCH  18  19
ATOM     19  C   UNL     1      -2.713  36.279  20.817  1.00  0.00     0.000 C 
BRANCH  19  20
ATOM     20  C   UNL     1      -2.421  34.769  20.834  1.00  0.00     0.000 C 
BRANCH  20  21
ATOM     21  C   UNL     1      -3.443  33.964  21.654  1.00  0.00     0.000 C 
BRANCH  21  22
ATOM     22  C   UNL     1      -4.590  34.835  22.193  1.00  0.00     0.000 C 
BRANCH  22  23
ATOM     23  C   UNL     1      -5.379  34.175  23.346  1.00  0.00     0.000 C 
BRANCH  23  24
ATOM     24  C   UNL     1      -6.125  35.206  24.207  1.00  0.00    -0.000 C 
BRANCH  24  25
ATOM     25  C   UNL     1      -5.183  35.845  25.239  1.00  0.00    -0.000 C 
BRANCH  25  26
ATOM     26  C   UNL     1      -5.617  37.266  25.636  1.00  0.00    -0.000 C 
BRANCH  26  27
ATOM     27  C   UNL     1      -4.583  37.958  26.542  1.00  0.00    -0.000 C 
BRANCH  27  28
ATOM     28  C   UNL     1      -3.132  37.554  26.219  1.00  0.00    -0.000 C 
BRANCH  28  29
ATOM     29  C   UNL     1      -2.167  37.579  27.418  1.00  0.00    -0.000 C 
BRANCH  29  30
ATOM     30  C   UNL     1      -1.522  36.209  27.696  1.00  0.00    -0.000 C 
BRANCH  30  31
ATOM     31  C   UNL     1      -2.360  35.348  28.655  1.00  0.00    -0.003 C 
ATOM     32  C   UNL     1      -1.521  34.301  29.389  1.00  0.00     0.004 C 
ENDBRANCH  30  31
ENDBRANCH  29  30
ENDBRANCH  28  29
ENDBRANCH  27  28
ENDBRANCH  26  27
ENDBRANCH  25  26
ENDBRANCH  24  25
ENDBRANCH  23  24
ENDBRANCH  22  23
ENDBRANCH  21  22
ENDBRANCH  20  21
ENDBRANCH  19  20
ENDBRANCH  18  19
ENDBRANCH   1  18
TORSDOF 28
ENDMDL
MODEL 2
REMARK VINA RESULT:     5.137      2.763      8.747
REMARK INTER + INTRA:          12.160
REMARK INTER:                  13.168
REMARK INTRA:                  -1.008
REMARK UNBOUND:                -1.387
REMARK SMILES CCCCCCCCCCCCCCCCCCCCCCCCCCCCCC(=O)[O-]
REMARK SMILES IDX 16 1 17 2 18 3 19 4 20 5 21 6 22 7 23 8 24 9 25 10 26 11
REMARK SMILES IDX 27 12 28 13 29 14 30 15 31 16 32 17 15 18 14 19 13 20 12 21
REMARK SMILES IDX 11 22 10 23 9 24 8 25 7 26 6 27 5 28 4 29 3 30 2 31 1 32
REMARK H PARENT
REMARK Flexibility Score: inf
ROOT
ATOM      1  C   UNL     1      -4.965  39.139  22.551  1.00  0.00     0.000 C 
ENDROOT
BRANCH   1   2
ATOM      2  C   UNL     1      -5.992  38.208  23.230  1.00  0.00     0.000 C 
BRANCH   2   3
ATOM      3  C   UNL     1      -6.124  36.822  22.569  1.00  0.00     0.000 C 
BRANCH   3   4
ATOM      4  C   UNL     1      -4.859  35.951  22.615  1.00  0.00     0.000 C 
BRANCH   4   5
ATOM      5  C   UNL     1      -5.168  34.447  22.687  1.00  0.00     0.000 C 
BRANCH   5   6
ATOM      6  C   UNL     1      -5.860  34.090  24.011  1.00  0.00     0.000 C 
BRANCH   6   7
ATOM      7  C   UNL     1      -5.257  34.831  25.219  1.00  0.00     0.000 C 
BRANCH   7   8
ATOM      8  C   UNL     1      -6.071  36.047  25.705  1.00  0.00     0.000 C 
BRANCH   8   9
ATOM      9  C   UNL     1      -5.229  37.246  26.186  1.00  0.00     0.000 C 
BRANCH   9  10
ATOM     10  C   UNL     1      -3.731  37.171  25.840  1.00  0.00     0.000 C 
BRANCH  10  11
ATOM     11  C   UNL     1      -2.918  38.314  26.464  1.00  0.00     0.000 C 
BRANCH  11  12
ATOM     12  C   UNL     1      -2.120  37.821  27.680  1.00  0.00     0.000 C 
BRANCH  12  13
ATOM     13  C   UNL     1      -1.782  36.321  27.607  1.00  0.00     0.006 C 
BRANCH  13  14
ATOM     14  C   UNL     1      -2.561  35.445  28.601  1.00  0.00     0.053 C 
BRANCH  14  15
ATOM     15  C   UNL     1      -1.665  34.494  29.332  1.00  0.00     0.041 C 
ATOM     16  O   UNL     1      -1.938  34.146  30.512  1.00  0.00    -0.550 OA
ATOM     17  O   UNL     1      -0.553  33.957  28.696  1.00  0.00    -0.550 OA
ENDBRANCH  14  15
ENDBRANCH  13  14
ENDBRANCH  12  13
ENDBRANCH  11  12
ENDBRANCH  10  11
ENDBRANCH   9  10
ENDBRANCH   8   9
ENDBRANCH   7   8
ENDBRANCH   6   7
ENDBRANCH   5   6
ENDBRANCH   4   5
ENDBRANCH   3   4
ENDBRANCH   2   3
ENDBRANCH   1   2
BRANCH   1  18
ATOM     18  C   UNL     1      -5.628  40.281  21.757  1.00  0.00     0.000 C 
BRANCH  18  19
ATOM     19  C   UNL     1      -5.822  39.945  20.268  1.00  0.00     0.000 C 
BRANCH  19  20
ATOM     20  C   UNL     1      -5.589  38.472  19.890  1.00  0.00     0.000 C 
BRANCH  20  21
ATOM     21  C   UNL     1      -4.240  38.232  19.191  1.00  0.00     0.000 C 
BRANCH  21  22
ATOM     22  C   UNL     1      -3.296  37.337  20.013  1.00  0.00     0.000 C 
BRANCH  22  23
ATOM     23  C   UNL     1      -3.469  35.829  19.727  1.00  0.00     0.000 C 
BRANCH  23  24
ATOM     24  C   UNL     1      -4.864  35.496  19.178  1.00  0.00    -0.000 C 
BRANCH  24  25
ATOM     25  C   UNL     1      -4.793  34.359  18.149  1.00  0.00    -0.000 C 
BRANCH  25  26
ATOM     26  C   UNL     1      -4.239  34.824  16.791  1.00  0.00    -0.000 C 
BRANCH  26  27
ATOM     27  C   UNL     1      -2.833  35.438  16.916  1.00  0.00    -0.000 C 
BRANCH  27  28
ATOM     28  C   UNL     1      -2.754  36.878  16.377  1.00  0.00    -0.000 C 
BRANCH  28  29
ATOM     29  C   UNL     1      -2.216  37.008  14.941  1.00  0.00    -0.000 C 
BRANCH  29  30
ATOM     30  C   UNL     1      -3.254  36.613  13.875  1.00  0.00    -0.000 C 
BRANCH  30  31
ATOM     31  C   UNL     1      -4.611  37.302  14.090  1.00  0.00    -0.003 C 
ATOM     32  C   UNL     1      -4.530  38.821  13.931  1.00  0.00     0.004 C 
ENDBRANCH  30  31
ENDBRANCH  29  30
ENDBRANCH  28  29
ENDBRANCH  27  28
ENDBRANCH  26  27
ENDBRANCH  25  26
ENDBRANCH  24  25
ENDBRANCH  23  24
ENDBRANCH  22  23
ENDBRANCH  21  22
ENDBRANCH  20  21
ENDBRANCH  19  20
ENDBRANCH  18  19
ENDBRANCH   1  18
TORSDOF 28
ENDMDL
MODEL 3
REMARK VINA RESULT:     5.233      1.836      4.780
REMARK INTER + INTRA:          12.412
REMARK INTER:                  11.358
REMARK INTRA:                   1.054
REMARK UNBOUND:                -1.387
REMARK SMILES CCCCCCCCCCCCCCCCCCCCCCCCCCCCCC(=O)[O-]
REMARK SMILES IDX 16 1 17 2 18 3 19 4 20 5 21 6 22 7 23 8 24 9 25 10 26 11
REMARK SMILES IDX 27 12 28 13 29 14 30 15 31 16 32 17 15 18 14 19 13 20 12 21
REMARK SMILES IDX 11 22 10 23 9 24 8 25 7 26 6 27 5 28 4 29 3 30 2 31 1 32
REMARK H PARENT
REMARK Flexibility Score: inf
ROOT
ATOM      1  C   UNL     1      -6.097  35.398  22.859  1.00  0.00     0.000 C 
ENDROOT
BRANCH   1   2
ATOM      2  C   UNL     1      -5.244  34.156  23.196  1.00  0.00     0.000 C 
BRANCH   2   3
ATOM      3  C   UNL     1      -3.916  34.070  22.420  1.00  0.00     0.000 C 
BRANCH   3   4
ATOM      4  C   UNL     1      -3.785  35.041  21.236  1.00  0.00     0.000 C 
BRANCH   4   5
ATOM      5  C   UNL     1      -3.969  34.354  19.874  1.00  0.00     0.000 C 
BRANCH   5   6
ATOM      6  C   UNL     1      -5.440  34.386  19.434  1.00  0.00     0.000 C 
BRANCH   6   7
ATOM      7  C   UNL     1      -5.616  34.816  17.966  1.00  0.00     0.000 C 
BRANCH   7   8
ATOM      8  C   UNL     1      -4.304  35.133  17.222  1.00  0.00     0.000 C 
BRANCH   8   9
ATOM      9  C   UNL     1      -4.108  36.616  16.846  1.00  0.00     0.000 C 
BRANCH   9  10
ATOM     10  C   UNL     1      -3.979  36.893  15.338  1.00  0.00     0.000 C 
BRANCH  10  11
ATOM     11  C   UNL     1      -2.529  37.158  14.904  1.00  0.00     0.000 C 
BRANCH  11  12
ATOM     12  C   UNL     1      -1.632  35.953  15.220  1.00  0.00     0.000 C 
BRANCH  12  13
ATOM     13  C   UNL     1      -1.074  35.982  16.655  1.00  0.00     0.006 C 
BRANCH  13  14
ATOM     14  C   UNL     1      -0.821  37.393  17.210  1.00  0.00     0.053 C 
BRANCH  14  15
ATOM     15  C   UNL     1      -1.074  37.470  18.683  1.00  0.00     0.041 C 
ATOM     16  O   UNL     1      -2.254  37.522  19.123  1.00  0.00    -0.550 OA
ATOM     17  O   UNL     1      -0.009  37.441  19.574  1.00  0.00    -0.550 OA
ENDBRANCH  14  15
ENDBRANCH  13  14
ENDBRANCH  12  13
ENDBRANCH  11  12
ENDBRANCH  10  11
ENDBRANCH   9  10
ENDBRANCH   8   9
ENDBRANCH   7   8
ENDBRANCH   6   7
ENDBRANCH   5   6
ENDBRANCH   4   5
ENDBRANCH   3   4
ENDBRANCH   2   3
ENDBRANCH   1   2
BRANCH   1  18
ATOM     18  C   UNL     1      -5.289  36.500  22.147  1.00  0.00     0.000 C 
BRANCH  18  19
ATOM     19  C   UNL     1      -6.061  37.161  20.991  1.00  0.00     0.000 C 
BRANCH  19  20
ATOM     20  C   UNL     1      -5.361  38.362  20.333  1.00  0.00     0.000 C 
BRANCH  20  21
ATOM     21  C   UNL     1      -6.006  39.711  20.691  1.00  0.00     0.000 C 
BRANCH  21  22
ATOM     22  C   UNL     1      -5.672  40.168  22.122  1.00  0.00     0.000 C 
BRANCH  22  23
ATOM     23  C   UNL     1      -4.424  39.478  22.715  1.00  0.00     0.000 C 
BRANCH  23  24
ATOM     24  C   UNL     1      -4.538  39.273  24.234  1.00  0.00    -0.000 C 
BRANCH  24  25
ATOM     25  C   UNL     1      -5.703  38.332  24.575  1.00  0.00    -0.000 C 
BRANCH  25  26
ATOM     26  C   UNL     1      -5.286  37.192  25.518  1.00  0.00    -0.000 C 
BRANCH  26  27
ATOM     27  C   UNL     1      -3.759  37.118  25.702  1.00  0.00    -0.000 C 
BRANCH  27  28
ATOM     28  C   UNL     1      -3.281  37.737  27.029  1.00  0.00    -0.000 C 
BRANCH  28  29
ATOM     29  C   UNL     1      -1.885  37.284  27.493  1.00  0.00    -0.000 C 
BRANCH  29  30
ATOM     30  C   UNL     1      -1.756  35.753  27.598  1.00  0.00    -0.000 C 
BRANCH  30  31
ATOM     31  C   UNL     1      -2.107  35.226  28.998  1.00  0.00    -0.003 C 
ATOM     32  C   UNL     1      -1.278  34.003  29.390  1.00  0.00     0.004 C 
ENDBRANCH  30  31
ENDBRANCH  29  30
ENDBRANCH  28  29
ENDBRANCH  27  28
ENDBRANCH  26  27
ENDBRANCH  25  26
ENDBRANCH  24  25
ENDBRANCH  23  24
ENDBRANCH  22  23
ENDBRANCH  21  22
ENDBRANCH  20  21
ENDBRANCH  19  20
ENDBRANCH  18  19
ENDBRANCH   1  18
TORSDOF 28
ENDMDL
MODEL 4
REMARK VINA RESULT:     5.381      3.060      9.124
REMARK INTER + INTRA:          12.802
REMARK INTER:                  12.402
REMARK INTRA:                   0.399
REMARK UNBOUND:                -1.387
REMARK SMILES CCCCCCCCCCCCCCCCCCCCCCCCCCCCCC(=O)[O-]
REMARK SMILES IDX 16 1 17 2 18 3 19 4 20 5 21 6 22 7 23 8 24 9 25 10 26 11
REMARK SMILES IDX 27 12 28 13 29 14 30 15 31 16 32 17 15 18 14 19 13 20 12 21
REMARK SMILES IDX 11 22 10 23 9 24 8 25 7 26 6 27 5 28 4 29 3 30 2 31 1 32
REMARK H PARENT
REMARK Flexibility Score: inf
ROOT
ATOM      1  C   UNL     1      -4.898  37.722  22.344  1.00  0.00     0.000 C 
ENDROOT
BRANCH   1   2
ATOM      2  C   UNL     1      -6.121  36.783  22.428  1.00  0.00     0.000 C 
BRANCH   2   3
ATOM      3  C   UNL     1      -6.098  35.623  21.413  1.00  0.00     0.000 C 
BRANCH   3   4
ATOM      4  C   UNL     1      -4.908  34.659  21.546  1.00  0.00     0.000 C 
BRANCH   4   5
ATOM      5  C   UNL     1      -4.449  34.469  23.001  1.00  0.00     0.000 C 
BRANCH   5   6
ATOM      6  C   UNL     1      -5.543  33.790  23.839  1.00  0.00     0.000 C 
BRANCH   6   7
ATOM      7  C   UNL     1      -6.019  34.662  25.016  1.00  0.00     0.000 C 
BRANCH   7   8
ATOM      8  C   UNL     1      -5.905  36.182  24.786  1.00  0.00     0.000 C 
BRANCH   8   9
ATOM      9  C   UNL     1      -6.050  37.047  26.054  1.00  0.00     0.000 C 
BRANCH   9  10
ATOM     10  C   UNL     1      -4.785  37.827  26.457  1.00  0.00     0.000 C 
BRANCH  10  11
ATOM     11  C   UNL     1      -3.494  37.028  26.226  1.00  0.00     0.000 C 
BRANCH  11  12
ATOM     12  C   UNL     1      -2.507  37.229  27.384  1.00  0.00     0.000 C 
BRANCH  12  13
ATOM     13  C   UNL     1      -1.677  35.969  27.690  1.00  0.00     0.006 C 
BRANCH  13  14
ATOM     14  C   UNL     1      -2.409  34.915  28.535  1.00  0.00     0.053 C 
BRANCH  14  15
ATOM     15  C   UNL     1      -1.527  34.335  29.597  1.00  0.00     0.041 C 
ATOM     16  O   UNL     1      -1.809  34.494  30.814  1.00  0.00    -0.550 OA
ATOM     17  O   UNL     1      -0.416  33.580  29.241  1.00  0.00    -0.550 OA
ENDBRANCH  14  15
ENDBRANCH  13  14
ENDBRANCH  12  13
ENDBRANCH  11  12
ENDBRANCH  10  11
ENDBRANCH   9  10
ENDBRANCH   8   9
ENDBRANCH   7   8
ENDBRANCH   6   7
ENDBRANCH   5   6
ENDBRANCH   4   5
ENDBRANCH   3   4
ENDBRANCH   2   3
ENDBRANCH   1   2
BRANCH   1  18
ATOM     18  C   UNL     1      -5.292  39.197  22.132  1.00  0.00     0.000 C 
BRANCH  18  19
ATOM     19  C   UNL     1      -5.775  39.491  20.701  1.00  0.00     0.000 C 
BRANCH  19  20
ATOM     20  C   UNL     1      -5.947  38.257  19.798  1.00  0.00     0.000 C 
BRANCH  20  21
ATOM     21  C   UNL     1      -4.799  38.078  18.791  1.00  0.00     0.000 C 
BRANCH  21  22
ATOM     22  C   UNL     1      -3.590  37.341  19.394  1.00  0.00     0.000 C 
BRANCH  22  23
ATOM     23  C   UNL     1      -2.232  37.978  19.027  1.00  0.00     0.000 C 
BRANCH  23  24
ATOM     24  C   UNL     1      -1.494  37.187  17.935  1.00  0.00    -0.000 C 
BRANCH  24  25
ATOM     25  C   UNL     1      -2.486  36.555  16.948  1.00  0.00    -0.000 C 
BRANCH  25  26
ATOM     26  C   UNL     1      -2.505  37.272  15.588  1.00  0.00    -0.000 C 
BRANCH  26  27
ATOM     27  C   UNL     1      -3.572  36.693  14.640  1.00  0.00    -0.000 C 
BRANCH  27  28
ATOM     28  C   UNL     1      -4.354  37.779  13.878  1.00  0.00    -0.000 C 
BRANCH  28  29
ATOM     29  C   UNL     1      -4.747  39.008  14.717  1.00  0.00    -0.000 C 
BRANCH  29  30
ATOM     30  C   UNL     1      -4.865  40.293  13.878  1.00  0.00    -0.000 C 
BRANCH  30  31
ATOM     31  C   UNL     1      -5.740  41.361  14.554  1.00  0.00    -0.003 C 
ATOM     32  C   UNL     1      -5.568  41.385  16.074  1.00  0.00     0.004 C 
ENDBRANCH  30  31
ENDBRANCH  29  30
ENDBRANCH  28  29
ENDBRANCH  27  28
ENDBRANCH  26  27
ENDBRANCH  25  26
ENDBRANCH  24  25
ENDBRANCH  23  24
ENDBRANCH  22  23
ENDBRANCH  21  22
ENDBRANCH  20  21
ENDBRANCH  19  20
ENDBRANCH  18  19
ENDBRANCH   1  18
TORSDOF 28
ENDMDL
MODEL 5
REMARK VINA RESULT:     5.709      1.989      4.342
REMARK INTER + INTRA:          13.666
REMARK INTER:                  13.181
REMARK INTRA:                   0.485
REMARK UNBOUND:                -1.387
REMARK SMILES CCCCCCCCCCCCCCCCCCCCCCCCCCCCCC(=O)[O-]
REMARK SMILES IDX 16 1 17 2 18 3 19 4 20 5 21 6 22 7 23 8 24 9 25 10 26 11
REMARK SMILES IDX 27 12 28 13 29 14 30 15 31 16 32 17 15 18 14 19 13 20 12 21
REMARK SMILES IDX 11 22 10 23 9 24 8 25 7 26 6 27 5 28 4 29 3 30 2 31 1 32
REMARK H PARENT
REMARK Flexibility Score: inf
ROOT
ATOM      1  C   UNL     1      -6.112  39.628  19.835  1.00  0.00     0.000 C 
ENDROOT
BRANCH   1   2
ATOM      2  C   UNL     1      -5.660  38.164  19.646  1.00  0.00     0.000 C 
BRANCH   2   3
ATOM      3  C   UNL     1      -4.359  37.803  20.388  1.00  0.00     0.000 C 
BRANCH   3   4
ATOM      4  C   UNL     1      -3.896  36.346  20.228  1.00  0.00     0.000 C 
BRANCH   4   5
ATOM      5  C   UNL     1      -4.476  35.410  21.300  1.00  0.00     0.000 C 
BRANCH   5   6
ATOM      6  C   UNL     1      -5.858  34.885  20.885  1.00  0.00     0.000 C 
BRANCH   6   7
ATOM      7  C   UNL     1      -6.044  34.840  19.357  1.00  0.00     0.000 C 
BRANCH   7   8
ATOM      8  C   UNL     1      -4.801  34.389  18.565  1.00  0.00     0.000 C 
BRANCH   8   9
ATOM      9  C   UNL     1      -4.602  35.092  17.207  1.00  0.00     0.000 C 
BRANCH   9  10
ATOM     10  C   UNL     1      -3.177  35.002  16.631  1.00  0.00     0.000 C 
BRANCH  10  11
ATOM     11  C   UNL     1      -2.969  35.914  15.413  1.00  0.00     0.000 C 
BRANCH  11  12
ATOM     12  C   UNL     1      -3.428  37.348  15.714  1.00  0.00     0.000 C 
BRANCH  12  13
ATOM     13  C   UNL     1      -2.702  37.967  16.923  1.00  0.00     0.006 C 
BRANCH  13  14
ATOM     14  C   UNL     1      -1.719  37.018  17.628  1.00  0.00     0.053 C 
BRANCH  14  15
ATOM     15  C   UNL     1      -0.872  37.734  18.633  1.00  0.00     0.041 C 
ATOM     16  O   UNL     1      -1.123  38.930  18.939  1.00  0.00    -0.550 OA
ATOM     17  O   UNL     1       0.170  37.066  19.265  1.00  0.00    -0.550 OA
ENDBRANCH  14  15
ENDBRANCH  13  14
ENDBRANCH  12  13
ENDBRANCH  11  12
ENDBRANCH  10  11
ENDBRANCH   9  10
ENDBRANCH   8   9
ENDBRANCH   7   8
ENDBRANCH   6   7
ENDBRANCH   5   6
ENDBRANCH   4   5
ENDBRANCH   3   4
ENDBRANCH   2   3
ENDBRANCH   1   2
BRANCH   1  18
ATOM     18  C   UNL     1      -6.092  40.074  21.310  1.00  0.00     0.000 C 
BRANCH  18  19
ATOM     19  C   UNL     1      -4.668  40.209  21.878  1.00  0.00     0.000 C 
BRANCH  19  20
ATOM     20  C   UNL     1      -4.449  39.572  23.261  1.00  0.00     0.000 C 
BRANCH  20  21
ATOM     21  C   UNL     1      -5.664  38.772  23.759  1.00  0.00     0.000 C 
BRANCH  21  22
ATOM     22  C   UNL     1      -5.559  37.271  23.435  1.00  0.00     0.000 C 
BRANCH  22  23
ATOM     23  C   UNL     1      -6.125  36.358  24.545  1.00  0.00     0.000 C 
BRANCH  23  24
ATOM     24  C   UNL     1      -5.027  35.830  25.482  1.00  0.00    -0.000 C 
BRANCH  24  25
ATOM     25  C   UNL     1      -4.782  36.803  26.645  1.00  0.00    -0.000 C 
BRANCH  25  26
ATOM     26  C   UNL     1      -3.877  37.981  26.250  1.00  0.00    -0.000 C 
BRANCH  26  27
ATOM     27  C   UNL     1      -2.385  37.668  26.468  1.00  0.00    -0.000 C 
BRANCH  27  28
ATOM     28  C   UNL     1      -2.084  37.118  27.875  1.00  0.00    -0.000 C 
BRANCH  28  29
ATOM     29  C   UNL     1      -1.589  35.661  27.912  1.00  0.00    -0.000 C 
BRANCH  29  30
ATOM     30  C   UNL     1      -2.416  34.772  28.859  1.00  0.00    -0.000 C 
BRANCH  30  31
ATOM     31  C   UNL     1      -1.536  33.912  29.779  1.00  0.00    -0.003 C 
ATOM     32  C   UNL     1      -0.067  34.337  29.753  1.00  0.00     0.004 C 
ENDBRANCH  30  31
ENDBRANCH  29  30
ENDBRANCH  28  29
ENDBRANCH  27  28
ENDBRANCH  26  27
ENDBRANCH  25  26
ENDBRANCH  24  25
ENDBRANCH  23  24
ENDBRANCH  22  23
ENDBRANCH  21  22
ENDBRANCH  20  21
ENDBRANCH  19  20
ENDBRANCH  18  19
ENDBRANCH   1  18
TORSDOF 28
ENDMDL
MODEL 6
REMARK VINA RESULT:     5.890      0.944      2.838
REMARK INTER + INTRA:          14.145
REMARK INTER:                  13.834
REMARK INTRA:                   0.310
REMARK UNBOUND:                -1.387
REMARK SMILES CCCCCCCCCCCCCCCCCCCCCCCCCCCCCC(=O)[O-]
REMARK SMILES IDX 16 1 17 2 18 3 19 4 20 5 21 6 22 7 23 8 24 9 25 10 26 11
REMARK SMILES IDX 27 12 28 13 29 14 30 15 31 16 32 17 15 18 14 19 13 20 12 21
REMARK SMILES IDX 11 22 10 23 9 24 8 25 7 26 6 27 5 28 4 29 3 30 2 31 1 32
REMARK H PARENT
REMARK Flexibility Score: inf
ROOT
ATOM      1  C   UNL     1      -3.671  35.120  20.130  1.00  0.00     0.000 C 
ENDROOT
BRANCH   1   2
ATOM      2  C   UNL     1      -4.763  34.211  19.523  1.00  0.00     0.000 C 
BRANCH   2   3
ATOM      3  C   UNL     1      -4.835  34.250  17.984  1.00  0.00     0.000 C 
BRANCH   3   4
ATOM      4  C   UNL     1      -4.104  35.429  17.323  1.00  0.00     0.000 C 
BRANCH   4   5
ATOM      5  C   UNL     1      -3.375  35.035  16.029  1.00  0.00     0.000 C 
BRANCH   5   6
ATOM      6  C   UNL     1      -2.458  36.168  15.545  1.00  0.00     0.000 C 
BRANCH   6   7
ATOM      7  C   UNL     1      -1.284  36.435  16.504  1.00  0.00     0.000 C 
BRANCH   7   8
ATOM      8  C   UNL     1      -1.374  37.761  17.286  1.00  0.00     0.000 C 
BRANCH   8   9
ATOM      9  C   UNL     1      -1.276  37.624  18.819  1.00  0.00     0.000 C 
BRANCH   9  10
ATOM     10  C   UNL     1      -2.569  37.952  19.585  1.00  0.00     0.000 C 
BRANCH  10  11
ATOM     11  C   UNL     1      -3.813  37.947  18.684  1.00  0.00     0.000 C 
BRANCH  11  12
ATOM     12  C   UNL     1      -5.075  37.605  19.489  1.00  0.00     0.000 C 
BRANCH  12  13
ATOM     13  C   UNL     1      -5.680  38.828  20.203  1.00  0.00     0.006 C 
BRANCH  13  14
ATOM     14  C   UNL     1      -5.683  38.730  21.736  1.00  0.00     0.053 C 
BRANCH  14  15
ATOM     15  C   UNL     1      -5.474  40.063  22.385  1.00  0.00     0.041 C 
ATOM     16  O   UNL     1      -4.790  40.157  23.438  1.00  0.00    -0.550 OA
ATOM     17  O   UNL     1      -5.999  41.210  21.801  1.00  0.00    -0.550 OA
ENDBRANCH  14  15
ENDBRANCH  13  14
ENDBRANCH  12  13
ENDBRANCH  11  12
ENDBRANCH  10  11
ENDBRANCH   9  10
ENDBRANCH   8   9
ENDBRANCH   7   8
ENDBRANCH   6   7
ENDBRANCH   5   6
ENDBRANCH   4   5
ENDBRANCH   3   4
ENDBRANCH   2   3
ENDBRANCH   1   2
BRANCH   1  18
ATOM     18  C   UNL     1      -3.412  34.827  21.620  1.00  0.00     0.000 C 
BRANCH  18  19
ATOM     19  C   UNL     1      -4.227  33.634  22.149  1.00  0.00     0.000 C 
BRANCH  19  20
ATOM     20  C   UNL     1      -5.701  33.935  22.472  1.00  0.00     0.000 C 
BRANCH  20  21
ATOM     21  C   UNL     1      -6.123  35.365  22.096  1.00  0.00     0.000 C 
BRANCH  21  22
ATOM     22  C   UNL     1      -6.083  36.330  23.293  1.00  0.00     0.000 C 
BRANCH  22  23
ATOM     23  C   UNL     1      -5.637  35.661  24.612  1.00  0.00     0.000 C 
BRANCH  23  24
ATOM     24  C   UNL     1      -6.107  36.441  25.849  1.00  0.00    -0.000 C 
BRANCH  24  25
ATOM     25  C   UNL     1      -5.618  37.896  25.800  1.00  0.00    -0.000 C 
BRANCH  25  26
ATOM     26  C   UNL     1      -4.084  38.006  25.823  1.00  0.00    -0.000 C 
BRANCH  26  27
ATOM     27  C   UNL     1      -3.478  37.416  27.110  1.00  0.00    -0.000 C 
BRANCH  27  28
ATOM     28  C   UNL     1      -1.938  37.393  27.095  1.00  0.00    -0.000 C 
BRANCH  28  29
ATOM     29  C   UNL     1      -1.304  36.037  27.457  1.00  0.00    -0.000 C 
BRANCH  29  30
ATOM     30  C   UNL     1      -2.126  35.249  28.492  1.00  0.00    -0.000 C 
BRANCH  30  31
ATOM     31  C   UNL     1      -1.251  34.634  29.595  1.00  0.00    -0.003 C 
ATOM     32  C   UNL     1      -1.982  33.552  30.390  1.00  0.00     0.004 C 
ENDBRANCH  30  31
ENDBRANCH  29  30
ENDBRANCH  28  29
ENDBRANCH  27  28
ENDBRANCH  26  27
ENDBRANCH  25  26
ENDBRANCH  24  25
ENDBRANCH  23  24
ENDBRANCH  22  23
ENDBRANCH  21  22
ENDBRANCH  20  21
ENDBRANCH  19  20
ENDBRANCH  18  19
ENDBRANCH   1  18
TORSDOF 28
ENDMDL
MODEL 7
REMARK VINA RESULT:     6.075      2.038      7.411
REMARK INTER + INTRA:          14.632
REMARK INTER:                  11.253
REMARK INTRA:                   3.379
REMARK UNBOUND:                -1.387
REMARK SMILES CCCCCCCCCCCCCCCCCCCCCCCCCCCCCC(=O)[O-]
REMARK SMILES IDX 16 1 17 2 18 3 19 4 20 5 21 6 22 7 23 8 24 9 25 10 26 11
REMARK SMILES IDX 27 12 28 13 29 14 30 15 31 16 32 17 15 18 14 19 13 20 12 21
REMARK SMILES IDX 11 22 10 23 9 24 8 25 7 26 6 27 5 28 4 29 3 30 2 31 1 32
REMARK H PARENT
REMARK Flexibility Score: inf
ROOT
ATOM      1  C   UNL     1      -3.697  34.309  22.742  1.00  0.00     0.000 C 
ENDROOT
BRANCH   1   2
ATOM      2  C   UNL     1      -5.228  34.153  22.870  1.00  0.00     0.000 C 
BRANCH   2   3
ATOM      3  C   UNL     1      -5.996  35.487  22.931  1.00  0.00     0.000 C 
BRANCH   3   4
ATOM      4  C   UNL     1      -6.125  36.231  21.592  1.00  0.00     0.000 C 
BRANCH   4   5
ATOM      5  C   UNL     1      -5.028  37.286  21.384  1.00  0.00     0.000 C 
BRANCH   5   6
ATOM      6  C   UNL     1      -5.400  38.253  20.251  1.00  0.00     0.000 C 
BRANCH   6   7
ATOM      7  C   UNL     1      -6.103  39.526  20.758  1.00  0.00     0.000 C 
BRANCH   7   8
ATOM      8  C   UNL     1      -5.497  40.135  22.038  1.00  0.00     0.000 C 
BRANCH   8   9
ATOM      9  C   UNL     1      -4.541  39.207  22.814  1.00  0.00     0.000 C 
BRANCH   9  10
ATOM     10  C   UNL     1      -4.636  39.309  24.347  1.00  0.00     0.000 C 
BRANCH  10  11
ATOM     11  C   UNL     1      -5.732  38.411  24.937  1.00  0.00     0.000 C 
BRANCH  11  12
ATOM     12  C   UNL     1      -5.310  36.935  24.905  1.00  0.00     0.000 C 
BRANCH  12  13
ATOM     13  C   UNL     1      -4.157  36.620  25.875  1.00  0.00     0.006 C 
BRANCH  13  14
ATOM     14  C   UNL     1      -3.534  37.856  26.543  1.00  0.00     0.053 C 
BRANCH  14  15
ATOM     15  C   UNL     1      -2.174  37.568  27.100  1.00  0.00     0.041 C 
ATOM     16  O   UNL     1      -1.975  36.528  27.782  1.00  0.00    -0.550 OA
ATOM     17  O   UNL     1      -1.116  38.426  26.828  1.00  0.00    -0.550 OA
ENDBRANCH  14  15
ENDBRANCH  13  14
ENDBRANCH  12  13
ENDBRANCH  11  12
ENDBRANCH  10  11
ENDBRANCH   9  10
ENDBRANCH   8   9
ENDBRANCH   7   8
ENDBRANCH   6   7
ENDBRANCH   5   6
ENDBRANCH   4   5
ENDBRANCH   3   4
ENDBRANCH   2   3
ENDBRANCH   1   2
BRANCH   1  18
ATOM     18  C   UNL     1      -3.148  33.742  21.418  1.00  0.00     0.000 C 
BRANCH  18  19
ATOM     19  C   UNL     1      -3.525  34.597  20.196  1.00  0.00     0.000 C 
BRANCH  19  20
ATOM     20  C   UNL     1      -4.572  33.977  19.256  1.00  0.00     0.000 C 
BRANCH  20  21
ATOM     21  C   UNL     1      -5.492  35.020  18.600  1.00  0.00     0.000 C 
BRANCH  21  22
ATOM     22  C   UNL     1      -4.731  36.277  18.143  1.00  0.00     0.000 C 
BRANCH  22  23
ATOM     23  C   UNL     1      -4.148  36.162  16.717  1.00  0.00     0.000 C 
BRANCH  23  24
ATOM     24  C   UNL     1      -3.703  37.523  16.158  1.00  0.00    -0.000 C 
BRANCH  24  25
ATOM     25  C   UNL     1      -3.465  37.443  14.643  1.00  0.00    -0.000 C 
BRANCH  25  26
ATOM     26  C   UNL     1      -2.284  36.529  14.277  1.00  0.00    -0.000 C 
BRANCH  26  27
ATOM     27  C   UNL     1      -2.022  35.459  15.352  1.00  0.00    -0.000 C 
BRANCH  27  28
ATOM     28  C   UNL     1      -0.996  35.905  16.410  1.00  0.00    -0.000 C 
BRANCH  28  29
ATOM     29  C   UNL     1      -1.141  37.363  16.883  1.00  0.00    -0.000 C 
BRANCH  29  30
ATOM     30  C   UNL     1      -0.245  37.692  18.091  1.00  0.00    -0.000 C 
BRANCH  30  31
ATOM     31  C   UNL     1      -0.900  37.317  19.430  1.00  0.00    -0.003 C 
ATOM     32  C   UNL     1      -2.090  38.214  19.774  1.00  0.00     0.004 C 
ENDBRANCH  30  31
ENDBRANCH  29  30
ENDBRANCH  28  29
ENDBRANCH  27  28
ENDBRANCH  26  27
ENDBRANCH  25  26
ENDBRANCH  24  25
ENDBRANCH  23  24
ENDBRANCH  22  23
ENDBRANCH  21  22
ENDBRANCH  20  21
ENDBRANCH  19  20
ENDBRANCH  18  19
ENDBRANCH   1  18
TORSDOF 28
ENDMDL
MODEL 8
REMARK VINA RESULT:     6.119      2.766      8.372
REMARK INTER + INTRA:          14.748
REMARK INTER:                  12.056
REMARK INTRA:                   2.692
REMARK UNBOUND:                -1.387
REMARK SMILES CCCCCCCCCCCCCCCCCCCCCCCCCCCCCC(=O)[O-]
REMARK SMILES IDX 16 1 17 2 18 3 19 4 20 5 21 6 22 7 23 8 24 9 25 10 26 11
REMARK SMILES IDX 27 12 28 13 29 14 30 15 31 16 32 17 15 18 14 19 13 20 12 21
REMARK SMILES IDX 11 22 10 23 9 24 8 25 7 26 6 27 5 28 4 29 3 30 2 31 1 32
REMARK H PARENT
REMARK Flexibility Score: inf
ROOT
ATOM      1  C   UNL     1      -4.869  37.723  22.343  1.00  0.00     0.000 C 
ENDROOT
BRANCH   1   2
ATOM      2  C   UNL     1      -6.125  36.829  22.422  1.00  0.00     0.000 C 
BRANCH   2   3
ATOM      3  C   UNL     1      -6.116  35.638  21.444  1.00  0.00     0.000 C 
BRANCH   3   4
ATOM      4  C   UNL     1      -4.952  34.650  21.626  1.00  0.00     0.000 C 
BRANCH   4   5
ATOM      5  C   UNL     1      -4.520  34.495  23.092  1.00  0.00     0.000 C 
BRANCH   5   6
ATOM      6  C   UNL     1      -5.641  33.869  23.934  1.00  0.00     0.000 C 
BRANCH   6   7
ATOM      7  C   UNL     1      -6.099  34.779  25.089  1.00  0.00     0.000 C 
BRANCH   7   8
ATOM      8  C   UNL     1      -5.934  36.290  24.829  1.00  0.00     0.000 C 
BRANCH   8   9
ATOM      9  C   UNL     1      -6.048  37.184  26.079  1.00  0.00     0.000 C 
BRANCH   9  10
ATOM     10  C   UNL     1      -4.757  37.930  26.465  1.00  0.00     0.000 C 
BRANCH  10  11
ATOM     11  C   UNL     1      -3.493  37.088  26.236  1.00  0.00     0.000 C 
BRANCH  11  12
ATOM     12  C   UNL     1      -2.490  37.279  27.383  1.00  0.00     0.000 C 
BRANCH  12  13
ATOM     13  C   UNL     1      -1.693  36.001  27.701  1.00  0.00     0.006 C 
BRANCH  13  14
ATOM     14  C   UNL     1      -2.444  34.987  28.579  1.00  0.00     0.053 C 
BRANCH  14  15
ATOM     15  C   UNL     1      -1.560  34.395  29.633  1.00  0.00     0.041 C 
ATOM     16  O   UNL     1      -0.320  34.294  29.439  1.00  0.00    -0.550 OA
ATOM     17  O   UNL     1      -2.102  33.994  30.849  1.00  0.00    -0.550 OA
ENDBRANCH  14  15
ENDBRANCH  13  14
ENDBRANCH  12  13
ENDBRANCH  11  12
ENDBRANCH  10  11
ENDBRANCH   9  10
ENDBRANCH   8   9
ENDBRANCH   7   8
ENDBRANCH   6   7
ENDBRANCH   5   6
ENDBRANCH   4   5
ENDBRANCH   3   4
ENDBRANCH   2   3
ENDBRANCH   1   2
BRANCH   1  18
ATOM     18  C   UNL     1      -5.205  39.200  22.062  1.00  0.00     0.000 C 
BRANCH  18  19
ATOM     19  C   UNL     1      -5.555  39.467  20.587  1.00  0.00     0.000 C 
BRANCH  19  20
ATOM     20  C   UNL     1      -5.599  38.222  19.686  1.00  0.00     0.000 C 
BRANCH  20  21
ATOM     21  C   UNL     1      -4.315  38.026  18.861  1.00  0.00     0.000 C 
BRANCH  21  22
ATOM     22  C   UNL     1      -3.211  37.299  19.647  1.00  0.00     0.000 C 
BRANCH  22  23
ATOM     23  C   UNL     1      -1.819  37.955  19.509  1.00  0.00     0.000 C 
BRANCH  23  24
ATOM     24  C   UNL     1      -0.900  37.177  18.555  1.00  0.00    -0.000 C 
BRANCH  24  25
ATOM     25  C   UNL     1      -1.702  36.561  17.400  1.00  0.00    -0.000 C 
BRANCH  25  26
ATOM     26  C   UNL     1      -1.469  37.288  16.065  1.00  0.00    -0.000 C 
BRANCH  26  27
ATOM     27  C   UNL     1      -2.340  36.716  14.931  1.00  0.00    -0.000 C 
BRANCH  27  28
ATOM     28  C   UNL     1      -3.717  36.226  15.417  1.00  0.00    -0.000 C 
BRANCH  28  29
ATOM     29  C   UNL     1      -3.699  35.447  16.745  1.00  0.00    -0.000 C 
BRANCH  29  30
ATOM     30  C   UNL     1      -5.011  35.587  17.539  1.00  0.00    -0.000 C 
BRANCH  30  31
ATOM     31  C   UNL     1      -5.215  34.445  18.547  1.00  0.00    -0.003 C 
ATOM     32  C   UNL     1      -6.125  33.342  18.009  1.00  0.00     0.004 C 
ENDBRANCH  30  31
ENDBRANCH  29  30
ENDBRANCH  28  29
ENDBRANCH  27  28
ENDBRANCH  26  27
ENDBRANCH  25  26
ENDBRANCH  24  25
ENDBRANCH  23  24
ENDBRANCH  22  23
ENDBRANCH  21  22
ENDBRANCH  20  21
ENDBRANCH  19  20
ENDBRANCH  18  19
ENDBRANCH   1  18
TORSDOF 28
ENDMDL
MODEL 9
REMARK VINA RESULT:     6.378      2.907      8.300
REMARK INTER + INTRA:          15.431
REMARK INTER:                  13.142
REMARK INTRA:                   2.289
REMARK UNBOUND:                -1.387
REMARK SMILES CCCCCCCCCCCCCCCCCCCCCCCCCCCCCC(=O)[O-]
REMARK SMILES IDX 16 1 17 2 18 3 19 4 20 5 21 6 22 7 23 8 24 9 25 10 26 11
REMARK SMILES IDX 27 12 28 13 29 14 30 15 31 16 32 17 15 18 14 19 13 20 12 21
REMARK SMILES IDX 11 22 10 23 9 24 8 25 7 26 6 27 5 28 4 29 3 30 2 31 1 32
REMARK H PARENT
REMARK Flexibility Score: inf
ROOT
ATOM      1  C   UNL     1      -4.985  36.226  20.339  1.00  0.00     0.000 C 
ENDROOT
BRANCH   1   2
ATOM      2  C   UNL     1      -5.754  37.484  19.877  1.00  0.00     0.000 C 
BRANCH   2   3
ATOM      3  C   UNL     1      -5.379  38.770  20.639  1.00  0.00     0.000 C 
BRANCH   3   4
ATOM      4  C   UNL     1      -4.169  38.645  21.580  1.00  0.00     0.000 C 
BRANCH   4   5
ATOM      5  C   UNL     1      -4.352  39.416  22.897  1.00  0.00     0.000 C 
BRANCH   5   6
ATOM      6  C   UNL     1      -5.732  39.138  23.511  1.00  0.00     0.000 C 
BRANCH   6   7
ATOM      7  C   UNL     1      -6.084  37.640  23.535  1.00  0.00     0.000 C 
BRANCH   7   8
ATOM      8  C   UNL     1      -4.952  36.715  24.024  1.00  0.00     0.000 C 
BRANCH   8   9
ATOM      9  C   UNL     1      -5.070  36.259  25.492  1.00  0.00     0.000 C 
BRANCH   9  10
ATOM     10  C   UNL     1      -4.460  37.225  26.524  1.00  0.00     0.000 C 
BRANCH  10  11
ATOM     11  C   UNL     1      -3.025  37.642  26.173  1.00  0.00     0.000 C 
BRANCH  11  12
ATOM     12  C   UNL     1      -2.097  37.497  27.388  1.00  0.00     0.000 C 
BRANCH  12  13
ATOM     13  C   UNL     1      -1.641  36.045  27.624  1.00  0.00     0.006 C 
BRANCH  13  14
ATOM     14  C   UNL     1      -2.448  35.292  28.694  1.00  0.00     0.053 C 
BRANCH  14  15
ATOM     15  C   UNL     1      -1.575  34.435  29.557  1.00  0.00     0.041 C 
ATOM     16  O   UNL     1      -2.056  33.846  30.560  1.00  0.00    -0.550 OA
ATOM     17  O   UNL     1      -0.237  34.254  29.228  1.00  0.00    -0.550 OA
ENDBRANCH  14  15
ENDBRANCH  13  14
ENDBRANCH  12  13
ENDBRANCH  11  12
ENDBRANCH  10  11
ENDBRANCH   9  10
ENDBRANCH   8   9
ENDBRANCH   7   8
ENDBRANCH   6   7
ENDBRANCH   5   6
ENDBRANCH   4   5
ENDBRANCH   3   4
ENDBRANCH   2   3
ENDBRANCH   1   2
BRANCH   1  18
ATOM     18  C   UNL     1      -5.865  34.962  20.356  1.00  0.00     0.000 C 
BRANCH  18  19
ATOM     19  C   UNL     1      -5.941  34.264  18.987  1.00  0.00     0.000 C 
BRANCH  19  20
ATOM     20  C   UNL     1      -5.285  35.025  17.823  1.00  0.00     0.000 C 
BRANCH  20  21
ATOM     21  C   UNL     1      -4.045  34.313  17.255  1.00  0.00     0.000 C 
BRANCH  21  22
ATOM     22  C   UNL     1      -3.013  35.292  16.672  1.00  0.00     0.000 C 
BRANCH  22  23
ATOM     23  C   UNL     1      -2.668  35.018  15.192  1.00  0.00     0.000 C 
BRANCH  23  24
ATOM     24  C   UNL     1      -2.642  36.304  14.351  1.00  0.00    -0.000 C 
BRANCH  24  25
ATOM     25  C   UNL     1      -4.057  36.696  13.902  1.00  0.00    -0.000 C 
BRANCH  25  26
ATOM     26  C   UNL     1      -4.383  38.170  14.192  1.00  0.00    -0.000 C 
BRANCH  26  27
ATOM     27  C   UNL     1      -3.500  38.751  15.312  1.00  0.00    -0.000 C 
BRANCH  27  28
ATOM     28  C   UNL     1      -3.052  37.693  16.337  1.00  0.00    -0.000 C 
BRANCH  28  29
ATOM     29  C   UNL     1      -3.328  38.053  17.808  1.00  0.00    -0.000 C 
BRANCH  29  30
ATOM     30  C   UNL     1      -2.474  37.237  18.795  1.00  0.00    -0.000 C 
BRANCH  30  31
ATOM     31  C   UNL     1      -0.967  37.384  18.531  1.00  0.00    -0.003 C 
ATOM     32  C   UNL     1      -0.523  38.845  18.454  1.00  0.00     0.004 C 
ENDBRANCH  30  31
ENDBRANCH  29  30
ENDBRANCH  28  29
ENDBRANCH  27  28
ENDBRANCH  26  27
ENDBRANCH  25  26
ENDBRANCH  24  25
ENDBRANCH  23  24
ENDBRANCH  22  23
ENDBRANCH  21  22
ENDBRANCH  20  21
ENDBRANCH  19  20
ENDBRANCH  18  19
ENDBRANCH   1  18
TORSDOF 28
ENDMDL
