MODEL 1
REMARK VINA RESULT:    -4.312      0.000      0.000
REMARK INTER + INTRA:          -8.480
REMARK INTER:                  -7.337
REMARK INTRA:                  -1.143
REMARK UNBOUND:                -1.143
REMARK SMILES CCCCCCCCCCCCCC(=O)[O-]
REMARK SMILES IDX 8 1 9 2 10 3 11 4 12 5 13 6 14 7 15 8 16 9 7 10 6 11 5 12
REMARK SMILES IDX 4 13 3 14 2 15 1 16
REMARK H PARENT
REMARK Flexibility Score: inf
ROOT
ATOM      1  C   UNL     1     -44.222 -34.218  37.696  1.00  0.00     0.000 C 
ENDROOT
BRANCH   1   2
ATOM      2  C   UNL     1     -44.526 -35.095  36.470  1.00  0.00     0.000 C 
BRANCH   2   3
ATOM      3  C   UNL     1     -44.606 -36.593  36.812  1.00  0.00     0.000 C 
BRANCH   3   4
ATOM      4  C   UNL     1     -46.021 -37.124  37.122  1.00  0.00     0.000 C 
BRANCH   4   5
ATOM      5  C   UNL     1     -46.602 -36.686  38.482  1.00  0.00     0.006 C 
BRANCH   5   6
ATOM      6  C   UNL     1     -47.973 -37.295  38.810  1.00  0.00     0.053 C 
BRANCH   6   7
ATOM      7  C   UNL     1     -47.914 -38.196  40.004  1.00  0.00     0.041 C 
ATOM      8  O   UNL     1     -46.973 -38.089  40.834  1.00  0.00    -0.550 OA
ATOM      9  O   UNL     1     -48.881 -39.177  40.184  1.00  0.00    -0.550 OA
ENDBRANCH   6   7
ENDBRANCH   5   6
ENDBRANCH   4   5
ENDBRANCH   3   4
ENDBRANCH   2   3
ENDBRANCH   1   2
BRANCH   1  10
ATOM     10  C   UNL     1     -43.274 -34.901  38.699  1.00  0.00     0.000 C 
BRANCH  10  11
ATOM     11  C   UNL     1     -42.431 -33.940  39.562  1.00  0.00    -0.000 C 
BRANCH  11  12
ATOM     12  C   UNL     1     -41.068 -33.543  38.961  1.00  0.00    -0.000 C 
BRANCH  12  13
ATOM     13  C   UNL     1     -39.901 -34.475  39.333  1.00  0.00    -0.000 C 
BRANCH  13  14
ATOM     14  C   UNL     1     -39.691 -35.603  38.308  1.00  0.00    -0.000 C 
BRANCH  14  15
ATOM     15  C   UNL     1     -39.924 -35.137  36.863  1.00  0.00    -0.003 C 
ATOM     16  C   UNL     1     -40.836 -36.080  36.078  1.00  0.00     0.004 C 
ENDBRANCH  14  15
ENDBRANCH  13  14
ENDBRANCH  12  13
ENDBRANCH  11  12
ENDBRANCH  10  11
ENDBRANCH   1  10
TORSDOF 12
ENDMDL
MODEL 2
REMARK VINA RESULT:    -4.312      3.466      6.482
REMARK INTER + INTRA:          -8.480
REMARK INTER:                  -7.202
REMARK INTRA:                  -1.278
REMARK UNBOUND:                -1.143
REMARK SMILES CCCCCCCCCCCCCC(=O)[O-]
REMARK SMILES IDX 8 1 9 2 10 3 11 4 12 5 13 6 14 7 15 8 16 9 7 10 6 11 5 12
REMARK SMILES IDX 4 13 3 14 2 15 1 16
REMARK H PARENT
REMARK Flexibility Score: inf
ROOT
ATOM      1  C   UNL     1     -44.733 -32.232  38.013  1.00  0.00     0.000 C 
ENDROOT
BRANCH   1   2
ATOM      2  C   UNL     1     -43.697 -31.815  39.071  1.00  0.00     0.000 C 
BRANCH   2   3
ATOM      3  C   UNL     1     -43.320 -32.965  40.022  1.00  0.00     0.000 C 
BRANCH   3   4
ATOM      4  C   UNL     1     -41.865 -33.466  39.906  1.00  0.00     0.000 C 
BRANCH   4   5
ATOM      5  C   UNL     1     -41.685 -34.776  39.113  1.00  0.00     0.006 C 
BRANCH   5   6
ATOM      6  C   UNL     1     -40.844 -34.631  37.835  1.00  0.00     0.053 C 
BRANCH   6   7
ATOM      7  C   UNL     1     -39.662 -35.549  37.836  1.00  0.00     0.041 C 
ATOM      8  O   UNL     1     -39.203 -35.992  38.923  1.00  0.00    -0.550 OA
ATOM      9  O   UNL     1     -39.044 -35.890  36.639  1.00  0.00    -0.550 OA
ENDBRANCH   6   7
ENDBRANCH   5   6
ENDBRANCH   4   5
ENDBRANCH   3   4
ENDBRANCH   2   3
ENDBRANCH   1   2
BRANCH   1  10
ATOM     10  C   UNL     1     -45.028 -33.742  38.028  1.00  0.00     0.000 C 
BRANCH  10  11
ATOM     11  C   UNL     1     -45.204 -34.389  36.639  1.00  0.00    -0.000 C 
BRANCH  11  12
ATOM     12  C   UNL     1     -44.195 -35.505  36.301  1.00  0.00    -0.000 C 
BRANCH  12  13
ATOM     13  C   UNL     1     -44.593 -36.908  36.793  1.00  0.00    -0.000 C 
BRANCH  13  14
ATOM     14  C   UNL     1     -46.106 -37.045  37.036  1.00  0.00    -0.000 C 
BRANCH  14  15
ATOM     15  C   UNL     1     -46.441 -37.345  38.505  1.00  0.00    -0.003 C 
ATOM     16  C   UNL     1     -47.945 -37.351  38.778  1.00  0.00     0.004 C 
ENDBRANCH  14  15
ENDBRANCH  13  14
ENDBRANCH  12  13
ENDBRANCH  11  12
ENDBRANCH  10  11
ENDBRANCH   1  10
TORSDOF 12
ENDMDL
MODEL 3
REMARK VINA RESULT:    -4.203      2.837      3.923
REMARK INTER + INTRA:          -8.293
REMARK INTER:                  -6.825
REMARK INTRA:                  -1.469
REMARK UNBOUND:                -1.143
REMARK SMILES CCCCCCCCCCCCCC(=O)[O-]
REMARK SMILES IDX 8 1 9 2 10 3 11 4 12 5 13 6 14 7 15 8 16 9 7 10 6 11 5 12
REMARK SMILES IDX 4 13 3 14 2 15 1 16
REMARK H PARENT
REMARK Flexibility Score: inf
ROOT
ATOM      1  C   UNL     1     -45.627 -37.680  37.010  1.00  0.00     0.000 C 
ENDROOT
BRANCH   1   2
ATOM      2  C   UNL     1     -46.647 -37.029  37.958  1.00  0.00     0.000 C 
BRANCH   2   3
ATOM      3  C   UNL     1     -46.206 -37.072  39.432  1.00  0.00     0.000 C 
BRANCH   3   4
ATOM      4  C   UNL     1     -46.979 -36.131  40.379  1.00  0.00     0.000 C 
BRANCH   4   5
ATOM      5  C   UNL     1     -46.854 -34.629  40.056  1.00  0.00     0.006 C 
BRANCH   5   6
ATOM      6  C   UNL     1     -48.196 -33.892  39.938  1.00  0.00     0.053 C 
BRANCH   6   7
ATOM      7  C   UNL     1     -48.148 -32.801  38.914  1.00  0.00     0.041 C 
ATOM      8  O   UNL     1     -48.941 -31.825  38.988  1.00  0.00    -0.550 OA
ATOM      9  O   UNL     1     -47.249 -32.878  37.857  1.00  0.00    -0.550 OA
ENDBRANCH   6   7
ENDBRANCH   5   6
ENDBRANCH   4   5
ENDBRANCH   3   4
ENDBRANCH   2   3
ENDBRANCH   1   2
BRANCH   1  10
ATOM     10  C   UNL     1     -44.485 -36.726  36.615  1.00  0.00     0.000 C 
BRANCH  10  11
ATOM     11  C   UNL     1     -44.862 -35.231  36.583  1.00  0.00    -0.000 C 
BRANCH  11  12
ATOM     12  C   UNL     1     -44.112 -34.342  37.594  1.00  0.00    -0.000 C 
BRANCH  12  13
ATOM     13  C   UNL     1     -43.002 -35.057  38.385  1.00  0.00    -0.000 C 
BRANCH  13  14
ATOM     14  C   UNL     1     -41.644 -34.341  38.283  1.00  0.00    -0.000 C 
BRANCH  14  15
ATOM     15  C   UNL     1     -40.547 -35.241  37.694  1.00  0.00    -0.003 C 
ATOM     16  C   UNL     1     -40.854 -35.685  36.264  1.00  0.00     0.004 C 
ENDBRANCH  14  15
ENDBRANCH  13  14
ENDBRANCH  12  13
ENDBRANCH  11  12
ENDBRANCH  10  11
ENDBRANCH   1  10
TORSDOF 12
ENDMDL
MODEL 4
REMARK VINA RESULT:    -4.199      1.474      2.215
REMARK INTER + INTRA:          -8.287
REMARK INTER:                  -6.963
REMARK INTRA:                  -1.324
REMARK UNBOUND:                -1.143
REMARK SMILES CCCCCCCCCCCCCC(=O)[O-]
REMARK SMILES IDX 8 1 9 2 10 3 11 4 12 5 13 6 14 7 15 8 16 9 7 10 6 11 5 12
REMARK SMILES IDX 4 13 3 14 2 15 1 16
REMARK H PARENT
REMARK Flexibility Score: inf
ROOT
ATOM      1  C   UNL     1     -44.693 -33.513  39.451  1.00  0.00     0.000 C 
ENDROOT
BRANCH   1   2
ATOM      2  C   UNL     1     -45.698 -32.991  38.411  1.00  0.00     0.000 C 
BRANCH   2   3
ATOM      3  C   UNL     1     -45.450 -33.557  37.002  1.00  0.00     0.000 C 
BRANCH   3   4
ATOM      4  C   UNL     1     -44.662 -34.882  36.954  1.00  0.00     0.000 C 
BRANCH   4   5
ATOM      5  C   UNL     1     -45.526 -36.159  36.952  1.00  0.00     0.006 C 
BRANCH   5   6
ATOM      6  C   UNL     1     -45.663 -36.834  38.325  1.00  0.00     0.053 C 
BRANCH   6   7
ATOM      7  C   UNL     1     -47.050 -36.706  38.875  1.00  0.00     0.041 C 
ATOM      8  O   UNL     1     -47.993 -37.381  38.384  1.00  0.00    -0.550 OA
ATOM      9  O   UNL     1     -47.308 -35.815  39.910  1.00  0.00    -0.550 OA
ENDBRANCH   6   7
ENDBRANCH   5   6
ENDBRANCH   4   5
ENDBRANCH   3   4
ENDBRANCH   2   3
ENDBRANCH   1   2
BRANCH   1  10
ATOM     10  C   UNL     1     -43.723 -32.425  39.944  1.00  0.00     0.000 C 
BRANCH  10  11
ATOM     11  C   UNL     1     -42.270 -32.894  40.167  1.00  0.00    -0.000 C 
BRANCH  11  12
ATOM     12  C   UNL     1     -41.484 -33.229  38.884  1.00  0.00    -0.000 C 
BRANCH  12  13
ATOM     13  C   UNL     1     -41.317 -34.732  38.600  1.00  0.00    -0.000 C 
BRANCH  13  14
ATOM     14  C   UNL     1     -39.871 -35.111  38.236  1.00  0.00    -0.000 C 
BRANCH  14  15
ATOM     15  C   UNL     1     -39.758 -35.717  36.829  1.00  0.00    -0.003 C 
ATOM     16  C   UNL     1     -41.100 -35.762  36.097  1.00  0.00     0.004 C 
ENDBRANCH  14  15
ENDBRANCH  13  14
ENDBRANCH  12  13
ENDBRANCH  11  12
ENDBRANCH  10  11
ENDBRANCH   1  10
TORSDOF 12
ENDMDL
MODEL 5
REMARK VINA RESULT:    -4.187      2.450      3.967
REMARK INTER + INTRA:          -8.268
REMARK INTER:                  -6.957
REMARK INTRA:                  -1.311
REMARK UNBOUND:                -1.143
REMARK SMILES CCCCCCCCCCCCCC(=O)[O-]
REMARK SMILES IDX 8 1 9 2 10 3 11 4 12 5 13 6 14 7 15 8 16 9 7 10 6 11 5 12
REMARK SMILES IDX 4 13 3 14 2 15 1 16
REMARK H PARENT
REMARK Flexibility Score: inf
ROOT
ATOM      1  C   UNL     1     -45.639 -37.967  37.532  1.00  0.00     0.000 C 
ENDROOT
BRANCH   1   2
ATOM      2  C   UNL     1     -46.817 -36.998  37.727  1.00  0.00     0.000 C 
BRANCH   2   3
ATOM      3  C   UNL     1     -47.045 -36.624  39.203  1.00  0.00     0.000 C 
BRANCH   3   4
ATOM      4  C   UNL     1     -45.818 -36.795  40.122  1.00  0.00     0.000 C 
BRANCH   4   5
ATOM      5  C   UNL     1     -44.941 -35.538  40.287  1.00  0.00     0.006 C 
BRANCH   5   6
ATOM      6  C   UNL     1     -45.604 -34.237  39.809  1.00  0.00     0.053 C 
BRANCH   6   7
ATOM      7  C   UNL     1     -46.073 -33.394  40.954  1.00  0.00     0.041 C 
ATOM      8  O   UNL     1     -46.971 -33.819  41.729  1.00  0.00    -0.550 OA
ATOM      9  O   UNL     1     -45.543 -32.124  41.146  1.00  0.00    -0.550 OA
ENDBRANCH   6   7
ENDBRANCH   5   6
ENDBRANCH   4   5
ENDBRANCH   3   4
ENDBRANCH   2   3
ENDBRANCH   1   2
BRANCH   1  10
ATOM     10  C   UNL     1     -44.629 -37.474  36.480  1.00  0.00     0.000 C 
BRANCH  10  11
ATOM     11  C   UNL     1     -44.356 -35.956  36.494  1.00  0.00    -0.000 C 
BRANCH  11  12
ATOM     12  C   UNL     1     -42.948 -35.546  36.968  1.00  0.00    -0.000 C 
BRANCH  12  13
ATOM     13  C   UNL     1     -41.872 -35.534  35.868  1.00  0.00    -0.000 C 
BRANCH  13  14
ATOM     14  C   UNL     1     -40.474 -35.892  36.399  1.00  0.00    -0.000 C 
BRANCH  14  15
ATOM     15  C   UNL     1     -39.964 -34.883  37.439  1.00  0.00    -0.003 C 
ATOM     16  C   UNL     1     -39.462 -35.556  38.717  1.00  0.00     0.004 C 
ENDBRANCH  14  15
ENDBRANCH  13  14
ENDBRANCH  12  13
ENDBRANCH  11  12
ENDBRANCH  10  11
ENDBRANCH   1  10
TORSDOF 12
ENDMDL
MODEL 6
REMARK VINA RESULT:    -4.108      7.230      9.573
REMARK INTER + INTRA:          -8.133
REMARK INTER:                  -6.292
REMARK INTRA:                  -1.841
REMARK UNBOUND:                -1.143
REMARK SMILES CCCCCCCCCCCCCC(=O)[O-]
REMARK SMILES IDX 8 1 9 2 10 3 11 4 12 5 13 6 14 7 15 8 16 9 7 10 6 11 5 12
REMARK SMILES IDX 4 13 3 14 2 15 1 16
REMARK H PARENT
REMARK Flexibility Score: inf
ROOT
ATOM      1  C   UNL     1     -38.937 -26.464  40.516  1.00  0.00     0.000 C 
ENDROOT
BRANCH   1   2
ATOM      2  C   UNL     1     -39.681 -27.531  41.336  1.00  0.00     0.000 C 
BRANCH   2   3
ATOM      3  C   UNL     1     -40.604 -28.411  40.474  1.00  0.00     0.000 C 
BRANCH   3   4
ATOM      4  C   UNL     1     -41.897 -28.887  41.168  1.00  0.00     0.000 C 
BRANCH   4   5
ATOM      5  C   UNL     1     -42.933 -29.552  40.240  1.00  0.00     0.006 C 
BRANCH   5   6
ATOM      6  C   UNL     1     -42.612 -31.009  39.874  1.00  0.00     0.053 C 
BRANCH   6   7
ATOM      7  C   UNL     1     -43.401 -31.475  38.689  1.00  0.00     0.041 C 
ATOM      8  O   UNL     1     -43.932 -30.639  37.912  1.00  0.00    -0.550 OA
ATOM      9  O   UNL     1     -43.577 -32.835  38.462  1.00  0.00    -0.550 OA
ENDBRANCH   6   7
ENDBRANCH   5   6
ENDBRANCH   4   5
ENDBRANCH   3   4
ENDBRANCH   2   3
ENDBRANCH   1   2
BRANCH   1  10
ATOM     10  C   UNL     1     -39.179 -25.035  41.036  1.00  0.00     0.000 C 
BRANCH  10  11
ATOM     11  C   UNL     1     -40.391 -24.876  41.976  1.00  0.00    -0.000 C 
BRANCH  11  12
ATOM     12  C   UNL     1     -41.646 -24.256  41.330  1.00  0.00    -0.000 C 
BRANCH  12  13
ATOM     13  C   UNL     1     -42.894 -25.156  41.344  1.00  0.00    -0.000 C 
BRANCH  13  14
ATOM     14  C   UNL     1     -43.199 -25.771  39.968  1.00  0.00    -0.000 C 
BRANCH  14  15
ATOM     15  C   UNL     1     -42.191 -25.338  38.893  1.00  0.00    -0.003 C 
ATOM     16  C   UNL     1     -42.057 -26.360  37.764  1.00  0.00     0.004 C 
ENDBRANCH  14  15
ENDBRANCH  13  14
ENDBRANCH  12  13
ENDBRANCH  11  12
ENDBRANCH  10  11
ENDBRANCH   1  10
TORSDOF 12
ENDMDL
MODEL 7
REMARK VINA RESULT:    -4.080      1.971      3.189
REMARK INTER + INTRA:          -8.084
REMARK INTER:                  -6.611
REMARK INTRA:                  -1.474
REMARK UNBOUND:                -1.143
REMARK SMILES CCCCCCCCCCCCCC(=O)[O-]
REMARK SMILES IDX 8 1 9 2 10 3 11 4 12 5 13 6 14 7 15 8 16 9 7 10 6 11 5 12
REMARK SMILES IDX 4 13 3 14 2 15 1 16
REMARK H PARENT
REMARK Flexibility Score: inf
ROOT
ATOM      1  C   UNL     1     -43.314 -36.140  36.529  1.00  0.00     0.000 C 
ENDROOT
BRANCH   1   2
ATOM      2  C   UNL     1     -44.184 -35.322  37.497  1.00  0.00     0.000 C 
BRANCH   2   3
ATOM      3  C   UNL     1     -45.033 -34.255  36.781  1.00  0.00     0.000 C 
BRANCH   3   4
ATOM      4  C   UNL     1     -45.316 -32.980  37.601  1.00  0.00     0.000 C 
BRANCH   4   5
ATOM      5  C   UNL     1     -45.925 -33.219  38.997  1.00  0.00     0.006 C 
BRANCH   5   6
ATOM      6  C   UNL     1     -47.348 -33.797  38.976  1.00  0.00     0.053 C 
BRANCH   6   7
ATOM      7  C   UNL     1     -47.497 -34.949  39.922  1.00  0.00     0.041 C 
ATOM      8  O   UNL     1     -46.547 -35.759  40.091  1.00  0.00    -0.550 OA
ATOM      9  O   UNL     1     -48.698 -35.147  40.592  1.00  0.00    -0.550 OA
ENDBRANCH   6   7
ENDBRANCH   5   6
ENDBRANCH   4   5
ENDBRANCH   3   4
ENDBRANCH   2   3
ENDBRANCH   1   2
BRANCH   1  10
ATOM     10  C   UNL     1     -42.057 -35.381  36.067  1.00  0.00     0.000 C 
BRANCH  10  11
ATOM     11  C   UNL     1     -40.748 -36.194  36.108  1.00  0.00    -0.000 C 
BRANCH  11  12
ATOM     12  C   UNL     1     -39.582 -35.525  36.863  1.00  0.00    -0.000 C 
BRANCH  12  13
ATOM     13  C   UNL     1     -39.626 -35.680  38.393  1.00  0.00    -0.000 C 
BRANCH  13  14
ATOM     14  C   UNL     1     -39.760 -34.334  39.124  1.00  0.00    -0.000 C 
BRANCH  14  15
ATOM     15  C   UNL     1     -41.208 -34.027  39.533  1.00  0.00    -0.003 C 
ATOM     16  C   UNL     1     -41.754 -32.763  38.867  1.00  0.00     0.004 C 
ENDBRANCH  14  15
ENDBRANCH  13  14
ENDBRANCH  12  13
ENDBRANCH  11  12
ENDBRANCH  10  11
ENDBRANCH   1  10
TORSDOF 12
ENDMDL
MODEL 8
REMARK VINA RESULT:    -4.041      2.929      6.248
REMARK INTER + INTRA:          -8.019
REMARK INTER:                  -6.985
REMARK INTRA:                  -1.034
REMARK UNBOUND:                -1.143
REMARK SMILES CCCCCCCCCCCCCC(=O)[O-]
REMARK SMILES IDX 8 1 9 2 10 3 11 4 12 5 13 6 14 7 15 8 16 9 7 10 6 11 5 12
REMARK SMILES IDX 4 13 3 14 2 15 1 16
REMARK H PARENT
REMARK Flexibility Score: inf
ROOT
ATOM      1  C   UNL     1     -41.734 -35.513  35.736  1.00  0.00     0.000 C 
ENDROOT
BRANCH   1   2
ATOM      2  C   UNL     1     -40.435 -35.860  36.483  1.00  0.00     0.000 C 
BRANCH   2   3
ATOM      3  C   UNL     1     -39.983 -34.746  37.444  1.00  0.00     0.000 C 
BRANCH   3   4
ATOM      4  C   UNL     1     -40.688 -34.734  38.816  1.00  0.00     0.000 C 
BRANCH   4   5
ATOM      5  C   UNL     1     -41.482 -33.451  39.134  1.00  0.00     0.006 C 
BRANCH   5   6
ATOM      6  C   UNL     1     -42.991 -33.669  39.317  1.00  0.00     0.053 C 
BRANCH   6   7
ATOM      7  C   UNL     1     -43.762 -32.393  39.175  1.00  0.00     0.041 C 
ATOM      8  O   UNL     1     -43.772 -31.550  40.110  1.00  0.00    -0.550 OA
ATOM      9  O   UNL     1     -44.496 -32.149  38.021  1.00  0.00    -0.550 OA
ENDBRANCH   6   7
ENDBRANCH   5   6
ENDBRANCH   4   5
ENDBRANCH   3   4
ENDBRANCH   2   3
ENDBRANCH   1   2
BRANCH   1  10
ATOM     10  C   UNL     1     -42.997 -35.945  36.501  1.00  0.00     0.000 C 
BRANCH  10  11
ATOM     11  C   UNL     1     -44.270 -35.140  36.172  1.00  0.00    -0.000 C 
BRANCH  11  12
ATOM     12  C   UNL     1     -45.533 -35.559  36.951  1.00  0.00    -0.000 C 
BRANCH  12  13
ATOM     13  C   UNL     1     -45.699 -37.076  37.145  1.00  0.00    -0.000 C 
BRANCH  13  14
ATOM     14  C   UNL     1     -46.946 -37.437  37.971  1.00  0.00    -0.000 C 
BRANCH  14  15
ATOM     15  C   UNL     1     -47.221 -36.424  39.093  1.00  0.00    -0.003 C 
ATOM     16  C   UNL     1     -47.826 -37.073  40.338  1.00  0.00     0.004 C 
ENDBRANCH  14  15
ENDBRANCH  13  14
ENDBRANCH  12  13
ENDBRANCH  11  12
ENDBRANCH  10  11
ENDBRANCH   1  10
TORSDOF 12
ENDMDL
MODEL 9
REMARK VINA RESULT:    -3.967      3.207      5.811
REMARK INTER + INTRA:          -7.893
REMARK INTER:                  -6.062
REMARK INTRA:                  -1.832
REMARK UNBOUND:                -1.143
REMARK SMILES CCCCCCCCCCCCCC(=O)[O-]
REMARK SMILES IDX 8 1 9 2 10 3 11 4 12 5 13 6 14 7 15 8 16 9 7 10 6 11 5 12
REMARK SMILES IDX 4 13 3 14 2 15 1 16
REMARK H PARENT
REMARK Flexibility Score: inf
ROOT
ATOM      1  C   UNL     1     -46.412 -37.754  38.858  1.00  0.00     0.000 C 
ENDROOT
BRANCH   1   2
ATOM      2  C   UNL     1     -46.385 -37.432  37.355  1.00  0.00     0.000 C 
BRANCH   2   3
ATOM      3  C   UNL     1     -44.971 -37.117  36.836  1.00  0.00     0.000 C 
BRANCH   3   4
ATOM      4  C   UNL     1     -44.700 -35.631  36.521  1.00  0.00     0.000 C 
BRANCH   4   5
ATOM      5  C   UNL     1     -43.319 -35.108  36.961  1.00  0.00     0.006 C 
BRANCH   5   6
ATOM      6  C   UNL     1     -43.249 -34.663  38.430  1.00  0.00     0.053 C 
BRANCH   6   7
ATOM      7  C   UNL     1     -41.856 -34.290  38.835  1.00  0.00     0.041 C 
ATOM      8  O   UNL     1     -41.040 -35.179  39.195  1.00  0.00    -0.550 OA
ATOM      9  O   UNL     1     -41.469 -32.955  38.848  1.00  0.00    -0.550 OA
ENDBRANCH   6   7
ENDBRANCH   5   6
ENDBRANCH   4   5
ENDBRANCH   3   4
ENDBRANCH   2   3
ENDBRANCH   1   2
BRANCH   1  10
ATOM     10  C   UNL     1     -46.290 -36.499  39.741  1.00  0.00     0.000 C 
BRANCH  10  11
ATOM     11  C   UNL     1     -47.117 -35.285  39.270  1.00  0.00    -0.000 C 
BRANCH  11  12
ATOM     12  C   UNL     1     -46.978 -34.019  40.139  1.00  0.00    -0.000 C 
BRANCH  12  13
ATOM     13  C   UNL     1     -46.637 -32.736  39.362  1.00  0.00    -0.000 C 
BRANCH  13  14
ATOM     14  C   UNL     1     -46.898 -32.868  37.852  1.00  0.00    -0.000 C 
BRANCH  14  15
ATOM     15  C   UNL     1     -45.877 -32.089  37.007  1.00  0.00    -0.003 C 
ATOM     16  C   UNL     1     -44.825 -31.381  37.861  1.00  0.00     0.004 C 
ENDBRANCH  14  15
ENDBRANCH  13  14
ENDBRANCH  12  13
ENDBRANCH  11  12
ENDBRANCH  10  11
ENDBRANCH   1  10
TORSDOF 12
ENDMDL
