MODEL 1
REMARK VINA RESULT:    -6.754      0.000      0.000
REMARK INTER + INTRA:         -13.933
REMARK INTER:                 -11.097
REMARK INTRA:                  -2.836
REMARK UNBOUND:                -2.836
REMARK SMILES C[C@@H]1O[C@@H](OC[C@@H]2O[C@@H](Oc3c(-c4ccc(O)c(O)c4)oc4cc(O)cc(O)c4c3=O)[C@@H](O)[C@@H](O)[C@H]2O)[C@H](O)[C@H](O)[C@H]1O
REMARK SMILES IDX 7 1 36 2 34 3 32 4 9 5 8 6 6 7 5 8 4 9 1 10 2 11 42 12 3 13
REMARK SMILES IDX 40 14 38 15 43 16 41 18 39 20 37 22 35 24 10 26 11 27 12 28
REMARK SMILES IDX 30 29 21 30 29 31 31 32 22 33 27 34 23 35 26 36 24 37 13 38
REMARK SMILES IDX 20 39 14 40 18 41 15 42 16 43 19 44 17 46 28 48 25 50 33 52
REMARK H PARENT 43 17 41 19 39 21 37 23 35 25 19 45 17 47 28 49 25 51 33 53
REMARK Flexibility Score: inf
ROOT
ATOM      1  C   UNL     1      13.534 -34.505  -1.818  1.00  0.00     0.180 C 
ATOM      2  C   UNL     1      12.458 -33.406  -1.674  1.00  0.00     0.177 C 
ATOM      3  C   UNL     1      11.156 -33.869  -2.352  1.00  0.00     0.180 C 
ATOM      4  C   UNL     1      11.448 -34.313  -3.792  1.00  0.00     0.214 C 
ATOM      5  C   UNL     1      12.630 -35.308  -3.846  1.00  0.00     0.339 C 
ATOM      6  O   UNL     1      13.775 -34.794  -3.186  1.00  0.00    -0.332 OA
ENDROOT
BRANCH   1   7
ATOM      7  C   UNL     1      14.873 -34.112  -1.153  1.00  0.00     0.198 C 
BRANCH   7   8
ATOM      8  O   UNL     1      15.357 -35.128  -0.290  1.00  0.00    -0.347 OA
BRANCH   8   9
ATOM      9  C   UNL     1      15.746 -34.640   0.985  1.00  0.00     0.281 C 
ATOM     10  C   UNL     1      17.050 -37.764   2.446  1.00  0.00     0.041 C 
ATOM     11  C   UNL     1      16.002 -36.820   1.851  1.00  0.00     0.150 C 
ATOM     12  C   UNL     1      14.780 -36.696   2.790  1.00  0.00     0.174 C 
ATOM     13  O   UNL     1      16.614 -35.557   1.637  1.00  0.00    -0.344 OA
ATOM     14  C   UNL     1      13.780 -35.694   2.199  1.00  0.00     0.179 C 
ATOM     15  C   UNL     1      14.481 -34.373   1.832  1.00  0.00     0.202 C 
BRANCH  12  16
ATOM     16  O   UNL     1      14.143 -37.943   2.928  1.00  0.00    -0.388 OA
ATOM     17  H   UNL     1      13.499 -38.028   2.177  1.00  0.00     0.211 HD
ENDBRANCH  12  16
BRANCH  14  18
ATOM     18  O   UNL     1      12.748 -35.455   3.121  1.00  0.00    -0.387 OA
ATOM     19  H   UNL     1      12.059 -34.920   2.644  1.00  0.00     0.211 HD
ENDBRANCH  14  18
BRANCH  15  20
ATOM     20  O   UNL     1      14.779 -33.616   2.979  1.00  0.00    -0.385 OA
ATOM     21  H   UNL     1      13.938 -33.210   3.317  1.00  0.00     0.211 HD
ENDBRANCH  15  20
ENDBRANCH   8   9
ENDBRANCH   7   8
ENDBRANCH   1   7
BRANCH   2  22
ATOM     22  O   UNL     1      12.215 -33.143  -0.314  1.00  0.00    -0.387 OA
ATOM     23  H   UNL     1      12.666 -32.284  -0.097  1.00  0.00     0.211 HD
ENDBRANCH   2  22
BRANCH   3  24
ATOM     24  O   UNL     1      10.573 -34.929  -1.638  1.00  0.00    -0.387 OA
ATOM     25  H   UNL     1      11.301 -35.362  -1.122  1.00  0.00     0.211 HD
ENDBRANCH   3  24
BRANCH   5  26
ATOM     26  O   UNL     1      12.250 -36.595  -3.336  1.00  0.00    -0.454 OA
BRANCH  26  27
ATOM     27  C   UNL     1      12.418 -37.835  -3.988  1.00  0.00     0.214 A 
ATOM     28  C   UNL     1      13.545 -38.682  -3.825  1.00  0.00     0.180 A 
ATOM     29  C   UNL     1      11.376 -38.271  -4.816  1.00  0.00     0.239 A 
ATOM     30  O   UNL     1      13.544 -39.894  -4.372  1.00  0.00    -0.452 OA
ATOM     31  C   UNL     1      11.423 -39.551  -5.400  1.00  0.00     0.111 A 
ATOM     32  O   UNL     1      10.385 -37.511  -5.002  1.00  0.00    -0.285 OA
ATOM     33  C   UNL     1      12.553 -40.356  -5.125  1.00  0.00     0.146 A 
ATOM     34  C   UNL     1      10.393 -40.064  -6.225  1.00  0.00     0.134 A 
ATOM     35  C   UNL     1      12.646 -41.645  -5.657  1.00  0.00     0.094 A 
ATOM     36  C   UNL     1      10.503 -41.358  -6.751  1.00  0.00     0.093 A 
ATOM     37  C   UNL     1      11.622 -42.148  -6.471  1.00  0.00     0.123 A 
BRANCH  28  38
ATOM     38  C   UNL     1      14.766 -38.276  -3.110  1.00  0.00     0.025 A 
ATOM     39  C   UNL     1      15.709 -37.442  -3.730  1.00  0.00     0.062 A 
ATOM     40  C   UNL     1      15.037 -38.796  -1.837  1.00  0.00     0.016 A 
ATOM     41  C   UNL     1      16.891 -37.092  -3.068  1.00  0.00     0.158 A 
ATOM     42  C   UNL     1      16.210 -38.443  -1.168  1.00  0.00     0.051 A 
ATOM     43  C   UNL     1      17.138 -37.586  -1.773  1.00  0.00     0.157 A 
BRANCH  41  44
ATOM     44  O   UNL     1      17.806 -36.260  -3.711  1.00  0.00    -0.504 OA
ATOM     45  H   UNL     1      18.185 -36.484  -4.624  1.00  0.00     0.293 HD
ENDBRANCH  41  44
BRANCH  43  46
ATOM     46  O   UNL     1      18.301 -37.224  -1.096  1.00  0.00    -0.504 OA
ATOM     47  H   UNL     1      18.272 -36.784  -0.185  1.00  0.00     0.293 HD
ENDBRANCH  43  46
ENDBRANCH  28  38
BRANCH  34  48
ATOM     48  O   UNL     1       9.264 -39.297  -6.524  1.00  0.00    -0.507 OA
ATOM     49  H   UNL     1       8.638 -39.541  -7.282  1.00  0.00     0.293 HD
ENDBRANCH  34  48
BRANCH  37  50
ATOM     50  O   UNL     1      11.705 -43.431  -7.011  1.00  0.00    -0.508 OA
ATOM     51  H   UNL     1      12.181 -44.181  -6.523  1.00  0.00     0.293 HD
ENDBRANCH  37  50
ENDBRANCH  26  27
ENDBRANCH   5  26
BRANCH   4  52
ATOM     52  O   UNL     1      10.297 -34.882  -4.358  1.00  0.00    -0.384 OA
ATOM     53  H   UNL     1       9.520 -34.379  -4.004  1.00  0.00     0.211 HD
ENDBRANCH   4  52
TORSDOF 16
ENDMDL
MODEL 2
REMARK VINA RESULT:    -6.626      1.936      7.307
REMARK INTER + INTRA:         -13.722
REMARK INTER:                 -11.272
REMARK INTRA:                  -2.451
REMARK UNBOUND:                -2.836
REMARK SMILES C[C@@H]1O[C@@H](OC[C@@H]2O[C@@H](Oc3c(-c4ccc(O)c(O)c4)oc4cc(O)cc(O)c4c3=O)[C@@H](O)[C@@H](O)[C@H]2O)[C@H](O)[C@H](O)[C@H]1O
REMARK SMILES IDX 7 1 36 2 34 3 32 4 9 5 8 6 6 7 5 8 4 9 1 10 2 11 42 12 3 13
REMARK SMILES IDX 40 14 38 15 43 16 41 18 39 20 37 22 35 24 10 26 11 27 12 28
REMARK SMILES IDX 30 29 21 30 29 31 31 32 22 33 27 34 23 35 26 36 24 37 13 38
REMARK SMILES IDX 20 39 14 40 18 41 15 42 16 43 19 44 17 46 28 48 25 50 33 52
REMARK H PARENT 43 17 41 19 39 21 37 23 35 25 19 45 17 47 28 49 25 51 33 53
REMARK Flexibility Score: inf
ROOT
ATOM      1  C   UNL     1      10.124 -36.575  -3.258  1.00  0.00     0.180 C 
ATOM      2  C   UNL     1       9.145 -35.595  -3.942  1.00  0.00     0.177 C 
ATOM      3  C   UNL     1       9.765 -34.185  -3.971  1.00  0.00     0.180 C 
ATOM      4  C   UNL     1      10.211 -33.784  -2.559  1.00  0.00     0.214 C 
ATOM      5  C   UNL     1      11.073 -34.889  -1.905  1.00  0.00     0.339 C 
ATOM      6  O   UNL     1      10.420 -36.147  -1.938  1.00  0.00    -0.332 OA
ENDROOT
BRANCH   1   7
ATOM      7  C   UNL     1       9.570 -38.017  -3.199  1.00  0.00     0.198 C 
BRANCH   7   8
ATOM      8  O   UNL     1      10.518 -38.971  -3.650  1.00  0.00    -0.347 OA
BRANCH   8   9
ATOM      9  C   UNL     1      11.183 -38.576  -4.842  1.00  0.00     0.281 C 
ATOM     10  C   UNL     1       8.926 -40.116  -7.318  1.00  0.00     0.041 C 
ATOM     11  C   UNL     1       9.923 -40.077  -6.157  1.00  0.00     0.150 C 
ATOM     12  C   UNL     1      11.134 -40.995  -6.443  1.00  0.00     0.174 C 
ATOM     13  O   UNL     1      10.334 -38.730  -5.971  1.00  0.00    -0.344 OA
ATOM     14  C   UNL     1      12.144 -40.883  -5.295  1.00  0.00     0.179 C 
ATOM     15  C   UNL     1      12.476 -39.408  -4.999  1.00  0.00     0.202 C 
BRANCH  12  16
ATOM     16  O   UNL     1      10.715 -42.335  -6.549  1.00  0.00    -0.388 OA
ATOM     17  H   UNL     1      10.222 -42.420  -7.407  1.00  0.00     0.211 HD
ENDBRANCH  12  16
BRANCH  14  18
ATOM     18  O   UNL     1      13.314 -41.586  -5.623  1.00  0.00    -0.387 OA
ATOM     19  H   UNL     1      13.840 -41.671  -4.784  1.00  0.00     0.211 HD
ENDBRANCH  14  18
BRANCH  15  20
ATOM     20  O   UNL     1      13.320 -38.867  -5.985  1.00  0.00    -0.385 OA
ATOM     21  H   UNL     1      13.304 -39.464  -6.778  1.00  0.00     0.211 HD
ENDBRANCH  15  20
ENDBRANCH   8   9
ENDBRANCH   7   8
ENDBRANCH   1   7
BRANCH   2  22
ATOM     22  O   UNL     1       8.875 -36.019  -5.256  1.00  0.00    -0.387 OA
ATOM     23  H   UNL     1       8.504 -36.940  -5.196  1.00  0.00     0.211 HD
ENDBRANCH   2  22
BRANCH   3  24
ATOM     24  O   UNL     1      10.862 -34.143  -4.846  1.00  0.00    -0.387 OA
ATOM     25  H   UNL     1      10.522 -34.387  -5.746  1.00  0.00     0.211 HD
ENDBRANCH   3  24
BRANCH   5  26
ATOM     26  O   UNL     1      12.379 -34.947  -2.496  1.00  0.00    -0.454 OA
BRANCH  26  27
ATOM     27  C   UNL     1      13.513 -35.590  -1.955  1.00  0.00     0.214 A 
ATOM     28  C   UNL     1      13.941 -35.465  -0.607  1.00  0.00     0.180 A 
ATOM     29  C   UNL     1      14.233 -36.442  -2.802  1.00  0.00     0.239 A 
ATOM     30  O   UNL     1      14.938 -36.223  -0.159  1.00  0.00    -0.452 OA
ATOM     31  C   UNL     1      15.300 -37.208  -2.296  1.00  0.00     0.111 A 
ATOM     32  O   UNL     1      13.888 -36.532  -4.013  1.00  0.00    -0.285 OA
ATOM     33  C   UNL     1      15.612 -37.073  -0.924  1.00  0.00     0.146 A 
ATOM     34  C   UNL     1      16.052 -38.107  -3.091  1.00  0.00     0.134 A 
ATOM     35  C   UNL     1      16.646 -37.825  -0.358  1.00  0.00     0.094 A 
ATOM     36  C   UNL     1      17.086 -38.852  -2.508  1.00  0.00     0.093 A 
ATOM     37  C   UNL     1      17.385 -38.715  -1.149  1.00  0.00     0.123 A 
BRANCH  28  38
ATOM     38  C   UNL     1      13.367 -34.492   0.337  1.00  0.00     0.025 A 
ATOM     39  C   UNL     1      13.997 -33.258   0.555  1.00  0.00     0.062 A 
ATOM     40  C   UNL     1      12.237 -34.834   1.093  1.00  0.00     0.016 A 
ATOM     41  C   UNL     1      13.478 -32.351   1.486  1.00  0.00     0.158 A 
ATOM     42  C   UNL     1      11.710 -33.929   2.016  1.00  0.00     0.051 A 
ATOM     43  C   UNL     1      12.319 -32.683   2.213  1.00  0.00     0.157 A 
BRANCH  41  44
ATOM     44  O   UNL     1      14.127 -31.132   1.678  1.00  0.00    -0.504 OA
ATOM     45  H   UNL     1      15.134 -31.069   1.767  1.00  0.00     0.293 HD
ENDBRANCH  41  44
BRANCH  43  46
ATOM     46  O   UNL     1      11.781 -31.778   3.125  1.00  0.00    -0.504 OA
ATOM     47  H   UNL     1      12.368 -31.216   3.728  1.00  0.00     0.293 HD
ENDBRANCH  43  46
ENDBRANCH  28  38
BRANCH  34  48
ATOM     48  O   UNL     1      15.779 -38.264  -4.452  1.00  0.00    -0.507 OA
ATOM     49  H   UNL     1      15.789 -37.480  -5.093  1.00  0.00     0.293 HD
ENDBRANCH  34  48
BRANCH  37  50
ATOM     50  O   UNL     1      18.421 -39.468  -0.598  1.00  0.00    -0.508 OA
ATOM     51  H   UNL     1      18.253 -40.134   0.147  1.00  0.00     0.293 HD
ENDBRANCH  37  50
ENDBRANCH  26  27
ENDBRANCH   5  26
BRANCH   4  52
ATOM     52  O   UNL     1      10.917 -32.573  -2.608  1.00  0.00    -0.384 OA
ATOM     53  H   UNL     1      11.569 -32.646  -3.351  1.00  0.00     0.211 HD
ENDBRANCH   4  52
TORSDOF 16
ENDMDL
MODEL 3
REMARK VINA RESULT:    -6.607      2.000      7.227
REMARK INTER + INTRA:         -13.691
REMARK INTER:                 -11.570
REMARK INTRA:                  -2.121
REMARK UNBOUND:                -2.836
REMARK SMILES C[C@@H]1O[C@@H](OC[C@@H]2O[C@@H](Oc3c(-c4ccc(O)c(O)c4)oc4cc(O)cc(O)c4c3=O)[C@@H](O)[C@@H](O)[C@H]2O)[C@H](O)[C@H](O)[C@H]1O
REMARK SMILES IDX 7 1 36 2 34 3 32 4 9 5 8 6 6 7 5 8 4 9 1 10 2 11 42 12 3 13
REMARK SMILES IDX 40 14 38 15 43 16 41 18 39 20 37 22 35 24 10 26 11 27 12 28
REMARK SMILES IDX 30 29 21 30 29 31 31 32 22 33 27 34 23 35 26 36 24 37 13 38
REMARK SMILES IDX 20 39 14 40 18 41 15 42 16 43 19 44 17 46 28 48 25 50 33 52
REMARK H PARENT 43 17 41 19 39 21 37 23 35 25 19 45 17 47 28 49 25 51 33 53
REMARK Flexibility Score: inf
ROOT
ATOM      1  C   UNL     1      12.242 -37.961   0.200  1.00  0.00     0.180 C 
ATOM      2  C   UNL     1      10.895 -37.519   0.813  1.00  0.00     0.177 C 
ATOM      3  C   UNL     1      11.083 -36.187   1.563  1.00  0.00     0.180 C 
ATOM      4  C   UNL     1      12.245 -36.310   2.557  1.00  0.00     0.214 C 
ATOM      5  C   UNL     1      13.508 -36.889   1.880  1.00  0.00     0.339 C 
ATOM      6  O   UNL     1      13.228 -38.107   1.209  1.00  0.00    -0.332 OA
ENDROOT
BRANCH   1   7
ATOM      7  C   UNL     1      12.128 -39.293  -0.577  1.00  0.00     0.198 C 
BRANCH   7   8
ATOM      8  O   UNL     1      12.063 -39.087  -1.979  1.00  0.00    -0.347 OA
BRANCH   8   9
ATOM      9  C   UNL     1      13.331 -38.838  -2.567  1.00  0.00     0.281 C 
ATOM     10  C   UNL     1      12.321 -38.668  -6.109  1.00  0.00     0.041 C 
ATOM     11  C   UNL     1      12.528 -39.311  -4.735  1.00  0.00     0.150 C 
ATOM     12  C   UNL     1      13.345 -40.618  -4.858  1.00  0.00     0.174 C 
ATOM     13  O   UNL     1      13.189 -38.370  -3.902  1.00  0.00    -0.344 OA
ATOM     14  C   UNL     1      13.592 -41.201  -3.462  1.00  0.00     0.179 C 
ATOM     15  C   UNL     1      14.175 -40.132  -2.517  1.00  0.00     0.202 C 
BRANCH  12  16
ATOM     16  O   UNL     1      12.638 -41.563  -5.625  1.00  0.00    -0.388 OA
ATOM     17  H   UNL     1      13.167 -41.724  -6.451  1.00  0.00     0.211 HD
ENDBRANCH  12  16
BRANCH  14  18
ATOM     18  O   UNL     1      14.467 -42.295  -3.553  1.00  0.00    -0.387 OA
ATOM     19  H   UNL     1      15.188 -42.140  -2.886  1.00  0.00     0.211 HD
ENDBRANCH  14  18
BRANCH  15  20
ATOM     20  O   UNL     1      15.527 -39.877  -2.807  1.00  0.00    -0.385 OA
ATOM     21  H   UNL     1      15.830 -39.109  -2.255  1.00  0.00     0.211 HD
ENDBRANCH  15  20
ENDBRANCH   8   9
ENDBRANCH   7   8
ENDBRANCH   1   7
BRANCH   2  22
ATOM     22  O   UNL     1       9.931 -37.360  -0.199  1.00  0.00    -0.387 OA
ATOM     23  H   UNL     1       9.039 -37.396   0.238  1.00  0.00     0.211 HD
ENDBRANCH   2  22
BRANCH   3  24
ATOM     24  O   UNL     1      11.338 -35.141   0.661  1.00  0.00    -0.387 OA
ATOM     25  H   UNL     1      10.586 -34.499   0.747  1.00  0.00     0.211 HD
ENDBRANCH   3  24
BRANCH   5  26
ATOM     26  O   UNL     1      14.119 -35.926   1.008  1.00  0.00    -0.454 OA
BRANCH  26  27
ATOM     27  C   UNL     1      14.977 -36.206  -0.076  1.00  0.00     0.214 A 
ATOM     28  C   UNL     1      14.869 -35.614  -1.361  1.00  0.00     0.180 A 
ATOM     29  C   UNL     1      16.032 -37.098   0.155  1.00  0.00     0.239 A 
ATOM     30  O   UNL     1      15.813 -35.837  -2.272  1.00  0.00    -0.452 OA
ATOM     31  C   UNL     1      16.997 -37.329  -0.844  1.00  0.00     0.111 A 
ATOM     32  O   UNL     1      16.118 -37.663   1.281  1.00  0.00    -0.285 OA
ATOM     33  C   UNL     1      16.849 -36.641  -2.070  1.00  0.00     0.146 A 
ATOM     34  C   UNL     1      18.102 -38.198  -0.667  1.00  0.00     0.134 A 
ATOM     35  C   UNL     1      17.788 -36.812  -3.091  1.00  0.00     0.094 A 
ATOM     36  C   UNL     1      19.032 -38.358  -1.702  1.00  0.00     0.093 A 
ATOM     37  C   UNL     1      18.880 -37.670  -2.910  1.00  0.00     0.123 A 
BRANCH  28  38
ATOM     38  C   UNL     1      13.726 -34.785  -1.776  1.00  0.00     0.025 A 
ATOM     39  C   UNL     1      12.653 -35.354  -2.480  1.00  0.00     0.062 A 
ATOM     40  C   UNL     1      13.747 -33.401  -1.551  1.00  0.00     0.016 A 
ATOM     41  C   UNL     1      11.588 -34.558  -2.914  1.00  0.00     0.158 A 
ATOM     42  C   UNL     1      12.682 -32.604  -1.973  1.00  0.00     0.051 A 
ATOM     43  C   UNL     1      11.596 -33.175  -2.649  1.00  0.00     0.157 A 
BRANCH  41  44
ATOM     44  O   UNL     1      10.537 -35.155  -3.609  1.00  0.00    -0.504 OA
ATOM     45  H   UNL     1      10.500 -35.164  -4.622  1.00  0.00     0.293 HD
ENDBRANCH  41  44
BRANCH  43  46
ATOM     46  O   UNL     1      10.528 -32.378  -3.057  1.00  0.00    -0.504 OA
ATOM     47  H   UNL     1       9.805 -32.085  -2.411  1.00  0.00     0.293 HD
ENDBRANCH  43  46
ENDBRANCH  28  38
BRANCH  34  48
ATOM     48  O   UNL     1      18.279 -38.900   0.528  1.00  0.00    -0.507 OA
ATOM     49  H   UNL     1      18.756 -39.793   0.557  1.00  0.00     0.293 HD
ENDBRANCH  34  48
BRANCH  37  50
ATOM     50  O   UNL     1      19.822 -37.852  -3.923  1.00  0.00    -0.508 OA
ATOM     51  H   UNL     1      19.559 -38.222  -4.829  1.00  0.00     0.293 HD
ENDBRANCH  37  50
ENDBRANCH  26  27
ENDBRANCH   5  26
BRANCH   4  52
ATOM     52  O   UNL     1      12.521 -35.056   3.125  1.00  0.00    -0.384 OA
ATOM     53  H   UNL     1      11.994 -34.386   2.619  1.00  0.00     0.211 HD
ENDBRANCH   4  52
TORSDOF 16
ENDMDL
MODEL 4
REMARK VINA RESULT:    -6.567      2.492      4.870
REMARK INTER + INTRA:         -13.625
REMARK INTER:                 -10.890
REMARK INTRA:                  -2.735
REMARK UNBOUND:                -2.836
REMARK SMILES C[C@@H]1O[C@@H](OC[C@@H]2O[C@@H](Oc3c(-c4ccc(O)c(O)c4)oc4cc(O)cc(O)c4c3=O)[C@@H](O)[C@@H](O)[C@H]2O)[C@H](O)[C@H](O)[C@H]1O
REMARK SMILES IDX 7 1 36 2 34 3 32 4 9 5 8 6 6 7 5 8 4 9 1 10 2 11 42 12 3 13
REMARK SMILES IDX 40 14 38 15 43 16 41 18 39 20 37 22 35 24 10 26 11 27 12 28
REMARK SMILES IDX 30 29 21 30 29 31 31 32 22 33 27 34 23 35 26 36 24 37 13 38
REMARK SMILES IDX 20 39 14 40 18 41 15 42 16 43 19 44 17 46 28 48 25 50 33 52
REMARK H PARENT 43 17 41 19 39 21 37 23 35 25 19 45 17 47 28 49 25 51 33 53
REMARK Flexibility Score: inf
ROOT
ATOM      1  C   UNL     1      12.244 -37.593  -0.102  1.00  0.00     0.180 C 
ATOM      2  C   UNL     1      11.728 -38.285   1.179  1.00  0.00     0.177 C 
ATOM      3  C   UNL     1      10.768 -39.426   0.796  1.00  0.00     0.180 C 
ATOM      4  C   UNL     1       9.679 -38.896  -0.145  1.00  0.00     0.214 C 
ATOM      5  C   UNL     1      10.289 -38.101  -1.323  1.00  0.00     0.339 C 
ATOM      6  O   UNL     1      11.164 -37.083  -0.866  1.00  0.00    -0.332 OA
ENDROOT
BRANCH   1   7
ATOM      7  C   UNL     1      13.222 -36.436   0.206  1.00  0.00     0.198 C 
BRANCH   7   8
ATOM      8  O   UNL     1      14.562 -36.887   0.320  1.00  0.00    -0.347 OA
BRANCH   8   9
ATOM      9  C   UNL     1      15.489 -36.066  -0.375  1.00  0.00     0.281 C 
ATOM     10  C   UNL     1      15.263 -37.611  -3.715  1.00  0.00     0.041 C 
ATOM     11  C   UNL     1      15.565 -37.540  -2.216  1.00  0.00     0.150 C 
ATOM     12  C   UNL     1      17.018 -37.981  -1.927  1.00  0.00     0.174 C 
ATOM     13  O   UNL     1      15.338 -36.207  -1.781  1.00  0.00    -0.344 OA
ATOM     14  C   UNL     1      17.309 -37.836  -0.428  1.00  0.00     0.179 C 
ATOM     15  C   UNL     1      16.923 -36.431   0.071  1.00  0.00     0.202 C 
BRANCH  12  16
ATOM     16  O   UNL     1      17.200 -39.327  -2.296  1.00  0.00    -0.388 OA
ATOM     17  H   UNL     1      18.123 -39.581  -2.031  1.00  0.00     0.211 HD
ENDBRANCH  12  16
BRANCH  14  18
ATOM     18  O   UNL     1      18.670 -38.080  -0.184  1.00  0.00    -0.387 OA
ATOM     19  H   UNL     1      18.998 -37.325   0.373  1.00  0.00     0.211 HD
ENDBRANCH  14  18
BRANCH  15  20
ATOM     20  O   UNL     1      17.855 -35.465  -0.350  1.00  0.00    -0.385 OA
ATOM     21  H   UNL     1      17.374 -34.613  -0.519  1.00  0.00     0.211 HD
ENDBRANCH  15  20
ENDBRANCH   8   9
ENDBRANCH   7   8
ENDBRANCH   1   7
BRANCH   2  22
ATOM     22  O   UNL     1      12.807 -38.802   1.918  1.00  0.00    -0.387 OA
ATOM     23  H   UNL     1      13.602 -38.791   1.322  1.00  0.00     0.211 HD
ENDBRANCH   2  22
BRANCH   3  24
ATOM     24  O   UNL     1      11.466 -40.474   0.173  1.00  0.00    -0.387 OA
ATOM     25  H   UNL     1      12.426 -40.223   0.178  1.00  0.00     0.211 HD
ENDBRANCH   3  24
BRANCH   5  26
ATOM     26  O   UNL     1      10.929 -38.975  -2.264  1.00  0.00    -0.454 OA
BRANCH  26  27
ATOM     27  C   UNL     1      10.548 -39.180  -3.607  1.00  0.00     0.214 A 
ATOM     28  C   UNL     1      10.501 -38.161  -4.594  1.00  0.00     0.180 A 
ATOM     29  C   UNL     1      10.240 -40.491  -3.994  1.00  0.00     0.239 A 
ATOM     30  O   UNL     1      10.268 -38.481  -5.863  1.00  0.00    -0.452 OA
ATOM     31  C   UNL     1       9.971 -40.786  -5.344  1.00  0.00     0.111 A 
ATOM     32  O   UNL     1      10.239 -41.401  -3.119  1.00  0.00    -0.285 OA
ATOM     33  C   UNL     1      10.016 -39.719  -6.271  1.00  0.00     0.146 A 
ATOM     34  C   UNL     1       9.678 -42.092  -5.806  1.00  0.00     0.134 A 
ATOM     35  C   UNL     1       9.781 -39.955  -7.628  1.00  0.00     0.094 A 
ATOM     36  C   UNL     1       9.443 -42.310  -7.171  1.00  0.00     0.093 A 
ATOM     37  C   UNL     1       9.494 -41.249  -8.081  1.00  0.00     0.123 A 
BRANCH  28  38
ATOM     38  C   UNL     1      10.653 -36.729  -4.286  1.00  0.00     0.025 A 
ATOM     39  C   UNL     1      11.912 -36.201  -3.962  1.00  0.00     0.062 A 
ATOM     40  C   UNL     1       9.522 -35.903  -4.224  1.00  0.00     0.016 A 
ATOM     41  C   UNL     1      12.049 -34.850  -3.625  1.00  0.00     0.158 A 
ATOM     42  C   UNL     1       9.655 -34.553  -3.897  1.00  0.00     0.051 A 
ATOM     43  C   UNL     1      10.915 -34.017  -3.604  1.00  0.00     0.157 A 
BRANCH  41  44
ATOM     44  O   UNL     1      13.315 -34.357  -3.311  1.00  0.00    -0.504 OA
ATOM     45  H   UNL     1      14.157 -34.898  -3.472  1.00  0.00     0.293 HD
ENDBRANCH  41  44
BRANCH  43  46
ATOM     46  O   UNL     1      11.045 -32.665  -3.293  1.00  0.00    -0.504 OA
ATOM     47  H   UNL     1      10.237 -32.068  -3.164  1.00  0.00     0.293 HD
ENDBRANCH  43  46
ENDBRANCH  28  38
BRANCH  34  48
ATOM     48  O   UNL     1       9.618 -43.172  -4.921  1.00  0.00    -0.507 OA
ATOM     49  H   UNL     1       9.212 -43.083  -3.998  1.00  0.00     0.293 HD
ENDBRANCH  34  48
BRANCH  37  50
ATOM     50  O   UNL     1       9.254 -41.497  -9.432  1.00  0.00    -0.508 OA
ATOM     51  H   UNL     1       9.609 -42.329  -9.888  1.00  0.00     0.293 HD
ENDBRANCH  37  50
ENDBRANCH  26  27
ENDBRANCH   5  26
BRANCH   4  52
ATOM     52  O   UNL     1       8.900 -39.962  -0.621  1.00  0.00    -0.384 OA
ATOM     53  H   UNL     1       9.043 -40.724  -0.004  1.00  0.00     0.211 HD
ENDBRANCH   4  52
TORSDOF 16
ENDMDL
MODEL 5
REMARK VINA RESULT:    -6.565      1.772      6.460
REMARK INTER + INTRA:         -13.623
REMARK INTER:                 -11.338
REMARK INTRA:                  -2.285
REMARK UNBOUND:                -2.836
REMARK SMILES C[C@@H]1O[C@@H](OC[C@@H]2O[C@@H](Oc3c(-c4ccc(O)c(O)c4)oc4cc(O)cc(O)c4c3=O)[C@@H](O)[C@@H](O)[C@H]2O)[C@H](O)[C@H](O)[C@H]1O
REMARK SMILES IDX 7 1 36 2 34 3 32 4 9 5 8 6 6 7 5 8 4 9 1 10 2 11 42 12 3 13
REMARK SMILES IDX 40 14 38 15 43 16 41 18 39 20 37 22 35 24 10 26 11 27 12 28
REMARK SMILES IDX 30 29 21 30 29 31 31 32 22 33 27 34 23 35 26 36 24 37 13 38
REMARK SMILES IDX 20 39 14 40 18 41 15 42 16 43 19 44 17 46 28 48 25 50 33 52
REMARK H PARENT 43 17 41 19 39 21 37 23 35 25 19 45 17 47 28 49 25 51 33 53
REMARK Flexibility Score: inf
ROOT
ATOM      1  C   UNL     1      13.167 -37.927   0.522  1.00  0.00     0.180 C 
ATOM      2  C   UNL     1      13.124 -38.154   2.050  1.00  0.00     0.177 C 
ATOM      3  C   UNL     1      13.871 -37.010   2.761  1.00  0.00     0.180 C 
ATOM      4  C   UNL     1      15.275 -36.855   2.162  1.00  0.00     0.214 C 
ATOM      5  C   UNL     1      15.225 -36.774   0.619  1.00  0.00     0.339 C 
ATOM      6  O   UNL     1      14.508 -37.864   0.063  1.00  0.00    -0.332 OA
ENDROOT
BRANCH   1   7
ATOM      7  C   UNL     1      12.428 -39.037  -0.259  1.00  0.00     0.198 C 
BRANCH   7   8
ATOM      8  O   UNL     1      12.806 -39.067  -1.627  1.00  0.00    -0.347 OA
BRANCH   8   9
ATOM      9  C   UNL     1      11.698 -39.158  -2.510  1.00  0.00     0.281 C 
ATOM     10  C   UNL     1      11.759 -42.785  -3.169  1.00  0.00     0.041 C 
ATOM     11  C   UNL     1      12.281 -41.346  -3.174  1.00  0.00     0.150 C 
ATOM     12  C   UNL     1      12.679 -40.912  -4.603  1.00  0.00     0.174 C 
ATOM     13  O   UNL     1      11.266 -40.505  -2.646  1.00  0.00    -0.344 OA
ATOM     14  C   UNL     1      13.134 -39.447  -4.585  1.00  0.00     0.179 C 
ATOM     15  C   UNL     1      12.092 -38.558  -3.879  1.00  0.00     0.202 C 
BRANCH  12  16
ATOM     16  O   UNL     1      13.737 -41.709  -5.078  1.00  0.00    -0.388 OA
ATOM     17  H   UNL     1      13.943 -42.374  -4.369  1.00  0.00     0.211 HD
ENDBRANCH  12  16
BRANCH  14  18
ATOM     18  O   UNL     1      13.341 -38.999  -5.900  1.00  0.00    -0.387 OA
ATOM     19  H   UNL     1      12.575 -39.333  -6.438  1.00  0.00     0.211 HD
ENDBRANCH  14  18
BRANCH  15  20
ATOM     20  O   UNL     1      10.965 -38.347  -4.693  1.00  0.00    -0.385 OA
ATOM     21  H   UNL     1      10.795 -39.173  -5.219  1.00  0.00     0.211 HD
ENDBRANCH  15  20
ENDBRANCH   8   9
ENDBRANCH   7   8
ENDBRANCH   1   7
BRANCH   2  22
ATOM     22  O   UNL     1      11.791 -38.196   2.496  1.00  0.00    -0.387 OA
ATOM     23  H   UNL     1      11.213 -38.237   1.687  1.00  0.00     0.211 HD
ENDBRANCH   2  22
BRANCH   3  24
ATOM     24  O   UNL     1      13.166 -35.802   2.636  1.00  0.00    -0.387 OA
ATOM     25  H   UNL     1      13.642 -35.261   1.953  1.00  0.00     0.211 HD
ENDBRANCH   3  24
BRANCH   5  26
ATOM     26  O   UNL     1      14.703 -35.511   0.182  1.00  0.00    -0.454 OA
BRANCH  26  27
ATOM     27  C   UNL     1      13.876 -35.292  -0.941  1.00  0.00     0.214 A 
ATOM     28  C   UNL     1      14.218 -35.644  -2.272  1.00  0.00     0.180 A 
ATOM     29  C   UNL     1      12.615 -34.729  -0.707  1.00  0.00     0.239 A 
ATOM     30  O   UNL     1      13.312 -35.527  -3.239  1.00  0.00    -0.452 OA
ATOM     31  C   UNL     1      11.692 -34.596  -1.763  1.00  0.00     0.111 A 
ATOM     32  O   UNL     1      12.312 -34.374   0.466  1.00  0.00    -0.285 OA
ATOM     33  C   UNL     1      12.093 -35.039  -3.044  1.00  0.00     0.146 A 
ATOM     34  C   UNL     1      10.393 -34.060  -1.591  1.00  0.00     0.134 A 
ATOM     35  C   UNL     1      11.212 -34.955  -4.126  1.00  0.00     0.094 A 
ATOM     36  C   UNL     1       9.524 -33.981  -2.688  1.00  0.00     0.093 A 
ATOM     37  C   UNL     1       9.927 -34.425  -3.951  1.00  0.00     0.123 A 
BRANCH  28  38
ATOM     38  C   UNL     1      15.561 -36.099  -2.669  1.00  0.00     0.025 A 
ATOM     39  C   UNL     1      16.566 -35.167  -2.973  1.00  0.00     0.062 A 
ATOM     40  C   UNL     1      15.815 -37.467  -2.836  1.00  0.00     0.016 A 
ATOM     41  C   UNL     1      17.828 -35.598  -3.394  1.00  0.00     0.158 A 
ATOM     42  C   UNL     1      17.076 -37.902  -3.247  1.00  0.00     0.051 A 
ATOM     43  C   UNL     1      18.090 -36.975  -3.520  1.00  0.00     0.157 A 
BRANCH  41  44
ATOM     44  O   UNL     1      18.805 -34.647  -3.686  1.00  0.00    -0.504 OA
ATOM     45  H   UNL     1      18.752 -34.059  -4.509  1.00  0.00     0.293 HD
ENDBRANCH  41  44
BRANCH  43  46
ATOM     46  O   UNL     1      19.351 -37.415  -3.917  1.00  0.00    -0.504 OA
ATOM     47  H   UNL     1      19.491 -37.924  -4.781  1.00  0.00     0.293 HD
ENDBRANCH  43  46
ENDBRANCH  28  38
BRANCH  34  48
ATOM     48  O   UNL     1       9.962 -33.605  -0.342  1.00  0.00    -0.507 OA
ATOM     49  H   UNL     1      10.615 -33.363   0.392  1.00  0.00     0.293 HD
ENDBRANCH  34  48
BRANCH  37  50
ATOM     50  O   UNL     1       9.041 -34.332  -5.023  1.00  0.00    -0.508 OA
ATOM     51  H   UNL     1       9.372 -34.228  -5.976  1.00  0.00     0.293 HD
ENDBRANCH  37  50
ENDBRANCH  26  27
ENDBRANCH   5  26
BRANCH   4  52
ATOM     52  O   UNL     1      15.898 -35.717   2.696  1.00  0.00    -0.384 OA
ATOM     53  H   UNL     1      16.840 -35.730   2.387  1.00  0.00     0.211 HD
ENDBRANCH   4  52
TORSDOF 16
ENDMDL
MODEL 6
REMARK VINA RESULT:    -6.552      1.987      6.100
REMARK INTER + INTRA:         -13.601
REMARK INTER:                 -10.805
REMARK INTRA:                  -2.797
REMARK UNBOUND:                -2.836
REMARK SMILES C[C@@H]1O[C@@H](OC[C@@H]2O[C@@H](Oc3c(-c4ccc(O)c(O)c4)oc4cc(O)cc(O)c4c3=O)[C@@H](O)[C@@H](O)[C@H]2O)[C@H](O)[C@H](O)[C@H]1O
REMARK SMILES IDX 7 1 36 2 34 3 32 4 9 5 8 6 6 7 5 8 4 9 1 10 2 11 42 12 3 13
REMARK SMILES IDX 40 14 38 15 43 16 41 18 39 20 37 22 35 24 10 26 11 27 12 28
REMARK SMILES IDX 30 29 21 30 29 31 31 32 22 33 27 34 23 35 26 36 24 37 13 38
REMARK SMILES IDX 20 39 14 40 18 41 15 42 16 43 19 44 17 46 28 48 25 50 33 52
REMARK H PARENT 43 17 41 19 39 21 37 23 35 25 19 45 17 47 28 49 25 51 33 53
REMARK Flexibility Score: inf
ROOT
ATOM      1  C   UNL     1      13.517 -36.703   1.117  1.00  0.00     0.180 C 
ATOM      2  C   UNL     1      13.557 -36.396   2.631  1.00  0.00     0.177 C 
ATOM      3  C   UNL     1      14.372 -35.113   2.874  1.00  0.00     0.180 C 
ATOM      4  C   UNL     1      15.743 -35.230   2.194  1.00  0.00     0.214 C 
ATOM      5  C   UNL     1      15.605 -35.675   0.720  1.00  0.00     0.339 C 
ATOM      6  O   UNL     1      14.830 -36.857   0.602  1.00  0.00    -0.332 OA
ENDROOT
BRANCH   1   7
ATOM      7  C   UNL     1      12.707 -37.980   0.795  1.00  0.00     0.198 C 
BRANCH   7   8
ATOM      8  O   UNL     1      12.535 -38.163  -0.602  1.00  0.00    -0.347 OA
BRANCH   8   9
ATOM      9  C   UNL     1      12.606 -39.524  -0.999  1.00  0.00     0.281 C 
ATOM     10  C   UNL     1      13.356 -39.060  -4.579  1.00  0.00     0.041 C 
ATOM     11  C   UNL     1      12.537 -38.961  -3.290  1.00  0.00     0.150 C 
ATOM     12  C   UNL     1      11.122 -39.551  -3.492  1.00  0.00     0.174 C 
ATOM     13  O   UNL     1      13.238 -39.652  -2.266  1.00  0.00    -0.344 OA
ATOM     14  C   UNL     1      10.351 -39.498  -2.167  1.00  0.00     0.179 C 
ATOM     15  C   UNL     1      11.179 -40.118  -1.026  1.00  0.00     0.202 C 
BRANCH  12  16
ATOM     16  O   UNL     1      10.418 -38.806  -4.456  1.00  0.00    -0.388 OA
ATOM     17  H   UNL     1      10.760 -39.082  -5.347  1.00  0.00     0.211 HD
ENDBRANCH  12  16
BRANCH  14  18
ATOM     18  O   UNL     1       9.129 -40.176  -2.303  1.00  0.00    -0.387 OA
ATOM     19  H   UNL     1       8.820 -40.393  -1.384  1.00  0.00     0.211 HD
ENDBRANCH  14  18
BRANCH  15  20
ATOM     20  O   UNL     1      11.206 -41.521  -1.119  1.00  0.00    -0.385 OA
ATOM     21  H   UNL     1      11.244 -41.898  -0.202  1.00  0.00     0.211 HD
ENDBRANCH  15  20
ENDBRANCH   8   9
ENDBRANCH   7   8
ENDBRANCH   1   7
BRANCH   2  22
ATOM     22  O   UNL     1      12.251 -36.227   3.124  1.00  0.00    -0.387 OA
ATOM     23  H   UNL     1      11.629 -36.365   2.361  1.00  0.00     0.211 HD
ENDBRANCH   2  22
BRANCH   3  24
ATOM     24  O   UNL     1      13.691 -33.990   2.377  1.00  0.00    -0.387 OA
ATOM     25  H   UNL     1      14.296 -33.553   1.722  1.00  0.00     0.211 HD
ENDBRANCH   3  24
BRANCH   5  26
ATOM     26  O   UNL     1      15.090 -34.613  -0.097  1.00  0.00    -0.454 OA
BRANCH  26  27
ATOM     27  C   UNL     1      14.207 -34.753  -1.189  1.00  0.00     0.214 A 
ATOM     28  C   UNL     1      14.481 -35.520  -2.351  1.00  0.00     0.180 A 
ATOM     29  C   UNL     1      12.960 -34.124  -1.089  1.00  0.00     0.239 A 
ATOM     30  O   UNL     1      13.527 -35.704  -3.260  1.00  0.00    -0.452 OA
ATOM     31  C   UNL     1      11.985 -34.321  -2.086  1.00  0.00     0.111 A 
ATOM     32  O   UNL     1      12.717 -33.406  -0.080  1.00  0.00    -0.285 OA
ATOM     33  C   UNL     1      12.320 -35.159  -3.174  1.00  0.00     0.146 A 
ATOM     34  C   UNL     1      10.696 -33.736  -2.034  1.00  0.00     0.134 A 
ATOM     35  C   UNL     1      11.385 -35.412  -4.183  1.00  0.00     0.094 A 
ATOM     36  C   UNL     1       9.772 -34.000  -3.055  1.00  0.00     0.093 A 
ATOM     37  C   UNL     1      10.111 -34.833  -4.125  1.00  0.00     0.123 A 
BRANCH  28  38
ATOM     38  C   UNL     1      15.802 -36.100  -2.645  1.00  0.00     0.025 A 
ATOM     39  C   UNL     1      16.027 -37.475  -2.478  1.00  0.00     0.062 A 
ATOM     40  C   UNL     1      16.868 -35.265  -3.006  1.00  0.00     0.016 A 
ATOM     41  C   UNL     1      17.294 -38.020  -2.714  1.00  0.00     0.158 A 
ATOM     42  C   UNL     1      18.132 -35.805  -3.251  1.00  0.00     0.051 A 
ATOM     43  C   UNL     1      18.351 -37.182  -3.115  1.00  0.00     0.157 A 
BRANCH  41  44
ATOM     44  O   UNL     1      17.483 -39.390  -2.541  1.00  0.00    -0.504 OA
ATOM     45  H   UNL     1      17.224 -39.864  -1.683  1.00  0.00     0.293 HD
ENDBRANCH  41  44
BRANCH  43  46
ATOM     46  O   UNL     1      19.610 -37.718  -3.375  1.00  0.00    -0.504 OA
ATOM     47  H   UNL     1      19.809 -38.222  -4.231  1.00  0.00     0.293 HD
ENDBRANCH  43  46
ENDBRANCH  28  38
BRANCH  34  48
ATOM     48  O   UNL     1      10.329 -32.898  -0.978  1.00  0.00    -0.507 OA
ATOM     49  H   UNL     1      10.643 -33.065  -0.030  1.00  0.00     0.293 HD
ENDBRANCH  34  48
BRANCH  37  50
ATOM     50  O   UNL     1       9.171 -35.074  -5.127  1.00  0.00    -0.508 OA
ATOM     51  H   UNL     1       9.326 -34.772  -6.082  1.00  0.00     0.293 HD
ENDBRANCH  37  50
ENDBRANCH  26  27
ENDBRANCH   5  26
BRANCH   4  52
ATOM     52  O   UNL     1      16.424 -34.006   2.278  1.00  0.00    -0.384 OA
ATOM     53  H   UNL     1      17.154 -34.034   1.609  1.00  0.00     0.211 HD
ENDBRANCH   4  52
TORSDOF 16
ENDMDL
MODEL 7
REMARK VINA RESULT:    -6.477      1.880      4.776
REMARK INTER + INTRA:         -13.478
REMARK INTER:                 -11.468
REMARK INTRA:                  -2.011
REMARK UNBOUND:                -2.836
REMARK SMILES C[C@@H]1O[C@@H](OC[C@@H]2O[C@@H](Oc3c(-c4ccc(O)c(O)c4)oc4cc(O)cc(O)c4c3=O)[C@@H](O)[C@@H](O)[C@H]2O)[C@H](O)[C@H](O)[C@H]1O
REMARK SMILES IDX 7 1 36 2 34 3 32 4 9 5 8 6 6 7 5 8 4 9 1 10 2 11 42 12 3 13
REMARK SMILES IDX 40 14 38 15 43 16 41 18 39 20 37 22 35 24 10 26 11 27 12 28
REMARK SMILES IDX 30 29 21 30 29 31 31 32 22 33 27 34 23 35 26 36 24 37 13 38
REMARK SMILES IDX 20 39 14 40 18 41 15 42 16 43 19 44 17 46 28 48 25 50 33 52
REMARK H PARENT 43 17 41 19 39 21 37 23 35 25 19 45 17 47 28 49 25 51 33 53
REMARK Flexibility Score: inf
ROOT
ATOM      1  C   UNL     1      15.679 -36.479  -0.198  1.00  0.00     0.180 C 
ATOM      2  C   UNL     1      17.187 -36.721   0.036  1.00  0.00     0.177 C 
ATOM      3  C   UNL     1      17.763 -37.545  -1.130  1.00  0.00     0.180 C 
ATOM      4  C   UNL     1      16.923 -38.811  -1.337  1.00  0.00     0.214 C 
ATOM      5  C   UNL     1      15.415 -38.480  -1.423  1.00  0.00     0.339 C 
ATOM      6  O   UNL     1      14.986 -37.711  -0.312  1.00  0.00    -0.332 OA
ENDROOT
BRANCH   1   7
ATOM      7  C   UNL     1      15.031 -35.650   0.934  1.00  0.00     0.198 C 
BRANCH   7   8
ATOM      8  O   UNL     1      13.644 -35.448   0.719  1.00  0.00    -0.347 OA
BRANCH   8   9
ATOM      9  C   UNL     1      13.025 -34.684   1.744  1.00  0.00     0.281 C 
ATOM     10  C   UNL     1      10.706 -37.229   3.064  1.00  0.00     0.041 C 
ATOM     11  C   UNL     1      11.305 -36.275   2.027  1.00  0.00     0.150 C 
ATOM     12  C   UNL     1      10.217 -35.347   1.442  1.00  0.00     0.174 C 
ATOM     13  O   UNL     1      12.334 -35.525   2.657  1.00  0.00    -0.344 OA
ATOM     14  C   UNL     1      10.859 -34.361   0.458  1.00  0.00     0.179 C 
ATOM     15  C   UNL     1      12.068 -33.655   1.101  1.00  0.00     0.202 C 
BRANCH  12  16
ATOM     16  O   UNL     1       9.248 -36.104   0.757  1.00  0.00    -0.388 OA
ATOM     17  H   UNL     1       8.365 -35.877   1.154  1.00  0.00     0.211 HD
ENDBRANCH  12  16
BRANCH  14  18
ATOM     18  O   UNL     1       9.907 -33.414   0.047  1.00  0.00    -0.387 OA
ATOM     19  H   UNL     1       9.282 -33.885  -0.564  1.00  0.00     0.211 HD
ENDBRANCH  14  18
BRANCH  15  20
ATOM     20  O   UNL     1      11.657 -32.682   2.029  1.00  0.00    -0.385 OA
ATOM     21  H   UNL     1      11.704 -33.074   2.940  1.00  0.00     0.211 HD
ENDBRANCH  15  20
ENDBRANCH   8   9
ENDBRANCH   7   8
ENDBRANCH   1   7
BRANCH   2  22
ATOM     22  O   UNL     1      17.865 -35.492   0.128  1.00  0.00    -0.387 OA
ATOM     23  H   UNL     1      17.444 -34.875  -0.528  1.00  0.00     0.211 HD
ENDBRANCH   2  22
BRANCH   3  24
ATOM     24  O   UNL     1      17.781 -36.788  -2.312  1.00  0.00    -0.387 OA
ATOM     25  H   UNL     1      17.188 -37.252  -2.959  1.00  0.00     0.211 HD
ENDBRANCH   3  24
BRANCH   5  26
ATOM     26  O   UNL     1      15.093 -37.845  -2.670  1.00  0.00    -0.454 OA
BRANCH  26  27
ATOM     27  C   UNL     1      13.966 -38.111  -3.476  1.00  0.00     0.214 A 
ATOM     28  C   UNL     1      13.025 -37.133  -3.890  1.00  0.00     0.180 A 
ATOM     29  C   UNL     1      13.799 -39.425  -3.931  1.00  0.00     0.239 A 
ATOM     30  O   UNL     1      12.077 -37.457  -4.766  1.00  0.00    -0.452 OA
ATOM     31  C   UNL     1      12.766 -39.736  -4.837  1.00  0.00     0.111 A 
ATOM     32  O   UNL     1      14.605 -40.314  -3.539  1.00  0.00    -0.285 OA
ATOM     33  C   UNL     1      11.918 -38.683  -5.250  1.00  0.00     0.146 A 
ATOM     34  C   UNL     1      12.558 -41.037  -5.355  1.00  0.00     0.134 A 
ATOM     35  C   UNL     1      10.891 -38.925  -6.167  1.00  0.00     0.094 A 
ATOM     36  C   UNL     1      11.521 -41.261  -6.271  1.00  0.00     0.093 A 
ATOM     37  C   UNL     1      10.690 -40.213  -6.678  1.00  0.00     0.123 A 
BRANCH  28  38
ATOM     38  C   UNL     1      13.001 -35.759  -3.363  1.00  0.00     0.025 A 
ATOM     39  C   UNL     1      11.824 -34.997  -3.417  1.00  0.00     0.062 A 
ATOM     40  C   UNL     1      14.181 -35.172  -2.886  1.00  0.00     0.016 A 
ATOM     41  C   UNL     1      11.812 -33.675  -2.958  1.00  0.00     0.158 A 
ATOM     42  C   UNL     1      14.173 -33.857  -2.418  1.00  0.00     0.051 A 
ATOM     43  C   UNL     1      12.992 -33.105  -2.443  1.00  0.00     0.157 A 
BRANCH  41  44
ATOM     44  O   UNL     1      10.626 -32.946  -3.024  1.00  0.00    -0.504 OA
ATOM     45  H   UNL     1       9.806 -33.299  -3.504  1.00  0.00     0.293 HD
ENDBRANCH  41  44
BRANCH  43  46
ATOM     46  O   UNL     1      12.985 -31.797  -1.961  1.00  0.00    -0.504 OA
ATOM     47  H   UNL     1      13.694 -31.461  -1.321  1.00  0.00     0.293 HD
ENDBRANCH  43  46
ENDBRANCH  28  38
BRANCH  34  48
ATOM     48  O   UNL     1      13.370 -42.105  -4.966  1.00  0.00    -0.507 OA
ATOM     49  H   UNL     1      13.695 -42.209  -4.013  1.00  0.00     0.293 HD
ENDBRANCH  34  48
BRANCH  37  50
ATOM     50  O   UNL     1       9.666 -40.468  -7.590  1.00  0.00    -0.508 OA
ATOM     51  H   UNL     1       8.816 -40.946  -7.311  1.00  0.00     0.293 HD
ENDBRANCH  37  50
ENDBRANCH  26  27
ENDBRANCH   5  26
BRANCH   4  52
ATOM     52  O   UNL     1      17.347 -39.481  -2.495  1.00  0.00    -0.384 OA
ATOM     53  H   UNL     1      16.936 -40.383  -2.475  1.00  0.00     0.211 HD
ENDBRANCH   4  52
TORSDOF 16
ENDMDL
MODEL 8
REMARK VINA RESULT:    -6.312      2.599      6.675
REMARK INTER + INTRA:         -13.207
REMARK INTER:                 -10.256
REMARK INTRA:                  -2.951
REMARK UNBOUND:                -2.836
REMARK SMILES C[C@@H]1O[C@@H](OC[C@@H]2O[C@@H](Oc3c(-c4ccc(O)c(O)c4)oc4cc(O)cc(O)c4c3=O)[C@@H](O)[C@@H](O)[C@H]2O)[C@H](O)[C@H](O)[C@H]1O
REMARK SMILES IDX 7 1 36 2 34 3 32 4 9 5 8 6 6 7 5 8 4 9 1 10 2 11 42 12 3 13
REMARK SMILES IDX 40 14 38 15 43 16 41 18 39 20 37 22 35 24 10 26 11 27 12 28
REMARK SMILES IDX 30 29 21 30 29 31 31 32 22 33 27 34 23 35 26 36 24 37 13 38
REMARK SMILES IDX 20 39 14 40 18 41 15 42 16 43 19 44 17 46 28 48 25 50 33 52
REMARK H PARENT 43 17 41 19 39 21 37 23 35 25 19 45 17 47 28 49 25 51 33 53
REMARK Flexibility Score: inf
ROOT
ATOM      1  C   UNL     1      10.336 -37.950  -0.364  1.00  0.00     0.180 C 
ATOM      2  C   UNL     1       9.377 -38.917   0.367  1.00  0.00     0.177 C 
ATOM      3  C   UNL     1      10.002 -40.323   0.414  1.00  0.00     0.180 C 
ATOM      4  C   UNL     1      10.416 -40.756  -0.998  1.00  0.00     0.214 C 
ATOM      5  C   UNL     1      11.258 -39.665  -1.699  1.00  0.00     0.339 C 
ATOM      6  O   UNL     1      10.602 -38.408  -1.680  1.00  0.00    -0.332 OA
ENDROOT
BRANCH   1   7
ATOM      7  C   UNL     1       9.775 -36.512  -0.445  1.00  0.00     0.198 C 
BRANCH   7   8
ATOM      8  O   UNL     1      10.762 -35.578  -0.850  1.00  0.00    -0.347 OA
BRANCH   8   9
ATOM      9  C   UNL     1      10.394 -34.843  -2.008  1.00  0.00     0.281 C 
ATOM     10  C   UNL     1      12.642 -36.434  -4.460  1.00  0.00     0.041 C 
ATOM     11  C   UNL     1      12.265 -35.623  -3.217  1.00  0.00     0.150 C 
ATOM     12  C   UNL     1      12.953 -34.240  -3.235  1.00  0.00     0.174 C 
ATOM     13  O   UNL     1      10.851 -35.492  -3.188  1.00  0.00    -0.344 OA
ATOM     14  C   UNL     1      12.503 -33.428  -2.013  1.00  0.00     0.179 C 
ATOM     15  C   UNL     1      10.967 -33.412  -1.903  1.00  0.00     0.202 C 
BRANCH  12  16
ATOM     16  O   UNL     1      14.352 -34.391  -3.188  1.00  0.00    -0.388 OA
ATOM     17  H   UNL     1      14.550 -35.061  -2.482  1.00  0.00     0.211 HD
ENDBRANCH  12  16
BRANCH  14  18
ATOM     18  O   UNL     1      12.996 -32.117  -2.108  1.00  0.00    -0.387 OA
ATOM     19  H   UNL     1      12.946 -31.727  -1.195  1.00  0.00     0.211 HD
ENDBRANCH  14  18
BRANCH  15  20
ATOM     20  O   UNL     1      10.395 -32.556  -2.861  1.00  0.00    -0.385 OA
ATOM     21  H   UNL     1      10.100 -33.101  -3.637  1.00  0.00     0.211 HD
ENDBRANCH  15  20
ENDBRANCH   8   9
ENDBRANCH   7   8
ENDBRANCH   1   7
BRANCH   2  22
ATOM     22  O   UNL     1       9.136 -38.462   1.676  1.00  0.00    -0.387 OA
ATOM     23  H   UNL     1      10.020 -38.367   2.120  1.00  0.00     0.211 HD
ENDBRANCH   2  22
BRANCH   3  24
ATOM     24  O   UNL     1      11.120 -40.341   1.264  1.00  0.00    -0.387 OA
ATOM     25  H   UNL     1      10.779 -40.236   2.190  1.00  0.00     0.211 HD
ENDBRANCH   3  24
BRANCH   5  26
ATOM     26  O   UNL     1      12.578 -39.589  -1.140  1.00  0.00    -0.454 OA
BRANCH  26  27
ATOM     27  C   UNL     1      13.712 -39.014  -1.753  1.00  0.00     0.214 A 
ATOM     28  C   UNL     1      14.178 -39.344  -3.052  1.00  0.00     0.180 A 
ATOM     29  C   UNL     1      14.392 -38.019  -1.039  1.00  0.00     0.239 A 
ATOM     30  O   UNL     1      15.170 -38.644  -3.595  1.00  0.00    -0.452 OA
ATOM     31  C   UNL     1      15.456 -37.319  -1.639  1.00  0.00     0.111 A 
ATOM     32  O   UNL     1      14.014 -37.743   0.134  1.00  0.00    -0.285 OA
ATOM     33  C   UNL     1      15.806 -37.666  -2.963  1.00  0.00     0.146 A 
ATOM     34  C   UNL     1      16.168 -36.285  -0.983  1.00  0.00     0.134 A 
ATOM     35  C   UNL     1      16.839 -36.990  -3.620  1.00  0.00     0.094 A 
ATOM     36  C   UNL     1      17.202 -35.619  -1.656  1.00  0.00     0.093 A 
ATOM     37  C   UNL     1      17.539 -35.966  -2.968  1.00  0.00     0.123 A 
BRANCH  28  38
ATOM     38  C   UNL     1      13.649 -40.471  -3.839  1.00  0.00     0.025 A 
ATOM     39  C   UNL     1      14.121 -41.774  -3.620  1.00  0.00     0.062 A 
ATOM     40  C   UNL     1      12.737 -40.233  -4.876  1.00  0.00     0.016 A 
ATOM     41  C   UNL     1      13.653 -42.838  -4.398  1.00  0.00     0.158 A 
ATOM     42  C   UNL     1      12.259 -41.292  -5.649  1.00  0.00     0.051 A 
ATOM     43  C   UNL     1      12.706 -42.598  -5.412  1.00  0.00     0.157 A 
BRANCH  41  44
ATOM     44  O   UNL     1      14.140 -44.121  -4.153  1.00  0.00    -0.504 OA
ATOM     45  H   UNL     1      14.608 -44.361  -3.286  1.00  0.00     0.293 HD
ENDBRANCH  41  44
BRANCH  43  46
ATOM     46  O   UNL     1      12.216 -43.655  -6.176  1.00  0.00    -0.504 OA
ATOM     47  H   UNL     1      12.318 -44.618  -5.882  1.00  0.00     0.293 HD
ENDBRANCH  43  46
ENDBRANCH  28  38
BRANCH  34  48
ATOM     48  O   UNL     1      15.857 -35.917   0.328  1.00  0.00    -0.507 OA
ATOM     49  H   UNL     1      15.331 -35.076   0.537  1.00  0.00     0.293 HD
ENDBRANCH  34  48
BRANCH  37  50
ATOM     50  O   UNL     1      18.573 -35.287  -3.610  1.00  0.00    -0.508 OA
ATOM     51  H   UNL     1      19.418 -35.764  -3.903  1.00  0.00     0.293 HD
ENDBRANCH  37  50
ENDBRANCH  26  27
ENDBRANCH   5  26
BRANCH   4  52
ATOM     52  O   UNL     1      11.128 -41.964  -0.937  1.00  0.00    -0.384 OA
ATOM     53  H   UNL     1      11.403 -42.092   0.007  1.00  0.00     0.211 HD
ENDBRANCH   4  52
TORSDOF 16
ENDMDL
MODEL 9
REMARK VINA RESULT:    -6.175      1.682      4.556
REMARK INTER + INTRA:         -12.981
REMARK INTER:                 -11.432
REMARK INTRA:                  -1.549
REMARK UNBOUND:                -2.836
REMARK SMILES C[C@@H]1O[C@@H](OC[C@@H]2O[C@@H](Oc3c(-c4ccc(O)c(O)c4)oc4cc(O)cc(O)c4c3=O)[C@@H](O)[C@@H](O)[C@H]2O)[C@H](O)[C@H](O)[C@H]1O
REMARK SMILES IDX 7 1 36 2 34 3 32 4 9 5 8 6 6 7 5 8 4 9 1 10 2 11 42 12 3 13
REMARK SMILES IDX 40 14 38 15 43 16 41 18 39 20 37 22 35 24 10 26 11 27 12 28
REMARK SMILES IDX 30 29 21 30 29 31 31 32 22 33 27 34 23 35 26 36 24 37 13 38
REMARK SMILES IDX 20 39 14 40 18 41 15 42 16 43 19 44 17 46 28 48 25 50 33 52
REMARK H PARENT 43 17 41 19 39 21 37 23 35 25 19 45 17 47 28 49 25 51 33 53
REMARK Flexibility Score: inf
ROOT
ATOM      1  C   UNL     1      15.821 -37.259  -0.363  1.00  0.00     0.180 C 
ATOM      2  C   UNL     1      17.258 -36.772  -0.654  1.00  0.00     0.177 C 
ATOM      3  C   UNL     1      17.484 -36.720  -2.177  1.00  0.00     0.180 C 
ATOM      4  C   UNL     1      17.112 -38.070  -2.804  1.00  0.00     0.214 C 
ATOM      5  C   UNL     1      15.712 -38.539  -2.344  1.00  0.00     0.339 C 
ATOM      6  O   UNL     1      15.602 -38.541  -0.930  1.00  0.00    -0.332 OA
ENDROOT
BRANCH   1   7
ATOM      7  C   UNL     1      15.518 -37.330   1.151  1.00  0.00     0.198 C 
BRANCH   7   8
ATOM      8  O   UNL     1      14.680 -36.268   1.577  1.00  0.00    -0.347 OA
BRANCH   8   9
ATOM      9  C   UNL     1      13.826 -35.785   0.551  1.00  0.00     0.281 C 
ATOM     10  C   UNL     1      14.042 -32.171   1.251  1.00  0.00     0.041 C 
ATOM     11  C   UNL     1      13.706 -33.639   1.526  1.00  0.00     0.150 C 
ATOM     12  C   UNL     1      12.221 -33.796   1.924  1.00  0.00     0.174 C 
ATOM     13  O   UNL     1      14.005 -34.388   0.357  1.00  0.00    -0.344 OA
ATOM     14  C   UNL     1      11.899 -35.282   2.128  1.00  0.00     0.179 C 
ATOM     15  C   UNL     1      12.360 -36.113   0.915  1.00  0.00     0.202 C 
BRANCH  12  16
ATOM     16  O   UNL     1      11.963 -33.108   3.125  1.00  0.00    -0.388 OA
ATOM     17  H   UNL     1      11.022 -33.302   3.377  1.00  0.00     0.211 HD
ENDBRANCH  12  16
BRANCH  14  18
ATOM     18  O   UNL     1      10.520 -35.445   2.330  1.00  0.00    -0.387 OA
ATOM     19  H   UNL     1      10.138 -34.534   2.440  1.00  0.00     0.211 HD
ENDBRANCH  14  18
BRANCH  15  20
ATOM     20  O   UNL     1      11.502 -35.931  -0.184  1.00  0.00    -0.385 OA
ATOM     21  H   UNL     1      11.215 -36.823  -0.512  1.00  0.00     0.211 HD
ENDBRANCH  15  20
ENDBRANCH   8   9
ENDBRANCH   7   8
ENDBRANCH   1   7
BRANCH   2  22
ATOM     22  O   UNL     1      17.456 -35.493  -0.103  1.00  0.00    -0.387 OA
ATOM     23  H   UNL     1      18.145 -35.584   0.608  1.00  0.00     0.211 HD
ENDBRANCH   2  22
BRANCH   3  24
ATOM     24  O   UNL     1      16.717 -35.698  -2.759  1.00  0.00    -0.387 OA
ATOM     25  H   UNL     1      16.216 -36.108  -3.511  1.00  0.00     0.211 HD
ENDBRANCH   3  24
BRANCH   5  26
ATOM     26  O   UNL     1      14.675 -37.762  -2.961  1.00  0.00    -0.454 OA
BRANCH  26  27
ATOM     27  C   UNL     1      13.613 -38.259  -3.745  1.00  0.00     0.214 A 
ATOM     28  C   UNL     1      12.532 -37.475  -4.226  1.00  0.00     0.180 A 
ATOM     29  C   UNL     1      13.661 -39.612  -4.106  1.00  0.00     0.239 A 
ATOM     30  O   UNL     1      11.658 -38.006  -5.076  1.00  0.00    -0.452 OA
ATOM     31  C   UNL     1      12.701 -40.145  -4.987  1.00  0.00     0.111 A 
ATOM     32  O   UNL     1      14.595 -40.332  -3.654  1.00  0.00    -0.285 OA
ATOM     33  C   UNL     1      11.700 -39.272  -5.473  1.00  0.00     0.146 A 
ATOM     34  C   UNL     1      12.707 -41.496  -5.412  1.00  0.00     0.134 A 
ATOM     35  C   UNL     1      10.734 -39.738  -6.369  1.00  0.00     0.094 A 
ATOM     36  C   UNL     1      11.729 -41.946  -6.310  1.00  0.00     0.093 A 
ATOM     37  C   UNL     1      10.745 -41.075  -6.788  1.00  0.00     0.123 A 
BRANCH  28  38
ATOM     38  C   UNL     1      12.285 -36.089  -3.797  1.00  0.00     0.025 A 
ATOM     39  C   UNL     1      13.320 -35.321  -3.241  1.00  0.00     0.062 A 
ATOM     40  C   UNL     1      10.989 -35.559  -3.856  1.00  0.00     0.016 A 
ATOM     41  C   UNL     1      13.075 -34.020  -2.791  1.00  0.00     0.158 A 
ATOM     42  C   UNL     1      10.741 -34.257  -3.417  1.00  0.00     0.051 A 
ATOM     43  C   UNL     1      11.779 -33.478  -2.891  1.00  0.00     0.157 A 
BRANCH  41  44
ATOM     44  O   UNL     1      14.126 -33.283  -2.246  1.00  0.00    -0.504 OA
ATOM     45  H   UNL     1      14.040 -32.803  -1.357  1.00  0.00     0.293 HD
ENDBRANCH  41  44
BRANCH  43  46
ATOM     46  O   UNL     1      11.530 -32.175  -2.467  1.00  0.00    -0.504 OA
ATOM     47  H   UNL     1      12.258 -31.596  -2.067  1.00  0.00     0.293 HD
ENDBRANCH  43  46
ENDBRANCH  28  38
BRANCH  34  48
ATOM     48  O   UNL     1      13.675 -42.391  -4.950  1.00  0.00    -0.507 OA
ATOM     49  H   UNL     1      13.468 -43.082  -4.239  1.00  0.00     0.293 HD
ENDBRANCH  34  48
BRANCH  37  50
ATOM     50  O   UNL     1       9.784 -41.552  -7.678  1.00  0.00    -0.508 OA
ATOM     51  H   UNL     1       9.956 -42.369  -8.253  1.00  0.00     0.293 HD
ENDBRANCH  37  50
ENDBRANCH  26  27
ENDBRANCH   5  26
BRANCH   4  52
ATOM     52  O   UNL     1      17.165 -37.976  -4.203  1.00  0.00    -0.384 OA
ATOM     53  H   UNL     1      16.777 -38.814  -4.565  1.00  0.00     0.211 HD
ENDBRANCH   4  52
TORSDOF 16
ENDMDL
