MODEL 1
REMARK VINA RESULT:    -3.371      0.000      0.000
REMARK INTER + INTRA:          -4.086
REMARK INTER:                  -3.962
REMARK INTRA:                  -0.123
REMARK UNBOUND:                -0.123
REMARK SMILES O=C([O-])C=Cc1ccc(O)c(O)c1
REMARK SMILES IDX 6 1 13 2 7 3 11 4 8 5 9 6 5 7 4 8 2 9 1 10 3 11 12 12 10 14
REMARK H PARENT 12 13 10 15
REMARK Flexibility Score: inf
ROOT
ATOM      1  C   UNL     1       8.074 -21.952  13.470  1.00  0.00    -0.022 A 
ATOM      2  C   UNL     1       8.436 -20.605  13.279  1.00  0.00     0.058 A 
ATOM      3  C   UNL     1       8.033 -22.805  12.359  1.00  0.00     0.012 A 
ATOM      4  C   UNL     1       8.776 -20.124  12.007  1.00  0.00     0.157 A 
ATOM      5  C   UNL     1       8.372 -22.336  11.089  1.00  0.00     0.051 A 
ATOM      6  C   UNL     1       8.749 -21.002  10.898  1.00  0.00     0.157 A 
ENDROOT
BRANCH   1   7
ATOM      7  C   UNL     1       7.695 -22.496  14.799  1.00  0.00     0.010 C 
ATOM      8  C   UNL     1       7.587 -21.748  15.906  1.00  0.00     0.025 C 
BRANCH   8   9
ATOM      9  C   UNL     1       7.220 -22.325  17.211  1.00  0.00     0.064 C 
ATOM     10  O   UNL     1       8.003 -23.099  17.825  1.00  0.00    -0.545 OA
ATOM     11  O   UNL     1       5.990 -22.013  17.773  1.00  0.00    -0.545 OA
ENDBRANCH   8   9
ENDBRANCH   1   7
BRANCH   4  12
ATOM     12  O   UNL     1       9.125 -18.776  11.892  1.00  0.00    -0.504 OA
ATOM     13  H   UNL     1      10.066 -18.448  11.724  1.00  0.00     0.293 HD
ENDBRANCH   4  12
BRANCH   6  14
ATOM     14  O   UNL     1       9.084 -20.597   9.606  1.00  0.00    -0.504 OA
ATOM     15  H   UNL     1       9.886 -20.939   9.095  1.00  0.00     0.293 HD
ENDBRANCH   6  14
TORSDOF 4
ENDMDL
MODEL 2
REMARK VINA RESULT:    -3.119     18.555     19.862
REMARK INTER + INTRA:          -3.789
REMARK INTER:                  -3.669
REMARK INTRA:                  -0.120
REMARK UNBOUND:                -0.123
REMARK SMILES O=C([O-])C=Cc1ccc(O)c(O)c1
REMARK SMILES IDX 6 1 13 2 7 3 11 4 8 5 9 6 5 7 4 8 2 9 1 10 3 11 12 12 10 14
REMARK H PARENT 12 13 10 15
REMARK Flexibility Score: inf
ROOT
ATOM      1  C   UNL     1      -9.429 -21.522  20.168  1.00  0.00    -0.022 A 
ATOM      2  C   UNL     1      -9.999 -20.713  21.169  1.00  0.00     0.058 A 
ATOM      3  C   UNL     1      -8.654 -22.626  20.551  1.00  0.00     0.012 A 
ATOM      4  C   UNL     1      -9.820 -21.013  22.527  1.00  0.00     0.157 A 
ATOM      5  C   UNL     1      -8.475 -22.935  21.900  1.00  0.00     0.051 A 
ATOM      6  C   UNL     1      -9.053 -22.143  22.897  1.00  0.00     0.157 A 
ENDROOT
BRANCH   1   7
ATOM      7  C   UNL     1      -9.584 -21.230  18.721  1.00  0.00     0.010 C 
ATOM      8  C   UNL     1     -10.761 -20.971  18.135  1.00  0.00     0.025 C 
BRANCH   8   9
ATOM      9  C   UNL     1     -10.878 -20.698  16.693  1.00  0.00     0.064 C 
ATOM     10  O   UNL     1     -10.763 -19.528  16.239  1.00  0.00    -0.545 OA
ATOM     11  O   UNL     1     -11.123 -21.747  15.818  1.00  0.00    -0.545 OA
ENDBRANCH   8   9
ENDBRANCH   1   7
BRANCH   4  12
ATOM     12  O   UNL     1     -10.415 -20.166  23.465  1.00  0.00    -0.504 OA
ATOM     13  H   UNL     1     -11.368 -20.258  23.786  1.00  0.00     0.293 HD
ENDBRANCH   4  12
BRANCH   6  14
ATOM     14  O   UNL     1      -8.841 -22.509  24.227  1.00  0.00    -0.504 OA
ATOM     15  H   UNL     1      -7.949 -22.449  24.695  1.00  0.00     0.293 HD
ENDBRANCH   6  14
TORSDOF 4
ENDMDL
MODEL 3
REMARK VINA RESULT:    -3.043     15.958     18.656
REMARK INTER + INTRA:          -3.700
REMARK INTER:                  -3.556
REMARK INTRA:                  -0.144
REMARK UNBOUND:                -0.123
REMARK SMILES O=C([O-])C=Cc1ccc(O)c(O)c1
REMARK SMILES IDX 6 1 13 2 7 3 11 4 8 5 9 6 5 7 4 8 2 9 1 10 3 11 12 12 10 14
REMARK H PARENT 12 13 10 15
REMARK Flexibility Score: inf
ROOT
ATOM      1  C   UNL     1      -8.860 -21.926  19.820  1.00  0.00    -0.022 A 
ATOM      2  C   UNL     1      -9.637 -20.866  20.326  1.00  0.00     0.058 A 
ATOM      3  C   UNL     1      -8.437 -22.934  20.698  1.00  0.00     0.012 A 
ATOM      4  C   UNL     1     -10.006 -20.826  21.678  1.00  0.00     0.157 A 
ATOM      5  C   UNL     1      -8.803 -22.903  22.044  1.00  0.00     0.051 A 
ATOM      6  C   UNL     1      -9.589 -21.861  22.547  1.00  0.00     0.157 A 
ENDROOT
BRANCH   1   7
ATOM      7  C   UNL     1      -8.438 -21.998  18.398  1.00  0.00     0.010 C 
ATOM      8  C   UNL     1      -7.208 -22.358  18.004  1.00  0.00     0.025 C 
BRANCH   8   9
ATOM      9  C   UNL     1      -6.821 -22.406  16.584  1.00  0.00     0.064 C 
ATOM     10  O   UNL     1      -5.863 -23.125  16.193  1.00  0.00    -0.545 OA
ATOM     11  O   UNL     1      -7.522 -21.642  15.661  1.00  0.00    -0.545 OA
ENDBRANCH   8   9
ENDBRANCH   1   7
BRANCH   4  12
ATOM     12  O   UNL     1     -10.778 -19.745  22.110  1.00  0.00    -0.504 OA
ATOM     13  H   UNL     1     -10.742 -19.362  23.044  1.00  0.00     0.293 HD
ENDBRANCH   4  12
BRANCH   6  14
ATOM     14  O   UNL     1      -9.926 -21.892  23.901  1.00  0.00    -0.504 OA
ATOM     15  H   UNL     1     -10.510 -22.600  24.322  1.00  0.00     0.293 HD
ENDBRANCH   6  14
TORSDOF 4
ENDMDL
MODEL 4
REMARK VINA RESULT:    -2.924     19.074     19.492
REMARK INTER + INTRA:          -3.560
REMARK INTER:                  -3.438
REMARK INTRA:                  -0.123
REMARK UNBOUND:                -0.123
REMARK SMILES O=C([O-])C=Cc1ccc(O)c(O)c1
REMARK SMILES IDX 6 1 13 2 7 3 11 4 8 5 9 6 5 7 4 8 2 9 1 10 3 11 12 12 10 14
REMARK H PARENT 12 13 10 15
REMARK Flexibility Score: inf
ROOT
ATOM      1  C   UNL     1     -10.295 -21.487  19.754  1.00  0.00    -0.022 A 
ATOM      2  C   UNL     1     -10.580 -20.111  19.661  1.00  0.00     0.058 A 
ATOM      3  C   UNL     1     -10.310 -22.260  18.585  1.00  0.00     0.012 A 
ATOM      4  C   UNL     1     -10.849 -19.513  18.422  1.00  0.00     0.157 A 
ATOM      5  C   UNL     1     -10.573 -21.673  17.347  1.00  0.00     0.051 A 
ATOM      6  C   UNL     1     -10.840 -20.304  17.249  1.00  0.00     0.157 A 
ENDROOT
BRANCH   1   7
ATOM      7  C   UNL     1     -10.018 -22.159  21.048  1.00  0.00     0.010 C 
ATOM      8  C   UNL     1      -9.792 -21.502  22.195  1.00  0.00     0.025 C 
BRANCH   8   9
ATOM      9  C   UNL     1      -9.507 -22.203  23.459  1.00  0.00     0.064 C 
ATOM     10  O   UNL     1      -8.326 -22.347  23.873  1.00  0.00    -0.545 OA
ATOM     11  O   UNL     1     -10.559 -22.716  24.205  1.00  0.00    -0.545 OA
ENDBRANCH   8   9
ENDBRANCH   1   7
BRANCH   4  12
ATOM     12  O   UNL     1     -11.124 -18.144  18.405  1.00  0.00    -0.504 OA
ATOM     13  H   UNL     1     -11.333 -17.619  17.568  1.00  0.00     0.293 HD
ENDBRANCH   4  12
BRANCH   6  14
ATOM     14  O   UNL     1     -11.089 -19.776  15.981  1.00  0.00    -0.504 OA
ATOM     15  H   UNL     1     -11.918 -19.253  15.739  1.00  0.00     0.293 HD
ENDBRANCH   6  14
TORSDOF 4
ENDMDL
MODEL 5
REMARK VINA RESULT:    -2.848      2.002      5.938
REMARK INTER + INTRA:          -3.471
REMARK INTER:                  -3.346
REMARK INTRA:                  -0.125
REMARK UNBOUND:                -0.123
REMARK SMILES O=C([O-])C=Cc1ccc(O)c(O)c1
REMARK SMILES IDX 6 1 13 2 7 3 11 4 8 5 9 6 5 7 4 8 2 9 1 10 3 11 12 12 10 14
REMARK H PARENT 12 13 10 15
REMARK Flexibility Score: inf
ROOT
ATOM      1  C   UNL     1       8.405 -21.407  12.537  1.00  0.00    -0.022 A 
ATOM      2  C   UNL     1       7.619 -22.299  13.291  1.00  0.00     0.058 A 
ATOM      3  C   UNL     1       9.110 -20.396  13.205  1.00  0.00     0.012 A 
ATOM      4  C   UNL     1       7.557 -22.200  14.688  1.00  0.00     0.157 A 
ATOM      5  C   UNL     1       9.057 -20.293  14.596  1.00  0.00     0.051 A 
ATOM      6  C   UNL     1       8.291 -21.187  15.350  1.00  0.00     0.157 A 
ENDROOT
BRANCH   1   7
ATOM      7  C   UNL     1       8.486 -21.471  11.056  1.00  0.00     0.010 C 
ATOM      8  C   UNL     1       7.983 -22.476  10.325  1.00  0.00     0.025 C 
BRANCH   8   9
ATOM      9  C   UNL     1       8.093 -22.511   8.857  1.00  0.00     0.064 C 
ATOM     10  O   UNL     1       9.076 -21.993   8.264  1.00  0.00    -0.545 OA
ATOM     11  O   UNL     1       7.094 -23.125   8.114  1.00  0.00    -0.545 OA
ENDBRANCH   8   9
ENDBRANCH   1   7
BRANCH   4  12
ATOM     12  O   UNL     1       6.757 -23.118  15.372  1.00  0.00    -0.504 OA
ATOM     13  H   UNL     1       6.585 -23.088  16.367  1.00  0.00     0.293 HD
ENDBRANCH   4  12
BRANCH   6  14
ATOM     14  O   UNL     1       8.286 -21.034  16.737  1.00  0.00    -0.504 OA
ATOM     15  H   UNL     1       8.689 -21.700  17.381  1.00  0.00     0.293 HD
ENDBRANCH   6  14
TORSDOF 4
ENDMDL
MODEL 6
REMARK VINA RESULT:    -2.711     15.585     17.548
REMARK INTER + INTRA:          -3.310
REMARK INTER:                  -3.187
REMARK INTRA:                  -0.123
REMARK UNBOUND:                -0.123
REMARK SMILES O=C([O-])C=Cc1ccc(O)c(O)c1
REMARK SMILES IDX 6 1 13 2 7 3 11 4 8 5 9 6 5 7 4 8 2 9 1 10 3 11 12 12 10 14
REMARK H PARENT 12 13 10 15
REMARK Flexibility Score: inf
ROOT
ATOM      1  C   UNL     1      -8.441 -22.800  19.767  1.00  0.00    -0.022 A 
ATOM      2  C   UNL     1      -7.097 -22.993  19.396  1.00  0.00     0.058 A 
ATOM      3  C   UNL     1      -9.341 -22.307  18.812  1.00  0.00     0.012 A 
ATOM      4  C   UNL     1      -6.664 -22.724  18.090  1.00  0.00     0.157 A 
ATOM      5  C   UNL     1      -8.919 -22.040  17.509  1.00  0.00     0.051 A 
ATOM      6  C   UNL     1      -7.588 -22.247  17.132  1.00  0.00     0.157 A 
ENDROOT
BRANCH   1   7
ATOM      7  C   UNL     1      -8.936 -23.060  21.142  1.00  0.00     0.010 C 
ATOM      8  C   UNL     1      -8.788 -22.202  22.162  1.00  0.00     0.025 C 
BRANCH   8   9
ATOM      9  C   UNL     1      -9.281 -22.500  23.517  1.00  0.00     0.064 C 
ATOM     10  O   UNL     1      -8.568 -23.124  24.348  1.00  0.00    -0.545 OA
ATOM     11  O   UNL     1     -10.554 -22.089  23.884  1.00  0.00    -0.545 OA
ENDBRANCH   8   9
ENDBRANCH   1   7
BRANCH   4  12
ATOM     12  O   UNL     1      -5.315 -22.939  17.794  1.00  0.00    -0.504 OA
ATOM     13  H   UNL     1      -4.552 -22.479  18.270  1.00  0.00     0.293 HD
ENDBRANCH   4  12
BRANCH   6  14
ATOM     14  O   UNL     1      -7.232 -21.968  15.812  1.00  0.00    -0.504 OA
ATOM     15  H   UNL     1      -6.310 -21.671  15.526  1.00  0.00     0.293 HD
ENDBRANCH   6  14
TORSDOF 4
ENDMDL
MODEL 7
REMARK VINA RESULT:    -2.699     14.482     16.234
REMARK INTER + INTRA:          -3.296
REMARK INTER:                  -3.168
REMARK INTRA:                  -0.127
REMARK UNBOUND:                -0.123
REMARK SMILES O=C([O-])C=Cc1ccc(O)c(O)c1
REMARK SMILES IDX 6 1 13 2 7 3 11 4 8 5 9 6 5 7 4 8 2 9 1 10 3 11 12 12 10 14
REMARK H PARENT 12 13 10 15
REMARK Flexibility Score: inf
ROOT
ATOM      1  C   UNL     1      -7.396 -22.367  17.634  1.00  0.00    -0.022 A 
ATOM      2  C   UNL     1      -6.233 -22.795  18.304  1.00  0.00     0.058 A 
ATOM      3  C   UNL     1      -7.271 -21.797  16.360  1.00  0.00     0.012 A 
ATOM      4  C   UNL     1      -4.973 -22.680  17.702  1.00  0.00     0.157 A 
ATOM      5  C   UNL     1      -6.020 -21.682  15.752  1.00  0.00     0.051 A 
ATOM      6  C   UNL     1      -4.865 -22.121  16.407  1.00  0.00     0.157 A 
ENDROOT
BRANCH   1   7
ATOM      7  C   UNL     1      -8.747 -22.460  18.243  1.00  0.00     0.010 C 
ATOM      8  C   UNL     1      -9.167 -21.678  19.247  1.00  0.00     0.025 C 
BRANCH   8   9
ATOM      9  C   UNL     1     -10.511 -21.807  19.835  1.00  0.00     0.064 C 
ATOM     10  O   UNL     1     -11.115 -22.913  19.845  1.00  0.00    -0.545 OA
ATOM     11  O   UNL     1     -11.124 -20.690  20.385  1.00  0.00    -0.545 OA
ENDBRANCH   8   9
ENDBRANCH   1   7
BRANCH   4  12
ATOM     12  O   UNL     1      -3.863 -23.125  18.425  1.00  0.00    -0.504 OA
ATOM     13  H   UNL     1      -3.858 -23.259  19.426  1.00  0.00     0.293 HD
ENDBRANCH   4  12
BRANCH   6  14
ATOM     14  O   UNL     1      -3.646 -21.984  15.742  1.00  0.00    -0.504 OA
ATOM     15  H   UNL     1      -3.334 -22.595  15.001  1.00  0.00     0.293 HD
ENDBRANCH   6  14
TORSDOF 4
ENDMDL
