MODEL 1
REMARK VINA RESULT:    -3.688      0.000      0.000
REMARK INTER + INTRA:          -3.796
REMARK INTER:                  -3.796
REMARK INTRA:                   0.000
REMARK UNBOUND:                 0.000
REMARK SMILES O=c1ccc2ccc(O)cc2o1
REMARK SMILES IDX 6 1 7 2 8 3 10 4 11 5 5 6 4 7 3 8 2 9 1 10 12 11 9 12
REMARK H PARENT 9 13
REMARK Flexibility Score: inf
ROOT
ATOM      1  C   UNL     1      23.625   7.829  18.196  1.00  0.00     0.016 A 
ATOM      2  C   UNL     1      24.811   8.222  18.824  1.00  0.00     0.047 A 
ATOM      3  C   UNL     1      26.053   7.876  18.272  1.00  0.00     0.119 A 
ATOM      4  C   UNL     1      26.108   7.131  17.088  1.00  0.00     0.094 A 
ATOM      5  C   UNL     1      24.928   6.732  16.453  1.00  0.00     0.142 A 
ATOM      6  C   UNL     1      23.677   7.084  17.010  1.00  0.00     0.018 A 
ATOM      7  C   UNL     1      22.514   6.670  16.351  1.00  0.00     0.019 A 
ATOM      8  C   UNL     1      22.621   5.931  15.174  1.00  0.00     0.094 A 
ATOM      9  C   UNL     1      23.892   5.619  14.681  1.00  0.00     0.336 A 
ATOM     10  O   UNL     1      24.009   4.953  13.619  1.00  0.00    -0.246 OA
ATOM     11  O   UNL     1      24.983   6.025  15.326  1.00  0.00    -0.423 OA
ENDROOT
BRANCH   3  12
ATOM     12  O   UNL     1      27.238   8.265  18.894  1.00  0.00    -0.508 OA
ATOM     13  H   UNL     1      27.759   7.629  19.485  1.00  0.00     0.293 HD
ENDBRANCH   3  12
TORSDOF 1
ENDMDL
MODEL 2
REMARK VINA RESULT:    -3.564      2.678      3.748
REMARK INTER + INTRA:          -3.668
REMARK INTER:                  -3.668
REMARK INTRA:                   0.000
REMARK UNBOUND:                 0.000
REMARK SMILES O=c1ccc2ccc(O)cc2o1
REMARK SMILES IDX 6 1 7 2 8 3 10 4 11 5 5 6 4 7 3 8 2 9 1 10 12 11 9 12
REMARK H PARENT 9 13
REMARK Flexibility Score: inf
ROOT
ATOM      1  C   UNL     1      23.223   5.997  15.465  1.00  0.00     0.016 A 
ATOM      2  C   UNL     1      24.620   6.003  15.483  1.00  0.00     0.047 A 
ATOM      3  C   UNL     1      25.315   6.938  16.264  1.00  0.00     0.119 A 
ATOM      4  C   UNL     1      24.607   7.873  17.029  1.00  0.00     0.094 A 
ATOM      5  C   UNL     1      23.208   7.875  17.018  1.00  0.00     0.142 A 
ATOM      6  C   UNL     1      22.511   6.931  16.231  1.00  0.00     0.018 A 
ATOM      7  C   UNL     1      21.112   6.958  16.240  1.00  0.00     0.019 A 
ATOM      8  C   UNL     1      20.452   7.907  17.020  1.00  0.00     0.094 A 
ATOM      9  C   UNL     1      21.208   8.812  17.773  1.00  0.00     0.336 A 
ATOM     10  O   UNL     1      20.630   9.676  18.483  1.00  0.00    -0.246 OA
ATOM     11  O   UNL     1      22.537   8.764  17.747  1.00  0.00    -0.423 OA
ENDROOT
BRANCH   3  12
ATOM     12  O   UNL     1      26.708   6.949  16.285  1.00  0.00    -0.508 OA
ATOM     13  H   UNL     1      27.244   6.090  16.272  1.00  0.00     0.293 HD
ENDBRANCH   3  12
TORSDOF 1
ENDMDL
MODEL 3
REMARK VINA RESULT:    -3.382      2.139      2.731
REMARK INTER + INTRA:          -3.481
REMARK INTER:                  -3.481
REMARK INTRA:                   0.000
REMARK UNBOUND:                 0.000
REMARK SMILES O=c1ccc2ccc(O)cc2o1
REMARK SMILES IDX 6 1 7 2 8 3 10 4 11 5 5 6 4 7 3 8 2 9 1 10 12 11 9 12
REMARK H PARENT 9 13
REMARK Flexibility Score: inf
ROOT
ATOM      1  C   UNL     1      24.136   8.180  18.599  1.00  0.00     0.016 A 
ATOM      2  C   UNL     1      25.407   7.895  18.090  1.00  0.00     0.047 A 
ATOM      3  C   UNL     1      25.546   7.225  16.866  1.00  0.00     0.119 A 
ATOM      4  C   UNL     1      24.408   6.837  16.149  1.00  0.00     0.094 A 
ATOM      5  C   UNL     1      23.132   7.118  16.649  1.00  0.00     0.142 A 
ATOM      6  C   UNL     1      22.995   7.794  17.882  1.00  0.00     0.018 A 
ATOM      7  C   UNL     1      21.706   8.060  18.357  1.00  0.00     0.019 A 
ATOM      8  C   UNL     1      20.603   7.655  17.606  1.00  0.00     0.094 A 
ATOM      9  C   UNL     1      20.815   6.989  16.394  1.00  0.00     0.336 A 
ATOM     10  O   UNL     1      19.832   6.616  15.701  1.00  0.00    -0.246 OA
ATOM     11  O   UNL     1      22.052   6.749  15.964  1.00  0.00    -0.423 OA
ENDROOT
BRANCH   3  12
ATOM     12  O   UNL     1      26.810   6.938  16.354  1.00  0.00    -0.508 OA
ATOM     13  H   UNL     1      27.430   7.671  16.034  1.00  0.00     0.293 HD
ENDBRANCH   3  12
TORSDOF 1
ENDMDL
MODEL 4
REMARK VINA RESULT:    -3.375      1.773      4.740
REMARK INTER + INTRA:          -3.473
REMARK INTER:                  -3.473
REMARK INTRA:                   0.000
REMARK UNBOUND:                 0.000
REMARK SMILES O=c1ccc2ccc(O)cc2o1
REMARK SMILES IDX 6 1 7 2 8 3 10 4 11 5 5 6 4 7 3 8 2 9 1 10 12 11 9 12
REMARK H PARENT 9 13
REMARK Flexibility Score: inf
ROOT
ATOM      1  C   UNL     1      24.177   5.935  15.161  1.00  0.00     0.016 A 
ATOM      2  C   UNL     1      22.826   5.821  14.824  1.00  0.00     0.047 A 
ATOM      3  C   UNL     1      21.842   6.416  15.628  1.00  0.00     0.119 A 
ATOM      4  C   UNL     1      22.215   7.128  16.775  1.00  0.00     0.094 A 
ATOM      5  C   UNL     1      23.565   7.248  17.121  1.00  0.00     0.142 A 
ATOM      6  C   UNL     1      24.553   6.648  16.308  1.00  0.00     0.018 A 
ATOM      7  C   UNL     1      25.895   6.786  16.680  1.00  0.00     0.019 A 
ATOM      8  C   UNL     1      26.216   7.505  17.831  1.00  0.00     0.094 A 
ATOM      9  C   UNL     1      25.184   8.071  18.587  1.00  0.00     0.336 A 
ATOM     10  O   UNL     1      25.453   8.724  19.629  1.00  0.00    -0.246 OA
ATOM     11  O   UNL     1      23.915   7.926  18.211  1.00  0.00    -0.423 OA
ENDROOT
BRANCH   3  12
ATOM     12  O   UNL     1      20.493   6.305  15.297  1.00  0.00    -0.508 OA
ATOM     13  H   UNL     1      19.765   6.486  15.976  1.00  0.00     0.293 HD
ENDBRANCH   3  12
TORSDOF 1
ENDMDL
MODEL 5
REMARK VINA RESULT:    -3.370      4.909      6.664
REMARK INTER + INTRA:          -3.469
REMARK INTER:                  -3.469
REMARK INTRA:                   0.000
REMARK UNBOUND:                 0.000
REMARK SMILES O=c1ccc2ccc(O)cc2o1
REMARK SMILES IDX 6 1 7 2 8 3 10 4 11 5 5 6 4 7 3 8 2 9 1 10 12 11 9 12
REMARK H PARENT 9 13
REMARK Flexibility Score: inf
ROOT
ATOM      1  C   UNL     1      18.067   8.649  16.168  1.00  0.00     0.016 A 
ATOM      2  C   UNL     1      18.586   7.380  15.895  1.00  0.00     0.047 A 
ATOM      3  C   UNL     1      19.963   7.136  16.014  1.00  0.00     0.119 A 
ATOM      4  C   UNL     1      20.822   8.169  16.408  1.00  0.00     0.094 A 
ATOM      5  C   UNL     1      20.313   9.442  16.684  1.00  0.00     0.142 A 
ATOM      6  C   UNL     1      18.926   9.684  16.564  1.00  0.00     0.018 A 
ATOM      7  C   UNL     1      18.446  10.967  16.847  1.00  0.00     0.019 A 
ATOM      8  C   UNL     1      19.342  11.962  17.237  1.00  0.00     0.094 A 
ATOM      9  C   UNL     1      20.702  11.650  17.333  1.00  0.00     0.336 A 
ATOM     10  O   UNL     1      21.527  12.534  17.684  1.00  0.00    -0.246 OA
ATOM     11  O   UNL     1      21.133  10.421  17.059  1.00  0.00    -0.423 OA
ENDROOT
BRANCH   3  12
ATOM     12  O   UNL     1      20.486   5.874  15.741  1.00  0.00    -0.508 OA
ATOM     13  H   UNL     1      21.189   5.453  16.335  1.00  0.00     0.293 HD
ENDBRANCH   3  12
TORSDOF 1
ENDMDL
MODEL 6
REMARK VINA RESULT:    -3.329      5.352      6.293
REMARK INTER + INTRA:          -3.426
REMARK INTER:                  -3.426
REMARK INTRA:                   0.000
REMARK UNBOUND:                 0.000
REMARK SMILES O=c1ccc2ccc(O)cc2o1
REMARK SMILES IDX 6 1 7 2 8 3 10 4 11 5 5 6 4 7 3 8 2 9 1 10 12 11 9 12
REMARK H PARENT 9 13
REMARK Flexibility Score: inf
ROOT
ATOM      1  C   UNL     1      21.010  10.106  17.062  1.00  0.00     0.016 A 
ATOM      2  C   UNL     1      20.398  11.345  17.271  1.00  0.00     0.047 A 
ATOM      3  C   UNL     1      19.028  11.510  17.016  1.00  0.00     0.119 A 
ATOM      4  C   UNL     1      18.269  10.431  16.549  1.00  0.00     0.094 A 
ATOM      5  C   UNL     1      18.872   9.187  16.337  1.00  0.00     0.142 A 
ATOM      6  C   UNL     1      20.252   9.022  16.595  1.00  0.00     0.018 A 
ATOM      7  C   UNL     1      20.827   7.766  16.373  1.00  0.00     0.019 A 
ATOM      8  C   UNL     1      20.029   6.722  15.908  1.00  0.00     0.094 A 
ATOM      9  C   UNL     1      18.670   6.958  15.674  1.00  0.00     0.336 A 
ATOM     10  O   UNL     1      17.934   6.027  15.254  1.00  0.00    -0.246 OA
ATOM     11  O   UNL     1      18.148   8.162  15.893  1.00  0.00    -0.423 OA
ENDROOT
BRANCH   3  12
ATOM     12  O   UNL     1      18.413  12.744  17.222  1.00  0.00    -0.508 OA
ATOM     13  H   UNL     1      17.767  12.892  17.988  1.00  0.00     0.293 HD
ENDBRANCH   3  12
TORSDOF 1
ENDMDL
MODEL 7
REMARK VINA RESULT:    -3.328      0.802      4.232
REMARK INTER + INTRA:          -3.425
REMARK INTER:                  -3.425
REMARK INTRA:                   0.000
REMARK UNBOUND:                 0.000
REMARK SMILES O=c1ccc2ccc(O)cc2o1
REMARK SMILES IDX 6 1 7 2 8 3 10 4 11 5 5 6 4 7 3 8 2 9 1 10 12 11 9 12
REMARK H PARENT 9 13
REMARK Flexibility Score: inf
ROOT
ATOM      1  C   UNL     1      22.555   6.357  16.750  1.00  0.00     0.016 A 
ATOM      2  C   UNL     1      22.707   5.711  15.519  1.00  0.00     0.047 A 
ATOM      3  C   UNL     1      23.954   5.699  14.875  1.00  0.00     0.119 A 
ATOM      4  C   UNL     1      25.051   6.338  15.466  1.00  0.00     0.094 A 
ATOM      5  C   UNL     1      24.909   6.986  16.697  1.00  0.00     0.142 A 
ATOM      6  C   UNL     1      23.652   6.996  17.344  1.00  0.00     0.018 A 
ATOM      7  C   UNL     1      23.541   7.653  18.574  1.00  0.00     0.019 A 
ATOM      8  C   UNL     1      24.664   8.272  19.122  1.00  0.00     0.094 A 
ATOM      9  C   UNL     1      25.875   8.223  18.425  1.00  0.00     0.336 A 
ATOM     10  O   UNL     1      26.900   8.776  18.903  1.00  0.00    -0.246 OA
ATOM     11  O   UNL     1      25.954   7.591  17.256  1.00  0.00    -0.423 OA
ENDROOT
BRANCH   3  12
ATOM     12  O   UNL     1      24.111   5.058  13.648  1.00  0.00    -0.508 OA
ATOM     13  H   UNL     1      23.760   5.465  12.790  1.00  0.00     0.293 HD
ENDBRANCH   3  12
TORSDOF 1
ENDMDL
MODEL 8
REMARK VINA RESULT:    -3.286      5.323      7.120
REMARK INTER + INTRA:          -3.382
REMARK INTER:                  -3.382
REMARK INTRA:                   0.000
REMARK UNBOUND:                 0.000
REMARK SMILES O=c1ccc2ccc(O)cc2o1
REMARK SMILES IDX 6 1 7 2 8 3 10 4 11 5 5 6 4 7 3 8 2 9 1 10 12 11 9 12
REMARK H PARENT 9 13
REMARK Flexibility Score: inf
ROOT
ATOM      1  C   UNL     1      21.002   7.870  16.396  1.00  0.00     0.016 A 
ATOM      2  C   UNL     1      20.357   6.714  15.947  1.00  0.00     0.047 A 
ATOM      3  C   UNL     1      18.974   6.721  15.709  1.00  0.00     0.119 A 
ATOM      4  C   UNL     1      18.236   7.891  15.922  1.00  0.00     0.094 A 
ATOM      5  C   UNL     1      18.872   9.053  16.370  1.00  0.00     0.142 A 
ATOM      6  C   UNL     1      20.265   9.043  16.609  1.00  0.00     0.018 A 
ATOM      7  C   UNL     1      20.874  10.220  17.057  1.00  0.00     0.019 A 
ATOM      8  C   UNL     1      20.095  11.361  17.253  1.00  0.00     0.094 A 
ATOM      9  C   UNL     1      18.721  11.297  16.997  1.00  0.00     0.336 A 
ATOM     10  O   UNL     1      18.002  12.316  17.168  1.00  0.00    -0.246 OA
ATOM     11  O   UNL     1      18.167  10.164  16.571  1.00  0.00    -0.423 OA
ENDROOT
BRANCH   3  12
ATOM     12  O   UNL     1      18.326   5.572  15.263  1.00  0.00    -0.508 OA
ATOM     13  H   UNL     1      18.834   4.813  14.826  1.00  0.00     0.293 HD
ENDBRANCH   3  12
TORSDOF 1
ENDMDL
MODEL 9
REMARK VINA RESULT:    -3.272      4.758      5.635
REMARK INTER + INTRA:          -3.368
REMARK INTER:                  -3.368
REMARK INTRA:                   0.000
REMARK UNBOUND:                 0.000
REMARK SMILES O=c1ccc2ccc(O)cc2o1
REMARK SMILES IDX 6 1 7 2 8 3 10 4 11 5 5 6 4 7 3 8 2 9 1 10 12 11 9 12
REMARK H PARENT 9 13
REMARK Flexibility Score: inf
ROOT
ATOM      1  C   UNL     1      18.472  10.124  16.610  1.00  0.00     0.016 A 
ATOM      2  C   UNL     1      18.616  11.486  16.888  1.00  0.00     0.047 A 
ATOM      3  C   UNL     1      19.877  12.015  17.202  1.00  0.00     0.119 A 
ATOM      4  C   UNL     1      20.997  11.176  17.238  1.00  0.00     0.094 A 
ATOM      5  C   UNL     1      20.863   9.812  16.960  1.00  0.00     0.142 A 
ATOM      6  C   UNL     1      19.592   9.281  16.644  1.00  0.00     0.018 A 
ATOM      7  C   UNL     1      19.489   7.913  16.372  1.00  0.00     0.019 A 
ATOM      8  C   UNL     1      20.634   7.118  16.419  1.00  0.00     0.094 A 
ATOM      9  C   UNL     1      21.859   7.712  16.741  1.00  0.00     0.336 A 
ATOM     10  O   UNL     1      22.904   7.011  16.788  1.00  0.00    -0.246 OA
ATOM     11  O   UNL     1      21.930   9.016  16.995  1.00  0.00    -0.423 OA
ENDROOT
BRANCH   3  12
ATOM     12  O   UNL     1      20.027  13.372  17.481  1.00  0.00    -0.508 OA
ATOM     13  H   UNL     1      20.063  13.716  18.432  1.00  0.00     0.293 HD
ENDBRANCH   3  12
TORSDOF 1
ENDMDL
