MODEL 1
REMARK VINA RESULT:    -3.150      0.000      0.000
REMARK INTER + INTRA:          -9.743
REMARK INTER:                  -6.834
REMARK INTRA:                  -2.909
REMARK UNBOUND:                -2.909
REMARK SMILES CCCCCCCCCCCCCCCCCCCCCC(=O)[O-]
REMARK SMILES IDX 12 1 11 2 10 3 9 4 8 5 7 6 6 7 5 8 4 9 3 10 2 11 1 12 13 13
REMARK SMILES IDX 14 14 15 15 16 16 17 17 18 18 19 19 20 20 21 21 22 22 23 23
REMARK SMILES IDX 24 24
REMARK H PARENT
REMARK Flexibility Score: inf
ROOT
ATOM      1  C   UNL     1      45.471  60.409  49.297  1.00  0.00     0.000 C 
ENDROOT
BRANCH   1   2
ATOM      2  C   UNL     1      44.781  59.215  49.981  1.00  0.00     0.000 C 
BRANCH   2   3
ATOM      3  C   UNL     1      45.671  57.964  50.035  1.00  0.00     0.000 C 
BRANCH   3   4
ATOM      4  C   UNL     1      46.233  57.628  48.649  1.00  0.00    -0.000 C 
BRANCH   4   5
ATOM      5  C   UNL     1      45.412  56.514  47.979  1.00  0.00    -0.000 C 
BRANCH   5   6
ATOM      6  C   UNL     1      44.031  57.003  47.493  1.00  0.00    -0.000 C 
BRANCH   6   7
ATOM      7  C   UNL     1      44.085  58.295  46.654  1.00  0.00    -0.000 C 
BRANCH   7   8
ATOM      8  C   UNL     1      44.040  58.091  45.127  1.00  0.00    -0.000 C 
BRANCH   8   9
ATOM      9  C   UNL     1      43.264  56.846  44.656  1.00  0.00    -0.000 C 
BRANCH   9  10
ATOM     10  C   UNL     1      42.004  57.197  43.848  1.00  0.00    -0.000 C 
BRANCH  10  11
ATOM     11  C   UNL     1      40.969  57.976  44.678  1.00  0.00    -0.003 C 
ATOM     12  C   UNL     1      39.944  58.711  43.813  1.00  0.00     0.004 C 
ENDBRANCH  10  11
ENDBRANCH   9  10
ENDBRANCH   8   9
ENDBRANCH   7   8
ENDBRANCH   6   7
ENDBRANCH   5   6
ENDBRANCH   4   5
ENDBRANCH   3   4
ENDBRANCH   2   3
ENDBRANCH   1   2
BRANCH   1  13
ATOM     13  C   UNL     1      44.534  61.576  48.923  1.00  0.00     0.000 C 
BRANCH  13  14
ATOM     14  C   UNL     1      43.404  61.862  49.932  1.00  0.00     0.000 C 
BRANCH  14  15
ATOM     15  C   UNL     1      42.003  61.405  49.489  1.00  0.00     0.000 C 
BRANCH  15  16
ATOM     16  C   UNL     1      41.985  60.841  48.058  1.00  0.00     0.000 C 
BRANCH  16  17
ATOM     17  C   UNL     1      41.316  59.460  47.972  1.00  0.00     0.000 C 
BRANCH  17  18
ATOM     18  C   UNL     1      41.343  58.699  49.305  1.00  0.00     0.000 C 
BRANCH  18  19
ATOM     19  C   UNL     1      40.074  57.854  49.483  1.00  0.00     0.000 C 
BRANCH  19  20
ATOM     20  C   UNL     1      39.601  57.284  48.140  1.00  0.00     0.006 C 
BRANCH  20  21
ATOM     21  C   UNL     1      40.523  56.158  47.666  1.00  0.00     0.053 C 
BRANCH  21  22
ATOM     22  C   UNL     1      39.732  55.087  46.981  1.00  0.00     0.041 C 
ATOM     23  O   UNL     1      39.030  55.366  45.974  1.00  0.00    -0.550 OA
ATOM     24  O   UNL     1      39.729  53.792  47.486  1.00  0.00    -0.550 OA
ENDBRANCH  21  22
ENDBRANCH  20  21
ENDBRANCH  19  20
ENDBRANCH  18  19
ENDBRANCH  17  18
ENDBRANCH  16  17
ENDBRANCH  15  16
ENDBRANCH  14  15
ENDBRANCH  13  14
ENDBRANCH   1  13
TORSDOF 20
ENDMDL
MODEL 2
REMARK VINA RESULT:    -3.114      2.752      6.551
REMARK INTER + INTRA:          -9.664
REMARK INTER:                  -7.121
REMARK INTRA:                  -2.542
REMARK UNBOUND:                -2.909
REMARK SMILES CCCCCCCCCCCCCCCCCCCCCC(=O)[O-]
REMARK SMILES IDX 12 1 11 2 10 3 9 4 8 5 7 6 6 7 5 8 4 9 3 10 2 11 1 12 13 13
REMARK SMILES IDX 14 14 15 15 16 16 17 17 18 18 19 19 20 20 21 21 22 22 23 23
REMARK SMILES IDX 24 24
REMARK H PARENT
REMARK Flexibility Score: inf
ROOT
ATOM      1  C   UNL     1      40.745  57.633  46.007  1.00  0.00     0.000 C 
ENDROOT
BRANCH   1   2
ATOM      2  C   UNL     1      40.288  56.227  46.436  1.00  0.00     0.000 C 
BRANCH   2   3
ATOM      3  C   UNL     1      39.682  56.203  47.847  1.00  0.00     0.000 C 
BRANCH   3   4
ATOM      4  C   UNL     1      39.372  57.621  48.338  1.00  0.00    -0.000 C 
BRANCH   4   5
ATOM      5  C   UNL     1      40.092  57.913  49.665  1.00  0.00    -0.000 C 
BRANCH   5   6
ATOM      6  C   UNL     1      41.462  58.594  49.461  1.00  0.00    -0.000 C 
BRANCH   6   7
ATOM      7  C   UNL     1      41.528  59.508  48.222  1.00  0.00    -0.000 C 
BRANCH   7   8
ATOM      8  C   UNL     1      42.020  60.943  48.489  1.00  0.00    -0.000 C 
BRANCH   8   9
ATOM      9  C   UNL     1      42.693  61.161  49.857  1.00  0.00    -0.000 C 
BRANCH   9  10
ATOM     10  C   UNL     1      43.919  62.087  49.781  1.00  0.00    -0.000 C 
BRANCH  10  11
ATOM     11  C   UNL     1      44.934  61.634  48.718  1.00  0.00    -0.003 C 
ATOM     12  C   UNL     1      46.167  62.535  48.651  1.00  0.00     0.004 C 
ENDBRANCH  10  11
ENDBRANCH   9  10
ENDBRANCH   8   9
ENDBRANCH   7   8
ENDBRANCH   6   7
ENDBRANCH   5   6
ENDBRANCH   4   5
ENDBRANCH   3   4
ENDBRANCH   2   3
ENDBRANCH   1   2
BRANCH   1  13
ATOM     13  C   UNL     1      40.746  57.882  44.485  1.00  0.00     0.000 C 
BRANCH  13  14
ATOM     14  C   UNL     1      41.961  57.310  43.726  1.00  0.00     0.000 C 
BRANCH  14  15
ATOM     15  C   UNL     1      43.143  56.884  44.614  1.00  0.00     0.000 C 
BRANCH  15  16
ATOM     16  C   UNL     1      44.099  58.047  44.932  1.00  0.00     0.000 C 
BRANCH  16  17
ATOM     17  C   UNL     1      44.162  58.371  46.432  1.00  0.00     0.000 C 
BRANCH  17  18
ATOM     18  C   UNL     1      44.027  57.124  47.319  1.00  0.00     0.000 C 
BRANCH  18  19
ATOM     19  C   UNL     1      45.378  56.737  47.934  1.00  0.00     0.000 C 
BRANCH  19  20
ATOM     20  C   UNL     1      45.918  57.862  48.827  1.00  0.00     0.006 C 
BRANCH  20  21
ATOM     21  C   UNL     1      44.959  58.154  49.983  1.00  0.00     0.053 C 
BRANCH  21  22
ATOM     22  C   UNL     1      45.711  58.664  51.172  1.00  0.00     0.041 C 
ATOM     23  O   UNL     1      46.352  59.745  51.098  1.00  0.00    -0.550 OA
ATOM     24  O   UNL     1      45.746  57.922  52.346  1.00  0.00    -0.550 OA
ENDBRANCH  21  22
ENDBRANCH  20  21
ENDBRANCH  19  20
ENDBRANCH  18  19
ENDBRANCH  17  18
ENDBRANCH  16  17
ENDBRANCH  15  16
ENDBRANCH  14  15
ENDBRANCH  13  14
ENDBRANCH   1  13
TORSDOF 20
ENDMDL
MODEL 3
REMARK VINA RESULT:    -3.086      3.123      6.419
REMARK INTER + INTRA:          -9.604
REMARK INTER:                  -7.398
REMARK INTRA:                  -2.206
REMARK UNBOUND:                -2.909
REMARK SMILES CCCCCCCCCCCCCCCCCCCCCC(=O)[O-]
REMARK SMILES IDX 12 1 11 2 10 3 9 4 8 5 7 6 6 7 5 8 4 9 3 10 2 11 1 12 13 13
REMARK SMILES IDX 14 14 15 15 16 16 17 17 18 18 19 19 20 20 21 21 22 22 23 23
REMARK SMILES IDX 24 24
REMARK H PARENT
REMARK Flexibility Score: inf
ROOT
ATOM      1  C   UNL     1      41.047  56.461  46.503  1.00  0.00     0.000 C 
ENDROOT
BRANCH   1   2
ATOM      2  C   UNL     1      40.681  57.560  45.490  1.00  0.00     0.000 C 
BRANCH   2   3
ATOM      3  C   UNL     1      41.673  57.646  44.321  1.00  0.00     0.000 C 
BRANCH   3   4
ATOM      4  C   UNL     1      42.973  56.901  44.645  1.00  0.00    -0.000 C 
BRANCH   4   5
ATOM      5  C   UNL     1      44.112  57.888  44.947  1.00  0.00    -0.000 C 
BRANCH   5   6
ATOM      6  C   UNL     1      44.164  58.300  46.434  1.00  0.00    -0.000 C 
BRANCH   6   7
ATOM      7  C   UNL     1      44.242  57.109  47.410  1.00  0.00    -0.000 C 
BRANCH   7   8
ATOM      8  C   UNL     1      45.666  56.671  47.801  1.00  0.00    -0.000 C 
BRANCH   8   9
ATOM      9  C   UNL     1      46.337  57.526  48.893  1.00  0.00    -0.000 C 
BRANCH   9  10
ATOM     10  C   UNL     1      45.343  58.035  49.950  1.00  0.00    -0.000 C 
BRANCH  10  11
ATOM     11  C   UNL     1      46.045  58.638  51.178  1.00  0.00    -0.003 C 
ATOM     12  C   UNL     1      45.720  57.894  52.474  1.00  0.00     0.004 C 
ENDBRANCH  10  11
ENDBRANCH   9  10
ENDBRANCH   8   9
ENDBRANCH   7   8
ENDBRANCH   6   7
ENDBRANCH   5   6
ENDBRANCH   4   5
ENDBRANCH   3   4
ENDBRANCH   2   3
ENDBRANCH   1   2
BRANCH   1  13
ATOM     13  C   UNL     1      39.845  55.757  47.165  1.00  0.00     0.000 C 
BRANCH  13  14
ATOM     14  C   UNL     1      39.022  56.630  48.133  1.00  0.00     0.000 C 
BRANCH  14  15
ATOM     15  C   UNL     1      39.632  58.008  48.446  1.00  0.00     0.000 C 
BRANCH  15  16
ATOM     16  C   UNL     1      40.533  57.991  49.693  1.00  0.00     0.000 C 
BRANCH  16  17
ATOM     17  C   UNL     1      41.885  58.682  49.458  1.00  0.00     0.000 C 
BRANCH  17  18
ATOM     18  C   UNL     1      41.814  59.792  48.398  1.00  0.00     0.000 C 
BRANCH  18  19
ATOM     19  C   UNL     1      41.942  61.177  49.044  1.00  0.00     0.000 C 
BRANCH  19  20
ATOM     20  C   UNL     1      43.333  61.372  49.658  1.00  0.00     0.006 C 
BRANCH  20  21
ATOM     21  C   UNL     1      44.432  60.999  48.660  1.00  0.00     0.053 C 
BRANCH  21  22
ATOM     22  C   UNL     1      45.675  61.788  48.930  1.00  0.00     0.041 C 
ATOM     23  O   UNL     1      46.438  61.460  49.875  1.00  0.00    -0.550 OA
ATOM     24  O   UNL     1      45.964  62.915  48.170  1.00  0.00    -0.550 OA
ENDBRANCH  21  22
ENDBRANCH  20  21
ENDBRANCH  19  20
ENDBRANCH  18  19
ENDBRANCH  17  18
ENDBRANCH  16  17
ENDBRANCH  15  16
ENDBRANCH  14  15
ENDBRANCH  13  14
ENDBRANCH   1  13
TORSDOF 20
ENDMDL
MODEL 4
REMARK VINA RESULT:    -3.060      2.663      4.900
REMARK INTER + INTRA:          -9.548
REMARK INTER:                  -6.889
REMARK INTRA:                  -2.659
REMARK UNBOUND:                -2.909
REMARK SMILES CCCCCCCCCCCCCCCCCCCCCC(=O)[O-]
REMARK SMILES IDX 12 1 11 2 10 3 9 4 8 5 7 6 6 7 5 8 4 9 3 10 2 11 1 12 13 13
REMARK SMILES IDX 14 14 15 15 16 16 17 17 18 18 19 19 20 20 21 21 22 22 23 23
REMARK SMILES IDX 24 24
REMARK H PARENT
REMARK Flexibility Score: inf
ROOT
ATOM      1  C   UNL     1      42.856  57.596  49.449  1.00  0.00     0.000 C 
ENDROOT
BRANCH   1   2
ATOM      2  C   UNL     1      43.024  56.533  48.349  1.00  0.00     0.000 C 
BRANCH   2   3
ATOM      3  C   UNL     1      44.387  56.613  47.647  1.00  0.00     0.000 C 
BRANCH   3   4
ATOM      4  C   UNL     1      44.713  58.054  47.237  1.00  0.00    -0.000 C 
BRANCH   4   5
ATOM      5  C   UNL     1      43.792  58.523  46.099  1.00  0.00    -0.000 C 
BRANCH   5   6
ATOM      6  C   UNL     1      43.855  57.600  44.863  1.00  0.00    -0.000 C 
BRANCH   6   7
ATOM      7  C   UNL     1      42.479  57.079  44.403  1.00  0.00    -0.000 C 
BRANCH   7   8
ATOM      8  C   UNL     1      41.278  57.964  44.789  1.00  0.00    -0.000 C 
BRANCH   8   9
ATOM      9  C   UNL     1      40.122  57.227  45.492  1.00  0.00    -0.000 C 
BRANCH   9  10
ATOM     10  C   UNL     1      40.605  56.266  46.591  1.00  0.00    -0.000 C 
BRANCH  10  11
ATOM     11  C   UNL     1      39.449  55.488  47.242  1.00  0.00    -0.003 C 
ATOM     12  C   UNL     1      39.697  53.980  47.283  1.00  0.00     0.004 C 
ENDBRANCH  10  11
ENDBRANCH   9  10
ENDBRANCH   8   9
ENDBRANCH   7   8
ENDBRANCH   6   7
ENDBRANCH   5   6
ENDBRANCH   4   5
ENDBRANCH   3   4
ENDBRANCH   2   3
ENDBRANCH   1   2
BRANCH   1  13
ATOM     13  C   UNL     1      41.398  58.002  49.746  1.00  0.00     0.000 C 
BRANCH  13  14
ATOM     14  C   UNL     1      40.737  58.905  48.685  1.00  0.00     0.000 C 
BRANCH  14  15
ATOM     15  C   UNL     1      41.670  59.947  48.042  1.00  0.00     0.000 C 
BRANCH  15  16
ATOM     16  C   UNL     1      41.642  61.301  48.772  1.00  0.00     0.000 C 
BRANCH  16  17
ATOM     17  C   UNL     1      42.634  61.365  49.943  1.00  0.00     0.000 C 
BRANCH  17  18
ATOM     18  C   UNL     1      43.799  62.333  49.688  1.00  0.00     0.000 C 
BRANCH  18  19
ATOM     19  C   UNL     1      45.010  61.595  49.103  1.00  0.00     0.000 C 
BRANCH  19  20
ATOM     20  C   UNL     1      45.027  60.127  49.548  1.00  0.00     0.006 C 
BRANCH  20  21
ATOM     21  C   UNL     1      45.982  59.922  50.726  1.00  0.00     0.053 C 
BRANCH  21  22
ATOM     22  C   UNL     1      46.076  58.470  51.077  1.00  0.00     0.041 C 
ATOM     23  O   UNL     1      46.443  57.633  50.212  1.00  0.00    -0.550 OA
ATOM     24  O   UNL     1      45.710  58.035  52.346  1.00  0.00    -0.550 OA
ENDBRANCH  21  22
ENDBRANCH  20  21
ENDBRANCH  19  20
ENDBRANCH  18  19
ENDBRANCH  17  18
ENDBRANCH  16  17
ENDBRANCH  15  16
ENDBRANCH  14  15
ENDBRANCH  13  14
ENDBRANCH   1  13
TORSDOF 20
ENDMDL
MODEL 5
REMARK VINA RESULT:    -2.929      1.259      4.631
REMARK INTER + INTRA:          -9.263
REMARK INTER:                  -6.906
REMARK INTRA:                  -2.356
REMARK UNBOUND:                -2.909
REMARK SMILES CCCCCCCCCCCCCCCCCCCCCC(=O)[O-]
REMARK SMILES IDX 12 1 11 2 10 3 9 4 8 5 7 6 6 7 5 8 4 9 3 10 2 11 1 12 13 13
REMARK SMILES IDX 14 14 15 15 16 16 17 17 18 18 19 19 20 20 21 21 22 22 23 23
REMARK SMILES IDX 24 24
REMARK H PARENT
REMARK Flexibility Score: inf
ROOT
ATOM      1  C   UNL     1      44.832  60.409  49.074  1.00  0.00     0.000 C 
ENDROOT
BRANCH   1   2
ATOM      2  C   UNL     1      44.877  61.916  49.380  1.00  0.00     0.000 C 
BRANCH   2   3
ATOM      3  C   UNL     1      43.521  62.472  49.839  1.00  0.00     0.000 C 
BRANCH   3   4
ATOM      4  C   UNL     1      42.485  61.351  49.978  1.00  0.00    -0.000 C 
BRANCH   4   5
ATOM      5  C   UNL     1      41.586  61.275  48.732  1.00  0.00    -0.000 C 
BRANCH   5   6
ATOM      6  C   UNL     1      41.484  59.845  48.159  1.00  0.00    -0.000 C 
BRANCH   6   7
ATOM      7  C   UNL     1      41.590  58.736  49.224  1.00  0.00    -0.000 C 
BRANCH   7   8
ATOM      8  C   UNL     1      40.270  58.014  49.557  1.00  0.00    -0.000 C 
BRANCH   8   9
ATOM      9  C   UNL     1      39.609  57.281  48.374  1.00  0.00    -0.000 C 
BRANCH   9  10
ATOM     10  C   UNL     1      40.600  56.412  47.581  1.00  0.00    -0.000 C 
BRANCH  10  11
ATOM     11  C   UNL     1      39.895  55.335  46.738  1.00  0.00    -0.003 C 
ATOM     12  C   UNL     1      39.643  54.043  47.514  1.00  0.00     0.004 C 
ENDBRANCH  10  11
ENDBRANCH   9  10
ENDBRANCH   8   9
ENDBRANCH   7   8
ENDBRANCH   6   7
ENDBRANCH   5   6
ENDBRANCH   4   5
ENDBRANCH   3   4
ENDBRANCH   2   3
ENDBRANCH   1   2
BRANCH   1  13
ATOM     13  C   UNL     1      45.546  59.512  50.106  1.00  0.00     0.000 C 
BRANCH  13  14
ATOM     14  C   UNL     1      45.432  57.996  49.850  1.00  0.00     0.000 C 
BRANCH  14  15
ATOM     15  C   UNL     1      46.114  57.498  48.563  1.00  0.00     0.000 C 
BRANCH  15  16
ATOM     16  C   UNL     1      45.289  56.429  47.827  1.00  0.00     0.000 C 
BRANCH  16  17
ATOM     17  C   UNL     1      43.932  56.958  47.337  1.00  0.00     0.000 C 
BRANCH  17  18
ATOM     18  C   UNL     1      44.069  58.100  46.319  1.00  0.00     0.000 C 
BRANCH  18  19
ATOM     19  C   UNL     1      43.824  57.598  44.891  1.00  0.00     0.000 C 
BRANCH  19  20
ATOM     20  C   UNL     1      42.341  57.278  44.666  1.00  0.00     0.006 C 
BRANCH  20  21
ATOM     21  C   UNL     1      41.458  58.464  45.061  1.00  0.00     0.053 C 
BRANCH  21  22
ATOM     22  C   UNL     1      40.159  58.420  44.320  1.00  0.00     0.041 C 
ATOM     23  O   UNL     1      39.278  57.577  44.636  1.00  0.00    -0.550 OA
ATOM     24  O   UNL     1      39.939  59.275  43.246  1.00  0.00    -0.550 OA
ENDBRANCH  21  22
ENDBRANCH  20  21
ENDBRANCH  19  20
ENDBRANCH  18  19
ENDBRANCH  17  18
ENDBRANCH  16  17
ENDBRANCH  15  16
ENDBRANCH  14  15
ENDBRANCH  13  14
ENDBRANCH   1  13
TORSDOF 20
ENDMDL
MODEL 6
REMARK VINA RESULT:    -2.832      0.846      4.283
REMARK INTER + INTRA:          -9.051
REMARK INTER:                  -5.899
REMARK INTRA:                  -3.153
REMARK UNBOUND:                -2.909
REMARK SMILES CCCCCCCCCCCCCCCCCCCCCC(=O)[O-]
REMARK SMILES IDX 12 1 11 2 10 3 9 4 8 5 7 6 6 7 5 8 4 9 3 10 2 11 1 12 13 13
REMARK SMILES IDX 14 14 15 15 16 16 17 17 18 18 19 19 20 20 21 21 22 22 23 23
REMARK SMILES IDX 24 24
REMARK H PARENT
REMARK Flexibility Score: inf
ROOT
ATOM      1  C   UNL     1      46.428  57.619  48.708  1.00  0.00     0.000 C 
ENDROOT
BRANCH   1   2
ATOM      2  C   UNL     1      46.627  57.552  50.233  1.00  0.00     0.000 C 
BRANCH   2   3
ATOM      3  C   UNL     1      46.002  58.747  50.968  1.00  0.00     0.000 C 
BRANCH   3   4
ATOM      4  C   UNL     1      45.014  59.494  50.065  1.00  0.00    -0.000 C 
BRANCH   4   5
ATOM      5  C   UNL     1      45.614  60.821  49.573  1.00  0.00    -0.000 C 
BRANCH   5   6
ATOM      6  C   UNL     1      44.562  61.748  48.928  1.00  0.00    -0.000 C 
BRANCH   6   7
ATOM      7  C   UNL     1      43.371  62.077  49.850  1.00  0.00    -0.000 C 
BRANCH   7   8
ATOM      8  C   UNL     1      42.075  61.299  49.554  1.00  0.00    -0.000 C 
BRANCH   8   9
ATOM      9  C   UNL     1      42.026  60.607  48.178  1.00  0.00    -0.000 C 
BRANCH   9  10
ATOM     10  C   UNL     1      41.216  59.300  48.194  1.00  0.00    -0.000 C 
BRANCH  10  11
ATOM     11  C   UNL     1      41.244  58.607  49.566  1.00  0.00    -0.003 C 
ATOM     12  C   UNL     1      42.274  57.479  49.642  1.00  0.00     0.004 C 
ENDBRANCH  10  11
ENDBRANCH   9  10
ENDBRANCH   8   9
ENDBRANCH   7   8
ENDBRANCH   6   7
ENDBRANCH   5   6
ENDBRANCH   4   5
ENDBRANCH   3   4
ENDBRANCH   2   3
ENDBRANCH   1   2
BRANCH   1  13
ATOM     13  C   UNL     1      45.618  56.454  48.105  1.00  0.00     0.000 C 
BRANCH  13  14
ATOM     14  C   UNL     1      44.399  56.870  47.256  1.00  0.00     0.000 C 
BRANCH  14  15
ATOM     15  C   UNL     1      44.365  58.354  46.848  1.00  0.00     0.000 C 
BRANCH  15  16
ATOM     16  C   UNL     1      43.754  58.573  45.453  1.00  0.00     0.000 C 
BRANCH  16  17
ATOM     17  C   UNL     1      43.649  57.274  44.639  1.00  0.00     0.000 C 
BRANCH  17  18
ATOM     18  C   UNL     1      42.247  57.046  44.055  1.00  0.00     0.000 C 
BRANCH  18  19
ATOM     19  C   UNL     1      41.228  58.009  44.678  1.00  0.00     0.000 C 
BRANCH  19  20
ATOM     20  C   UNL     1      40.161  57.243  45.470  1.00  0.00     0.006 C 
BRANCH  20  21
ATOM     21  C   UNL     1      40.802  56.368  46.550  1.00  0.00     0.053 C 
BRANCH  21  22
ATOM     22  C   UNL     1      39.751  55.625  47.314  1.00  0.00     0.041 C 
ATOM     23  O   UNL     1      39.594  54.389  47.135  1.00  0.00    -0.550 OA
ATOM     24  O   UNL     1      38.910  56.308  48.186  1.00  0.00    -0.550 OA
ENDBRANCH  21  22
ENDBRANCH  20  21
ENDBRANCH  19  20
ENDBRANCH  18  19
ENDBRANCH  17  18
ENDBRANCH  16  17
ENDBRANCH  15  16
ENDBRANCH  14  15
ENDBRANCH  13  14
ENDBRANCH   1  13
TORSDOF 20
ENDMDL
MODEL 7
REMARK VINA RESULT:    -2.589      2.618      5.559
REMARK INTER + INTRA:          -8.525
REMARK INTER:                  -5.921
REMARK INTRA:                  -2.605
REMARK UNBOUND:                -2.909
REMARK SMILES CCCCCCCCCCCCCCCCCCCCCC(=O)[O-]
REMARK SMILES IDX 12 1 11 2 10 3 9 4 8 5 7 6 6 7 5 8 4 9 3 10 2 11 1 12 13 13
REMARK SMILES IDX 14 14 15 15 16 16 17 17 18 18 19 19 20 20 21 21 22 22 23 23
REMARK SMILES IDX 24 24
REMARK H PARENT
REMARK Flexibility Score: inf
ROOT
ATOM      1  C   UNL     1      39.275  57.619  48.399  1.00  0.00     0.000 C 
ENDROOT
BRANCH   1   2
ATOM      2  C   UNL     1      39.511  56.173  47.928  1.00  0.00     0.000 C 
BRANCH   2   3
ATOM      3  C   UNL     1      40.010  56.094  46.477  1.00  0.00     0.000 C 
BRANCH   3   4
ATOM      4  C   UNL     1      40.763  57.370  46.083  1.00  0.00    -0.000 C 
BRANCH   4   5
ATOM      5  C   UNL     1      40.456  57.763  44.629  1.00  0.00    -0.000 C 
BRANCH   5   6
ATOM      6  C   UNL     1      41.670  57.579  43.694  1.00  0.00    -0.000 C 
BRANCH   6   7
ATOM      7  C   UNL     1      42.821  56.765  44.318  1.00  0.00    -0.000 C 
BRANCH   7   8
ATOM      8  C   UNL     1      44.078  57.577  44.684  1.00  0.00    -0.000 C 
BRANCH   8   9
ATOM      9  C   UNL     1      43.885  58.610  45.811  1.00  0.00    -0.000 C 
BRANCH   9  10
ATOM     10  C   UNL     1      44.608  58.219  47.111  1.00  0.00    -0.000 C 
BRANCH  10  11
ATOM     11  C   UNL     1      44.467  56.722  47.436  1.00  0.00    -0.003 C 
ATOM     12  C   UNL     1      43.315  56.429  48.397  1.00  0.00     0.004 C 
ENDBRANCH  10  11
ENDBRANCH   9  10
ENDBRANCH   8   9
ENDBRANCH   7   8
ENDBRANCH   6   7
ENDBRANCH   5   6
ENDBRANCH   4   5
ENDBRANCH   3   4
ENDBRANCH   2   3
ENDBRANCH   1   2
BRANCH   1  13
ATOM     13  C   UNL     1      40.013  58.011  49.695  1.00  0.00     0.000 C 
BRANCH  13  14
ATOM     14  C   UNL     1      41.337  58.775  49.492  1.00  0.00     0.000 C 
BRANCH  14  15
ATOM     15  C   UNL     1      41.488  59.467  48.126  1.00  0.00     0.000 C 
BRANCH  15  16
ATOM     16  C   UNL     1      41.814  60.965  48.249  1.00  0.00     0.000 C 
BRANCH  16  17
ATOM     17  C   UNL     1      42.133  61.386  49.692  1.00  0.00     0.000 C 
BRANCH  17  18
ATOM     18  C   UNL     1      43.513  62.048  49.830  1.00  0.00     0.000 C 
BRANCH  18  19
ATOM     19  C   UNL     1      44.545  61.364  48.926  1.00  0.00     0.000 C 
BRANCH  19  20
ATOM     20  C   UNL     1      45.522  60.516  49.749  1.00  0.00     0.006 C 
BRANCH  20  21
ATOM     21  C   UNL     1      44.860  59.221  50.224  1.00  0.00     0.053 C 
BRANCH  21  22
ATOM     22  C   UNL     1      45.879  58.297  50.815  1.00  0.00     0.041 C 
ATOM     23  O   UNL     1      46.001  58.207  52.065  1.00  0.00    -0.550 OA
ATOM     24  O   UNL     1      46.729  57.575  49.986  1.00  0.00    -0.550 OA
ENDBRANCH  21  22
ENDBRANCH  20  21
ENDBRANCH  19  20
ENDBRANCH  18  19
ENDBRANCH  17  18
ENDBRANCH  16  17
ENDBRANCH  15  16
ENDBRANCH  14  15
ENDBRANCH  13  14
ENDBRANCH   1  13
TORSDOF 20
ENDMDL
MODEL 8
REMARK VINA RESULT:    -2.543      1.901      6.034
REMARK INTER + INTRA:          -8.425
REMARK INTER:                  -5.678
REMARK INTRA:                  -2.747
REMARK UNBOUND:                -2.909
REMARK SMILES CCCCCCCCCCCCCCCCCCCCCC(=O)[O-]
REMARK SMILES IDX 12 1 11 2 10 3 9 4 8 5 7 6 6 7 5 8 4 9 3 10 2 11 1 12 13 13
REMARK SMILES IDX 14 14 15 15 16 16 17 17 18 18 19 19 20 20 21 21 22 22 23 23
REMARK SMILES IDX 24 24
REMARK H PARENT
REMARK Flexibility Score: inf
ROOT
ATOM      1  C   UNL     1      39.713  58.249  49.249  1.00  0.00     0.000 C 
ENDROOT
BRANCH   1   2
ATOM      2  C   UNL     1      41.159  58.012  49.718  1.00  0.00     0.000 C 
BRANCH   2   3
ATOM      3  C   UNL     1      42.150  59.027  49.130  1.00  0.00     0.000 C 
BRANCH   3   4
ATOM      4  C   UNL     1      41.424  60.077  48.281  1.00  0.00    -0.000 C 
BRANCH   4   5
ATOM      5  C   UNL     1      41.599  61.483  48.877  1.00  0.00    -0.000 C 
BRANCH   5   6
ATOM      6  C   UNL     1      42.679  61.533  49.978  1.00  0.00    -0.000 C 
BRANCH   6   7
ATOM      7  C   UNL     1      43.960  62.283  49.563  1.00  0.00    -0.000 C 
BRANCH   7   8
ATOM      8  C   UNL     1      45.076  61.402  48.971  1.00  0.00    -0.000 C 
BRANCH   8   9
ATOM      9  C   UNL     1      45.855  60.556  49.996  1.00  0.00    -0.000 C 
BRANCH   9  10
ATOM     10  C   UNL     1      45.269  59.145  50.175  1.00  0.00    -0.000 C 
BRANCH  10  11
ATOM     11  C   UNL     1      46.192  58.223  50.988  1.00  0.00    -0.003 C 
ATOM     12  C   UNL     1      45.746  58.067  52.443  1.00  0.00     0.004 C 
ENDBRANCH  10  11
ENDBRANCH   9  10
ENDBRANCH   8   9
ENDBRANCH   7   8
ENDBRANCH   6   7
ENDBRANCH   5   6
ENDBRANCH   4   5
ENDBRANCH   3   4
ENDBRANCH   2   3
ENDBRANCH   1   2
BRANCH   1  13
ATOM     13  C   UNL     1      39.209  57.269  48.169  1.00  0.00     0.000 C 
BRANCH  13  14
ATOM     14  C   UNL     1      40.235  56.214  47.708  1.00  0.00     0.000 C 
BRANCH  14  15
ATOM     15  C   UNL     1      40.546  56.222  46.201  1.00  0.00     0.000 C 
BRANCH  15  16
ATOM     16  C   UNL     1      40.231  57.572  45.535  1.00  0.00     0.000 C 
BRANCH  16  17
ATOM     17  C   UNL     1      41.355  58.051  44.602  1.00  0.00     0.000 C 
BRANCH  17  18
ATOM     18  C   UNL     1      42.462  57.003  44.412  1.00  0.00     0.000 C 
BRANCH  18  19
ATOM     19  C   UNL     1      43.830  57.568  44.813  1.00  0.00     0.000 C 
BRANCH  19  20
ATOM     20  C   UNL     1      43.713  58.465  46.052  1.00  0.00     0.006 C 
BRANCH  20  21
ATOM     21  C   UNL     1      44.891  58.242  47.003  1.00  0.00     0.053 C 
BRANCH  21  22
ATOM     22  C   UNL     1      44.801  56.890  47.641  1.00  0.00     0.041 C 
ATOM     23  O   UNL     1      43.675  56.384  47.892  1.00  0.00    -0.550 OA
ATOM     24  O   UNL     1      45.958  56.212  48.004  1.00  0.00    -0.550 OA
ENDBRANCH  21  22
ENDBRANCH  20  21
ENDBRANCH  19  20
ENDBRANCH  18  19
ENDBRANCH  17  18
ENDBRANCH  16  17
ENDBRANCH  15  16
ENDBRANCH  14  15
ENDBRANCH  13  14
ENDBRANCH   1  13
TORSDOF 20
ENDMDL
MODEL 9
REMARK VINA RESULT:    -2.499      2.120      5.391
REMARK INTER + INTRA:          -8.330
REMARK INTER:                  -5.756
REMARK INTRA:                  -2.574
REMARK UNBOUND:                -2.909
REMARK SMILES CCCCCCCCCCCCCCCCCCCCCC(=O)[O-]
REMARK SMILES IDX 12 1 11 2 10 3 9 4 8 5 7 6 6 7 5 8 4 9 3 10 2 11 1 12 13 13
REMARK SMILES IDX 14 14 15 15 16 16 17 17 18 18 19 19 20 20 21 21 22 22 23 23
REMARK SMILES IDX 24 24
REMARK H PARENT
REMARK Flexibility Score: inf
ROOT
ATOM      1  C   UNL     1      43.802  57.427  44.607  1.00  0.00     0.000 C 
ENDROOT
BRANCH   1   2
ATOM      2  C   UNL     1      43.804  58.665  45.521  1.00  0.00     0.000 C 
BRANCH   2   3
ATOM      3  C   UNL     1      44.379  58.375  46.915  1.00  0.00     0.000 C 
BRANCH   3   4
ATOM      4  C   UNL     1      44.051  56.946  47.360  1.00  0.00    -0.000 C 
BRANCH   4   5
ATOM      5  C   UNL     1      45.278  56.273  47.997  1.00  0.00    -0.000 C 
BRANCH   5   6
ATOM      6  C   UNL     1      46.415  57.273  48.299  1.00  0.00    -0.000 C 
BRANCH   6   7
ATOM      7  C   UNL     1      46.580  57.597  49.796  1.00  0.00    -0.000 C 
BRANCH   7   8
ATOM      8  C   UNL     1      45.435  58.416  50.423  1.00  0.00    -0.000 C 
BRANCH   8   9
ATOM      9  C   UNL     1      45.644  59.942  50.420  1.00  0.00    -0.000 C 
BRANCH   9  10
ATOM     10  C   UNL     1      45.309  60.590  49.067  1.00  0.00    -0.000 C 
BRANCH  10  11
ATOM     11  C   UNL     1      45.181  62.120  49.162  1.00  0.00    -0.003 C 
ATOM     12  C   UNL     1      46.255  62.857  48.360  1.00  0.00     0.004 C 
ENDBRANCH  10  11
ENDBRANCH   9  10
ENDBRANCH   8   9
ENDBRANCH   7   8
ENDBRANCH   6   7
ENDBRANCH   5   6
ENDBRANCH   4   5
ENDBRANCH   3   4
ENDBRANCH   2   3
ENDBRANCH   1   2
BRANCH   1  13
ATOM     13  C   UNL     1      42.405  56.866  44.270  1.00  0.00     0.000 C 
BRANCH  13  14
ATOM     14  C   UNL     1      41.243  57.872  44.406  1.00  0.00     0.000 C 
BRANCH  14  15
ATOM     15  C   UNL     1      40.392  57.718  45.679  1.00  0.00     0.000 C 
BRANCH  15  16
ATOM     16  C   UNL     1      40.365  56.273  46.205  1.00  0.00     0.000 C 
BRANCH  16  17
ATOM     17  C   UNL     1      39.980  56.188  47.690  1.00  0.00     0.000 C 
BRANCH  17  18
ATOM     18  C   UNL     1      39.277  57.456  48.198  1.00  0.00     0.000 C 
BRANCH  18  19
ATOM     19  C   UNL     1      40.007  58.041  49.414  1.00  0.00     0.000 C 
BRANCH  19  20
ATOM     20  C   UNL     1      41.518  58.121  49.163  1.00  0.00     0.006 C 
BRANCH  20  21
ATOM     21  C   UNL     1      42.093  59.438  49.689  1.00  0.00     0.053 C 
BRANCH  21  22
ATOM     22  C   UNL     1      41.831  60.548  48.719  1.00  0.00     0.041 C 
ATOM     23  O   UNL     1      41.655  61.723  49.136  1.00  0.00    -0.550 OA
ATOM     24  O   UNL     1      41.731  60.277  47.360  1.00  0.00    -0.550 OA
ENDBRANCH  21  22
ENDBRANCH  20  21
ENDBRANCH  19  20
ENDBRANCH  18  19
ENDBRANCH  17  18
ENDBRANCH  16  17
ENDBRANCH  15  16
ENDBRANCH  14  15
ENDBRANCH  13  14
ENDBRANCH   1  13
TORSDOF 20
ENDMDL
