MODEL 1
REMARK VINA RESULT:    -4.775      0.000      0.000
REMARK INTER + INTRA:         -11.798
REMARK INTER:                  -9.241
REMARK INTRA:                  -2.557
REMARK UNBOUND:                -2.557
REMARK SMILES CCCCCCCCCCCCCCCCCC(=O)[O-]
REMARK SMILES IDX 10 1 11 2 12 3 13 4 14 5 15 6 16 7 17 8 18 9 19 10 20 11
REMARK SMILES IDX 9 12 8 13 7 14 6 15 5 16 4 17 3 18 2 19 1 20
REMARK H PARENT
REMARK Flexibility Score: inf
ROOT
ATOM      1  C   UNL     1      20.247  19.787  49.255  1.00  0.00     0.000 C 
ENDROOT
BRANCH   1   2
ATOM      2  C   UNL     1      20.837  18.378  49.063  1.00  0.00     0.000 C 
BRANCH   2   3
ATOM      3  C   UNL     1      20.973  17.921  47.597  1.00  0.00     0.000 C 
BRANCH   3   4
ATOM      4  C   UNL     1      20.376  16.534  47.283  1.00  0.00     0.000 C 
BRANCH   4   5
ATOM      5  C   UNL     1      19.063  16.562  46.480  1.00  0.00     0.000 C 
BRANCH   5   6
ATOM      6  C   UNL     1      17.872  17.072  47.308  1.00  0.00     0.000 C 
BRANCH   6   7
ATOM      7  C   UNL     1      16.572  16.312  47.002  1.00  0.00     0.006 C 
BRANCH   7   8
ATOM      8  C   UNL     1      16.793  15.125  46.056  1.00  0.00     0.053 C 
BRANCH   8   9
ATOM      9  C   UNL     1      15.738  14.086  46.266  1.00  0.00     0.041 C 
ATOM     10  O   UNL     1      14.527  14.361  46.058  1.00  0.00    -0.550 OA
ATOM     11  O   UNL     1      16.095  12.798  46.645  1.00  0.00    -0.550 OA
ENDBRANCH   8   9
ENDBRANCH   7   8
ENDBRANCH   6   7
ENDBRANCH   5   6
ENDBRANCH   4   5
ENDBRANCH   3   4
ENDBRANCH   2   3
ENDBRANCH   1   2
BRANCH   1  12
ATOM     12  C   UNL     1      19.980  20.508  47.924  1.00  0.00     0.000 C 
BRANCH  12  13
ATOM     13  C   UNL     1      18.480  20.631  47.610  1.00  0.00    -0.000 C 
BRANCH  13  14
ATOM     14  C   UNL     1      18.210  21.440  46.330  1.00  0.00    -0.000 C 
BRANCH  14  15
ATOM     15  C   UNL     1      19.178  21.086  45.186  1.00  0.00    -0.000 C 
BRANCH  15  16
ATOM     16  C   UNL     1      19.158  19.609  44.741  1.00  0.00    -0.000 C 
BRANCH  16  17
ATOM     17  C   UNL     1      18.393  19.327  43.436  1.00  0.00    -0.000 C 
BRANCH  17  18
ATOM     18  C   UNL     1      17.240  18.327  43.624  1.00  0.00    -0.000 C 
BRANCH  18  19
ATOM     19  C   UNL     1      16.086  18.909  44.456  1.00  0.00    -0.003 C 
ATOM     20  C   UNL     1      15.523  20.202  43.866  1.00  0.00     0.004 C 
ENDBRANCH  18  19
ENDBRANCH  17  18
ENDBRANCH  16  17
ENDBRANCH  15  16
ENDBRANCH  14  15
ENDBRANCH  13  14
ENDBRANCH  12  13
ENDBRANCH   1  12
TORSDOF 16
ENDMDL
MODEL 2
REMARK VINA RESULT:    -4.698      2.235      5.099
REMARK INTER + INTRA:         -11.649
REMARK INTER:                  -9.059
REMARK INTRA:                  -2.590
REMARK UNBOUND:                -2.557
REMARK SMILES CCCCCCCCCCCCCCCCCC(=O)[O-]
REMARK SMILES IDX 10 1 11 2 12 3 13 4 14 5 15 6 16 7 17 8 18 9 19 10 20 11
REMARK SMILES IDX 9 12 8 13 7 14 6 15 5 16 4 17 3 18 2 19 1 20
REMARK H PARENT
REMARK Flexibility Score: inf
ROOT
ATOM      1  C   UNL     1      20.487  17.050  48.613  1.00  0.00     0.000 C 
ENDROOT
BRANCH   1   2
ATOM      2  C   UNL     1      21.019  18.493  48.547  1.00  0.00     0.000 C 
BRANCH   2   3
ATOM      3  C   UNL     1      20.282  19.504  49.447  1.00  0.00     0.000 C 
BRANCH   3   4
ATOM      4  C   UNL     1      19.748  20.759  48.725  1.00  0.00     0.000 C 
BRANCH   4   5
ATOM      5  C   UNL     1      18.842  20.471  47.514  1.00  0.00     0.000 C 
BRANCH   5   6
ATOM      6  C   UNL     1      19.458  20.945  46.187  1.00  0.00     0.000 C 
BRANCH   6   7
ATOM      7  C   UNL     1      19.539  19.822  45.141  1.00  0.00     0.006 C 
BRANCH   7   8
ATOM      8  C   UNL     1      18.863  20.199  43.817  1.00  0.00     0.053 C 
BRANCH   8   9
ATOM      9  C   UNL     1      17.502  19.584  43.731  1.00  0.00     0.041 C 
ATOM     10  O   UNL     1      17.336  18.497  43.118  1.00  0.00    -0.550 OA
ATOM     11  O   UNL     1      16.425  20.185  44.369  1.00  0.00    -0.550 OA
ENDBRANCH   8   9
ENDBRANCH   7   8
ENDBRANCH   6   7
ENDBRANCH   5   6
ENDBRANCH   4   5
ENDBRANCH   3   4
ENDBRANCH   2   3
ENDBRANCH   1   2
BRANCH   1  12
ATOM     12  C   UNL     1      20.485  16.352  47.242  1.00  0.00     0.000 C 
BRANCH  12  13
ATOM     13  C   UNL     1      19.147  16.512  46.502  1.00  0.00    -0.000 C 
BRANCH  13  14
ATOM     14  C   UNL     1      17.983  16.841  47.453  1.00  0.00    -0.000 C 
BRANCH  14  15
ATOM     15  C   UNL     1      16.822  17.562  46.746  1.00  0.00    -0.000 C 
BRANCH  15  16
ATOM     16  C   UNL     1      15.876  16.652  45.936  1.00  0.00    -0.000 C 
BRANCH  16  17
ATOM     17  C   UNL     1      15.664  15.243  46.518  1.00  0.00    -0.000 C 
BRANCH  17  18
ATOM     18  C   UNL     1      16.220  14.132  45.610  1.00  0.00    -0.000 C 
BRANCH  18  19
ATOM     19  C   UNL     1      17.258  13.253  46.325  1.00  0.00    -0.003 C 
ATOM     20  C   UNL     1      18.506  13.000  45.479  1.00  0.00     0.004 C 
ENDBRANCH  18  19
ENDBRANCH  17  18
ENDBRANCH  16  17
ENDBRANCH  15  16
ENDBRANCH  14  15
ENDBRANCH  13  14
ENDBRANCH  12  13
ENDBRANCH   1  12
TORSDOF 16
ENDMDL
MODEL 3
REMARK VINA RESULT:    -4.690      3.739      5.870
REMARK INTER + INTRA:         -11.634
REMARK INTER:                  -9.463
REMARK INTRA:                  -2.171
REMARK UNBOUND:                -2.557
REMARK SMILES CCCCCCCCCCCCCCCCCC(=O)[O-]
REMARK SMILES IDX 10 1 11 2 12 3 13 4 14 5 15 6 16 7 17 8 18 9 19 10 20 11
REMARK SMILES IDX 9 12 8 13 7 14 6 15 5 16 4 17 3 18 2 19 1 20
REMARK H PARENT
REMARK Flexibility Score: inf
ROOT
ATOM      1  C   UNL     1      18.326  16.101  46.730  1.00  0.00     0.000 C 
ENDROOT
BRANCH   1   2
ATOM      2  C   UNL     1      19.842  15.868  46.856  1.00  0.00     0.000 C 
BRANCH   2   3
ATOM      3  C   UNL     1      20.662  17.104  47.274  1.00  0.00     0.000 C 
BRANCH   3   4
ATOM      4  C   UNL     1      21.600  16.893  48.480  1.00  0.00     0.000 C 
BRANCH   4   5
ATOM      5  C   UNL     1      21.118  17.534  49.794  1.00  0.00     0.000 C 
BRANCH   5   6
ATOM      6  C   UNL     1      20.989  16.514  50.939  1.00  0.00     0.000 C 
BRANCH   6   7
ATOM      7  C   UNL     1      22.008  15.369  50.825  1.00  0.00     0.006 C 
BRANCH   7   8
ATOM      8  C   UNL     1      23.324  15.677  51.550  1.00  0.00     0.053 C 
BRANCH   8   9
ATOM      9  C   UNL     1      24.472  15.022  50.849  1.00  0.00     0.041 C 
ATOM     10  O   UNL     1      25.575  14.876  51.440  1.00  0.00    -0.550 OA
ATOM     11  O   UNL     1      24.311  14.529  49.561  1.00  0.00    -0.550 OA
ENDBRANCH   8   9
ENDBRANCH   7   8
ENDBRANCH   6   7
ENDBRANCH   5   6
ENDBRANCH   4   5
ENDBRANCH   3   4
ENDBRANCH   2   3
ENDBRANCH   1   2
BRANCH   1  12
ATOM     12  C   UNL     1      17.918  17.550  47.046  1.00  0.00     0.000 C 
BRANCH  12  13
ATOM     13  C   UNL     1      16.826  18.075  46.099  1.00  0.00    -0.000 C 
BRANCH  13  14
ATOM     14  C   UNL     1      17.392  18.535  44.745  1.00  0.00    -0.000 C 
BRANCH  14  15
ATOM     15  C   UNL     1      18.826  19.082  44.854  1.00  0.00    -0.000 C 
BRANCH  15  16
ATOM     16  C   UNL     1      18.952  20.618  44.786  1.00  0.00    -0.000 C 
BRANCH  16  17
ATOM     17  C   UNL     1      18.916  21.340  46.145  1.00  0.00    -0.000 C 
BRANCH  17  18
ATOM     18  C   UNL     1      19.897  20.739  47.166  1.00  0.00    -0.000 C 
BRANCH  18  19
ATOM     19  C   UNL     1      19.234  20.458  48.524  1.00  0.00    -0.003 C 
ATOM     20  C   UNL     1      20.037  21.009  49.702  1.00  0.00     0.004 C 
ENDBRANCH  18  19
ENDBRANCH  17  18
ENDBRANCH  16  17
ENDBRANCH  15  16
ENDBRANCH  14  15
ENDBRANCH  13  14
ENDBRANCH  12  13
ENDBRANCH   1  12
TORSDOF 16
ENDMDL
MODEL 4
REMARK VINA RESULT:    -4.684      2.700      5.087
REMARK INTER + INTRA:         -11.622
REMARK INTER:                  -9.038
REMARK INTRA:                  -2.584
REMARK UNBOUND:                -2.557
REMARK SMILES CCCCCCCCCCCCCCCCCC(=O)[O-]
REMARK SMILES IDX 10 1 11 2 12 3 13 4 14 5 15 6 16 7 17 8 18 9 19 10 20 11
REMARK SMILES IDX 9 12 8 13 7 14 6 15 5 16 4 17 3 18 2 19 1 20
REMARK H PARENT
REMARK Flexibility Score: inf
ROOT
ATOM      1  C   UNL     1      19.176  16.949  46.566  1.00  0.00     0.000 C 
ENDROOT
BRANCH   1   2
ATOM      2  C   UNL     1      17.938  17.032  47.478  1.00  0.00     0.000 C 
BRANCH   2   3
ATOM      3  C   UNL     1      16.640  16.463  46.872  1.00  0.00     0.000 C 
BRANCH   3   4
ATOM      4  C   UNL     1      15.917  17.394  45.878  1.00  0.00     0.000 C 
BRANCH   4   5
ATOM      5  C   UNL     1      15.778  16.834  44.451  1.00  0.00     0.000 C 
BRANCH   5   6
ATOM      6  C   UNL     1      17.094  16.900  43.657  1.00  0.00     0.000 C 
BRANCH   6   7
ATOM      7  C   UNL     1      17.138  18.093  42.689  1.00  0.00     0.006 C 
BRANCH   7   8
ATOM      8  C   UNL     1      15.787  18.810  42.575  1.00  0.00     0.053 C 
BRANCH   8   9
ATOM      9  C   UNL     1      15.942  20.268  42.873  1.00  0.00     0.041 C 
ATOM     10  O   UNL     1      15.125  20.848  43.637  1.00  0.00    -0.550 OA
ATOM     11  O   UNL     1      17.015  20.975  42.348  1.00  0.00    -0.550 OA
ENDBRANCH   8   9
ENDBRANCH   7   8
ENDBRANCH   6   7
ENDBRANCH   5   6
ENDBRANCH   4   5
ENDBRANCH   3   4
ENDBRANCH   2   3
ENDBRANCH   1   2
BRANCH   1  12
ATOM     12  C   UNL     1      20.183  15.881  47.025  1.00  0.00     0.000 C 
BRANCH  12  13
ATOM     13  C   UNL     1      21.302  16.465  47.903  1.00  0.00    -0.000 C 
BRANCH  13  14
ATOM     14  C   UNL     1      21.318  18.003  47.891  1.00  0.00    -0.000 C 
BRANCH  14  15
ATOM     15  C   UNL     1      20.825  18.614  49.215  1.00  0.00    -0.000 C 
BRANCH  15  16
ATOM     16  C   UNL     1      20.037  19.932  49.079  1.00  0.00    -0.000 C 
BRANCH  16  17
ATOM     17  C   UNL     1      19.906  20.474  47.644  1.00  0.00    -0.000 C 
BRANCH  17  18
ATOM     18  C   UNL     1      18.457  20.830  47.270  1.00  0.00    -0.000 C 
BRANCH  18  19
ATOM     19  C   UNL     1      18.089  20.381  45.848  1.00  0.00    -0.003 C 
ATOM     20  C   UNL     1      19.310  20.219  44.942  1.00  0.00     0.004 C 
ENDBRANCH  18  19
ENDBRANCH  17  18
ENDBRANCH  16  17
ENDBRANCH  15  16
ENDBRANCH  14  15
ENDBRANCH  13  14
ENDBRANCH  12  13
ENDBRANCH   1  12
TORSDOF 16
ENDMDL
MODEL 5
REMARK VINA RESULT:    -4.680      2.821      4.974
REMARK INTER + INTRA:         -11.615
REMARK INTER:                  -8.981
REMARK INTRA:                  -2.634
REMARK UNBOUND:                -2.557
REMARK SMILES CCCCCCCCCCCCCCCCCC(=O)[O-]
REMARK SMILES IDX 10 1 11 2 12 3 13 4 14 5 15 6 16 7 17 8 18 9 19 10 20 11
REMARK SMILES IDX 9 12 8 13 7 14 6 15 5 16 4 17 3 18 2 19 1 20
REMARK H PARENT
REMARK Flexibility Score: inf
ROOT
ATOM      1  C   UNL     1      21.166  18.356  47.847  1.00  0.00     0.000 C 
ENDROOT
BRANCH   1   2
ATOM      2  C   UNL     1      20.369  19.108  48.929  1.00  0.00     0.000 C 
BRANCH   2   3
ATOM      3  C   UNL     1      19.810  20.478  48.497  1.00  0.00     0.000 C 
BRANCH   3   4
ATOM      4  C   UNL     1      18.702  20.425  47.425  1.00  0.00     0.000 C 
BRANCH   4   5
ATOM      5  C   UNL     1      19.141  20.872  46.019  1.00  0.00     0.000 C 
BRANCH   5   6
ATOM      6  C   UNL     1      18.943  19.775  44.959  1.00  0.00     0.000 C 
BRANCH   6   7
ATOM      7  C   UNL     1      18.999  20.324  43.525  1.00  0.00     0.006 C 
BRANCH   7   8
ATOM      8  C   UNL     1      18.089  21.542  43.324  1.00  0.00     0.053 C 
BRANCH   8   9
ATOM      9  C   UNL     1      16.663  21.111  43.186  1.00  0.00     0.041 C 
ATOM     10  O   UNL     1      15.851  21.297  44.131  1.00  0.00    -0.550 OA
ATOM     11  O   UNL     1      16.217  20.549  41.997  1.00  0.00    -0.550 OA
ENDBRANCH   8   9
ENDBRANCH   7   8
ENDBRANCH   6   7
ENDBRANCH   5   6
ENDBRANCH   4   5
ENDBRANCH   3   4
ENDBRANCH   2   3
ENDBRANCH   1   2
BRANCH   1  12
ATOM     12  C   UNL     1      21.409  16.880  48.204  1.00  0.00     0.000 C 
BRANCH  12  13
ATOM     13  C   UNL     1      20.624  15.918  47.297  1.00  0.00    -0.000 C 
BRANCH  13  14
ATOM     14  C   UNL     1      19.562  16.641  46.451  1.00  0.00    -0.000 C 
BRANCH  14  15
ATOM     15  C   UNL     1      18.155  16.039  46.619  1.00  0.00    -0.000 C 
BRANCH  15  16
ATOM     16  C   UNL     1      17.105  16.982  47.242  1.00  0.00    -0.000 C 
BRANCH  16  17
ATOM     17  C   UNL     1      16.244  17.763  46.234  1.00  0.00    -0.000 C 
BRANCH  17  18
ATOM     18  C   UNL     1      15.692  16.876  45.106  1.00  0.00    -0.000 C 
BRANCH  18  19
ATOM     19  C   UNL     1      15.885  17.502  43.716  1.00  0.00    -0.003 C 
ATOM     20  C   UNL     1      17.186  17.063  43.043  1.00  0.00     0.004 C 
ENDBRANCH  18  19
ENDBRANCH  17  18
ENDBRANCH  16  17
ENDBRANCH  15  16
ENDBRANCH  14  15
ENDBRANCH  13  14
ENDBRANCH  12  13
ENDBRANCH   1  12
TORSDOF 16
ENDMDL
MODEL 6
REMARK VINA RESULT:    -4.634      1.615      4.844
REMARK INTER + INTRA:         -11.526
REMARK INTER:                  -9.226
REMARK INTRA:                  -2.300
REMARK UNBOUND:                -2.557
REMARK SMILES CCCCCCCCCCCCCCCCCC(=O)[O-]
REMARK SMILES IDX 10 1 11 2 12 3 13 4 14 5 15 6 16 7 17 8 18 9 19 10 20 11
REMARK SMILES IDX 9 12 8 13 7 14 6 15 5 16 4 17 3 18 2 19 1 20
REMARK H PARENT
REMARK Flexibility Score: inf
ROOT
ATOM      1  C   UNL     1      18.429  21.155  46.743  1.00  0.00     0.000 C 
ENDROOT
BRANCH   1   2
ATOM      2  C   UNL     1      19.477  21.030  45.622  1.00  0.00     0.000 C 
BRANCH   2   3
ATOM      3  C   UNL     1      19.388  19.739  44.785  1.00  0.00     0.000 C 
BRANCH   3   4
ATOM      4  C   UNL     1      18.158  19.639  43.860  1.00  0.00     0.000 C 
BRANCH   4   5
ATOM      5  C   UNL     1      17.220  18.455  44.159  1.00  0.00     0.000 C 
BRANCH   5   6
ATOM      6  C   UNL     1      17.773  17.520  45.248  1.00  0.00     0.000 C 
BRANCH   6   7
ATOM      7  C   UNL     1      16.845  17.423  46.469  1.00  0.00     0.006 C 
BRANCH   7   8
ATOM      8  C   UNL     1      16.573  15.974  46.889  1.00  0.00     0.053 C 
BRANCH   8   9
ATOM      9  C   UNL     1      15.552  15.351  45.990  1.00  0.00     0.041 C 
ATOM     10  O   UNL     1      14.605  16.043  45.533  1.00  0.00    -0.550 OA
ATOM     11  O   UNL     1      15.674  14.019  45.617  1.00  0.00    -0.550 OA
ENDBRANCH   8   9
ENDBRANCH   7   8
ENDBRANCH   6   7
ENDBRANCH   5   6
ENDBRANCH   4   5
ENDBRANCH   3   4
ENDBRANCH   2   3
ENDBRANCH   1   2
BRANCH   1  12
ATOM     12  C   UNL     1      18.595  20.085  47.835  1.00  0.00     0.000 C 
BRANCH  12  13
ATOM     13  C   UNL     1      19.860  20.299  48.682  1.00  0.00    -0.000 C 
BRANCH  13  14
ATOM     14  C   UNL     1      20.624  18.989  48.941  1.00  0.00    -0.000 C 
BRANCH  14  15
ATOM     15  C   UNL     1      21.201  18.372  47.655  1.00  0.00    -0.000 C 
BRANCH  15  16
ATOM     16  C   UNL     1      20.734  16.934  47.348  1.00  0.00    -0.000 C 
BRANCH  16  17
ATOM     17  C   UNL     1      21.367  15.837  48.223  1.00  0.00    -0.000 C 
BRANCH  17  18
ATOM     18  C   UNL     1      22.887  16.006  48.384  1.00  0.00    -0.000 C 
BRANCH  18  19
ATOM     19  C   UNL     1      23.384  15.567  49.770  1.00  0.00    -0.003 C 
ATOM     20  C   UNL     1      22.346  15.790  50.871  1.00  0.00     0.004 C 
ENDBRANCH  18  19
ENDBRANCH  17  18
ENDBRANCH  16  17
ENDBRANCH  15  16
ENDBRANCH  14  15
ENDBRANCH  13  14
ENDBRANCH  12  13
ENDBRANCH   1  12
TORSDOF 16
ENDMDL
MODEL 7
REMARK VINA RESULT:    -4.592      2.843      5.493
REMARK INTER + INTRA:         -11.443
REMARK INTER:                  -8.776
REMARK INTRA:                  -2.667
REMARK UNBOUND:                -2.557
REMARK SMILES CCCCCCCCCCCCCCCCCC(=O)[O-]
REMARK SMILES IDX 10 1 11 2 12 3 13 4 14 5 15 6 16 7 17 8 18 9 19 10 20 11
REMARK SMILES IDX 9 12 8 13 7 14 6 15 5 16 4 17 3 18 2 19 1 20
REMARK H PARENT
REMARK Flexibility Score: inf
ROOT
ATOM      1  C   UNL     1      16.471  16.499  47.204  1.00  0.00     0.000 C 
ENDROOT
BRANCH   1   2
ATOM      2  C   UNL     1      16.278  15.278  46.287  1.00  0.00     0.000 C 
BRANCH   2   3
ATOM      3  C   UNL     1      15.183  15.433  45.213  1.00  0.00     0.000 C 
BRANCH   3   4
ATOM      4  C   UNL     1      15.678  15.358  43.755  1.00  0.00     0.000 C 
BRANCH   4   5
ATOM      5  C   UNL     1      15.821  16.719  43.050  1.00  0.00     0.000 C 
BRANCH   5   6
ATOM      6  C   UNL     1      17.287  17.170  42.923  1.00  0.00     0.000 C 
BRANCH   6   7
ATOM      7  C   UNL     1      17.622  18.353  43.845  1.00  0.00     0.006 C 
BRANCH   7   8
ATOM      8  C   UNL     1      16.389  19.196  44.193  1.00  0.00     0.053 C 
BRANCH   8   9
ATOM      9  C   UNL     1      16.595  20.618  43.777  1.00  0.00     0.041 C 
ATOM     10  O   UNL     1      17.705  20.988  43.313  1.00  0.00    -0.550 OA
ATOM     11  O   UNL     1      15.546  21.525  43.856  1.00  0.00    -0.550 OA
ENDBRANCH   8   9
ENDBRANCH   7   8
ENDBRANCH   6   7
ENDBRANCH   5   6
ENDBRANCH   4   5
ENDBRANCH   3   4
ENDBRANCH   2   3
ENDBRANCH   1   2
BRANCH   1  12
ATOM     12  C   UNL     1      17.915  17.028  47.195  1.00  0.00     0.000 C 
BRANCH  12  13
ATOM     13  C   UNL     1      18.884  16.086  46.461  1.00  0.00    -0.000 C 
BRANCH  13  14
ATOM     14  C   UNL     1      20.300  16.115  47.060  1.00  0.00    -0.000 C 
BRANCH  14  15
ATOM     15  C   UNL     1      20.555  17.360  47.928  1.00  0.00    -0.000 C 
BRANCH  15  16
ATOM     16  C   UNL     1      21.384  18.473  47.255  1.00  0.00    -0.000 C 
BRANCH  16  17
ATOM     17  C   UNL     1      20.563  19.592  46.588  1.00  0.00    -0.000 C 
BRANCH  17  18
ATOM     18  C   UNL     1      19.725  20.398  47.595  1.00  0.00    -0.000 C 
BRANCH  18  19
ATOM     19  C   UNL     1      18.259  20.544  47.156  1.00  0.00    -0.003 C 
ATOM     20  C   UNL     1      17.830  22.003  46.996  1.00  0.00     0.004 C 
ENDBRANCH  18  19
ENDBRANCH  17  18
ENDBRANCH  16  17
ENDBRANCH  15  16
ENDBRANCH  14  15
ENDBRANCH  13  14
ENDBRANCH  12  13
ENDBRANCH   1  12
TORSDOF 16
ENDMDL
MODEL 8
REMARK VINA RESULT:    -4.591      3.832      5.273
REMARK INTER + INTRA:         -11.442
REMARK INTER:                  -9.073
REMARK INTRA:                  -2.369
REMARK UNBOUND:                -2.557
REMARK SMILES CCCCCCCCCCCCCCCCCC(=O)[O-]
REMARK SMILES IDX 10 1 11 2 12 3 13 4 14 5 15 6 16 7 17 8 18 9 19 10 20 11
REMARK SMILES IDX 9 12 8 13 7 14 6 15 5 16 4 17 3 18 2 19 1 20
REMARK H PARENT
REMARK Flexibility Score: inf
ROOT
ATOM      1  C   UNL     1      20.506  20.060  46.825  1.00  0.00     0.000 C 
ENDROOT
BRANCH   1   2
ATOM      2  C   UNL     1      21.177  18.734  47.226  1.00  0.00     0.000 C 
BRANCH   2   3
ATOM      3  C   UNL     1      20.989  18.327  48.701  1.00  0.00     0.000 C 
BRANCH   3   4
ATOM      4  C   UNL     1      21.204  16.829  49.000  1.00  0.00     0.000 C 
BRANCH   4   5
ATOM      5  C   UNL     1      22.229  16.128  48.090  1.00  0.00     0.000 C 
BRANCH   5   6
ATOM      6  C   UNL     1      22.040  14.602  48.047  1.00  0.00     0.000 C 
BRANCH   6   7
ATOM      7  C   UNL     1      23.223  13.844  48.669  1.00  0.00     0.006 C 
BRANCH   7   8
ATOM      8  C   UNL     1      24.379  14.774  49.059  1.00  0.00     0.053 C 
BRANCH   8   9
ATOM      9  C   UNL     1      24.536  14.816  50.546  1.00  0.00     0.041 C 
ATOM     10  O   UNL     1      23.525  14.948  51.286  1.00  0.00    -0.550 OA
ATOM     11  O   UNL     1      25.791  14.661  51.118  1.00  0.00    -0.550 OA
ENDBRANCH   8   9
ENDBRANCH   7   8
ENDBRANCH   6   7
ENDBRANCH   5   6
ENDBRANCH   4   5
ENDBRANCH   3   4
ENDBRANCH   2   3
ENDBRANCH   1   2
BRANCH   1  12
ATOM     12  C   UNL     1      19.527  20.579  47.891  1.00  0.00     0.000 C 
BRANCH  12  13
ATOM     13  C   UNL     1      18.167  20.982  47.296  1.00  0.00    -0.000 C 
BRANCH  13  14
ATOM     14  C   UNL     1      18.269  21.388  45.816  1.00  0.00    -0.000 C 
BRANCH  14  15
ATOM     15  C   UNL     1      17.384  20.524  44.899  1.00  0.00    -0.000 C 
BRANCH  15  16
ATOM     16  C   UNL     1      18.074  19.283  44.297  1.00  0.00    -0.000 C 
BRANCH  16  17
ATOM     17  C   UNL     1      17.436  17.932  44.667  1.00  0.00    -0.000 C 
BRANCH  17  18
ATOM     18  C   UNL     1      16.862  17.914  46.094  1.00  0.00    -0.000 C 
BRANCH  18  19
ATOM     19  C   UNL     1      17.777  17.180  47.087  1.00  0.00    -0.003 C 
ATOM     20  C   UNL     1      18.665  16.133  46.413  1.00  0.00     0.004 C 
ENDBRANCH  18  19
ENDBRANCH  17  18
ENDBRANCH  16  17
ENDBRANCH  15  16
ENDBRANCH  14  15
ENDBRANCH  13  14
ENDBRANCH  12  13
ENDBRANCH   1  12
TORSDOF 16
ENDMDL
MODEL 9
REMARK VINA RESULT:    -4.527      1.278      2.445
REMARK INTER + INTRA:         -11.319
REMARK INTER:                  -8.637
REMARK INTRA:                  -2.682
REMARK UNBOUND:                -2.557
REMARK SMILES CCCCCCCCCCCCCCCCCC(=O)[O-]
REMARK SMILES IDX 10 1 11 2 12 3 13 4 14 5 15 6 16 7 17 8 18 9 19 10 20 11
REMARK SMILES IDX 9 12 8 13 7 14 6 15 5 16 4 17 3 18 2 19 1 20
REMARK H PARENT
REMARK Flexibility Score: inf
ROOT
ATOM      1  C   UNL     1      21.152  17.648  47.561  1.00  0.00     0.000 C 
ENDROOT
BRANCH   1   2
ATOM      2  C   UNL     1      20.339  16.370  47.284  1.00  0.00     0.000 C 
BRANCH   2   3
ATOM      3  C   UNL     1      19.016  16.590  46.524  1.00  0.00     0.000 C 
BRANCH   3   4
ATOM      4  C   UNL     1      17.920  17.334  47.315  1.00  0.00     0.000 C 
BRANCH   4   5
ATOM      5  C   UNL     1      16.491  17.140  46.777  1.00  0.00     0.000 C 
BRANCH   5   6
ATOM      6  C   UNL     1      16.061  15.664  46.753  1.00  0.00     0.000 C 
BRANCH   6   7
ATOM      7  C   UNL     1      15.388  15.268  45.429  1.00  0.00     0.006 C 
BRANCH   7   8
ATOM      8  C   UNL     1      16.394  15.100  44.284  1.00  0.00     0.053 C 
BRANCH   8   9
ATOM      9  C   UNL     1      16.868  13.683  44.207  1.00  0.00     0.041 C 
ATOM     10  O   UNL     1      16.371  12.894  43.360  1.00  0.00    -0.550 OA
ATOM     11  O   UNL     1      17.892  13.246  45.037  1.00  0.00    -0.550 OA
ENDBRANCH   8   9
ENDBRANCH   7   8
ENDBRANCH   6   7
ENDBRANCH   5   6
ENDBRANCH   4   5
ENDBRANCH   3   4
ENDBRANCH   2   3
ENDBRANCH   1   2
BRANCH   1  12
ATOM     12  C   UNL     1      21.035  18.124  49.019  1.00  0.00     0.000 C 
BRANCH  12  13
ATOM     13  C   UNL     1      20.258  19.445  49.147  1.00  0.00    -0.000 C 
BRANCH  13  14
ATOM     14  C   UNL     1      20.294  20.277  47.853  1.00  0.00    -0.000 C 
BRANCH  14  15
ATOM     15  C   UNL     1      18.891  20.684  47.368  1.00  0.00    -0.000 C 
BRANCH  15  16
ATOM     16  C   UNL     1      18.771  20.958  45.855  1.00  0.00    -0.000 C 
BRANCH  16  17
ATOM     17  C   UNL     1      19.506  19.956  44.946  1.00  0.00    -0.000 C 
BRANCH  17  18
ATOM     18  C   UNL     1      18.797  19.742  43.598  1.00  0.00    -0.000 C 
BRANCH  18  19
ATOM     19  C   UNL     1      17.770  18.601  43.648  1.00  0.00    -0.003 C 
ATOM     20  C   UNL     1      16.325  19.101  43.623  1.00  0.00     0.004 C 
ENDBRANCH  18  19
ENDBRANCH  17  18
ENDBRANCH  16  17
ENDBRANCH  15  16
ENDBRANCH  14  15
ENDBRANCH  13  14
ENDBRANCH  12  13
ENDBRANCH   1  12
TORSDOF 16
ENDMDL
