MODEL 1
REMARK VINA RESULT:    -7.006      0.000      0.000
REMARK INTER + INTRA:         -11.820
REMARK INTER:                 -10.282
REMARK INTRA:                  -1.538
REMARK UNBOUND:                -1.538
REMARK SMILES O=c1c(OC[C@@H]2O[C@H](O)[C@H](O)[C@@H](O)[C@@H]2O)c(-c2ccc(O)c(O)c2)oc2cc(O)cc(O)c12
REMARK SMILES IDX 4 1 3 2 16 3 25 4 2 5 26 6 1 7 33 8 27 9 31 10 28 11 30 12
REMARK SMILES IDX 17 13 18 14 19 15 20 16 24 17 22 18 21 19 23 21 32 23 29 25
REMARK SMILES IDX 5 27 6 28 14 29 7 30 12 31 8 32 10 33 15 34 13 36 9 38 11 40
REMARK H PARENT 21 20 23 22 32 24 29 26 15 35 13 37 9 39 11 41
REMARK Flexibility Score: inf
ROOT
ATOM      1  O   UNL     1      -9.461  34.738   6.091  1.00  0.00    -0.483 OA
ENDROOT
BRANCH   1   2
ATOM      2  C   UNL     1     -10.229  35.526   6.914  1.00  0.00     0.211 A 
ATOM      3  C   UNL     1     -10.453  35.101   8.230  1.00  0.00     0.180 A 
ATOM      4  O   UNL     1     -10.806  36.012   9.174  1.00  0.00    -0.452 OA
ATOM      5  C   UNL     1     -10.658  36.873   6.566  1.00  0.00     0.239 A 
ATOM      6  C   UNL     1     -11.252  37.181   8.874  1.00  0.00     0.146 A 
ATOM      7  O   UNL     1     -10.722  37.167   5.336  1.00  0.00    -0.285 OA
ATOM      8  C   UNL     1     -11.125  37.726   7.595  1.00  0.00     0.111 A 
ATOM      9  C   UNL     1     -11.906  37.870   9.901  1.00  0.00     0.094 A 
ATOM     10  C   UNL     1     -11.302  39.167   7.491  1.00  0.00     0.134 A 
ATOM     11  C   UNL     1     -12.027  39.261   9.842  1.00  0.00     0.123 A 
ATOM     12  C   UNL     1     -11.745  39.886   8.609  1.00  0.00     0.093 A 
BRANCH   3  13
ATOM     13  C   UNL     1     -11.118  33.863   8.575  1.00  0.00     0.025 A 
ATOM     14  C   UNL     1     -10.897  33.568   9.941  1.00  0.00     0.016 A 
ATOM     15  C   UNL     1     -11.680  32.602  10.587  1.00  0.00     0.051 A 
ATOM     16  C   UNL     1     -12.519  31.827   9.784  1.00  0.00     0.157 A 
ATOM     17  C   UNL     1     -12.338  33.435   7.936  1.00  0.00     0.062 A 
ATOM     18  C   UNL     1     -12.736  32.151   8.416  1.00  0.00     0.158 A 
BRANCH  16  19
ATOM     19  O   UNL     1     -12.884  30.593  10.326  1.00  0.00    -0.504 OA
ATOM     20  H   UNL     1     -13.847  30.360  10.484  1.00  0.00     0.293 HD
ENDBRANCH  16  19
BRANCH  18  21
ATOM     21  O   UNL     1     -13.124  31.090   7.596  1.00  0.00    -0.504 OA
ATOM     22  H   UNL     1     -13.005  31.275   6.610  1.00  0.00     0.293 HD
ENDBRANCH  18  21
ENDBRANCH   3  13
BRANCH  10  23
ATOM     23  O   UNL     1     -11.237  39.756   6.233  1.00  0.00    -0.507 OA
ATOM     24  H   UNL     1     -11.972  40.446   6.007  1.00  0.00     0.293 HD
ENDBRANCH  10  23
BRANCH  11  25
ATOM     25  O   UNL     1     -12.933  39.908  10.701  1.00  0.00    -0.508 OA
ATOM     26  H   UNL     1     -13.165  40.885  10.526  1.00  0.00     0.293 HD
ENDBRANCH  11  25
ENDBRANCH   1   2
BRANCH   1  27
ATOM     27  C   UNL     1      -8.059  34.590   6.165  1.00  0.00     0.265 C 
BRANCH  27  28
ATOM     28  C   UNL     1      -7.801  33.060   6.286  1.00  0.00     0.190 C 
ATOM     29  C   UNL     1      -8.541  32.089   5.215  1.00  0.00     0.178 C 
ATOM     30  O   UNL     1      -6.360  32.847   6.253  1.00  0.00    -0.340 OA
ATOM     31  C   UNL     1      -7.675  30.834   4.887  1.00  0.00     0.179 C 
ATOM     32  C   UNL     1      -6.110  31.696   7.071  1.00  0.00     0.279 C 
ATOM     33  C   UNL     1      -6.730  30.559   6.190  1.00  0.00     0.201 C 
BRANCH  29  34
ATOM     34  O   UNL     1      -8.859  32.903   4.087  1.00  0.00    -0.387 OA
ATOM     35  H   UNL     1      -7.972  33.277   3.784  1.00  0.00     0.211 HD
ENDBRANCH  29  34
BRANCH  31  36
ATOM     36  O   UNL     1      -8.471  29.636   4.602  1.00  0.00    -0.387 OA
ATOM     37  H   UNL     1      -8.674  29.437   3.606  1.00  0.00     0.211 HD
ENDBRANCH  31  36
BRANCH  32  38
ATOM     38  O   UNL     1      -4.662  31.576   7.243  1.00  0.00    -0.366 OA
ATOM     39  H   UNL     1      -4.463  30.636   7.531  1.00  0.00     0.213 HD
ENDBRANCH  32  38
BRANCH  33  40
ATOM     40  O   UNL     1      -5.910  29.423   5.969  1.00  0.00    -0.385 OA
ATOM     41  H   UNL     1      -5.443  29.512   5.081  1.00  0.00     0.211 HD
ENDBRANCH  33  40
ENDBRANCH  27  28
ENDBRANCH   1  27
TORSDOF 12
ENDMDL
MODEL 2
REMARK VINA RESULT:    -6.943      1.881      5.638
REMARK INTER + INTRA:         -11.729
REMARK INTER:                 -11.062
REMARK INTRA:                  -0.667
REMARK UNBOUND:                -1.538
REMARK SMILES O=c1c(OC[C@@H]2O[C@H](O)[C@H](O)[C@@H](O)[C@@H]2O)c(-c2ccc(O)c(O)c2)oc2cc(O)cc(O)c12
REMARK SMILES IDX 4 1 3 2 16 3 25 4 2 5 26 6 1 7 33 8 27 9 31 10 28 11 30 12
REMARK SMILES IDX 17 13 18 14 19 15 20 16 24 17 22 18 21 19 23 21 32 23 29 25
REMARK SMILES IDX 5 27 6 28 14 29 7 30 12 31 8 32 10 33 15 34 13 36 9 38 11 40
REMARK H PARENT 21 20 23 22 32 24 29 26 15 35 13 37 9 39 11 41
REMARK Flexibility Score: inf
ROOT
ATOM      1  O   UNL     1     -11.176  32.725   7.641  1.00  0.00    -0.483 OA
ENDROOT
BRANCH   1   2
ATOM      2  C   UNL     1     -10.334  33.792   7.440  1.00  0.00     0.211 A 
ATOM      3  C   UNL     1      -9.323  33.675   6.477  1.00  0.00     0.180 A 
ATOM      4  O   UNL     1      -8.777  34.799   5.944  1.00  0.00    -0.452 OA
ATOM      5  C   UNL     1     -10.551  35.108   8.023  1.00  0.00     0.239 A 
ATOM      6  C   UNL     1      -8.906  35.957   6.491  1.00  0.00     0.146 A 
ATOM      7  O   UNL     1     -11.251  35.173   9.077  1.00  0.00    -0.285 OA
ATOM      8  C   UNL     1      -9.852  36.215   7.484  1.00  0.00     0.111 A 
ATOM      9  C   UNL     1      -8.016  36.943   6.054  1.00  0.00     0.094 A 
ATOM     10  C   UNL     1     -10.163  37.617   7.727  1.00  0.00     0.134 A 
ATOM     11  C   UNL     1      -8.332  38.294   6.226  1.00  0.00     0.123 A 
ATOM     12  C   UNL     1      -9.398  38.607   7.095  1.00  0.00     0.093 A 
BRANCH   3  13
ATOM     13  C   UNL     1      -8.270  32.685   6.530  1.00  0.00     0.025 A 
ATOM     14  C   UNL     1      -8.699  31.498   5.889  1.00  0.00     0.016 A 
ATOM     15  C   UNL     1      -7.768  30.513   5.538  1.00  0.00     0.051 A 
ATOM     16  C   UNL     1      -6.468  30.667   6.025  1.00  0.00     0.157 A 
ATOM     17  C   UNL     1      -6.872  33.038   6.525  1.00  0.00     0.062 A 
ATOM     18  C   UNL     1      -6.056  31.874   6.655  1.00  0.00     0.158 A 
BRANCH  16  19
ATOM     19  O   UNL     1      -5.721  29.491   6.107  1.00  0.00    -0.504 OA
ATOM     20  H   UNL     1      -6.147  28.624   6.380  1.00  0.00     0.293 HD
ENDBRANCH  16  19
BRANCH  18  21
ATOM     21  O   UNL     1      -4.985  31.759   7.543  1.00  0.00    -0.504 OA
ATOM     22  H   UNL     1      -5.261  31.773   8.516  1.00  0.00     0.293 HD
ENDBRANCH  18  21
ENDBRANCH   3  13
BRANCH  10  23
ATOM     23  O   UNL     1     -11.060  37.935   8.739  1.00  0.00    -0.507 OA
ATOM     24  H   UNL     1     -11.413  37.148   9.308  1.00  0.00     0.293 HD
ENDBRANCH  10  23
BRANCH  11  25
ATOM     25  O   UNL     1      -7.322  39.260   6.069  1.00  0.00    -0.508 OA
ATOM     26  H   UNL     1      -6.667  39.415   6.834  1.00  0.00     0.293 HD
ENDBRANCH  11  25
ENDBRANCH   1   2
BRANCH   1  27
ATOM     27  C   UNL     1     -12.422  32.772   8.303  1.00  0.00     0.265 C 
BRANCH  27  28
ATOM     28  C   UNL     1     -12.238  31.947   9.610  1.00  0.00     0.190 C 
ATOM     29  C   UNL     1     -12.552  30.356   9.542  1.00  0.00     0.178 C 
ATOM     30  O   UNL     1     -10.883  32.176  10.094  1.00  0.00    -0.340 OA
ATOM     31  C   UNL     1     -11.636  29.550  10.515  1.00  0.00     0.179 C 
ATOM     32  C   UNL     1     -10.953  32.094  11.523  1.00  0.00     0.279 C 
ATOM     33  C   UNL     1     -11.225  30.565  11.726  1.00  0.00     0.201 C 
BRANCH  29  34
ATOM     34  O   UNL     1     -12.436  29.981   8.170  1.00  0.00    -0.387 OA
ATOM     35  H   UNL     1     -12.885  30.729   7.662  1.00  0.00     0.211 HD
ENDBRANCH  29  34
BRANCH  31  36
ATOM     36  O   UNL     1     -12.286  28.362  11.076  1.00  0.00    -0.387 OA
ATOM     37  H   UNL     1     -12.196  27.482  10.537  1.00  0.00     0.211 HD
ENDBRANCH  31  36
BRANCH  32  38
ATOM     38  O   UNL     1      -9.665  32.533  12.061  1.00  0.00    -0.366 OA
ATOM     39  H   UNL     1      -9.487  32.011  12.900  1.00  0.00     0.213 HD
ENDBRANCH  32  38
BRANCH  33  40
ATOM     40  O   UNL     1     -10.390  29.900  12.659  1.00  0.00    -0.385 OA
ATOM     41  H   UNL     1     -10.817  29.927  13.572  1.00  0.00     0.211 HD
ENDBRANCH  33  40
ENDBRANCH  27  28
ENDBRANCH   1  27
TORSDOF 12
ENDMDL
MODEL 3
REMARK VINA RESULT:    -6.873      1.999      7.517
REMARK INTER + INTRA:         -11.625
REMARK INTER:                 -10.523
REMARK INTRA:                  -1.103
REMARK UNBOUND:                -1.538
REMARK SMILES O=c1c(OC[C@@H]2O[C@H](O)[C@H](O)[C@@H](O)[C@@H]2O)c(-c2ccc(O)c(O)c2)oc2cc(O)cc(O)c12
REMARK SMILES IDX 4 1 3 2 16 3 25 4 2 5 26 6 1 7 33 8 27 9 31 10 28 11 30 12
REMARK SMILES IDX 17 13 18 14 19 15 20 16 24 17 22 18 21 19 23 21 32 23 29 25
REMARK SMILES IDX 5 27 6 28 14 29 7 30 12 31 8 32 10 33 15 34 13 36 9 38 11 40
REMARK H PARENT 21 20 23 22 32 24 29 26 15 35 13 37 9 39 11 41
REMARK Flexibility Score: inf
ROOT
ATOM      1  O   UNL     1      -8.024  34.562   5.971  1.00  0.00    -0.483 OA
ENDROOT
BRANCH   1   2
ATOM      2  C   UNL     1      -8.117  33.238   6.325  1.00  0.00     0.211 A 
ATOM      3  C   UNL     1      -9.367  32.734   6.709  1.00  0.00     0.180 A 
ATOM      4  O   UNL     1      -9.598  31.397   6.636  1.00  0.00    -0.452 OA
ATOM      5  C   UNL     1      -7.041  32.277   6.135  1.00  0.00     0.239 A 
ATOM      6  C   UNL     1      -8.647  30.535   6.538  1.00  0.00     0.146 A 
ATOM      7  O   UNL     1      -5.859  32.728   6.068  1.00  0.00    -0.285 OA
ATOM      8  C   UNL     1      -7.344  30.895   6.190  1.00  0.00     0.111 A 
ATOM      9  C   UNL     1      -8.987  29.211   6.831  1.00  0.00     0.094 A 
ATOM     10  C   UNL     1      -6.481  29.816   5.731  1.00  0.00     0.134 A 
ATOM     11  C   UNL     1      -8.201  28.163   6.344  1.00  0.00     0.123 A 
ATOM     12  C   UNL     1      -6.932  28.492   5.822  1.00  0.00     0.093 A 
BRANCH   3  13
ATOM     13  C   UNL     1     -10.122  33.227   7.841  1.00  0.00     0.025 A 
ATOM     14  C   UNL     1     -11.293  33.878   7.386  1.00  0.00     0.016 A 
ATOM     15  C   UNL     1     -12.331  34.165   8.282  1.00  0.00     0.051 A 
ATOM     16  C   UNL     1     -12.068  33.968   9.639  1.00  0.00     0.157 A 
ATOM     17  C   UNL     1     -10.121  32.563   9.122  1.00  0.00     0.062 A 
ATOM     18  C   UNL     1     -10.890  33.299  10.073  1.00  0.00     0.158 A 
BRANCH  16  19
ATOM     19  O   UNL     1     -12.871  34.705  10.512  1.00  0.00    -0.504 OA
ATOM     20  H   UNL     1     -13.871  34.701  10.424  1.00  0.00     0.293 HD
ENDBRANCH  16  19
BRANCH  18  21
ATOM     21  O   UNL     1     -10.459  33.605  11.364  1.00  0.00    -0.504 OA
ATOM     22  H   UNL     1     -10.983  33.134  12.089  1.00  0.00     0.293 HD
ENDBRANCH  18  21
ENDBRANCH   3  13
BRANCH  10  23
ATOM     23  O   UNL     1      -5.158  30.107   5.421  1.00  0.00    -0.507 OA
ATOM     24  H   UNL     1      -4.441  29.760   6.078  1.00  0.00     0.293 HD
ENDBRANCH  10  23
BRANCH  11  25
ATOM     25  O   UNL     1      -8.363  26.875   6.884  1.00  0.00    -0.508 OA
ATOM     26  H   UNL     1      -9.109  26.715   7.559  1.00  0.00     0.293 HD
ENDBRANCH  11  25
ENDBRANCH   1   2
BRANCH   1  27
ATOM     27  C   UNL     1      -9.052  35.333   5.385  1.00  0.00     0.265 C 
BRANCH  27  28
ATOM     28  C   UNL     1      -9.267  36.544   6.338  1.00  0.00     0.190 C 
ATOM     29  C   UNL     1      -8.185  37.752   6.270  1.00  0.00     0.178 C 
ATOM     30  O   UNL     1     -10.612  37.055   6.113  1.00  0.00    -0.340 OA
ATOM     31  C   UNL     1      -8.847  39.132   6.576  1.00  0.00     0.179 C 
ATOM     32  C   UNL     1     -11.057  37.571   7.374  1.00  0.00     0.279 C 
ATOM     33  C   UNL     1     -10.142  38.833   7.525  1.00  0.00     0.201 C 
BRANCH  29  34
ATOM     34  O   UNL     1      -7.563  37.664   4.988  1.00  0.00    -0.387 OA
ATOM     35  H   UNL     1      -8.082  38.306   4.408  1.00  0.00     0.211 HD
ENDBRANCH  29  34
BRANCH  31  36
ATOM     36  O   UNL     1      -7.950  40.069   7.258  1.00  0.00    -0.387 OA
ATOM     37  H   UNL     1      -6.934  39.928   7.118  1.00  0.00     0.211 HD
ENDBRANCH  31  36
BRANCH  32  38
ATOM     38  O   UNL     1     -12.479  37.894   7.249  1.00  0.00    -0.366 OA
ATOM     39  H   UNL     1     -12.781  38.298   8.117  1.00  0.00     0.213 HD
ENDBRANCH  32  38
BRANCH  33  40
ATOM     40  O   UNL     1     -10.800  40.046   7.851  1.00  0.00    -0.385 OA
ATOM     41  H   UNL     1     -10.135  40.804   7.836  1.00  0.00     0.211 HD
ENDBRANCH  33  40
ENDBRANCH  27  28
ENDBRANCH   1  27
TORSDOF 12
ENDMDL
MODEL 4
REMARK VINA RESULT:    -6.488      0.932      1.644
REMARK INTER + INTRA:         -11.061
REMARK INTER:                  -9.350
REMARK INTRA:                  -1.711
REMARK UNBOUND:                -1.538
REMARK SMILES O=c1c(OC[C@@H]2O[C@H](O)[C@H](O)[C@@H](O)[C@@H]2O)c(-c2ccc(O)c(O)c2)oc2cc(O)cc(O)c12
REMARK SMILES IDX 4 1 3 2 16 3 25 4 2 5 26 6 1 7 33 8 27 9 31 10 28 11 30 12
REMARK SMILES IDX 17 13 18 14 19 15 20 16 24 17 22 18 21 19 23 21 32 23 29 25
REMARK SMILES IDX 5 27 6 28 14 29 7 30 12 31 8 32 10 33 15 34 13 36 9 38 11 40
REMARK H PARENT 21 20 23 22 32 24 29 26 15 35 13 37 9 39 11 41
REMARK Flexibility Score: inf
ROOT
ATOM      1  O   UNL     1      -9.524  34.646   6.072  1.00  0.00    -0.483 OA
ENDROOT
BRANCH   1   2
ATOM      2  C   UNL     1     -10.265  35.454   6.899  1.00  0.00     0.211 A 
ATOM      3  C   UNL     1     -10.450  35.060   8.231  1.00  0.00     0.180 A 
ATOM      4  O   UNL     1     -10.773  35.993   9.164  1.00  0.00    -0.452 OA
ATOM      5  C   UNL     1     -10.702  36.794   6.534  1.00  0.00     0.239 A 
ATOM      6  C   UNL     1     -11.225  37.157   8.851  1.00  0.00     0.146 A 
ATOM      7  O   UNL     1     -10.803  37.060   5.299  1.00  0.00    -0.285 OA
ATOM      8  C   UNL     1     -11.136  37.672   7.557  1.00  0.00     0.111 A 
ATOM      9  C   UNL     1     -11.846  37.870   9.881  1.00  0.00     0.094 A 
ATOM     10  C   UNL     1     -11.313  39.111   7.425  1.00  0.00     0.134 A 
ATOM     11  C   UNL     1     -11.966  39.260   9.794  1.00  0.00     0.123 A 
ATOM     12  C   UNL     1     -11.720  39.856   8.539  1.00  0.00     0.093 A 
BRANCH   3  13
ATOM     13  C   UNL     1     -11.107  33.832   8.624  1.00  0.00     0.025 A 
ATOM     14  C   UNL     1     -10.945  33.629  10.015  1.00  0.00     0.016 A 
ATOM     15  C   UNL     1     -11.738  32.690  10.685  1.00  0.00     0.051 A 
ATOM     16  C   UNL     1     -12.524  31.846   9.896  1.00  0.00     0.157 A 
ATOM     17  C   UNL     1     -12.287  33.337   7.959  1.00  0.00     0.062 A 
ATOM     18  C   UNL     1     -12.683  32.078   8.502  1.00  0.00     0.158 A 
BRANCH  16  19
ATOM     19  O   UNL     1     -12.890  30.641  10.499  1.00  0.00    -0.504 OA
ATOM     20  H   UNL     1     -13.846  30.449  10.736  1.00  0.00     0.293 HD
ENDBRANCH  16  19
BRANCH  18  21
ATOM     21  O   UNL     1     -13.011  30.959   7.735  1.00  0.00    -0.504 OA
ATOM     22  H   UNL     1     -12.844  31.081   6.746  1.00  0.00     0.293 HD
ENDBRANCH  18  21
ENDBRANCH   3  13
BRANCH  10  23
ATOM     23  O   UNL     1     -11.285  39.671   6.153  1.00  0.00    -0.507 OA
ATOM     24  H   UNL     1     -12.167  40.085   5.810  1.00  0.00     0.293 HD
ENDBRANCH  10  23
BRANCH  11  25
ATOM     25  O   UNL     1     -12.844  39.929  10.665  1.00  0.00    -0.508 OA
ATOM     26  H   UNL     1     -13.181  39.440  11.494  1.00  0.00     0.293 HD
ENDBRANCH  11  25
ENDBRANCH   1   2
BRANCH   1  27
ATOM     27  C   UNL     1      -8.133  34.427   6.163  1.00  0.00     0.265 C 
BRANCH  27  28
ATOM     28  C   UNL     1      -7.926  32.907   5.902  1.00  0.00     0.190 C 
ATOM     29  C   UNL     1      -6.398  32.367   5.795  1.00  0.00     0.178 C 
ATOM     30  O   UNL     1      -8.651  32.175   6.931  1.00  0.00    -0.340 OA
ATOM     31  C   UNL     1      -6.269  30.907   6.332  1.00  0.00     0.179 C 
ATOM     32  C   UNL     1      -9.089  30.956   6.318  1.00  0.00     0.279 C 
ATOM     33  C   UNL     1      -7.729  30.201   6.138  1.00  0.00     0.201 C 
BRANCH  29  34
ATOM     34  O   UNL     1      -5.584  33.323   6.472  1.00  0.00    -0.387 OA
ATOM     35  H   UNL     1      -4.767  33.422   5.888  1.00  0.00     0.211 HD
ENDBRANCH  29  34
BRANCH  31  36
ATOM     36  O   UNL     1      -5.250  30.118   5.633  1.00  0.00    -0.387 OA
ATOM     37  H   UNL     1      -4.265  30.410   5.760  1.00  0.00     0.211 HD
ENDBRANCH  31  36
BRANCH  32  38
ATOM     38  O   UNL     1     -10.005  30.291   7.246  1.00  0.00    -0.366 OA
ATOM     39  H   UNL     1     -10.614  30.990   7.631  1.00  0.00     0.213 HD
ENDBRANCH  32  38
BRANCH  33  40
ATOM     40  O   UNL     1      -7.690  28.862   6.603  1.00  0.00    -0.385 OA
ATOM     41  H   UNL     1      -7.846  28.233   5.831  1.00  0.00     0.211 HD
ENDBRANCH  33  40
ENDBRANCH  27  28
ENDBRANCH   1  27
TORSDOF 12
ENDMDL
MODEL 5
REMARK VINA RESULT:    -6.485     15.288     17.065
REMARK INTER + INTRA:         -11.057
REMARK INTER:                  -9.934
REMARK INTRA:                  -1.123
REMARK UNBOUND:                -1.538
REMARK SMILES O=c1c(OC[C@@H]2O[C@H](O)[C@H](O)[C@@H](O)[C@@H]2O)c(-c2ccc(O)c(O)c2)oc2cc(O)cc(O)c12
REMARK SMILES IDX 4 1 3 2 16 3 25 4 2 5 26 6 1 7 33 8 27 9 31 10 28 11 30 12
REMARK SMILES IDX 17 13 18 14 19 15 20 16 24 17 22 18 21 19 23 21 32 23 29 25
REMARK SMILES IDX 5 27 6 28 14 29 7 30 12 31 8 32 10 33 15 34 13 36 9 38 11 40
REMARK H PARENT 21 20 23 22 32 24 29 26 15 35 13 37 9 39 11 41
REMARK Flexibility Score: inf
ROOT
ATOM      1  O   UNL     1       3.218  44.301   0.167  1.00  0.00    -0.483 OA
ENDROOT
BRANCH   1   2
ATOM      2  C   UNL     1       2.409  44.789   1.165  1.00  0.00     0.211 A 
ATOM      3  C   UNL     1       1.075  44.362   1.215  1.00  0.00     0.180 A 
ATOM      4  O   UNL     1       0.390  44.453   2.384  1.00  0.00    -0.452 OA
ATOM      5  C   UNL     1       2.902  45.566   2.293  1.00  0.00     0.239 A 
ATOM      6  C   UNL     1       0.783  45.192   3.362  1.00  0.00     0.146 A 
ATOM      7  O   UNL     1       3.994  46.190   2.140  1.00  0.00    -0.285 OA
ATOM      8  C   UNL     1       2.076  45.712   3.433  1.00  0.00     0.111 A 
ATOM      9  C   UNL     1      -0.175  45.474   4.341  1.00  0.00     0.094 A 
ATOM     10  C   UNL     1       2.508  46.181   4.742  1.00  0.00     0.134 A 
ATOM     11  C   UNL     1       0.229  45.866   5.620  1.00  0.00     0.123 A 
ATOM     12  C   UNL     1       1.578  46.243   5.788  1.00  0.00     0.093 A 
BRANCH   3  13
ATOM     13  C   UNL     1       0.119  44.580   0.152  1.00  0.00     0.025 A 
ATOM     14  C   UNL     1       0.571  45.625  -0.689  1.00  0.00     0.016 A 
ATOM     15  C   UNL     1      -0.012  45.817  -1.947  1.00  0.00     0.051 A 
ATOM     16  C   UNL     1      -1.164  45.079  -2.231  1.00  0.00     0.157 A 
ATOM     17  C   UNL     1      -0.689  43.518  -0.395  1.00  0.00     0.062 A 
ATOM     18  C   UNL     1      -1.592  44.024  -1.378  1.00  0.00     0.158 A 
BRANCH  16  19
ATOM     19  O   UNL     1      -1.989  45.623  -3.217  1.00  0.00    -0.504 OA
ATOM     20  H   UNL     1      -2.545  46.439  -3.035  1.00  0.00     0.293 HD
ENDBRANCH  16  19
BRANCH  18  21
ATOM     21  O   UNL     1      -2.953  43.719  -1.428  1.00  0.00    -0.504 OA
ATOM     22  H   UNL     1      -3.153  42.823  -1.853  1.00  0.00     0.293 HD
ENDBRANCH  18  21
ENDBRANCH   3  13
BRANCH  10  23
ATOM     23  O   UNL     1       3.768  46.756   4.861  1.00  0.00    -0.507 OA
ATOM     24  H   UNL     1       3.882  47.706   4.472  1.00  0.00     0.293 HD
ENDBRANCH  10  23
BRANCH  11  25
ATOM     25  O   UNL     1      -0.715  46.434   6.494  1.00  0.00    -0.508 OA
ATOM     26  H   UNL     1      -0.419  46.701   7.432  1.00  0.00     0.293 HD
ENDBRANCH  11  25
ENDBRANCH   1   2
BRANCH   1  27
ATOM     27  C   UNL     1       3.234  42.971  -0.304  1.00  0.00     0.265 C 
BRANCH  27  28
ATOM     28  C   UNL     1       4.338  42.245   0.518  1.00  0.00     0.190 C 
ATOM     29  C   UNL     1       3.888  41.520   1.900  1.00  0.00     0.178 C 
ATOM     30  O   UNL     1       4.997  41.291  -0.364  1.00  0.00    -0.340 OA
ATOM     31  C   UNL     1       4.747  40.249   2.184  1.00  0.00     0.179 C 
ATOM     32  C   UNL     1       6.358  41.214   0.080  1.00  0.00     0.279 C 
ATOM     33  C   UNL     1       6.188  40.478   1.451  1.00  0.00     0.201 C 
BRANCH  29  34
ATOM     34  O   UNL     1       2.486  41.277   1.789  1.00  0.00    -0.387 OA
ATOM     35  H   UNL     1       2.350  41.004   0.827  1.00  0.00     0.211 HD
ENDBRANCH  29  34
BRANCH  31  36
ATOM     36  O   UNL     1       4.962  40.000   3.613  1.00  0.00    -0.387 OA
ATOM     37  H   UNL     1       4.831  40.804   4.252  1.00  0.00     0.211 HD
ENDBRANCH  31  36
BRANCH  32  38
ATOM     38  O   UNL     1       7.107  40.438  -0.909  1.00  0.00    -0.366 OA
ATOM     39  H   UNL     1       6.466  40.154  -1.628  1.00  0.00     0.213 HD
ENDBRANCH  32  38
BRANCH  33  40
ATOM     40  O   UNL     1       7.031  39.360   1.669  1.00  0.00    -0.385 OA
ATOM     41  H   UNL     1       6.471  38.555   1.899  1.00  0.00     0.211 HD
ENDBRANCH  33  40
ENDBRANCH  27  28
ENDBRANCH   1  27
TORSDOF 12
ENDMDL
MODEL 6
REMARK VINA RESULT:    -6.420     14.822     17.005
REMARK INTER + INTRA:         -10.961
REMARK INTER:                 -10.257
REMARK INTRA:                  -0.704
REMARK UNBOUND:                -1.538
REMARK SMILES O=c1c(OC[C@@H]2O[C@H](O)[C@H](O)[C@@H](O)[C@@H]2O)c(-c2ccc(O)c(O)c2)oc2cc(O)cc(O)c12
REMARK SMILES IDX 4 1 3 2 16 3 25 4 2 5 26 6 1 7 33 8 27 9 31 10 28 11 30 12
REMARK SMILES IDX 17 13 18 14 19 15 20 16 24 17 22 18 21 19 23 21 32 23 29 25
REMARK SMILES IDX 5 27 6 28 14 29 7 30 12 31 8 32 10 33 15 34 13 36 9 38 11 40
REMARK H PARENT 21 20 23 22 32 24 29 26 15 35 13 37 9 39 11 41
REMARK Flexibility Score: inf
ROOT
ATOM      1  O   UNL     1       2.954  45.260   0.700  1.00  0.00    -0.483 OA
ENDROOT
BRANCH   1   2
ATOM      2  C   UNL     1       1.975  44.966   1.618  1.00  0.00     0.211 A 
ATOM      3  C   UNL     1       0.927  44.121   1.233  1.00  0.00     0.180 A 
ATOM      4  O   UNL     1       0.214  43.466   2.185  1.00  0.00    -0.452 OA
ATOM      5  C   UNL     1       2.065  45.315   3.029  1.00  0.00     0.239 A 
ATOM      6  C   UNL     1       0.233  43.811   3.425  1.00  0.00     0.146 A 
ATOM      7  O   UNL     1       2.818  46.284   3.345  1.00  0.00    -0.285 OA
ATOM      8  C   UNL     1       1.203  44.669   3.947  1.00  0.00     0.111 A 
ATOM      9  C   UNL     1      -0.797  43.301   4.220  1.00  0.00     0.094 A 
ATOM     10  C   UNL     1       1.353  44.662   5.395  1.00  0.00     0.134 A 
ATOM     11  C   UNL     1      -0.640  43.231   5.607  1.00  0.00     0.123 A 
ATOM     12  C   UNL     1       0.433  43.949   6.175  1.00  0.00     0.093 A 
BRANCH   3  13
ATOM     13  C   UNL     1       0.009  44.416   0.154  1.00  0.00     0.025 A 
ATOM     14  C   UNL     1       0.546  45.441  -0.662  1.00  0.00     0.016 A 
ATOM     15  C   UNL     1       0.003  45.688  -1.929  1.00  0.00     0.051 A 
ATOM     16  C   UNL     1      -1.187  45.030  -2.247  1.00  0.00     0.157 A 
ATOM     17  C   UNL     1      -0.854  43.416  -0.426  1.00  0.00     0.062 A 
ATOM     18  C   UNL     1      -1.701  43.994  -1.420  1.00  0.00     0.158 A 
BRANCH  16  19
ATOM     19  O   UNL     1      -1.955  45.641  -3.241  1.00  0.00    -0.504 OA
ATOM     20  H   UNL     1      -2.860  45.285  -3.489  1.00  0.00     0.293 HD
ENDBRANCH  16  19
BRANCH  18  21
ATOM     21  O   UNL     1      -3.077  43.779  -1.502  1.00  0.00    -0.504 OA
ATOM     22  H   UNL     1      -3.533  44.333  -2.214  1.00  0.00     0.293 HD
ENDBRANCH  18  21
ENDBRANCH   3  13
BRANCH  10  23
ATOM     23  O   UNL     1       2.267  45.534   5.974  1.00  0.00    -0.507 OA
ATOM     24  H   UNL     1       3.099  45.107   6.414  1.00  0.00     0.293 HD
ENDBRANCH  10  23
BRANCH  11  25
ATOM     25  O   UNL     1      -1.769  43.010   6.415  1.00  0.00    -0.508 OA
ATOM     26  H   UNL     1      -2.381  43.796   6.632  1.00  0.00     0.293 HD
ENDBRANCH  11  25
ENDBRANCH   1   2
BRANCH   1  27
ATOM     27  C   UNL     1       4.339  45.054   0.876  1.00  0.00     0.265 C 
BRANCH  27  28
ATOM     28  C   UNL     1       4.574  43.535   0.633  1.00  0.00     0.190 C 
ATOM     29  C   UNL     1       4.414  42.986  -0.887  1.00  0.00     0.178 C 
ATOM     30  O   UNL     1       5.890  43.197   1.158  1.00  0.00    -0.340 OA
ATOM     31  C   UNL     1       5.382  41.796  -1.170  1.00  0.00     0.179 C 
ATOM     32  C   UNL     1       5.798  41.843   1.620  1.00  0.00     0.279 C 
ATOM     33  C   UNL     1       5.670  41.070   0.264  1.00  0.00     0.201 C 
BRANCH  29  34
ATOM     34  O   UNL     1       4.593  44.114  -1.743  1.00  0.00    -0.387 OA
ATOM     35  H   UNL     1       5.261  44.697  -1.259  1.00  0.00     0.211 HD
ENDBRANCH  29  34
BRANCH  31  36
ATOM     36  O   UNL     1       4.836  40.814  -2.112  1.00  0.00    -0.387 OA
ATOM     37  H   UNL     1       4.297  40.028  -1.707  1.00  0.00     0.211 HD
ENDBRANCH  31  36
BRANCH  32  38
ATOM     38  O   UNL     1       7.028  41.536   2.351  1.00  0.00    -0.366 OA
ATOM     39  H   UNL     1       7.714  41.231   1.686  1.00  0.00     0.213 HD
ENDBRANCH  32  38
BRANCH  33  40
ATOM     40  O   UNL     1       6.544  39.968   0.088  1.00  0.00    -0.385 OA
ATOM     41  H   UNL     1       6.117  39.135   0.462  1.00  0.00     0.211 HD
ENDBRANCH  33  40
ENDBRANCH  27  28
ENDBRANCH   1  27
TORSDOF 12
ENDMDL
MODEL 7
REMARK VINA RESULT:    -6.246     15.375     18.035
REMARK INTER + INTRA:         -10.705
REMARK INTER:                  -9.408
REMARK INTRA:                  -1.297
REMARK UNBOUND:                -1.538
REMARK SMILES O=c1c(OC[C@@H]2O[C@H](O)[C@H](O)[C@@H](O)[C@@H]2O)c(-c2ccc(O)c(O)c2)oc2cc(O)cc(O)c12
REMARK SMILES IDX 4 1 3 2 16 3 25 4 2 5 26 6 1 7 33 8 27 9 31 10 28 11 30 12
REMARK SMILES IDX 17 13 18 14 19 15 20 16 24 17 22 18 21 19 23 21 32 23 29 25
REMARK SMILES IDX 5 27 6 28 14 29 7 30 12 31 8 32 10 33 15 34 13 36 9 38 11 40
REMARK H PARENT 21 20 23 22 32 24 29 26 15 35 13 37 9 39 11 41
REMARK Flexibility Score: inf
ROOT
ATOM      1  O   UNL     1       0.779  44.132   3.092  1.00  0.00    -0.483 OA
ENDROOT
BRANCH   1   2
ATOM      2  C   UNL     1       1.550  43.539   2.122  1.00  0.00     0.211 A 
ATOM      3  C   UNL     1       1.615  44.140   0.858  1.00  0.00     0.180 A 
ATOM      4  O   UNL     1       2.664  43.863   0.041  1.00  0.00    -0.452 OA
ATOM      5  C   UNL     1       2.463  42.436   2.383  1.00  0.00     0.239 A 
ATOM      6  C   UNL     1       3.436  42.849   0.225  1.00  0.00     0.146 A 
ATOM      7  O   UNL     1       2.230  41.710   3.395  1.00  0.00    -0.285 OA
ATOM      8  C   UNL     1       3.460  42.135   1.424  1.00  0.00     0.111 A 
ATOM      9  C   UNL     1       4.232  42.480  -0.863  1.00  0.00     0.094 A 
ATOM     10  C   UNL     1       4.625  41.290   1.645  1.00  0.00     0.134 A 
ATOM     11  C   UNL     1       5.388  41.721  -0.657  1.00  0.00     0.123 A 
ATOM     12  C   UNL     1       5.547  41.110   0.605  1.00  0.00     0.093 A 
BRANCH   3  13
ATOM     13  C   UNL     1       0.465  44.347   0.004  1.00  0.00     0.025 A 
ATOM     14  C   UNL     1       0.714  45.424  -0.879  1.00  0.00     0.016 A 
ATOM     15  C   UNL     1      -0.106  45.621  -1.996  1.00  0.00     0.051 A 
ATOM     16  C   UNL     1      -1.267  44.849  -2.074  1.00  0.00     0.157 A 
ATOM     17  C   UNL     1      -0.400  43.268  -0.406  1.00  0.00     0.062 A 
ATOM     18  C   UNL     1      -1.490  43.762  -1.184  1.00  0.00     0.158 A 
BRANCH  16  19
ATOM     19  O   UNL     1      -2.283  45.384  -2.868  1.00  0.00    -0.504 OA
ATOM     20  H   UNL     1      -2.102  45.687  -3.807  1.00  0.00     0.293 HD
ENDBRANCH  16  19
BRANCH  18  21
ATOM     21  O   UNL     1      -2.825  43.410  -0.981  1.00  0.00    -0.504 OA
ATOM     22  H   UNL     1      -3.476  44.164  -1.157  1.00  0.00     0.293 HD
ENDBRANCH  18  21
ENDBRANCH   3  13
BRANCH  10  23
ATOM     23  O   UNL     1       4.679  40.517   2.799  1.00  0.00    -0.507 OA
ATOM     24  H   UNL     1       4.598  41.021   3.697  1.00  0.00     0.293 HD
ENDBRANCH  10  23
BRANCH  11  25
ATOM     25  O   UNL     1       6.008  41.102  -1.757  1.00  0.00    -0.508 OA
ATOM     26  H   UNL     1       5.426  40.634  -2.450  1.00  0.00     0.293 HD
ENDBRANCH  11  25
ENDBRANCH   1   2
BRANCH   1  27
ATOM     27  C   UNL     1       0.517  45.514   3.206  1.00  0.00     0.265 C 
BRANCH  27  28
ATOM     28  C   UNL     1       1.461  46.033   4.329  1.00  0.00     0.190 C 
ATOM     29  C   UNL     1       1.142  45.566   5.851  1.00  0.00     0.178 C 
ATOM     30  O   UNL     1       2.826  45.676   3.964  1.00  0.00    -0.340 OA
ATOM     31  C   UNL     1       2.449  45.424   6.691  1.00  0.00     0.179 C 
ATOM     32  C   UNL     1       3.663  46.711   4.494  1.00  0.00     0.279 C 
ATOM     33  C   UNL     1       3.547  46.436   6.032  1.00  0.00     0.201 C 
BRANCH  29  34
ATOM     34  O   UNL     1       0.368  44.371   5.751  1.00  0.00    -0.387 OA
ATOM     35  H   UNL     1       1.042  43.646   5.554  1.00  0.00     0.211 HD
ENDBRANCH  29  34
BRANCH  31  36
ATOM     36  O   UNL     1       2.269  45.757   8.108  1.00  0.00    -0.387 OA
ATOM     37  H   UNL     1       3.100  45.665   8.718  1.00  0.00     0.211 HD
ENDBRANCH  31  36
BRANCH  32  38
ATOM     38  O   UNL     1       5.013  46.510   3.967  1.00  0.00    -0.366 OA
ATOM     39  H   UNL     1       5.662  46.644   4.721  1.00  0.00     0.213 HD
ENDBRANCH  32  38
BRANCH  33  40
ATOM     40  O   UNL     1       4.769  46.367   6.748  1.00  0.00    -0.385 OA
ATOM     41  H   UNL     1       4.996  45.403   6.934  1.00  0.00     0.211 HD
ENDBRANCH  33  40
ENDBRANCH  27  28
ENDBRANCH   1  27
TORSDOF 12
ENDMDL
MODEL 8
REMARK VINA RESULT:    -6.225      2.471      4.360
REMARK INTER + INTRA:         -10.675
REMARK INTER:                  -9.979
REMARK INTRA:                  -0.696
REMARK UNBOUND:                -1.538
REMARK SMILES O=c1c(OC[C@@H]2O[C@H](O)[C@H](O)[C@@H](O)[C@@H]2O)c(-c2ccc(O)c(O)c2)oc2cc(O)cc(O)c12
REMARK SMILES IDX 4 1 3 2 16 3 25 4 2 5 26 6 1 7 33 8 27 9 31 10 28 11 30 12
REMARK SMILES IDX 17 13 18 14 19 15 20 16 24 17 22 18 21 19 23 21 32 23 29 25
REMARK SMILES IDX 5 27 6 28 14 29 7 30 12 31 8 32 10 33 15 34 13 36 9 38 11 40
REMARK H PARENT 21 20 23 22 32 24 29 26 15 35 13 37 9 39 11 41
REMARK Flexibility Score: inf
ROOT
ATOM      1  O   UNL     1      -6.970  31.543   6.426  1.00  0.00    -0.483 OA
ENDROOT
BRANCH   1   2
ATOM      2  C   UNL     1      -8.065  32.369   6.506  1.00  0.00     0.211 A 
ATOM      3  C   UNL     1      -9.147  31.973   7.303  1.00  0.00     0.180 A 
ATOM      4  O   UNL     1     -10.019  32.910   7.757  1.00  0.00    -0.452 OA
ATOM      5  C   UNL     1      -8.090  33.725   5.975  1.00  0.00     0.239 A 
ATOM      6  C   UNL     1     -10.096  34.090   7.247  1.00  0.00     0.146 A 
ATOM      7  O   UNL     1      -7.281  34.002   5.040  1.00  0.00    -0.285 OA
ATOM      8  C   UNL     1      -9.105  34.609   6.412  1.00  0.00     0.111 A 
ATOM      9  C   UNL     1     -11.250  34.816   7.553  1.00  0.00     0.094 A 
ATOM     10  C   UNL     1      -9.111  36.054   6.232  1.00  0.00     0.134 A 
ATOM     11  C   UNL     1     -11.249  36.209   7.444  1.00  0.00     0.123 A 
ATOM     12  C   UNL     1     -10.175  36.805   6.749  1.00  0.00     0.093 A 
BRANCH   3  13
ATOM     13  C   UNL     1      -9.910  30.765   7.082  1.00  0.00     0.025 A 
ATOM     14  C   UNL     1     -11.073  30.780   7.888  1.00  0.00     0.016 A 
ATOM     15  C   UNL     1     -12.119  29.885   7.633  1.00  0.00     0.051 A 
ATOM     16  C   UNL     1     -11.872  28.872   6.703  1.00  0.00     0.157 A 
ATOM     17  C   UNL     1      -9.927  30.080   5.812  1.00  0.00     0.062 A 
ATOM     18  C   UNL     1     -10.702  28.884   5.894  1.00  0.00     0.158 A 
BRANCH  16  19
ATOM     19  O   UNL     1     -12.680  27.741   6.830  1.00  0.00    -0.504 OA
ATOM     20  H   UNL     1     -12.925  27.186   6.030  1.00  0.00     0.293 HD
ENDBRANCH  16  19
BRANCH  18  21
ATOM     21  O   UNL     1     -10.284  27.641   5.415  1.00  0.00    -0.504 OA
ATOM     22  H   UNL     1     -10.696  26.858   5.904  1.00  0.00     0.293 HD
ENDBRANCH  18  21
ENDBRANCH   3  13
BRANCH  10  23
ATOM     23  O   UNL     1      -8.179  36.621   5.370  1.00  0.00    -0.507 OA
ATOM     24  H   UNL     1      -8.536  37.319   4.698  1.00  0.00     0.293 HD
ENDBRANCH  10  23
BRANCH  11  25
ATOM     25  O   UNL     1     -12.474  36.900   7.454  1.00  0.00    -0.508 OA
ATOM     26  H   UNL     1     -13.123  36.737   8.222  1.00  0.00     0.293 HD
ENDBRANCH  11  25
ENDBRANCH   1   2
BRANCH   1  27
ATOM     27  C   UNL     1      -5.834  31.757   5.617  1.00  0.00     0.265 C 
BRANCH  27  28
ATOM     28  C   UNL     1      -4.882  30.559   5.900  1.00  0.00     0.190 C 
ATOM     29  C   UNL     1      -3.877  30.685   7.169  1.00  0.00     0.178 C 
ATOM     30  O   UNL     1      -5.698  29.358   6.017  1.00  0.00    -0.340 OA
ATOM     31  C   UNL     1      -3.611  29.295   7.828  1.00  0.00     0.179 C 
ATOM     32  C   UNL     1      -4.891  28.280   5.528  1.00  0.00     0.279 C 
ATOM     33  C   UNL     1      -3.813  28.173   6.659  1.00  0.00     0.201 C 
BRANCH  29  34
ATOM     34  O   UNL     1      -4.452  31.655   8.043  1.00  0.00    -0.387 OA
ATOM     35  H   UNL     1      -3.854  32.464   7.956  1.00  0.00     0.211 HD
ENDBRANCH  29  34
BRANCH  31  36
ATOM     36  O   UNL     1      -2.265  29.169   8.396  1.00  0.00    -0.387 OA
ATOM     37  H   UNL     1      -1.481  29.083   7.725  1.00  0.00     0.211 HD
ENDBRANCH  31  36
BRANCH  32  38
ATOM     38  O   UNL     1      -5.743  27.095   5.422  1.00  0.00    -0.366 OA
ATOM     39  H   UNL     1      -5.377  26.395   6.042  1.00  0.00     0.213 HD
ENDBRANCH  32  38
BRANCH  33  40
ATOM     40  O   UNL     1      -3.582  26.875   7.182  1.00  0.00    -0.385 OA
ATOM     41  H   UNL     1      -2.748  26.883   7.748  1.00  0.00     0.211 HD
ENDBRANCH  33  40
ENDBRANCH  27  28
ENDBRANCH   1  27
TORSDOF 12
ENDMDL
MODEL 9
REMARK VINA RESULT:    -5.982     15.012     17.455
REMARK INTER + INTRA:         -10.317
REMARK INTER:                  -8.748
REMARK INTRA:                  -1.570
REMARK UNBOUND:                -1.538
REMARK SMILES O=c1c(OC[C@@H]2O[C@H](O)[C@H](O)[C@@H](O)[C@@H]2O)c(-c2ccc(O)c(O)c2)oc2cc(O)cc(O)c12
REMARK SMILES IDX 4 1 3 2 16 3 25 4 2 5 26 6 1 7 33 8 27 9 31 10 28 11 30 12
REMARK SMILES IDX 17 13 18 14 19 15 20 16 24 17 22 18 21 19 23 21 32 23 29 25
REMARK SMILES IDX 5 27 6 28 14 29 7 30 12 31 8 32 10 33 15 34 13 36 9 38 11 40
REMARK H PARENT 21 20 23 22 32 24 29 26 15 35 13 37 9 39 11 41
REMARK Flexibility Score: inf
ROOT
ATOM      1  O   UNL     1       1.439  46.841   1.408  1.00  0.00    -0.483 OA
ENDROOT
BRANCH   1   2
ATOM      2  C   UNL     1       1.778  46.453   2.682  1.00  0.00     0.211 A 
ATOM      3  C   UNL     1       3.121  46.169   2.961  1.00  0.00     0.180 A 
ATOM      4  O   UNL     1       3.560  46.219   4.245  1.00  0.00    -0.452 OA
ATOM      5  C   UNL     1       0.861  46.513   3.812  1.00  0.00     0.239 A 
ATOM      6  C   UNL     1       2.759  46.202   5.252  1.00  0.00     0.146 A 
ATOM      7  O   UNL     1      -0.380  46.487   3.560  1.00  0.00    -0.285 OA
ATOM      8  C   UNL     1       1.390  46.441   5.123  1.00  0.00     0.111 A 
ATOM      9  C   UNL     1       3.335  45.898   6.489  1.00  0.00     0.094 A 
ATOM     10  C   UNL     1       0.680  46.784   6.347  1.00  0.00     0.134 A 
ATOM     11  C   UNL     1       2.693  46.277   7.671  1.00  0.00     0.123 A 
ATOM     12  C   UNL     1       1.348  46.692   7.575  1.00  0.00     0.093 A 
BRANCH   3  13
ATOM     13  C   UNL     1       3.877  45.127   2.301  1.00  0.00     0.025 A 
ATOM     14  C   UNL     1       5.256  45.445   2.334  1.00  0.00     0.016 A 
ATOM     15  C   UNL     1       6.211  44.463   2.042  1.00  0.00     0.051 A 
ATOM     16  C   UNL     1       5.739  43.252   1.531  1.00  0.00     0.157 A 
ATOM     17  C   UNL     1       3.459  43.747   2.300  1.00  0.00     0.062 A 
ATOM     18  C   UNL     1       4.349  42.949   1.520  1.00  0.00     0.158 A 
BRANCH  16  19
ATOM     19  O   UNL     1       6.669  42.516   0.795  1.00  0.00    -0.504 OA
ATOM     20  H   UNL     1       6.379  41.766   0.195  1.00  0.00     0.293 HD
ENDBRANCH  16  19
BRANCH  18  21
ATOM     21  O   UNL     1       3.939  42.022   0.560  1.00  0.00    -0.504 OA
ATOM     22  H   UNL     1       4.659  41.785  -0.109  1.00  0.00     0.293 HD
ENDBRANCH  18  21
ENDBRANCH   3  13
BRANCH  10  23
ATOM     23  O   UNL     1      -0.695  46.982   6.286  1.00  0.00    -0.507 OA
ATOM     24  H   UNL     1      -1.225  46.817   7.157  1.00  0.00     0.293 HD
ENDBRANCH  10  23
BRANCH  11  25
ATOM     25  O   UNL     1       3.109  45.713   8.890  1.00  0.00    -0.508 OA
ATOM     26  H   UNL     1       4.046  45.318   8.955  1.00  0.00     0.293 HD
ENDBRANCH  11  25
ENDBRANCH   1   2
BRANCH   1  27
ATOM     27  C   UNL     1       1.601  46.065   0.241  1.00  0.00     0.265 C 
BRANCH  27  28
ATOM     28  C   UNL     1       0.487  44.979   0.297  1.00  0.00     0.190 C 
ATOM     29  C   UNL     1      -0.735  45.103  -0.764  1.00  0.00     0.178 C 
ATOM     30  O   UNL     1       1.129  43.676   0.183  1.00  0.00    -0.340 OA
ATOM     31  C   UNL     1      -1.278  43.699  -1.178  1.00  0.00     0.179 C 
ATOM     32  C   UNL     1       0.325  42.769   0.949  1.00  0.00     0.279 C 
ATOM     33  C   UNL     1      -0.965  42.687   0.065  1.00  0.00     0.201 C 
BRANCH  29  34
ATOM     34  O   UNL     1      -0.248  45.894  -1.848  1.00  0.00    -0.387 OA
ATOM     35  H   UNL     1      -1.074  46.314  -2.248  1.00  0.00     0.211 HD
ENDBRANCH  29  34
BRANCH  31  36
ATOM     36  O   UNL     1      -2.716  43.693  -1.461  1.00  0.00    -0.387 OA
ATOM     37  H   UNL     1      -3.260  44.512  -1.135  1.00  0.00     0.211 HD
ENDBRANCH  31  36
BRANCH  32  38
ATOM     38  O   UNL     1       1.049  41.500   1.042  1.00  0.00    -0.366 OA
ATOM     39  H   UNL     1       2.029  41.708   1.100  1.00  0.00     0.213 HD
ENDBRANCH  32  38
BRANCH  33  40
ATOM     40  O   UNL     1      -1.436  41.384  -0.235  1.00  0.00    -0.385 OA
ATOM     41  H   UNL     1      -2.336  41.244   0.195  1.00  0.00     0.211 HD
ENDBRANCH  33  40
ENDBRANCH  27  28
ENDBRANCH   1  27
TORSDOF 12
ENDMDL
