MODEL 1
REMARK VINA RESULT:    -7.074      0.000      0.000
REMARK INTER + INTRA:          -8.847
REMARK INTER:                  -8.522
REMARK INTRA:                  -0.325
REMARK UNBOUND:                -0.325
REMARK SMILES O=c1c(O)c(-c2ccc(O)c(O)c2)oc2cc(O)cc(O)c12
REMARK SMILES IDX 5 1 3 2 2 3 1 4 22 5 20 6 19 7 17 8 16 9 15 10 14 11 6 12
REMARK SMILES IDX 7 13 8 14 9 15 13 16 11 17 10 18 12 20 4 22 21 24 18 26
REMARK H PARENT 10 19 12 21 4 23 21 25 18 27
REMARK Flexibility Score: inf
ROOT
ATOM      1  C   UNL     1     127.482 121.362 137.594  1.00  0.00     0.180 A 
ATOM      2  C   UNL     1     126.668 120.215 137.541  1.00  0.00     0.208 A 
ATOM      3  C   UNL     1     125.758 120.076 136.482  1.00  0.00     0.238 A 
ATOM      4  O   UNL     1     125.031 119.048 136.418  1.00  0.00    -0.285 OA
ATOM      5  C   UNL     1     125.662 121.093 135.509  1.00  0.00     0.111 A 
ATOM      6  C   UNL     1     124.768 121.032 134.412  1.00  0.00     0.134 A 
ATOM      7  C   UNL     1     124.726 122.089 133.490  1.00  0.00     0.093 A 
ATOM      8  C   UNL     1     125.556 123.202 133.644  1.00  0.00     0.123 A 
ATOM      9  C   UNL     1     126.442 123.266 134.724  1.00  0.00     0.094 A 
ATOM     10  C   UNL     1     126.500 122.223 135.652  1.00  0.00     0.146 A 
ATOM     11  O   UNL     1     127.353 122.307 136.667  1.00  0.00    -0.452 OA
ENDROOT
BRANCH   1  12
ATOM     12  C   UNL     1     128.479 121.571 138.668  1.00  0.00     0.025 A 
ATOM     13  C   UNL     1     129.776 121.055 138.518  1.00  0.00     0.016 A 
ATOM     14  C   UNL     1     130.726 121.222 139.527  1.00  0.00     0.051 A 
ATOM     15  C   UNL     1     130.390 121.894 140.710  1.00  0.00     0.157 A 
ATOM     16  C   UNL     1     128.139 122.226 139.865  1.00  0.00     0.062 A 
ATOM     17  C   UNL     1     129.088 122.393 140.881  1.00  0.00     0.158 A 
BRANCH  15  18
ATOM     18  O   UNL     1     131.341 122.061 141.716  1.00  0.00    -0.504 OA
ATOM     19  H   UNL     1     132.032 122.801 141.676  1.00  0.00     0.293 HD
ENDBRANCH  15  18
BRANCH  17  20
ATOM     20  O   UNL     1     128.718 123.054 142.051  1.00  0.00    -0.504 OA
ATOM     21  H   UNL     1     127.760 123.324 142.239  1.00  0.00     0.293 HD
ENDBRANCH  17  20
ENDBRANCH   1  12
BRANCH   2  22
ATOM     22  O   UNL     1     126.748 119.246 138.545  1.00  0.00    -0.502 OA
ATOM     23  H   UNL     1     126.862 118.260 138.341  1.00  0.00     0.293 HD
ENDBRANCH   2  22
BRANCH   6  24
ATOM     24  O   UNL     1     123.925 119.935 134.232  1.00  0.00    -0.507 OA
ATOM     25  H   UNL     1     123.818 119.223 134.945  1.00  0.00     0.293 HD
ENDBRANCH   6  24
BRANCH   8  26
ATOM     26  O   UNL     1     125.494 124.238 132.714  1.00  0.00    -0.508 OA
ATOM     27  H   UNL     1     124.732 124.906 132.716  1.00  0.00     0.293 HD
ENDBRANCH   8  26
TORSDOF 6
ENDMDL
MODEL 2
REMARK VINA RESULT:    -5.924      2.456      3.347
REMARK INTER + INTRA:          -7.461
REMARK INTER:                  -7.155
REMARK INTRA:                  -0.306
REMARK UNBOUND:                -0.325
REMARK SMILES O=c1c(O)c(-c2ccc(O)c(O)c2)oc2cc(O)cc(O)c12
REMARK SMILES IDX 5 1 3 2 2 3 1 4 22 5 20 6 19 7 17 8 16 9 15 10 14 11 6 12
REMARK SMILES IDX 7 13 8 14 9 15 13 16 11 17 10 18 12 20 4 22 21 24 18 26
REMARK H PARENT 10 19 12 21 4 23 21 25 18 27
REMARK Flexibility Score: inf
ROOT
ATOM      1  C   UNL     1     127.271 121.997 137.799  1.00  0.00     0.180 A 
ATOM      2  C   UNL     1     126.643 122.862 138.715  1.00  0.00     0.208 A 
ATOM      3  C   UNL     1     125.644 123.732 138.252  1.00  0.00     0.238 A 
ATOM      4  O   UNL     1     125.067 124.504 139.065  1.00  0.00    -0.285 OA
ATOM      5  C   UNL     1     125.306 123.738 136.883  1.00  0.00     0.111 A 
ATOM      6  C   UNL     1     124.313 124.586 136.335  1.00  0.00     0.134 A 
ATOM      7  C   UNL     1     124.040 124.539 134.960  1.00  0.00     0.093 A 
ATOM      8  C   UNL     1     124.738 123.663 134.125  1.00  0.00     0.123 A 
ATOM      9  C   UNL     1     125.718 122.822 134.661  1.00  0.00     0.094 A 
ATOM     10  C   UNL     1     126.004 122.853 136.028  1.00  0.00     0.146 A 
ATOM     11  O   UNL     1     126.937 122.041 136.513  1.00  0.00    -0.452 OA
ENDROOT
BRANCH   1  12
ATOM     12  C   UNL     1     128.320 121.038 138.214  1.00  0.00     0.025 A 
ATOM     13  C   UNL     1     127.948 119.817 138.798  1.00  0.00     0.016 A 
ATOM     14  C   UNL     1     128.921 118.906 139.216  1.00  0.00     0.051 A 
ATOM     15  C   UNL     1     130.281 119.209 139.072  1.00  0.00     0.157 A 
ATOM     16  C   UNL     1     129.686 121.347 138.090  1.00  0.00     0.062 A 
ATOM     17  C   UNL     1     130.664 120.439 138.510  1.00  0.00     0.158 A 
BRANCH  15  18
ATOM     18  O   UNL     1     131.250 118.297 139.488  1.00  0.00    -0.504 OA
ATOM     19  H   UNL     1     131.107 117.702 140.296  1.00  0.00     0.293 HD
ENDBRANCH  15  18
BRANCH  17  20
ATOM     20  O   UNL     1     132.009 120.775 138.366  1.00  0.00    -0.504 OA
ATOM     21  H   UNL     1     132.749 120.087 138.444  1.00  0.00     0.293 HD
ENDBRANCH  17  20
ENDBRANCH   1  12
BRANCH   2  22
ATOM     22  O   UNL     1     127.032 122.872 140.058  1.00  0.00    -0.502 OA
ATOM     23  H   UNL     1     127.515 122.092 140.489  1.00  0.00     0.293 HD
ENDBRANCH   2  22
BRANCH   6  24
ATOM     24  O   UNL     1     123.600 125.473 137.143  1.00  0.00    -0.507 OA
ATOM     25  H   UNL     1     122.781 125.178 137.663  1.00  0.00     0.293 HD
ENDBRANCH   6  24
BRANCH   8  26
ATOM     26  O   UNL     1     124.447 123.636 132.762  1.00  0.00    -0.508 OA
ATOM     27  H   UNL     1     124.969 123.051 132.120  1.00  0.00     0.293 HD
ENDBRANCH   8  26
TORSDOF 6
ENDMDL
MODEL 3
REMARK VINA RESULT:    -5.863      9.326     11.565
REMARK INTER + INTRA:          -7.388
REMARK INTER:                  -7.123
REMARK INTRA:                  -0.265
REMARK UNBOUND:                -0.325
REMARK SMILES O=c1c(O)c(-c2ccc(O)c(O)c2)oc2cc(O)cc(O)c12
REMARK SMILES IDX 5 1 3 2 2 3 1 4 22 5 20 6 19 7 17 8 16 9 15 10 14 11 6 12
REMARK SMILES IDX 7 13 8 14 9 15 13 16 11 17 10 18 12 20 4 22 21 24 18 26
REMARK H PARENT 10 19 12 21 4 23 21 25 18 27
REMARK Flexibility Score: inf
ROOT
ATOM      1  C   UNL     1     125.943 132.353 134.735  1.00  0.00     0.180 A 
ATOM      2  C   UNL     1     125.775 131.516 135.855  1.00  0.00     0.208 A 
ATOM      3  C   UNL     1     125.036 130.331 135.712  1.00  0.00     0.238 A 
ATOM      4  O   UNL     1     124.888 129.568 136.705  1.00  0.00    -0.285 OA
ATOM      5  C   UNL     1     124.462 130.015 134.463  1.00  0.00     0.111 A 
ATOM      6  C   UNL     1     123.700 128.843 134.236  1.00  0.00     0.134 A 
ATOM      7  C   UNL     1     123.154 128.604 132.966  1.00  0.00     0.093 A 
ATOM      8  C   UNL     1     123.353 129.511 131.923  1.00  0.00     0.123 A 
ATOM      9  C   UNL     1     124.106 130.669 132.141  1.00  0.00     0.094 A 
ATOM     10  C   UNL     1     124.660 130.925 133.398  1.00  0.00     0.146 A 
ATOM     11  O   UNL     1     125.374 132.030 133.578  1.00  0.00    -0.452 OA
ENDROOT
BRANCH   1  12
ATOM     12  C   UNL     1     126.724 133.609 134.802  1.00  0.00     0.025 A 
ATOM     13  C   UNL     1     128.029 133.639 134.285  1.00  0.00     0.016 A 
ATOM     14  C   UNL     1     128.792 134.806 134.356  1.00  0.00     0.051 A 
ATOM     15  C   UNL     1     128.268 135.958 134.959  1.00  0.00     0.157 A 
ATOM     16  C   UNL     1     126.210 134.759 135.425  1.00  0.00     0.062 A 
ATOM     17  C   UNL     1     126.972 135.931 135.501  1.00  0.00     0.158 A 
BRANCH  15  18
ATOM     18  O   UNL     1     129.031 137.122 135.027  1.00  0.00    -0.504 OA
ATOM     19  H   UNL     1     128.753 137.969 134.543  1.00  0.00     0.293 HD
ENDBRANCH  15  18
BRANCH  17  20
ATOM     20  O   UNL     1     126.427 137.055 136.120  1.00  0.00    -0.504 OA
ATOM     21  H   UNL     1     126.822 137.980 136.001  1.00  0.00     0.293 HD
ENDBRANCH  17  20
ENDBRANCH   1  12
BRANCH   2  22
ATOM     22  O   UNL     1     126.312 131.877 137.093  1.00  0.00    -0.502 OA
ATOM     23  H   UNL     1     126.094 131.376 137.946  1.00  0.00     0.293 HD
ENDBRANCH   2  22
BRANCH   6  24
ATOM     24  O   UNL     1     123.482 127.919 135.258  1.00  0.00    -0.507 OA
ATOM     25  H   UNL     1     123.288 126.944 135.062  1.00  0.00     0.293 HD
ENDBRANCH   6  24
BRANCH   8  26
ATOM     26  O   UNL     1     122.799 129.249 130.671  1.00  0.00    -0.508 OA
ATOM     27  H   UNL     1     122.358 129.979 130.124  1.00  0.00     0.293 HD
ENDBRANCH   8  26
TORSDOF 6
ENDMDL
MODEL 4
REMARK VINA RESULT:    -5.818      1.687      6.602
REMARK INTER + INTRA:          -7.334
REMARK INTER:                  -7.201
REMARK INTRA:                  -0.133
REMARK UNBOUND:                -0.325
REMARK SMILES O=c1c(O)c(-c2ccc(O)c(O)c2)oc2cc(O)cc(O)c12
REMARK SMILES IDX 5 1 3 2 2 3 1 4 22 5 20 6 19 7 17 8 16 9 15 10 14 11 6 12
REMARK SMILES IDX 7 13 8 14 9 15 13 16 11 17 10 18 12 20 4 22 21 24 18 26
REMARK H PARENT 10 19 12 21 4 23 21 25 18 27
REMARK Flexibility Score: inf
ROOT
ATOM      1  C   UNL     1     126.790 121.454 137.124  1.00  0.00     0.180 A 
ATOM      2  C   UNL     1     126.233 120.572 138.069  1.00  0.00     0.208 A 
ATOM      3  C   UNL     1     127.013 120.171 139.165  1.00  0.00     0.238 A 
ATOM      4  O   UNL     1     126.521 119.389 140.024  1.00  0.00    -0.285 OA
ATOM      5  C   UNL     1     128.337 120.639 139.285  1.00  0.00     0.111 A 
ATOM      6  C   UNL     1     129.191 120.279 140.357  1.00  0.00     0.134 A 
ATOM      7  C   UNL     1     130.500 120.781 140.402  1.00  0.00     0.093 A 
ATOM      8  C   UNL     1     130.972 121.631 139.398  1.00  0.00     0.123 A 
ATOM      9  C   UNL     1     130.133 121.990 138.339  1.00  0.00     0.094 A 
ATOM     10  C   UNL     1     128.825 121.503 138.277  1.00  0.00     0.146 A 
ATOM     11  O   UNL     1     128.047 121.863 137.262  1.00  0.00    -0.452 OA
ENDROOT
BRANCH   1  12
ATOM     12  C   UNL     1     126.024 121.938 135.952  1.00  0.00     0.025 A 
ATOM     13  C   UNL     1     125.601 121.020 134.978  1.00  0.00     0.016 A 
ATOM     14  C   UNL     1     124.896 121.457 133.854  1.00  0.00     0.051 A 
ATOM     15  C   UNL     1     124.617 122.819 133.679  1.00  0.00     0.157 A 
ATOM     16  C   UNL     1     125.761 123.306 135.763  1.00  0.00     0.062 A 
ATOM     17  C   UNL     1     125.056 123.748 134.637  1.00  0.00     0.158 A 
BRANCH  15  18
ATOM     18  O   UNL     1     123.911 123.251 132.557  1.00  0.00    -0.504 OA
ATOM     19  H   UNL     1     123.914 124.223 132.270  1.00  0.00     0.293 HD
ENDBRANCH  15  18
BRANCH  17  20
ATOM     20  O   UNL     1     124.807 125.111 134.485  1.00  0.00    -0.504 OA
ATOM     21  H   UNL     1     124.148 125.465 133.802  1.00  0.00     0.293 HD
ENDBRANCH  17  20
ENDBRANCH   1  12
BRANCH   2  22
ATOM     22  O   UNL     1     124.934 120.083 137.900  1.00  0.00    -0.502 OA
ATOM     23  H   UNL     1     124.739 119.223 137.402  1.00  0.00     0.293 HD
ENDBRANCH   2  22
BRANCH   6  24
ATOM     24  O   UNL     1     128.750 119.431 141.373  1.00  0.00    -0.507 OA
ATOM     25  H   UNL     1     128.098 118.676 141.192  1.00  0.00     0.293 HD
ENDBRANCH   6  24
BRANCH   8  26
ATOM     26  O   UNL     1     132.277 122.115 139.466  1.00  0.00    -0.508 OA
ATOM     27  H   UNL     1     133.021 121.573 139.890  1.00  0.00     0.293 HD
ENDBRANCH   8  26
TORSDOF 6
ENDMDL
MODEL 5
REMARK VINA RESULT:    -5.773      1.863      2.465
REMARK INTER + INTRA:          -7.279
REMARK INTER:                  -6.956
REMARK INTRA:                  -0.323
REMARK UNBOUND:                -0.325
REMARK SMILES O=c1c(O)c(-c2ccc(O)c(O)c2)oc2cc(O)cc(O)c12
REMARK SMILES IDX 5 1 3 2 2 3 1 4 22 5 20 6 19 7 17 8 16 9 15 10 14 11 6 12
REMARK SMILES IDX 7 13 8 14 9 15 13 16 11 17 10 18 12 20 4 22 21 24 18 26
REMARK H PARENT 10 19 12 21 4 23 21 25 18 27
REMARK Flexibility Score: inf
ROOT
ATOM      1  C   UNL     1     128.009 120.167 138.120  1.00  0.00     0.180 A 
ATOM      2  C   UNL     1     127.859 118.780 138.305  1.00  0.00     0.208 A 
ATOM      3  C   UNL     1     126.779 118.126 137.692  1.00  0.00     0.238 A 
ATOM      4  O   UNL     1     126.640 116.881 137.843  1.00  0.00    -0.285 OA
ATOM      5  C   UNL     1     125.860 118.869 136.924  1.00  0.00     0.111 A 
ATOM      6  C   UNL     1     124.743 118.287 136.275  1.00  0.00     0.134 A 
ATOM      7  C   UNL     1     123.869 119.097 135.535  1.00  0.00     0.093 A 
ATOM      8  C   UNL     1     124.087 120.472 135.432  1.00  0.00     0.123 A 
ATOM      9  C   UNL     1     125.189 121.053 136.069  1.00  0.00     0.094 A 
ATOM     10  C   UNL     1     126.073 120.263 136.809  1.00  0.00     0.146 A 
ATOM     11  O   UNL     1     127.114 120.838 137.401  1.00  0.00    -0.452 OA
ENDROOT
BRANCH   1  12
ATOM     12  C   UNL     1     129.132 120.924 138.718  1.00  0.00     0.025 A 
ATOM     13  C   UNL     1     130.326 121.073 137.997  1.00  0.00     0.016 A 
ATOM     14  C   UNL     1     131.406 121.765 138.551  1.00  0.00     0.051 A 
ATOM     15  C   UNL     1     131.312 122.306 139.840  1.00  0.00     0.157 A 
ATOM     16  C   UNL     1     129.049 121.450 140.020  1.00  0.00     0.062 A 
ATOM     17  C   UNL     1     130.129 122.142 140.579  1.00  0.00     0.158 A 
BRANCH  15  18
ATOM     18  O   UNL     1     132.391 122.998 140.389  1.00  0.00    -0.504 OA
ATOM     19  H   UNL     1     132.276 123.615 141.186  1.00  0.00     0.293 HD
ENDBRANCH  15  18
BRANCH  17  20
ATOM     20  O   UNL     1     130.010 122.656 141.870  1.00  0.00    -0.504 OA
ATOM     21  H   UNL     1     129.608 123.568 142.052  1.00  0.00     0.293 HD
ENDBRANCH  17  20
ENDBRANCH   1  12
BRANCH   2  22
ATOM     22  O   UNL     1     128.755 118.075 139.113  1.00  0.00    -0.502 OA
ATOM     23  H   UNL     1     129.745 118.016 138.903  1.00  0.00     0.293 HD
ENDBRANCH   2  22
BRANCH   6  24
ATOM     24  O   UNL     1     124.497 116.916 136.361  1.00  0.00    -0.507 OA
ATOM     25  H   UNL     1     123.743 116.545 136.927  1.00  0.00     0.293 HD
ENDBRANCH   6  24
BRANCH   8  26
ATOM     26  O   UNL     1     123.202 121.254 134.691  1.00  0.00    -0.508 OA
ATOM     27  H   UNL     1     122.945 122.188 134.987  1.00  0.00     0.293 HD
ENDBRANCH   8  26
TORSDOF 6
ENDMDL
MODEL 6
REMARK VINA RESULT:    -5.746      1.557      6.546
REMARK INTER + INTRA:          -7.247
REMARK INTER:                  -6.978
REMARK INTRA:                  -0.269
REMARK UNBOUND:                -0.325
REMARK SMILES O=c1c(O)c(-c2ccc(O)c(O)c2)oc2cc(O)cc(O)c12
REMARK SMILES IDX 5 1 3 2 2 3 1 4 22 5 20 6 19 7 17 8 16 9 15 10 14 11 6 12
REMARK SMILES IDX 7 13 8 14 9 15 13 16 11 17 10 18 12 20 4 22 21 24 18 26
REMARK H PARENT 10 19 12 21 4 23 21 25 18 27
REMARK Flexibility Score: inf
ROOT
ATOM      1  C   UNL     1     126.439 121.685 136.683  1.00  0.00     0.180 A 
ATOM      2  C   UNL     1     126.063 120.330 136.615  1.00  0.00     0.208 A 
ATOM      3  C   UNL     1     126.724 119.401 137.432  1.00  0.00     0.238 A 
ATOM      4  O   UNL     1     126.390 118.186 137.388  1.00  0.00    -0.285 OA
ATOM      5  C   UNL     1     127.760 119.836 138.285  1.00  0.00     0.111 A 
ATOM      6  C   UNL     1     128.479 118.963 139.138  1.00  0.00     0.134 A 
ATOM      7  C   UNL     1     129.503 119.473 139.951  1.00  0.00     0.093 A 
ATOM      8  C   UNL     1     129.821 120.832 139.928  1.00  0.00     0.123 A 
ATOM      9  C   UNL     1     129.113 121.699 139.089  1.00  0.00     0.094 A 
ATOM     10  C   UNL     1     128.089 121.212 138.272  1.00  0.00     0.146 A 
ATOM     11  O   UNL     1     127.429 122.057 137.488  1.00  0.00    -0.452 OA
ENDROOT
BRANCH   1  12
ATOM     12  C   UNL     1     125.775 122.728 135.867  1.00  0.00     0.025 A 
ATOM     13  C   UNL     1     124.811 123.558 136.458  1.00  0.00     0.016 A 
ATOM     14  C   UNL     1     124.157 124.534 135.702  1.00  0.00     0.051 A 
ATOM     15  C   UNL     1     124.447 124.684 134.339  1.00  0.00     0.157 A 
ATOM     16  C   UNL     1     126.049 122.867 134.494  1.00  0.00     0.062 A 
ATOM     17  C   UNL     1     125.394 123.842 133.732  1.00  0.00     0.158 A 
BRANCH  15  18
ATOM     18  O   UNL     1     123.795 125.660 133.587  1.00  0.00    -0.504 OA
ATOM     19  H   UNL     1     123.569 125.515 132.609  1.00  0.00     0.293 HD
ENDBRANCH  15  18
BRANCH  17  20
ATOM     20  O   UNL     1     125.695 123.956 132.376  1.00  0.00    -0.504 OA
ATOM     21  H   UNL     1     126.570 123.625 131.988  1.00  0.00     0.293 HD
ENDBRANCH  17  20
ENDBRANCH   1  12
BRANCH   2  22
ATOM     22  O   UNL     1     125.068 119.917 135.725  1.00  0.00    -0.502 OA
ATOM     23  H   UNL     1     124.846 118.940 135.574  1.00  0.00     0.293 HD
ENDBRANCH   2  22
BRANCH   6  24
ATOM     24  O   UNL     1     128.186 117.600 139.182  1.00  0.00    -0.507 OA
ATOM     25  H   UNL     1     128.415 116.980 138.414  1.00  0.00     0.293 HD
ENDBRANCH   6  24
BRANCH   8  26
ATOM     26  O   UNL     1     130.843 121.312 140.745  1.00  0.00    -0.508 OA
ATOM     27  H   UNL     1     131.011 122.305 140.855  1.00  0.00     0.293 HD
ENDBRANCH   8  26
TORSDOF 6
ENDMDL
MODEL 7
REMARK VINA RESULT:    -5.744      1.609      6.977
REMARK INTER + INTRA:          -7.245
REMARK INTER:                  -7.137
REMARK INTRA:                  -0.108
REMARK UNBOUND:                -0.325
REMARK SMILES O=c1c(O)c(-c2ccc(O)c(O)c2)oc2cc(O)cc(O)c12
REMARK SMILES IDX 5 1 3 2 2 3 1 4 22 5 20 6 19 7 17 8 16 9 15 10 14 11 6 12
REMARK SMILES IDX 7 13 8 14 9 15 13 16 11 17 10 18 12 20 4 22 21 24 18 26
REMARK H PARENT 10 19 12 21 4 23 21 25 18 27
REMARK Flexibility Score: inf
ROOT
ATOM      1  C   UNL     1     126.837 122.229 137.473  1.00  0.00     0.180 A 
ATOM      2  C   UNL     1     126.432 122.556 138.781  1.00  0.00     0.208 A 
ATOM      3  C   UNL     1     127.376 122.500 139.817  1.00  0.00     0.238 A 
ATOM      4  O   UNL     1     127.028 122.800 140.992  1.00  0.00    -0.285 OA
ATOM      5  C   UNL     1     128.698 122.099 139.534  1.00  0.00     0.111 A 
ATOM      6  C   UNL     1     129.709 122.012 140.522  1.00  0.00     0.134 A 
ATOM      7  C   UNL     1     131.000 121.596 140.162  1.00  0.00     0.093 A 
ATOM      8  C   UNL     1     131.298 121.265 138.838  1.00  0.00     0.123 A 
ATOM      9  C   UNL     1     130.304 121.351 137.858  1.00  0.00     0.094 A 
ATOM     10  C   UNL     1     129.012 121.764 138.196  1.00  0.00     0.146 A 
ATOM     11  O   UNL     1     128.088 121.841 137.246  1.00  0.00    -0.452 OA
ENDROOT
BRANCH   1  12
ATOM     12  C   UNL     1     125.904 122.284 136.324  1.00  0.00     0.025 A 
ATOM     13  C   UNL     1     125.275 123.496 136.001  1.00  0.00     0.016 A 
ATOM     14  C   UNL     1     124.376 123.566 134.935  1.00  0.00     0.051 A 
ATOM     15  C   UNL     1     124.080 122.420 134.184  1.00  0.00     0.157 A 
ATOM     16  C   UNL     1     125.589 121.132 135.582  1.00  0.00     0.062 A 
ATOM     17  C   UNL     1     124.686 121.196 134.514  1.00  0.00     0.158 A 
BRANCH  15  18
ATOM     18  O   UNL     1     123.183 122.493 133.119  1.00  0.00    -0.504 OA
ATOM     19  H   UNL     1     122.232 122.819 133.246  1.00  0.00     0.293 HD
ENDBRANCH  15  18
BRANCH  17  20
ATOM     20  O   UNL     1     124.402 120.036 133.795  1.00  0.00    -0.504 OA
ATOM     21  H   UNL     1     124.286 119.137 134.247  1.00  0.00     0.293 HD
ENDBRANCH  17  20
ENDBRANCH   1  12
BRANCH   2  22
ATOM     22  O   UNL     1     125.104 122.902 139.043  1.00  0.00    -0.502 OA
ATOM     23  H   UNL     1     124.446 123.130 138.306  1.00  0.00     0.293 HD
ENDBRANCH   2  22
BRANCH   6  24
ATOM     24  O   UNL     1     129.442 122.334 141.854  1.00  0.00    -0.507 OA
ATOM     25  H   UNL     1     128.502 122.537 142.175  1.00  0.00     0.293 HD
ENDBRANCH   6  24
BRANCH   8  26
ATOM     26  O   UNL     1     132.588 120.855 138.507  1.00  0.00    -0.508 OA
ATOM     27  H   UNL     1     133.255 121.491 138.088  1.00  0.00     0.293 HD
ENDBRANCH   8  26
TORSDOF 6
ENDMDL
MODEL 8
REMARK VINA RESULT:    -5.441      5.507      8.696
REMARK INTER + INTRA:          -6.880
REMARK INTER:                  -6.763
REMARK INTRA:                  -0.116
REMARK UNBOUND:                -0.325
REMARK SMILES O=c1c(O)c(-c2ccc(O)c(O)c2)oc2cc(O)cc(O)c12
REMARK SMILES IDX 5 1 3 2 2 3 1 4 22 5 20 6 19 7 17 8 16 9 15 10 14 11 6 12
REMARK SMILES IDX 7 13 8 14 9 15 13 16 11 17 10 18 12 20 4 22 21 24 18 26
REMARK H PARENT 10 19 12 21 4 23 21 25 18 27
REMARK Flexibility Score: inf
ROOT
ATOM      1  C   UNL     1     124.023 126.621 134.106  1.00  0.00     0.180 A 
ATOM      2  C   UNL     1     123.639 127.204 135.329  1.00  0.00     0.208 A 
ATOM      3  C   UNL     1     123.551 128.602 135.416  1.00  0.00     0.238 A 
ATOM      4  O   UNL     1     123.199 129.135 136.504  1.00  0.00    -0.285 OA
ATOM      5  C   UNL     1     123.866 129.392 134.291  1.00  0.00     0.111 A 
ATOM      6  C   UNL     1     123.806 130.806 134.297  1.00  0.00     0.134 A 
ATOM      7  C   UNL     1     124.144 131.522 133.138  1.00  0.00     0.093 A 
ATOM      8  C   UNL     1     124.540 130.852 131.978  1.00  0.00     0.123 A 
ATOM      9  C   UNL     1     124.600 129.455 131.966  1.00  0.00     0.094 A 
ATOM     10  C   UNL     1     124.266 128.724 133.110  1.00  0.00     0.146 A 
ATOM     11  O   UNL     1     124.327 127.398 133.071  1.00  0.00    -0.452 OA
ENDROOT
BRANCH   1  12
ATOM     12  C   UNL     1     124.120 125.154 133.930  1.00  0.00     0.025 A 
ATOM     13  C   UNL     1     122.981 124.358 134.126  1.00  0.00     0.016 A 
ATOM     14  C   UNL     1     123.055 122.970 133.986  1.00  0.00     0.051 A 
ATOM     15  C   UNL     1     124.273 122.356 133.663  1.00  0.00     0.157 A 
ATOM     16  C   UNL     1     125.345 124.533 133.627  1.00  0.00     0.062 A 
ATOM     17  C   UNL     1     125.424 123.143 133.488  1.00  0.00     0.158 A 
BRANCH  15  18
ATOM     18  O   UNL     1     124.343 120.971 133.521  1.00  0.00    -0.504 OA
ATOM     19  H   UNL     1     123.931 120.496 132.726  1.00  0.00     0.293 HD
ENDBRANCH  15  18
BRANCH  17  20
ATOM     20  O   UNL     1     126.653 122.561 133.180  1.00  0.00    -0.504 OA
ATOM     21  H   UNL     1     127.521 122.886 133.589  1.00  0.00     0.293 HD
ENDBRANCH  17  20
ENDBRANCH   1  12
BRANCH   2  22
ATOM     22  O   UNL     1     123.381 126.401 136.443  1.00  0.00    -0.502 OA
ATOM     23  H   UNL     1     123.028 125.455 136.361  1.00  0.00     0.293 HD
ENDBRANCH   2  22
BRANCH   6  24
ATOM     24  O   UNL     1     123.416 131.504 135.441  1.00  0.00    -0.507 OA
ATOM     25  H   UNL     1     124.093 131.855 136.108  1.00  0.00     0.293 HD
ENDBRANCH   6  24
BRANCH   8  26
ATOM     26  O   UNL     1     124.871 131.587 130.841  1.00  0.00    -0.508 OA
ATOM     27  H   UNL     1     124.899 132.600 130.854  1.00  0.00     0.293 HD
ENDBRANCH   8  26
TORSDOF 6
ENDMDL
MODEL 9
REMARK VINA RESULT:    -5.419      9.398     12.003
REMARK INTER + INTRA:          -6.854
REMARK INTER:                  -6.572
REMARK INTRA:                  -0.281
REMARK UNBOUND:                -0.325
REMARK SMILES O=c1c(O)c(-c2ccc(O)c(O)c2)oc2cc(O)cc(O)c12
REMARK SMILES IDX 5 1 3 2 2 3 1 4 22 5 20 6 19 7 17 8 16 9 15 10 14 11 6 12
REMARK SMILES IDX 7 13 8 14 9 15 13 16 11 17 10 18 12 20 4 22 21 24 18 26
REMARK H PARENT 10 19 12 21 4 23 21 25 18 27
REMARK Flexibility Score: inf
ROOT
ATOM      1  C   UNL     1     125.419 132.706 134.116  1.00  0.00     0.180 A 
ATOM      2  C   UNL     1     125.151 132.762 132.735  1.00  0.00     0.208 A 
ATOM      3  C   UNL     1     124.532 131.664 132.119  1.00  0.00     0.238 A 
ATOM      4  O   UNL     1     124.278 131.707 130.884  1.00  0.00    -0.285 OA
ATOM      5  C   UNL     1     124.212 130.524 132.885  1.00  0.00     0.111 A 
ATOM      6  C   UNL     1     123.591 129.374 132.339  1.00  0.00     0.134 A 
ATOM      7  C   UNL     1     123.312 128.276 133.167  1.00  0.00     0.093 A 
ATOM      8  C   UNL     1     123.642 128.305 134.524  1.00  0.00     0.123 A 
ATOM      9  C   UNL     1     124.254 129.438 135.068  1.00  0.00     0.094 A 
ATOM     10  C   UNL     1     124.538 130.543 134.261  1.00  0.00     0.146 A 
ATOM     11  O   UNL     1     125.116 131.609 134.804  1.00  0.00    -0.452 OA
ENDROOT
BRANCH   1  12
ATOM     12  C   UNL     1     126.051 133.831 134.841  1.00  0.00     0.025 A 
ATOM     13  C   UNL     1     125.284 134.960 135.171  1.00  0.00     0.016 A 
ATOM     14  C   UNL     1     125.865 136.042 135.836  1.00  0.00     0.051 A 
ATOM     15  C   UNL     1     127.226 136.019 136.168  1.00  0.00     0.157 A 
ATOM     16  C   UNL     1     127.421 133.821 135.158  1.00  0.00     0.062 A 
ATOM     17  C   UNL     1     128.008 134.904 135.823  1.00  0.00     0.158 A 
BRANCH  15  18
ATOM     18  O   UNL     1     127.803 137.099 136.834  1.00  0.00    -0.504 OA
ATOM     19  H   UNL     1     128.599 137.596 136.451  1.00  0.00     0.293 HD
ENDBRANCH  15  18
BRANCH  17  20
ATOM     20  O   UNL     1     129.367 134.857 136.127  1.00  0.00    -0.504 OA
ATOM     21  H   UNL     1     129.742 135.246 136.984  1.00  0.00     0.293 HD
ENDBRANCH  17  20
ENDBRANCH   1  12
BRANCH   2  22
ATOM     22  O   UNL     1     125.524 133.883 131.989  1.00  0.00    -0.502 OA
ATOM     23  H   UNL     1     126.126 134.608 132.362  1.00  0.00     0.293 HD
ENDBRANCH   2  22
BRANCH   6  24
ATOM     24  O   UNL     1     123.251 129.314 130.987  1.00  0.00    -0.507 OA
ATOM     25  H   UNL     1     123.624 129.974 130.315  1.00  0.00     0.293 HD
ENDBRANCH   6  24
BRANCH   8  26
ATOM     26  O   UNL     1     123.354 127.200 135.323  1.00  0.00    -0.508 OA
ATOM     27  H   UNL     1     123.969 126.918 136.078  1.00  0.00     0.293 HD
ENDBRANCH   8  26
TORSDOF 6
ENDMDL
