MODEL 1
REMARK VINA RESULT:    -4.084      0.000      0.000
REMARK INTER + INTRA:          -7.525
REMARK INTER:                  -7.427
REMARK INTRA:                  -0.098
REMARK UNBOUND:                -0.098
REMARK SMILES CCCCCCCCCCCCCCCC(=O)[O-]
REMARK SMILES IDX 9 1 10 2 11 3 12 4 13 5 14 6 15 7 16 8 17 9 18 10 8 11 7 12
REMARK SMILES IDX 6 13 5 14 4 15 3 16 2 17 1 18
REMARK H PARENT
REMARK Flexibility Score: inf
ROOT
ATOM      1  C   UNL     1      31.446   2.109  39.357  1.00  0.00     0.000 C 
ENDROOT
BRANCH   1   2
ATOM      2  C   UNL     1      30.898   1.165  38.276  1.00  0.00     0.000 C 
BRANCH   2   3
ATOM      3  C   UNL     1      29.362   1.148  38.225  1.00  0.00     0.000 C 
BRANCH   3   4
ATOM      4  C   UNL     1      28.790  -0.275  38.098  1.00  0.00     0.000 C 
BRANCH   4   5
ATOM      5  C   UNL     1      28.974  -1.101  39.382  1.00  0.00     0.000 C 
BRANCH   5   6
ATOM      6  C   UNL     1      27.891  -0.807  40.435  1.00  0.00     0.006 C 
BRANCH   6   7
ATOM      7  C   UNL     1      27.939  -1.800  41.605  1.00  0.00     0.053 C 
BRANCH   7   8
ATOM      8  C   UNL     1      27.625  -1.136  42.910  1.00  0.00     0.041 C 
ATOM      9  O   UNL     1      27.144   0.026  42.931  1.00  0.00    -0.550 OA
ATOM     10  O   UNL     1      27.831  -1.818  44.103  1.00  0.00    -0.550 OA
ENDBRANCH   7   8
ENDBRANCH   6   7
ENDBRANCH   5   6
ENDBRANCH   4   5
ENDBRANCH   3   4
ENDBRANCH   2   3
ENDBRANCH   1   2
BRANCH   1  11
ATOM     11  C   UNL     1      31.583   1.384  40.702  1.00  0.00     0.000 C 
BRANCH  11  12
ATOM     12  C   UNL     1      32.116  -0.043  40.506  1.00  0.00    -0.000 C 
BRANCH  12  13
ATOM     13  C   UNL     1      31.648  -1.010  41.605  1.00  0.00    -0.000 C 
BRANCH  13  14
ATOM     14  C   UNL     1      31.291  -0.287  42.915  1.00  0.00    -0.000 C 
BRANCH  14  15
ATOM     15  C   UNL     1      30.440  -1.156  43.856  1.00  0.00    -0.000 C 
BRANCH  15  16
ATOM     16  C   UNL     1      30.850  -1.005  45.332  1.00  0.00    -0.000 C 
BRANCH  16  17
ATOM     17  C   UNL     1      30.116  -1.995  46.250  1.00  0.00    -0.003 C 
ATOM     18  C   UNL     1      30.461  -1.802  47.726  1.00  0.00     0.004 C 
ENDBRANCH  16  17
ENDBRANCH  15  16
ENDBRANCH  14  15
ENDBRANCH  13  14
ENDBRANCH  12  13
ENDBRANCH  11  12
ENDBRANCH   1  11
TORSDOF 14
ENDMDL
MODEL 2
REMARK VINA RESULT:    -3.795     16.484     17.688
REMARK INTER + INTRA:          -7.000
REMARK INTER:                  -5.143
REMARK INTRA:                  -1.857
REMARK UNBOUND:                -0.098
REMARK SMILES CCCCCCCCCCCCCCCC(=O)[O-]
REMARK SMILES IDX 9 1 10 2 11 3 12 4 13 5 14 6 15 7 16 8 17 9 18 10 8 11 7 12
REMARK SMILES IDX 6 13 5 14 4 15 3 16 2 17 1 18
REMARK H PARENT
REMARK Flexibility Score: inf
ROOT
ATOM      1  C   UNL     1      28.792  17.342  46.652  1.00  0.00     0.000 C 
ENDROOT
BRANCH   1   2
ATOM      2  C   UNL     1      30.066  18.089  47.076  1.00  0.00     0.000 C 
BRANCH   2   3
ATOM      3  C   UNL     1      31.035  17.205  47.877  1.00  0.00     0.000 C 
BRANCH   3   4
ATOM      4  C   UNL     1      30.807  17.302  49.396  1.00  0.00     0.000 C 
BRANCH   4   5
ATOM      5  C   UNL     1      30.732  15.922  50.070  1.00  0.00     0.000 C 
BRANCH   5   6
ATOM      6  C   UNL     1      31.532  14.848  49.311  1.00  0.00     0.006 C 
BRANCH   6   7
ATOM      7  C   UNL     1      30.805  13.497  49.288  1.00  0.00     0.053 C 
BRANCH   7   8
ATOM      8  C   UNL     1      30.808  12.888  47.919  1.00  0.00     0.041 C 
ATOM      9  O   UNL     1      31.876  12.439  47.427  1.00  0.00    -0.550 OA
ATOM     10  O   UNL     1      29.623  12.786  47.202  1.00  0.00    -0.550 OA
ENDBRANCH   7   8
ENDBRANCH   6   7
ENDBRANCH   5   6
ENDBRANCH   4   5
ENDBRANCH   3   4
ENDBRANCH   2   3
ENDBRANCH   1   2
BRANCH   1  11
ATOM     11  C   UNL     1      27.574  17.841  47.440  1.00  0.00     0.000 C 
BRANCH  11  12
ATOM     12  C   UNL     1      26.835  16.673  48.108  1.00  0.00    -0.000 C 
BRANCH  12  13
ATOM     13  C   UNL     1      27.727  15.437  48.303  1.00  0.00    -0.000 C 
BRANCH  13  14
ATOM     14  C   UNL     1      27.146  14.444  49.324  1.00  0.00    -0.000 C 
BRANCH  14  15
ATOM     15  C   UNL     1      26.262  13.370  48.668  1.00  0.00    -0.000 C 
BRANCH  15  16
ATOM     16  C   UNL     1      24.827  13.368  49.222  1.00  0.00    -0.000 C 
BRANCH  16  17
ATOM     17  C   UNL     1      24.537  14.589  50.109  1.00  0.00    -0.003 C 
ATOM     18  C   UNL     1      23.131  15.152  49.901  1.00  0.00     0.004 C 
ENDBRANCH  16  17
ENDBRANCH  15  16
ENDBRANCH  14  15
ENDBRANCH  13  14
ENDBRANCH  12  13
ENDBRANCH  11  12
ENDBRANCH   1  11
TORSDOF 14
ENDMDL
MODEL 3
REMARK VINA RESULT:    -3.579     16.442     17.636
REMARK INTER + INTRA:          -6.606
REMARK INTER:                  -5.543
REMARK INTRA:                  -1.063
REMARK UNBOUND:                -0.098
REMARK SMILES CCCCCCCCCCCCCCCC(=O)[O-]
REMARK SMILES IDX 9 1 10 2 11 3 12 4 13 5 14 6 15 7 16 8 17 9 18 10 8 11 7 12
REMARK SMILES IDX 6 13 5 14 4 15 3 16 2 17 1 18
REMARK H PARENT
REMARK Flexibility Score: inf
ROOT
ATOM      1  C   UNL     1      29.566  12.934  47.843  1.00  0.00     0.000 C 
ENDROOT
BRANCH   1   2
ATOM      2  C   UNL     1      29.004  12.721  49.258  1.00  0.00     0.000 C 
BRANCH   2   3
ATOM      3  C   UNL     1      27.760  13.578  49.539  1.00  0.00     0.000 C 
BRANCH   3   4
ATOM      4  C   UNL     1      26.758  13.566  48.372  1.00  0.00     0.000 C 
BRANCH   4   5
ATOM      5  C   UNL     1      25.372  13.050  48.791  1.00  0.00     0.000 C 
BRANCH   5   6
ATOM      6  C   UNL     1      24.469  14.163  49.351  1.00  0.00     0.006 C 
BRANCH   6   7
ATOM      7  C   UNL     1      24.710  15.508  48.653  1.00  0.00     0.053 C 
BRANCH   7   8
ATOM      8  C   UNL     1      24.952  16.610  49.639  1.00  0.00     0.041 C 
ATOM      9  O   UNL     1      26.101  16.794  50.117  1.00  0.00    -0.550 OA
ATOM     10  O   UNL     1      23.911  17.456  50.003  1.00  0.00    -0.550 OA
ENDBRANCH   7   8
ENDBRANCH   6   7
ENDBRANCH   5   6
ENDBRANCH   4   5
ENDBRANCH   3   4
ENDBRANCH   2   3
ENDBRANCH   1   2
BRANCH   1  11
ATOM     11  C   UNL     1      31.027  12.476  47.757  1.00  0.00     0.000 C 
BRANCH  11  12
ATOM     12  C   UNL     1      31.982  13.594  48.201  1.00  0.00    -0.000 C 
BRANCH  12  13
ATOM     13  C   UNL     1      31.298  14.641  49.095  1.00  0.00    -0.000 C 
BRANCH  13  14
ATOM     14  C   UNL     1      32.013  16.003  49.064  1.00  0.00    -0.000 C 
BRANCH  14  15
ATOM     15  C   UNL     1      31.318  17.015  48.139  1.00  0.00    -0.000 C 
BRANCH  15  16
ATOM     16  C   UNL     1      29.882  16.596  47.778  1.00  0.00    -0.000 C 
BRANCH  16  17
ATOM     17  C   UNL     1      29.143  17.669  46.963  1.00  0.00    -0.003 C 
ATOM     18  C   UNL     1      27.625  17.596  47.125  1.00  0.00     0.004 C 
ENDBRANCH  16  17
ENDBRANCH  15  16
ENDBRANCH  14  15
ENDBRANCH  13  14
ENDBRANCH  12  13
ENDBRANCH  11  12
ENDBRANCH   1  11
TORSDOF 14
ENDMDL
MODEL 4
REMARK VINA RESULT:    -3.567      1.612      2.544
REMARK INTER + INTRA:          -6.585
REMARK INTER:                  -6.681
REMARK INTRA:                   0.095
REMARK UNBOUND:                -0.098
REMARK SMILES CCCCCCCCCCCCCCCC(=O)[O-]
REMARK SMILES IDX 9 1 10 2 11 3 12 4 13 5 14 6 15 7 16 8 17 9 18 10 8 11 7 12
REMARK SMILES IDX 6 13 5 14 4 15 3 16 2 17 1 18
REMARK H PARENT
REMARK Flexibility Score: inf
ROOT
ATOM      1  C   UNL     1      31.548   1.372  40.799  1.00  0.00     0.000 C 
ENDROOT
BRANCH   1   2
ATOM      2  C   UNL     1      31.672   2.293  39.575  1.00  0.00     0.000 C 
BRANCH   2   3
ATOM      3  C   UNL     1      32.116   1.542  38.310  1.00  0.00     0.000 C 
BRANCH   3   4
ATOM      4  C   UNL     1      30.979   1.386  37.285  1.00  0.00     0.000 C 
BRANCH   4   5
ATOM      5  C   UNL     1      29.877   0.428  37.769  1.00  0.00     0.000 C 
BRANCH   5   6
ATOM      6  C   UNL     1      28.766   1.150  38.552  1.00  0.00     0.006 C 
BRANCH   6   7
ATOM      7  C   UNL     1      28.386   0.402  39.837  1.00  0.00     0.053 C 
BRANCH   7   8
ATOM      8  C   UNL     1      28.166  -1.058  39.585  1.00  0.00     0.041 C 
ATOM      9  O   UNL     1      27.986  -1.848  40.547  1.00  0.00    -0.550 OA
ATOM     10  O   UNL     1      28.124  -1.539  38.282  1.00  0.00    -0.550 OA
ENDBRANCH   7   8
ENDBRANCH   6   7
ENDBRANCH   5   6
ENDBRANCH   4   5
ENDBRANCH   3   4
ENDBRANCH   2   3
ENDBRANCH   1   2
BRANCH   1  11
ATOM     11  C   UNL     1      31.874  -0.080  40.430  1.00  0.00     0.000 C 
BRANCH  11  12
ATOM     12  C   UNL     1      31.081  -1.062  41.307  1.00  0.00    -0.000 C 
BRANCH  12  13
ATOM     13  C   UNL     1      30.709  -0.470  42.675  1.00  0.00    -0.000 C 
BRANCH  13  14
ATOM     14  C   UNL     1      30.645  -1.536  43.783  1.00  0.00    -0.000 C 
BRANCH  14  15
ATOM     15  C   UNL     1      29.259  -1.618  44.444  1.00  0.00    -0.000 C 
BRANCH  15  16
ATOM     16  C   UNL     1      29.327  -2.125  45.896  1.00  0.00    -0.000 C 
BRANCH  16  17
ATOM     17  C   UNL     1      30.337  -1.338  46.747  1.00  0.00    -0.003 C 
ATOM     18  C   UNL     1      30.287  -1.717  48.227  1.00  0.00     0.004 C 
ENDBRANCH  16  17
ENDBRANCH  15  16
ENDBRANCH  14  15
ENDBRANCH  13  14
ENDBRANCH  12  13
ENDBRANCH  11  12
ENDBRANCH   1  11
TORSDOF 14
ENDMDL
MODEL 5
REMARK VINA RESULT:    -3.472     16.439     17.614
REMARK INTER + INTRA:          -6.411
REMARK INTER:                  -5.050
REMARK INTRA:                  -1.362
REMARK UNBOUND:                -0.098
REMARK SMILES CCCCCCCCCCCCCCCC(=O)[O-]
REMARK SMILES IDX 9 1 10 2 11 3 12 4 13 5 14 6 15 7 16 8 17 9 18 10 8 11 7 12
REMARK SMILES IDX 6 13 5 14 4 15 3 16 2 17 1 18
REMARK H PARENT
REMARK Flexibility Score: inf
ROOT
ATOM      1  C   UNL     1      29.068  17.048  47.034  1.00  0.00     0.000 C 
ENDROOT
BRANCH   1   2
ATOM      2  C   UNL     1      30.188  17.584  47.939  1.00  0.00     0.000 C 
BRANCH   2   3
ATOM      3  C   UNL     1      31.235  16.513  48.285  1.00  0.00     0.000 C 
BRANCH   3   4
ATOM      4  C   UNL     1      31.106  16.005  49.731  1.00  0.00     0.000 C 
BRANCH   4   5
ATOM      5  C   UNL     1      31.188  14.472  49.827  1.00  0.00     0.000 C 
BRANCH   5   6
ATOM      6  C   UNL     1      31.495  13.809  48.472  1.00  0.00     0.006 C 
BRANCH   6   7
ATOM      7  C   UNL     1      30.662  12.539  48.249  1.00  0.00     0.053 C 
BRANCH   7   8
ATOM      8  C   UNL     1      29.247  12.861  47.879  1.00  0.00     0.041 C 
ATOM      9  O   UNL     1      28.335  12.800  48.744  1.00  0.00    -0.550 OA
ATOM     10  O   UNL     1      28.942  13.263  46.585  1.00  0.00    -0.550 OA
ENDBRANCH   7   8
ENDBRANCH   6   7
ENDBRANCH   5   6
ENDBRANCH   4   5
ENDBRANCH   3   4
ENDBRANCH   2   3
ENDBRANCH   1   2
BRANCH   1  11
ATOM     11  C   UNL     1      27.995  16.324  47.858  1.00  0.00     0.000 C 
BRANCH  11  12
ATOM     12  C   UNL     1      26.840  17.272  48.213  1.00  0.00    -0.000 C 
BRANCH  12  13
ATOM     13  C   UNL     1      26.246  16.993  49.602  1.00  0.00    -0.000 C 
BRANCH  13  14
ATOM     14  C   UNL     1      24.708  17.014  49.602  1.00  0.00    -0.000 C 
BRANCH  14  15
ATOM     15  C   UNL     1      24.098  15.644  49.265  1.00  0.00    -0.000 C 
BRANCH  15  16
ATOM     16  C   UNL     1      25.001  14.474  49.694  1.00  0.00    -0.000 C 
BRANCH  16  17
ATOM     17  C   UNL     1      24.208  13.181  49.947  1.00  0.00    -0.003 C 
ATOM     18  C   UNL     1      24.856  11.954  49.307  1.00  0.00     0.004 C 
ENDBRANCH  16  17
ENDBRANCH  15  16
ENDBRANCH  14  15
ENDBRANCH  13  14
ENDBRANCH  12  13
ENDBRANCH  11  12
ENDBRANCH   1  11
TORSDOF 14
ENDMDL
MODEL 6
REMARK VINA RESULT:    -3.346      2.381      4.393
REMARK INTER + INTRA:          -6.182
REMARK INTER:                  -6.582
REMARK INTRA:                   0.400
REMARK UNBOUND:                -0.098
REMARK SMILES CCCCCCCCCCCCCCCC(=O)[O-]
REMARK SMILES IDX 9 1 10 2 11 3 12 4 13 5 14 6 15 7 16 8 17 9 18 10 8 11 7 12
REMARK SMILES IDX 6 13 5 14 4 15 3 16 2 17 1 18
REMARK H PARENT
REMARK Flexibility Score: inf
ROOT
ATOM      1  C   UNL     1      30.947  -1.024  40.800  1.00  0.00     0.000 C 
ENDROOT
BRANCH   1   2
ATOM      2  C   UNL     1      29.425  -0.997  40.583  1.00  0.00     0.000 C 
BRANCH   2   3
ATOM      3  C   UNL     1      29.038  -0.948  39.097  1.00  0.00     0.000 C 
BRANCH   3   4
ATOM      4  C   UNL     1      29.071   0.480  38.525  1.00  0.00     0.000 C 
BRANCH   4   5
ATOM      5  C   UNL     1      30.107   0.640  37.400  1.00  0.00     0.000 C 
BRANCH   5   6
ATOM      6  C   UNL     1      31.556   0.583  37.916  1.00  0.00     0.006 C 
BRANCH   6   7
ATOM      7  C   UNL     1      32.086   1.971  38.303  1.00  0.00     0.053 C 
BRANCH   7   8
ATOM      8  C   UNL     1      31.637   2.374  39.674  1.00  0.00     0.041 C 
ATOM      9  O   UNL     1      32.125   1.816  40.691  1.00  0.00    -0.550 OA
ATOM     10  O   UNL     1      30.705   3.392  39.828  1.00  0.00    -0.550 OA
ENDBRANCH   7   8
ENDBRANCH   6   7
ENDBRANCH   5   6
ENDBRANCH   4   5
ENDBRANCH   3   4
ENDBRANCH   2   3
ENDBRANCH   1   2
BRANCH   1  11
ATOM     11  C   UNL     1      31.288  -1.309  42.268  1.00  0.00     0.000 C 
BRANCH  11  12
ATOM     12  C   UNL     1      30.709  -0.225  43.188  1.00  0.00    -0.000 C 
BRANCH  12  13
ATOM     13  C   UNL     1      30.612  -0.678  44.654  1.00  0.00    -0.000 C 
BRANCH  13  14
ATOM     14  C   UNL     1      29.766  -1.951  44.824  1.00  0.00    -0.000 C 
BRANCH  14  15
ATOM     15  C   UNL     1      28.286  -1.730  44.470  1.00  0.00    -0.000 C 
BRANCH  15  16
ATOM     16  C   UNL     1      28.020  -1.830  42.958  1.00  0.00    -0.000 C 
BRANCH  16  17
ATOM     17  C   UNL     1      27.277  -0.601  42.409  1.00  0.00    -0.003 C 
ATOM     18  C   UNL     1      26.655   0.257  43.510  1.00  0.00     0.004 C 
ENDBRANCH  16  17
ENDBRANCH  15  16
ENDBRANCH  14  15
ENDBRANCH  13  14
ENDBRANCH  12  13
ENDBRANCH  11  12
ENDBRANCH   1  11
TORSDOF 14
ENDMDL
MODEL 7
REMARK VINA RESULT:    -3.240     16.412     17.603
REMARK INTER + INTRA:          -5.991
REMARK INTER:                  -4.683
REMARK INTRA:                  -1.308
REMARK UNBOUND:                -0.098
REMARK SMILES CCCCCCCCCCCCCCCC(=O)[O-]
REMARK SMILES IDX 9 1 10 2 11 3 12 4 13 5 14 6 15 7 16 8 17 9 18 10 8 11 7 12
REMARK SMILES IDX 6 13 5 14 4 15 3 16 2 17 1 18
REMARK H PARENT
REMARK Flexibility Score: inf
ROOT
ATOM      1  C   UNL     1      28.137  13.896  48.616  1.00  0.00     0.000 C 
ENDROOT
BRANCH   1   2
ATOM      2  C   UNL     1      28.002  14.496  50.025  1.00  0.00     0.000 C 
BRANCH   2   3
ATOM      3  C   UNL     1      27.318  15.872  50.020  1.00  0.00     0.000 C 
BRANCH   3   4
ATOM      4  C   UNL     1      26.318  16.031  48.862  1.00  0.00     0.000 C 
BRANCH   4   5
ATOM      5  C   UNL     1      24.869  16.192  49.352  1.00  0.00     0.000 C 
BRANCH   5   6
ATOM      6  C   UNL     1      24.001  14.957  49.053  1.00  0.00     0.006 C 
BRANCH   6   7
ATOM      7  C   UNL     1      24.157  13.869  50.125  1.00  0.00     0.053 C 
BRANCH   7   8
ATOM      8  C   UNL     1      24.506  12.543  49.523  1.00  0.00     0.041 C 
ATOM      9  O   UNL     1      25.362  12.468  48.604  1.00  0.00    -0.550 OA
ATOM     10  O   UNL     1      23.910  11.384  50.005  1.00  0.00    -0.550 OA
ENDBRANCH   7   8
ENDBRANCH   6   7
ENDBRANCH   5   6
ENDBRANCH   4   5
ENDBRANCH   3   4
ENDBRANCH   2   3
ENDBRANCH   1   2
BRANCH   1  11
ATOM     11  C   UNL     1      29.387  13.012  48.513  1.00  0.00     0.000 C 
BRANCH  11  12
ATOM     12  C   UNL     1      30.646  13.863  48.290  1.00  0.00    -0.000 C 
BRANCH  12  13
ATOM     13  C   UNL     1      30.814  14.966  49.347  1.00  0.00    -0.000 C 
BRANCH  13  14
ATOM     14  C   UNL     1      32.074  15.817  49.118  1.00  0.00    -0.000 C 
BRANCH  14  15
ATOM     15  C   UNL     1      31.783  17.101  48.324  1.00  0.00    -0.000 C 
BRANCH  15  16
ATOM     16  C   UNL     1      30.294  17.488  48.350  1.00  0.00    -0.000 C 
BRANCH  16  17
ATOM     17  C   UNL     1      29.762  17.875  46.961  1.00  0.00    -0.003 C 
ATOM     18  C   UNL     1      28.682  16.921  46.453  1.00  0.00     0.004 C 
ENDBRANCH  16  17
ENDBRANCH  15  16
ENDBRANCH  14  15
ENDBRANCH  13  14
ENDBRANCH  12  13
ENDBRANCH  11  12
ENDBRANCH   1  11
TORSDOF 14
ENDMDL
MODEL 8
REMARK VINA RESULT:    -2.746     16.774     17.965
REMARK INTER + INTRA:          -5.092
REMARK INTER:                  -3.415
REMARK INTRA:                  -1.677
REMARK UNBOUND:                -0.098
REMARK SMILES CCCCCCCCCCCCCCCC(=O)[O-]
REMARK SMILES IDX 9 1 10 2 11 3 12 4 13 5 14 6 15 7 16 8 17 9 18 10 8 11 7 12
REMARK SMILES IDX 6 13 5 14 4 15 3 16 2 17 1 18
REMARK H PARENT
REMARK Flexibility Score: inf
ROOT
ATOM      1  C   UNL     1      24.792  14.444  48.701  1.00  0.00     0.000 C 
ENDROOT
BRANCH   1   2
ATOM      2  C   UNL     1      23.807  15.599  48.942  1.00  0.00     0.000 C 
BRANCH   2   3
ATOM      3  C   UNL     1      24.225  16.502  50.113  1.00  0.00     0.000 C 
BRANCH   3   4
ATOM      4  C   UNL     1      25.167  17.638  49.678  1.00  0.00     0.000 C 
BRANCH   4   5
ATOM      5  C   UNL     1      26.620  17.401  50.121  1.00  0.00     0.000 C 
BRANCH   5   6
ATOM      6  C   UNL     1      27.644  17.894  49.083  1.00  0.00     0.006 C 
BRANCH   6   7
ATOM      7  C   UNL     1      27.543  17.123  47.761  1.00  0.00     0.053 C 
BRANCH   7   8
ATOM      8  C   UNL     1      28.894  16.785  47.210  1.00  0.00     0.041 C 
ATOM      9  O   UNL     1      29.868  17.558  47.399  1.00  0.00    -0.550 OA
ATOM     10  O   UNL     1      29.084  15.595  46.519  1.00  0.00    -0.550 OA
ENDBRANCH   7   8
ENDBRANCH   6   7
ENDBRANCH   5   6
ENDBRANCH   4   5
ENDBRANCH   3   4
ENDBRANCH   2   3
ENDBRANCH   1   2
BRANCH   1  11
ATOM     11  C   UNL     1      25.066  13.675  49.999  1.00  0.00     0.000 C 
BRANCH  11  12
ATOM     12  C   UNL     1      26.132  12.592  49.783  1.00  0.00    -0.000 C 
BRANCH  12  13
ATOM     13  C   UNL     1      27.186  12.993  48.739  1.00  0.00    -0.000 C 
BRANCH  13  14
ATOM     14  C   UNL     1      28.361  13.773  49.354  1.00  0.00    -0.000 C 
BRANCH  14  15
ATOM     15  C   UNL     1      29.722  13.129  49.048  1.00  0.00    -0.000 C 
BRANCH  15  16
ATOM     16  C   UNL     1      30.887  14.129  49.156  1.00  0.00    -0.000 C 
BRANCH  16  17
ATOM     17  C   UNL     1      32.121  13.683  48.356  1.00  0.00    -0.003 C 
ATOM     18  C   UNL     1      31.844  12.474  47.462  1.00  0.00     0.004 C 
ENDBRANCH  16  17
ENDBRANCH  15  16
ENDBRANCH  14  15
ENDBRANCH  13  14
ENDBRANCH  12  13
ENDBRANCH  11  12
ENDBRANCH   1  11
TORSDOF 14
ENDMDL
