MODEL 1
REMARK VINA RESULT:    -5.082      0.000      0.000
REMARK INTER + INTRA:          -8.965
REMARK INTER:                  -7.459
REMARK INTRA:                  -1.506
REMARK UNBOUND:                -1.506
REMARK SMILES O=c1c(O[C@@H]2O[C@@H](CO)[C@H](O)[C@@H](O)[C@H]2O)c(-c2ccc(O)c(O)c2)oc2cc(O)cc(O)c12
REMARK SMILES IDX 4 1 3 2 16 3 25 4 2 5 26 6 1 7 33 8 27 9 31 10 28 11 30 12
REMARK SMILES IDX 17 13 18 14 19 15 20 16 24 17 22 18 21 19 23 21 32 23 29 25
REMARK SMILES IDX 5 27 14 28 6 29 12 30 7 31 10 32 15 33 13 35 8 37 9 38 11 40
REMARK H PARENT 21 20 23 22 32 24 29 26 15 34 13 36 9 39 11 41
REMARK Flexibility Score: inf
ROOT
ATOM      1  O   UNL     1      30.441 178.406 171.606  1.00  0.00    -0.454 OA
ENDROOT
BRANCH   1   2
ATOM      2  C   UNL     1      31.542 177.547 171.695  1.00  0.00     0.214 A 
ATOM      3  C   UNL     1      32.831 178.023 172.020  1.00  0.00     0.180 A 
ATOM      4  O   UNL     1      33.863 177.184 172.012  1.00  0.00    -0.452 OA
ATOM      5  C   UNL     1      31.367 176.183 171.447  1.00  0.00     0.239 A 
ATOM      6  C   UNL     1      33.746 175.887 171.750  1.00  0.00     0.146 A 
ATOM      7  O   UNL     1      30.210 175.748 171.192  1.00  0.00    -0.285 OA
ATOM      8  C   UNL     1      32.481 175.320 171.466  1.00  0.00     0.111 A 
ATOM      9  C   UNL     1      34.890 175.083 171.766  1.00  0.00     0.094 A 
ATOM     10  C   UNL     1      32.391 173.933 171.202  1.00  0.00     0.134 A 
ATOM     11  C   UNL     1      34.794 173.713 171.505  1.00  0.00     0.123 A 
ATOM     12  C   UNL     1      33.550 173.143 171.226  1.00  0.00     0.093 A 
BRANCH   3  13
ATOM     13  C   UNL     1      33.083 179.437 172.380  1.00  0.00     0.025 A 
ATOM     14  C   UNL     1      32.893 179.898 173.692  1.00  0.00     0.016 A 
ATOM     15  C   UNL     1      33.131 181.235 174.011  1.00  0.00     0.051 A 
ATOM     16  C   UNL     1      33.582 182.132 173.036  1.00  0.00     0.157 A 
ATOM     17  C   UNL     1      33.557 180.327 171.406  1.00  0.00     0.062 A 
ATOM     18  C   UNL     1      33.803 181.670 171.717  1.00  0.00     0.158 A 
BRANCH  16  19
ATOM     19  O   UNL     1      33.796 183.458 173.418  1.00  0.00    -0.504 OA
ATOM     20  H   UNL     1      33.121 184.198 173.291  1.00  0.00     0.293 HD
ENDBRANCH  16  19
BRANCH  18  21
ATOM     21  O   UNL     1      34.264 182.503 170.694  1.00  0.00    -0.504 OA
ATOM     22  H   UNL     1      34.350 182.217 169.729  1.00  0.00     0.293 HD
ENDBRANCH  18  21
ENDBRANCH   3  13
BRANCH  10  23
ATOM     23  O   UNL     1      31.162 173.334 170.918  1.00  0.00    -0.507 OA
ATOM     24  H   UNL     1      30.926 172.411 171.264  1.00  0.00     0.293 HD
ENDBRANCH  10  23
BRANCH  11  25
ATOM     25  O   UNL     1      35.931 172.907 171.521  1.00  0.00    -0.508 OA
ATOM     26  H   UNL     1      35.864 171.896 171.492  1.00  0.00     0.293 HD
ENDBRANCH  11  25
ENDBRANCH   1   2
BRANCH   1  27
ATOM     27  C   UNL     1      30.231 179.280 170.493  1.00  0.00     0.339 C 
ATOM     28  C   UNL     1      29.078 178.741 169.597  1.00  0.00     0.214 C 
ATOM     29  O   UNL     1      30.010 180.602 170.969  1.00  0.00    -0.332 OA
ATOM     30  C   UNL     1      28.251 179.906 169.024  1.00  0.00     0.180 C 
ATOM     31  C   UNL     1      28.673 180.773 171.402  1.00  0.00     0.179 C 
ATOM     32  C   UNL     1      27.725 180.807 170.172  1.00  0.00     0.177 C 
BRANCH  28  33
ATOM     33  O   UNL     1      29.591 177.961 168.547  1.00  0.00    -0.384 OA
ATOM     34  H   UNL     1      29.261 177.035 168.690  1.00  0.00     0.211 HD
ENDBRANCH  28  33
BRANCH  30  35
ATOM     35  O   UNL     1      29.047 180.677 168.158  1.00  0.00    -0.387 OA
ATOM     36  H   UNL     1      29.950 180.733 168.564  1.00  0.00     0.211 HD
ENDBRANCH  30  35
BRANCH  31  37
ATOM     37  C   UNL     1      28.572 182.072 172.212  1.00  0.00     0.191 C 
BRANCH  37  38
ATOM     38  O   UNL     1      27.779 183.010 171.535  1.00  0.00    -0.394 OA
ATOM     39  H   UNL     1      27.433 182.560 170.722  1.00  0.00     0.210 HD
ENDBRANCH  37  38
ENDBRANCH  31  37
BRANCH  32  40
ATOM     40  O   UNL     1      26.420 180.440 170.546  1.00  0.00    -0.387 OA
ATOM     41  H   UNL     1      26.099 181.101 171.213  1.00  0.00     0.211 HD
ENDBRANCH  32  40
ENDBRANCH   1  27
TORSDOF 12
ENDMDL
MODEL 2
REMARK VINA RESULT:    -5.010      2.174      7.932
REMARK INTER + INTRA:          -8.859
REMARK INTER:                  -7.424
REMARK INTRA:                  -1.435
REMARK UNBOUND:                -1.506
REMARK SMILES O=c1c(O[C@@H]2O[C@@H](CO)[C@H](O)[C@@H](O)[C@H]2O)c(-c2ccc(O)c(O)c2)oc2cc(O)cc(O)c12
REMARK SMILES IDX 4 1 3 2 16 3 25 4 2 5 26 6 1 7 33 8 27 9 31 10 28 11 30 12
REMARK SMILES IDX 17 13 18 14 19 15 20 16 24 17 22 18 21 19 23 21 32 23 29 25
REMARK SMILES IDX 5 27 14 28 6 29 12 30 7 31 10 32 15 33 13 35 8 37 9 38 11 40
REMARK H PARENT 21 20 23 22 32 24 29 26 15 34 13 36 9 39 11 41
REMARK Flexibility Score: inf
ROOT
ATOM      1  O   UNL     1      32.507 174.202 171.069  1.00  0.00    -0.454 OA
ENDROOT
BRANCH   1   2
ATOM      2  C   UNL     1      32.754 175.551 171.346  1.00  0.00     0.214 A 
ATOM      3  C   UNL     1      33.954 175.977 171.956  1.00  0.00     0.180 A 
ATOM      4  O   UNL     1      34.112 177.258 172.275  1.00  0.00    -0.452 OA
ATOM      5  C   UNL     1      31.786 176.505 171.019  1.00  0.00     0.239 A 
ATOM      6  C   UNL     1      33.204 178.192 172.013  1.00  0.00     0.146 A 
ATOM      7  O   UNL     1      30.728 176.134 170.441  1.00  0.00    -0.285 OA
ATOM      8  C   UNL     1      31.996 177.858 171.357  1.00  0.00     0.111 A 
ATOM      9  C   UNL     1      33.459 179.514 172.387  1.00  0.00     0.094 A 
ATOM     10  C   UNL     1      31.055 178.879 171.082  1.00  0.00     0.134 A 
ATOM     11  C   UNL     1      32.526 180.519 172.113  1.00  0.00     0.123 A 
ATOM     12  C   UNL     1      31.331 180.200 171.463  1.00  0.00     0.093 A 
BRANCH   3  13
ATOM     13  C   UNL     1      35.063 175.041 172.253  1.00  0.00     0.025 A 
ATOM     14  C   UNL     1      35.398 174.708 173.575  1.00  0.00     0.016 A 
ATOM     15  C   UNL     1      36.450 173.828 173.834  1.00  0.00     0.051 A 
ATOM     16  C   UNL     1      37.173 173.251 172.786  1.00  0.00     0.157 A 
ATOM     17  C   UNL     1      35.770 174.446 171.199  1.00  0.00     0.062 A 
ATOM     18  C   UNL     1      36.824 173.559 171.449  1.00  0.00     0.158 A 
BRANCH  16  19
ATOM     19  O   UNL     1      38.217 172.383 173.113  1.00  0.00    -0.504 OA
ATOM     20  H   UNL     1      39.151 172.455 172.734  1.00  0.00     0.293 HD
ENDBRANCH  16  19
BRANCH  18  21
ATOM     21  O   UNL     1      37.491 173.012 170.350  1.00  0.00    -0.504 OA
ATOM     22  H   UNL     1      38.466 172.749 170.355  1.00  0.00     0.293 HD
ENDBRANCH  18  21
ENDBRANCH   3  13
BRANCH  10  23
ATOM     23  O   UNL     1      29.851 178.592 170.436  1.00  0.00    -0.507 OA
ATOM     24  H   UNL     1      29.613 179.009 169.543  1.00  0.00     0.293 HD
ENDBRANCH  10  23
BRANCH  11  25
ATOM     25  O   UNL     1      32.776 181.839 172.483  1.00  0.00    -0.508 OA
ATOM     26  H   UNL     1      33.493 182.390 172.027  1.00  0.00     0.293 HD
ENDBRANCH  11  25
ENDBRANCH   1   2
BRANCH   1  27
ATOM     27  C   UNL     1      32.242 173.239 172.093  1.00  0.00     0.339 C 
ATOM     28  C   UNL     1      30.842 172.594 171.876  1.00  0.00     0.214 C 
ATOM     29  O   UNL     1      33.304 172.293 172.133  1.00  0.00    -0.332 OA
ATOM     30  C   UNL     1      30.868 171.106 172.270  1.00  0.00     0.180 C 
ATOM     31  C   UNL     1      33.154 171.313 171.123  1.00  0.00     0.179 C 
ATOM     32  C   UNL     1      31.981 170.363 171.487  1.00  0.00     0.177 C 
BRANCH  28  33
ATOM     33  O   UNL     1      29.866 173.269 172.628  1.00  0.00    -0.384 OA
ATOM     34  H   UNL     1      30.340 173.959 173.161  1.00  0.00     0.211 HD
ENDBRANCH  28  33
BRANCH  30  35
ATOM     35  O   UNL     1      31.110 170.981 173.650  1.00  0.00    -0.387 OA
ATOM     36  H   UNL     1      31.893 171.552 173.862  1.00  0.00     0.211 HD
ENDBRANCH  30  35
BRANCH  31  37
ATOM     37  C   UNL     1      34.470 170.537 170.980  1.00  0.00     0.191 C 
BRANCH  37  38
ATOM     38  O   UNL     1      35.195 171.002 169.873  1.00  0.00    -0.394 OA
ATOM     39  H   UNL     1      35.701 170.227 169.516  1.00  0.00     0.210 HD
ENDBRANCH  37  38
ENDBRANCH  31  37
BRANCH  32  40
ATOM     40  O   UNL     1      31.464 169.753 170.329  1.00  0.00    -0.387 OA
ATOM     41  H   UNL     1      32.086 169.948 169.581  1.00  0.00     0.211 HD
ENDBRANCH  32  40
ENDBRANCH   1  27
TORSDOF 12
ENDMDL
MODEL 3
REMARK VINA RESULT:    -4.941      1.528      2.282
REMARK INTER + INTRA:          -8.758
REMARK INTER:                  -7.027
REMARK INTRA:                  -1.730
REMARK UNBOUND:                -1.506
REMARK SMILES O=c1c(O[C@@H]2O[C@@H](CO)[C@H](O)[C@@H](O)[C@H]2O)c(-c2ccc(O)c(O)c2)oc2cc(O)cc(O)c12
REMARK SMILES IDX 4 1 3 2 16 3 25 4 2 5 26 6 1 7 33 8 27 9 31 10 28 11 30 12
REMARK SMILES IDX 17 13 18 14 19 15 20 16 24 17 22 18 21 19 23 21 32 23 29 25
REMARK SMILES IDX 5 27 14 28 6 29 12 30 7 31 10 32 15 33 13 35 8 37 9 38 11 40
REMARK H PARENT 21 20 23 22 32 24 29 26 15 34 13 36 9 39 11 41
REMARK Flexibility Score: inf
ROOT
ATOM      1  O   UNL     1      30.935 176.271 171.351  1.00  0.00    -0.454 OA
ENDROOT
BRANCH   1   2
ATOM      2  C   UNL     1      32.224 175.753 171.523  1.00  0.00     0.214 A 
ATOM      3  C   UNL     1      33.318 176.579 171.858  1.00  0.00     0.180 A 
ATOM      4  O   UNL     1      34.539 176.056 171.931  1.00  0.00    -0.452 OA
ATOM      5  C   UNL     1      32.438 174.382 171.351  1.00  0.00     0.239 A 
ATOM      6  C   UNL     1      34.792 174.766 171.742  1.00  0.00     0.146 A 
ATOM      7  O   UNL     1      31.456 173.635 171.087  1.00  0.00    -0.285 OA
ATOM      8  C   UNL     1      33.744 173.861 171.454  1.00  0.00     0.111 A 
ATOM      9  C   UNL     1      36.110 174.309 171.840  1.00  0.00     0.094 A 
ATOM     10  C   UNL     1      34.047 172.490 171.270  1.00  0.00     0.134 A 
ATOM     11  C   UNL     1      36.403 172.954 171.657  1.00  0.00     0.123 A 
ATOM     12  C   UNL     1      35.375 172.051 171.375  1.00  0.00     0.093 A 
BRANCH   3  13
ATOM     13  C   UNL     1      33.159 178.023 172.142  1.00  0.00     0.025 A 
ATOM     14  C   UNL     1      33.057 178.498 173.459  1.00  0.00     0.016 A 
ATOM     15  C   UNL     1      32.902 179.863 173.706  1.00  0.00     0.051 A 
ATOM     16  C   UNL     1      32.867 180.780 172.650  1.00  0.00     0.157 A 
ATOM     17  C   UNL     1      33.149 178.942 171.083  1.00  0.00     0.062 A 
ATOM     18  C   UNL     1      32.999 180.314 171.320  1.00  0.00     0.158 A 
BRANCH  16  19
ATOM     19  O   UNL     1      32.705 182.131 172.964  1.00  0.00    -0.504 OA
ATOM     20  H   UNL     1      33.305 182.640 173.596  1.00  0.00     0.293 HD
ENDBRANCH  16  19
BRANCH  18  21
ATOM     21  O   UNL     1      32.986 181.169 170.216  1.00  0.00    -0.504 OA
ATOM     22  H   UNL     1      32.143 181.532 169.793  1.00  0.00     0.293 HD
ENDBRANCH  18  21
ENDBRANCH   3  13
BRANCH  10  23
ATOM     23  O   UNL     1      33.041 171.564 170.984  1.00  0.00    -0.507 OA
ATOM     24  H   UNL     1      33.252 170.653 170.594  1.00  0.00     0.293 HD
ENDBRANCH  10  23
BRANCH  11  25
ATOM     25  O   UNL     1      37.714 172.492 171.754  1.00  0.00    -0.508 OA
ATOM     26  H   UNL     1      38.084 171.806 171.107  1.00  0.00     0.293 HD
ENDBRANCH  11  25
ENDBRANCH   1   2
BRANCH   1  27
ATOM     27  C   UNL     1      30.405 176.611 170.067  1.00  0.00     0.339 C 
ATOM     28  C   UNL     1      29.048 175.883 169.836  1.00  0.00     0.214 C 
ATOM     29  O   UNL     1      30.317 178.026 169.954  1.00  0.00    -0.332 OA
ATOM     30  C   UNL     1      28.080 176.786 169.050  1.00  0.00     0.180 C 
ATOM     31  C   UNL     1      29.160 178.520 170.603  1.00  0.00     0.179 C 
ATOM     32  C   UNL     1      27.898 178.142 169.780  1.00  0.00     0.177 C 
BRANCH  28  33
ATOM     33  O   UNL     1      29.246 174.678 169.141  1.00  0.00    -0.384 OA
ATOM     34  H   UNL     1      29.650 174.915 168.265  1.00  0.00     0.211 HD
ENDBRANCH  28  33
BRANCH  30  35
ATOM     35  O   UNL     1      28.585 177.019 167.758  1.00  0.00    -0.387 OA
ATOM     36  H   UNL     1      28.745 176.132 167.343  1.00  0.00     0.211 HD
ENDBRANCH  30  35
BRANCH  31  37
ATOM     37  C   UNL     1      29.283 180.041 170.757  1.00  0.00     0.191 C 
BRANCH  37  38
ATOM     38  O   UNL     1      29.962 180.591 169.658  1.00  0.00    -0.394 OA
ATOM     39  H   UNL     1      30.512 179.863 169.269  1.00  0.00     0.210 HD
ENDBRANCH  37  38
ENDBRANCH  31  37
BRANCH  32  40
ATOM     40  O   UNL     1      26.759 178.124 170.606  1.00  0.00    -0.387 OA
ATOM     41  H   UNL     1      26.187 178.892 170.348  1.00  0.00     0.211 HD
ENDBRANCH  32  40
ENDBRANCH   1  27
TORSDOF 12
ENDMDL
MODEL 4
REMARK VINA RESULT:    -4.855     10.633     13.331
REMARK INTER + INTRA:          -8.632
REMARK INTER:                  -7.323
REMARK INTRA:                  -1.308
REMARK UNBOUND:                -1.506
REMARK SMILES O=c1c(O[C@@H]2O[C@@H](CO)[C@H](O)[C@@H](O)[C@H]2O)c(-c2ccc(O)c(O)c2)oc2cc(O)cc(O)c12
REMARK SMILES IDX 4 1 3 2 16 3 25 4 2 5 26 6 1 7 33 8 27 9 31 10 28 11 30 12
REMARK SMILES IDX 17 13 18 14 19 15 20 16 24 17 22 18 21 19 23 21 32 23 29 25
REMARK SMILES IDX 5 27 14 28 6 29 12 30 7 31 10 32 15 33 13 35 8 37 9 38 11 40
REMARK H PARENT 21 20 23 22 32 24 29 26 15 34 13 36 9 39 11 41
REMARK Flexibility Score: inf
ROOT
ATOM      1  O   UNL     1      29.405 170.606 161.150  1.00  0.00    -0.454 OA
ENDROOT
BRANCH   1   2
ATOM      2  C   UNL     1      30.521 170.013 160.549  1.00  0.00     0.214 A 
ATOM      3  C   UNL     1      31.552 169.425 161.314  1.00  0.00     0.180 A 
ATOM      4  O   UNL     1      32.632 168.946 160.705  1.00  0.00    -0.452 OA
ATOM      5  C   UNL     1      30.625 170.006 159.156  1.00  0.00     0.239 A 
ATOM      6  C   UNL     1      32.787 168.950 159.385  1.00  0.00     0.146 A 
ATOM      7  O   UNL     1      29.689 170.497 158.467  1.00  0.00    -0.285 OA
ATOM      8  C   UNL     1      31.777 169.472 158.543  1.00  0.00     0.111 A 
ATOM      9  C   UNL     1      33.959 168.422 158.835  1.00  0.00     0.094 A 
ATOM     10  C   UNL     1      31.969 169.450 157.141  1.00  0.00     0.134 A 
ATOM     11  C   UNL     1      34.142 168.403 157.449  1.00  0.00     0.123 A 
ATOM     12  C   UNL     1      33.150 168.914 156.609  1.00  0.00     0.093 A 
BRANCH   3  13
ATOM     13  C   UNL     1      31.476 169.314 162.789  1.00  0.00     0.025 A 
ATOM     14  C   UNL     1      30.299 168.893 163.427  1.00  0.00     0.016 A 
ATOM     15  C   UNL     1      30.245 168.800 164.818  1.00  0.00     0.051 A 
ATOM     16  C   UNL     1      31.366 169.104 165.597  1.00  0.00     0.157 A 
ATOM     17  C   UNL     1      32.609 169.597 163.566  1.00  0.00     0.062 A 
ATOM     18  C   UNL     1      32.566 169.502 164.962  1.00  0.00     0.158 A 
BRANCH  16  19
ATOM     19  O   UNL     1      31.245 168.996 166.985  1.00  0.00    -0.504 OA
ATOM     20  H   UNL     1      30.884 169.729 167.578  1.00  0.00     0.293 HD
ENDBRANCH  16  19
BRANCH  18  21
ATOM     21  O   UNL     1      33.729 169.810 165.672  1.00  0.00    -0.504 OA
ATOM     22  H   UNL     1      34.475 169.152 165.847  1.00  0.00     0.293 HD
ENDBRANCH  18  21
ENDBRANCH   3  13
BRANCH  10  23
ATOM     23  O   UNL     1      30.997 169.956 156.275  1.00  0.00    -0.507 OA
ATOM     24  H   UNL     1      30.011 169.760 156.409  1.00  0.00     0.293 HD
ENDBRANCH  10  23
BRANCH  11  25
ATOM     25  O   UNL     1      35.308 167.878 156.895  1.00  0.00    -0.508 OA
ATOM     26  H   UNL     1      35.598 166.924 157.077  1.00  0.00     0.293 HD
ENDBRANCH  11  25
ENDBRANCH   1   2
BRANCH   1  27
ATOM     27  C   UNL     1      29.206 172.023 161.177  1.00  0.00     0.339 C 
ATOM     28  C   UNL     1      27.719 172.350 161.505  1.00  0.00     0.214 C 
ATOM     29  O   UNL     1      30.130 172.610 162.085  1.00  0.00    -0.332 OA
ATOM     30  C   UNL     1      27.626 173.611 162.383  1.00  0.00     0.180 C 
ATOM     31  C   UNL     1      29.684 172.484 163.423  1.00  0.00     0.179 C 
ATOM     32  C   UNL     1      28.482 173.439 163.664  1.00  0.00     0.177 C 
BRANCH  28  33
ATOM     33  O   UNL     1      26.982 172.536 160.323  1.00  0.00    -0.384 OA
ATOM     34  H   UNL     1      26.632 173.465 160.347  1.00  0.00     0.211 HD
ENDBRANCH  28  33
BRANCH  30  35
ATOM     35  O   UNL     1      28.088 174.728 161.664  1.00  0.00    -0.387 OA
ATOM     36  H   UNL     1      28.345 174.409 160.760  1.00  0.00     0.211 HD
ENDBRANCH  30  35
BRANCH  31  37
ATOM     37  C   UNL     1      30.845 172.809 164.370  1.00  0.00     0.191 C 
BRANCH  37  38
ATOM     38  O   UNL     1      30.546 173.943 165.140  1.00  0.00    -0.394 OA
ATOM     39  H   UNL     1      30.559 173.657 166.090  1.00  0.00     0.210 HD
ENDBRANCH  37  38
ENDBRANCH  31  37
BRANCH  32  40
ATOM     40  O   UNL     1      27.698 172.981 164.738  1.00  0.00    -0.387 OA
ATOM     41  H   UNL     1      27.935 172.031 164.902  1.00  0.00     0.211 HD
ENDBRANCH  32  40
ENDBRANCH   1  27
TORSDOF 12
ENDMDL
MODEL 5
REMARK VINA RESULT:    -4.835      2.574      9.557
REMARK INTER + INTRA:          -8.602
REMARK INTER:                  -6.819
REMARK INTRA:                  -1.782
REMARK UNBOUND:                -1.506
REMARK SMILES O=c1c(O[C@@H]2O[C@@H](CO)[C@H](O)[C@@H](O)[C@H]2O)c(-c2ccc(O)c(O)c2)oc2cc(O)cc(O)c12
REMARK SMILES IDX 4 1 3 2 16 3 25 4 2 5 26 6 1 7 33 8 27 9 31 10 28 11 30 12
REMARK SMILES IDX 17 13 18 14 19 15 20 16 24 17 22 18 21 19 23 21 32 23 29 25
REMARK SMILES IDX 5 27 14 28 6 29 12 30 7 31 10 32 15 33 13 35 8 37 9 38 11 40
REMARK H PARENT 21 20 23 22 32 24 29 26 15 34 13 36 9 39 11 41
REMARK Flexibility Score: inf
ROOT
ATOM      1  O   UNL     1      33.873 173.424 171.952  1.00  0.00    -0.454 OA
ENDROOT
BRANCH   1   2
ATOM      2  C   UNL     1      32.985 174.453 171.619  1.00  0.00     0.214 A 
ATOM      3  C   UNL     1      31.722 174.189 171.048  1.00  0.00     0.180 A 
ATOM      4  O   UNL     1      30.945 175.200 170.673  1.00  0.00    -0.452 OA
ATOM      5  C   UNL     1      33.359 175.780 171.851  1.00  0.00     0.239 A 
ATOM      6  C   UNL     1      31.275 176.476 170.843  1.00  0.00     0.146 A 
ATOM      7  O   UNL     1      34.472 176.019 172.395  1.00  0.00    -0.285 OA
ATOM      8  C   UNL     1      32.501 176.827 171.456  1.00  0.00     0.111 A 
ATOM      9  C   UNL     1      30.391 177.471 170.416  1.00  0.00     0.094 A 
ATOM     10  C   UNL     1      32.817 178.195 171.633  1.00  0.00     0.134 A 
ATOM     11  C   UNL     1      30.709 178.821 170.593  1.00  0.00     0.123 A 
ATOM     12  C   UNL     1      31.915 179.178 171.200  1.00  0.00     0.093 A 
BRANCH   3  13
ATOM     13  C   UNL     1      31.217 172.810 170.852  1.00  0.00     0.025 A 
ATOM     14  C   UNL     1      30.634 172.092 171.908  1.00  0.00     0.016 A 
ATOM     15  C   UNL     1      30.169 170.793 171.704  1.00  0.00     0.051 A 
ATOM     16  C   UNL     1      30.256 170.193 170.444  1.00  0.00     0.157 A 
ATOM     17  C   UNL     1      31.284 172.221 169.581  1.00  0.00     0.062 A 
ATOM     18  C   UNL     1      30.816 170.919 169.366  1.00  0.00     0.158 A 
BRANCH  16  19
ATOM     19  O   UNL     1      29.777 168.888 170.308  1.00  0.00    -0.504 OA
ATOM     20  H   UNL     1      30.212 168.080 170.730  1.00  0.00     0.293 HD
ENDBRANCH  16  19
BRANCH  18  21
ATOM     21  O   UNL     1      30.925 170.391 168.077  1.00  0.00    -0.504 OA
ATOM     22  H   UNL     1      30.369 170.698 167.292  1.00  0.00     0.293 HD
ENDBRANCH  18  21
ENDBRANCH   3  13
BRANCH  10  23
ATOM     23  O   UNL     1      34.016 178.583 172.234  1.00  0.00    -0.507 OA
ATOM     24  H   UNL     1      34.902 178.166 171.972  1.00  0.00     0.293 HD
ENDBRANCH  10  23
BRANCH  11  25
ATOM     25  O   UNL     1      29.831 179.818 170.171  1.00  0.00    -0.508 OA
ATOM     26  H   UNL     1      29.884 180.209 169.238  1.00  0.00     0.293 HD
ENDBRANCH  11  25
ENDBRANCH   1   2
BRANCH   1  27
ATOM     27  C   UNL     1      34.919 172.994 171.076  1.00  0.00     0.339 C 
ATOM     28  C   UNL     1      36.288 173.030 171.816  1.00  0.00     0.214 C 
ATOM     29  O   UNL     1      34.593 171.715 170.546  1.00  0.00    -0.332 OA
ATOM     30  C   UNL     1      37.176 171.856 171.364  1.00  0.00     0.180 C 
ATOM     31  C   UNL     1      34.894 170.686 171.471  1.00  0.00     0.179 C 
ATOM     32  C   UNL     1      36.435 170.510 171.572  1.00  0.00     0.177 C 
BRANCH  28  33
ATOM     33  O   UNL     1      36.949 174.246 171.576  1.00  0.00    -0.384 OA
ATOM     34  H   UNL     1      37.397 174.161 170.694  1.00  0.00     0.211 HD
ENDBRANCH  28  33
BRANCH  30  35
ATOM     35  O   UNL     1      37.501 172.000 170.003  1.00  0.00    -0.387 OA
ATOM     36  H   UNL     1      36.686 171.780 169.483  1.00  0.00     0.211 HD
ENDBRANCH  30  35
BRANCH  31  37
ATOM     37  C   UNL     1      34.220 169.387 171.011  1.00  0.00     0.191 C 
BRANCH  37  38
ATOM     38  O   UNL     1      35.185 168.441 170.635  1.00  0.00    -0.394 OA
ATOM     39  H   UNL     1      34.869 167.562 170.968  1.00  0.00     0.210 HD
ENDBRANCH  37  38
ENDBRANCH  31  37
BRANCH  32  40
ATOM     40  O   UNL     1      36.783 169.926 172.803  1.00  0.00    -0.387 OA
ATOM     41  H   UNL     1      37.467 170.505 173.230  1.00  0.00     0.211 HD
ENDBRANCH  32  40
ENDBRANCH   1  27
TORSDOF 12
ENDMDL
MODEL 6
REMARK VINA RESULT:    -4.796      2.545      6.180
REMARK INTER + INTRA:          -8.545
REMARK INTER:                  -6.989
REMARK INTRA:                  -1.556
REMARK UNBOUND:                -1.506
REMARK SMILES O=c1c(O[C@@H]2O[C@@H](CO)[C@H](O)[C@@H](O)[C@H]2O)c(-c2ccc(O)c(O)c2)oc2cc(O)cc(O)c12
REMARK SMILES IDX 4 1 3 2 16 3 25 4 2 5 26 6 1 7 33 8 27 9 31 10 28 11 30 12
REMARK SMILES IDX 17 13 18 14 19 15 20 16 24 17 22 18 21 19 23 21 32 23 29 25
REMARK SMILES IDX 5 27 14 28 6 29 12 30 7 31 10 32 15 33 13 35 8 37 9 38 11 40
REMARK H PARENT 21 20 23 22 32 24 29 26 15 34 13 36 9 39 11 41
REMARK Flexibility Score: inf
ROOT
ATOM      1  O   UNL     1      31.444 175.592 171.448  1.00  0.00    -0.454 OA
ENDROOT
BRANCH   1   2
ATOM      2  C   UNL     1      32.269 174.490 171.194  1.00  0.00     0.214 A 
ATOM      3  C   UNL     1      31.754 173.278 170.686  1.00  0.00     0.180 A 
ATOM      4  O   UNL     1      32.561 172.232 170.537  1.00  0.00    -0.452 OA
ATOM      5  C   UNL     1      33.638 174.587 171.457  1.00  0.00     0.239 A 
ATOM      6  C   UNL     1      33.861 172.269 170.807  1.00  0.00     0.146 A 
ATOM      7  O   UNL     1      34.108 175.680 171.877  1.00  0.00    -0.285 OA
ATOM      8  C   UNL     1      34.466 173.461 171.271  1.00  0.00     0.111 A 
ATOM      9  C   UNL     1      34.629 171.117 170.619  1.00  0.00     0.094 A 
ATOM     10  C   UNL     1      35.856 173.470 171.537  1.00  0.00     0.134 A 
ATOM     11  C   UNL     1      36.002 171.132 170.884  1.00  0.00     0.123 A 
ATOM     12  C   UNL     1      36.610 172.304 171.340  1.00  0.00     0.093 A 
BRANCH   3  13
ATOM     13  C   UNL     1      30.332 173.124 170.300  1.00  0.00     0.025 A 
ATOM     14  C   UNL     1      29.937 173.158 168.953  1.00  0.00     0.016 A 
ATOM     15  C   UNL     1      28.592 173.016 168.610  1.00  0.00     0.051 A 
ATOM     16  C   UNL     1      27.621 172.818 169.597  1.00  0.00     0.157 A 
ATOM     17  C   UNL     1      29.365 172.902 171.290  1.00  0.00     0.062 A 
ATOM     18  C   UNL     1      28.013 172.754 170.955  1.00  0.00     0.158 A 
BRANCH  16  19
ATOM     19  O   UNL     1      26.291 172.689 169.188  1.00  0.00    -0.504 OA
ATOM     20  H   UNL     1      25.536 172.419 169.801  1.00  0.00     0.293 HD
ENDBRANCH  16  19
BRANCH  18  21
ATOM     21  O   UNL     1      27.103 172.547 171.994  1.00  0.00    -0.504 OA
ATOM     22  H   UNL     1      27.353 172.169 172.897  1.00  0.00     0.293 HD
ENDBRANCH  18  21
ENDBRANCH   3  13
BRANCH  10  23
ATOM     23  O   UNL     1      36.492 174.626 171.996  1.00  0.00    -0.507 OA
ATOM     24  H   UNL     1      37.502 174.684 172.071  1.00  0.00     0.293 HD
ENDBRANCH  10  23
BRANCH  11  25
ATOM     25  O   UNL     1      36.773 169.986 170.697  1.00  0.00    -0.508 OA
ATOM     26  H   UNL     1      36.359 169.062 170.705  1.00  0.00     0.293 HD
ENDBRANCH  11  25
ENDBRANCH   1   2
BRANCH   1  27
ATOM     27  C   UNL     1      31.017 176.490 170.420  1.00  0.00     0.339 C 
ATOM     28  C   UNL     1      29.585 177.017 170.726  1.00  0.00     0.214 C 
ATOM     29  O   UNL     1      31.982 177.524 170.270  1.00  0.00    -0.332 OA
ATOM     30  C   UNL     1      29.446 178.486 170.288  1.00  0.00     0.180 C 
ATOM     31  C   UNL     1      31.821 178.523 171.260  1.00  0.00     0.179 C 
ATOM     32  C   UNL     1      30.542 179.353 170.960  1.00  0.00     0.177 C 
BRANCH  28  33
ATOM     33  O   UNL     1      28.620 176.232 170.072  1.00  0.00    -0.384 OA
ATOM     34  H   UNL     1      27.945 176.858 169.700  1.00  0.00     0.211 HD
ENDBRANCH  28  33
BRANCH  30  35
ATOM     35  O   UNL     1      29.571 178.583 168.891  1.00  0.00    -0.387 OA
ATOM     36  H   UNL     1      29.339 177.694 168.514  1.00  0.00     0.211 HD
ENDBRANCH  30  35
BRANCH  31  37
ATOM     37  C   UNL     1      33.067 179.417 171.277  1.00  0.00     0.191 C 
BRANCH  37  38
ATOM     38  O   UNL     1      32.810 180.628 170.616  1.00  0.00    -0.394 OA
ATOM     39  H   UNL     1      32.044 180.464 170.007  1.00  0.00     0.210 HD
ENDBRANCH  37  38
ENDBRANCH  31  37
BRANCH  32  40
ATOM     40  O   UNL     1      30.060 179.955 172.137  1.00  0.00    -0.387 OA
ATOM     41  H   UNL     1      30.843 180.185 172.702  1.00  0.00     0.211 HD
ENDBRANCH  32  40
ENDBRANCH   1  27
TORSDOF 12
ENDMDL
MODEL 7
REMARK VINA RESULT:    -4.793      2.327      3.821
REMARK INTER + INTRA:          -8.540
REMARK INTER:                  -6.842
REMARK INTRA:                  -1.698
REMARK UNBOUND:                -1.506
REMARK SMILES O=c1c(O[C@@H]2O[C@@H](CO)[C@H](O)[C@@H](O)[C@H]2O)c(-c2ccc(O)c(O)c2)oc2cc(O)cc(O)c12
REMARK SMILES IDX 4 1 3 2 16 3 25 4 2 5 26 6 1 7 33 8 27 9 31 10 28 11 30 12
REMARK SMILES IDX 17 13 18 14 19 15 20 16 24 17 22 18 21 19 23 21 32 23 29 25
REMARK SMILES IDX 5 27 14 28 6 29 12 30 7 31 10 32 15 33 13 35 8 37 9 38 11 40
REMARK H PARENT 21 20 23 22 32 24 29 26 15 34 13 36 9 39 11 41
REMARK Flexibility Score: inf
ROOT
ATOM      1  O   UNL     1      31.277 174.797 171.684  1.00  0.00    -0.454 OA
ENDROOT
BRANCH   1   2
ATOM      2  C   UNL     1      32.652 174.538 171.657  1.00  0.00     0.214 A 
ATOM      3  C   UNL     1      33.605 175.560 171.861  1.00  0.00     0.180 A 
ATOM      4  O   UNL     1      34.900 175.284 171.746  1.00  0.00    -0.452 OA
ATOM      5  C   UNL     1      33.098 173.236 171.413  1.00  0.00     0.239 A 
ATOM      6  C   UNL     1      35.366 174.068 171.483  1.00  0.00     0.146 A 
ATOM      7  O   UNL     1      32.250 172.313 171.266  1.00  0.00    -0.285 OA
ATOM      8  C   UNL     1      34.480 172.977 171.316  1.00  0.00     0.111 A 
ATOM      9  C   UNL     1      36.747 173.874 171.380  1.00  0.00     0.094 A 
ATOM     10  C   UNL     1      35.010 171.692 171.048  1.00  0.00     0.134 A 
ATOM     11  C   UNL     1      37.265 172.603 171.115  1.00  0.00     0.123 A 
ATOM     12  C   UNL     1      36.399 171.519 170.952  1.00  0.00     0.093 A 
BRANCH   3  13
ATOM     13  C   UNL     1      33.215 176.945 172.211  1.00  0.00     0.025 A 
ATOM     14  C   UNL     1      33.141 177.364 173.548  1.00  0.00     0.016 A 
ATOM     15  C   UNL     1      32.767 178.672 173.857  1.00  0.00     0.051 A 
ATOM     16  C   UNL     1      32.479 179.591 172.842  1.00  0.00     0.157 A 
ATOM     17  C   UNL     1      32.950 177.869 171.190  1.00  0.00     0.062 A 
ATOM     18  C   UNL     1      32.578 179.186 171.490  1.00  0.00     0.158 A 
BRANCH  16  19
ATOM     19  O   UNL     1      32.104 180.883 173.218  1.00  0.00    -0.504 OA
ATOM     20  H   UNL     1      31.563 181.096 174.043  1.00  0.00     0.293 HD
ENDBRANCH  16  19
BRANCH  18  21
ATOM     21  O   UNL     1      32.318 180.049 170.422  1.00  0.00    -0.504 OA
ATOM     22  H   UNL     1      31.391 180.301 170.113  1.00  0.00     0.293 HD
ENDBRANCH  18  21
ENDBRANCH   3  13
BRANCH  10  23
ATOM     23  O   UNL     1      34.170 170.590 170.876  1.00  0.00    -0.507 OA
ATOM     24  H   UNL     1      34.161 170.056 170.015  1.00  0.00     0.293 HD
ENDBRANCH  10  23
BRANCH  11  25
ATOM     25  O   UNL     1      38.640 172.404 171.013  1.00  0.00    -0.508 OA
ATOM     26  H   UNL     1      39.224 173.014 170.454  1.00  0.00     0.293 HD
ENDBRANCH  11  25
ENDBRANCH   1   2
BRANCH   1  27
ATOM     27  C   UNL     1      30.450 174.694 170.522  1.00  0.00     0.339 C 
ATOM     28  C   UNL     1      29.132 173.940 170.865  1.00  0.00     0.214 C 
ATOM     29  O   UNL     1      30.236 175.992 169.981  1.00  0.00    -0.332 OA
ATOM     30  C   UNL     1      27.949 174.537 170.081  1.00  0.00     0.180 C 
ATOM     31  C   UNL     1      29.221 176.681 170.687  1.00  0.00     0.179 C 
ATOM     32  C   UNL     1      27.838 176.059 170.352  1.00  0.00     0.177 C 
BRANCH  28  33
ATOM     33  O   UNL     1      29.256 172.571 170.572  1.00  0.00    -0.384 OA
ATOM     34  H   UNL     1      30.093 172.260 171.006  1.00  0.00     0.211 HD
ENDBRANCH  28  33
BRANCH  30  35
ATOM     35  O   UNL     1      28.134 174.324 168.703  1.00  0.00    -0.387 OA
ATOM     36  H   UNL     1      29.066 174.590 168.488  1.00  0.00     0.211 HD
ENDBRANCH  30  35
BRANCH  31  37
ATOM     37  C   UNL     1      29.265 178.166 170.306  1.00  0.00     0.191 C 
BRANCH  37  38
ATOM     38  O   UNL     1      30.043 178.353 169.153  1.00  0.00    -0.394 OA
ATOM     39  H   UNL     1      29.697 177.723 168.469  1.00  0.00     0.210 HD
ENDBRANCH  37  38
ENDBRANCH  31  37
BRANCH  32  40
ATOM     40  O   UNL     1      26.917 176.323 171.383  1.00  0.00    -0.387 OA
ATOM     41  H   UNL     1      26.270 176.995 171.046  1.00  0.00     0.211 HD
ENDBRANCH  32  40
ENDBRANCH   1  27
TORSDOF 12
ENDMDL
MODEL 8
REMARK VINA RESULT:    -4.614      5.926      9.806
REMARK INTER + INTRA:          -8.277
REMARK INTER:                  -6.673
REMARK INTRA:                  -1.605
REMARK UNBOUND:                -1.506
REMARK SMILES O=c1c(O[C@@H]2O[C@@H](CO)[C@H](O)[C@@H](O)[C@H]2O)c(-c2ccc(O)c(O)c2)oc2cc(O)cc(O)c12
REMARK SMILES IDX 4 1 3 2 16 3 25 4 2 5 26 6 1 7 33 8 27 9 31 10 28 11 30 12
REMARK SMILES IDX 17 13 18 14 19 15 20 16 24 17 22 18 21 19 23 21 32 23 29 25
REMARK SMILES IDX 5 27 14 28 6 29 12 30 7 31 10 32 15 33 13 35 8 37 9 38 11 40
REMARK H PARENT 21 20 23 22 32 24 29 26 15 34 13 36 9 39 11 41
REMARK Flexibility Score: inf
ROOT
ATOM      1  O   UNL     1      30.437 173.041 166.614  1.00  0.00    -0.454 OA
ENDROOT
BRANCH   1   2
ATOM      2  C   UNL     1      29.537 173.472 165.632  1.00  0.00     0.214 A 
ATOM      3  C   UNL     1      28.422 174.277 165.949  1.00  0.00     0.180 A 
ATOM      4  O   UNL     1      27.549 174.595 164.998  1.00  0.00    -0.452 OA
ATOM      5  C   UNL     1      29.740 173.089 164.303  1.00  0.00     0.239 A 
ATOM      6  C   UNL     1      27.685 174.225 163.729  1.00  0.00     0.146 A 
ATOM      7  O   UNL     1      30.756 172.400 164.011  1.00  0.00    -0.285 OA
ATOM      8  C   UNL     1      28.803 173.460 163.318  1.00  0.00     0.111 A 
ATOM      9  C   UNL     1      26.714 174.607 162.799  1.00  0.00     0.094 A 
ATOM     10  C   UNL     1      28.924 173.093 161.957  1.00  0.00     0.134 A 
ATOM     11  C   UNL     1      26.839 174.241 161.456  1.00  0.00     0.123 A 
ATOM     12  C   UNL     1      27.940 173.489 161.039  1.00  0.00     0.093 A 
BRANCH   3  13
ATOM     13  C   UNL     1      28.185 174.796 167.316  1.00  0.00     0.025 A 
ATOM     14  C   UNL     1      27.320 174.137 168.204  1.00  0.00     0.016 A 
ATOM     15  C   UNL     1      27.106 174.645 169.486  1.00  0.00     0.051 A 
ATOM     16  C   UNL     1      27.763 175.803 169.913  1.00  0.00     0.157 A 
ATOM     17  C   UNL     1      28.864 175.944 167.749  1.00  0.00     0.062 A 
ATOM     18  C   UNL     1      28.659 176.458 169.036  1.00  0.00     0.158 A 
BRANCH  16  19
ATOM     19  O   UNL     1      27.501 176.262 171.206  1.00  0.00    -0.504 OA
ATOM     20  H   UNL     1      27.257 175.661 171.980  1.00  0.00     0.293 HD
ENDBRANCH  16  19
BRANCH  18  21
ATOM     21  O   UNL     1      29.360 177.612 169.396  1.00  0.00    -0.504 OA
ATOM     22  H   UNL     1      28.945 178.398 169.876  1.00  0.00     0.293 HD
ENDBRANCH  18  21
ENDBRANCH   3  13
BRANCH  10  23
ATOM     23  O   UNL     1      30.011 172.338 161.510  1.00  0.00    -0.507 OA
ATOM     24  H   UNL     1      30.186 171.401 161.855  1.00  0.00     0.293 HD
ENDBRANCH  10  23
BRANCH  11  25
ATOM     25  O   UNL     1      25.875 174.621 160.525  1.00  0.00    -0.508 OA
ATOM     26  H   UNL     1      24.886 174.585 160.741  1.00  0.00     0.293 HD
ENDBRANCH  11  25
ENDBRANCH   1   2
BRANCH   1  27
ATOM     27  C   UNL     1      30.242 171.840 167.366  1.00  0.00     0.339 C 
ATOM     28  C   UNL     1      31.242 170.743 166.896  1.00  0.00     0.214 C 
ATOM     29  O   UNL     1      30.334 172.135 168.754  1.00  0.00    -0.332 OA
ATOM     30  C   UNL     1      31.710 169.893 168.091  1.00  0.00     0.180 C 
ATOM     31  C   UNL     1      31.684 172.220 169.171  1.00  0.00     0.179 C 
ATOM     32  C   UNL     1      32.314 170.801 169.193  1.00  0.00     0.177 C 
BRANCH  28  33
ATOM     33  O   UNL     1      30.650 169.917 165.927  1.00  0.00    -0.384 OA
ATOM     34  H   UNL     1      30.452 170.492 165.141  1.00  0.00     0.211 HD
ENDBRANCH  28  33
BRANCH  30  35
ATOM     35  O   UNL     1      30.621 169.179 168.625  1.00  0.00    -0.387 OA
ATOM     36  H   UNL     1      30.802 169.050 169.592  1.00  0.00     0.211 HD
ENDBRANCH  30  35
BRANCH  31  37
ATOM     37  C   UNL     1      31.739 172.869 170.560  1.00  0.00     0.191 C 
BRANCH  37  38
ATOM     38  O   UNL     1      32.981 173.490 170.762  1.00  0.00    -0.394 OA
ATOM     39  H   UNL     1      33.589 173.149 170.056  1.00  0.00     0.210 HD
ENDBRANCH  37  38
ENDBRANCH  31  37
BRANCH  32  40
ATOM     40  O   UNL     1      33.713 170.882 169.070  1.00  0.00    -0.387 OA
ATOM     41  H   UNL     1      34.107 170.135 169.591  1.00  0.00     0.211 HD
ENDBRANCH  32  40
ENDBRANCH   1  27
TORSDOF 12
ENDMDL
MODEL 9
REMARK VINA RESULT:    -4.591      6.547     10.697
REMARK INTER + INTRA:          -8.243
REMARK INTER:                  -6.702
REMARK INTRA:                  -1.541
REMARK UNBOUND:                -1.506
REMARK SMILES O=c1c(O[C@@H]2O[C@@H](CO)[C@H](O)[C@@H](O)[C@H]2O)c(-c2ccc(O)c(O)c2)oc2cc(O)cc(O)c12
REMARK SMILES IDX 4 1 3 2 16 3 25 4 2 5 26 6 1 7 33 8 27 9 31 10 28 11 30 12
REMARK SMILES IDX 17 13 18 14 19 15 20 16 24 17 22 18 21 19 23 21 32 23 29 25
REMARK SMILES IDX 5 27 14 28 6 29 12 30 7 31 10 32 15 33 13 35 8 37 9 38 11 40
REMARK H PARENT 21 20 23 22 32 24 29 26 15 34 13 36 9 39 11 41
REMARK Flexibility Score: inf
ROOT
ATOM      1  O   UNL     1      29.598 171.887 165.987  1.00  0.00    -0.454 OA
ENDROOT
BRANCH   1   2
ATOM      2  C   UNL     1      29.324 173.056 166.706  1.00  0.00     0.214 A 
ATOM      3  C   UNL     1      28.704 174.171 166.102  1.00  0.00     0.180 A 
ATOM      4  O   UNL     1      28.537 175.289 166.802  1.00  0.00    -0.452 OA
ATOM      5  C   UNL     1      29.680 173.128 168.055  1.00  0.00     0.239 A 
ATOM      6  C   UNL     1      28.891 175.412 168.076  1.00  0.00     0.146 A 
ATOM      7  O   UNL     1      30.202 172.120 168.608  1.00  0.00    -0.285 OA
ATOM      8  C   UNL     1      29.472 174.324 168.770  1.00  0.00     0.111 A 
ATOM      9  C   UNL     1      28.676 176.629 168.729  1.00  0.00     0.094 A 
ATOM     10  C   UNL     1      29.827 174.485 170.131  1.00  0.00     0.134 A 
ATOM     11  C   UNL     1      29.029 176.782 170.073  1.00  0.00     0.123 A 
ATOM     12  C   UNL     1      29.601 175.714 170.769  1.00  0.00     0.093 A 
BRANCH   3  13
ATOM     13  C   UNL     1      28.217 174.143 164.704  1.00  0.00     0.025 A 
ATOM     14  C   UNL     1      26.846 174.090 164.412  1.00  0.00     0.016 A 
ATOM     15  C   UNL     1      26.408 174.060 163.087  1.00  0.00     0.051 A 
ATOM     16  C   UNL     1      27.324 174.102 162.032  1.00  0.00     0.157 A 
ATOM     17  C   UNL     1      29.138 174.210 163.648  1.00  0.00     0.062 A 
ATOM     18  C   UNL     1      28.708 174.184 162.316  1.00  0.00     0.158 A 
BRANCH  16  19
ATOM     19  O   UNL     1      26.822 174.062 160.729  1.00  0.00    -0.504 OA
ATOM     20  H   UNL     1      27.236 174.552 159.949  1.00  0.00     0.293 HD
ENDBRANCH  16  19
BRANCH  18  21
ATOM     21  O   UNL     1      29.682 174.242 161.315  1.00  0.00    -0.504 OA
ATOM     22  H   UNL     1      30.254 173.458 161.039  1.00  0.00     0.293 HD
ENDBRANCH  18  21
ENDBRANCH   3  13
BRANCH  10  23
ATOM     23  O   UNL     1      30.403 173.437 170.852  1.00  0.00    -0.507 OA
ATOM     24  H   UNL     1      31.384 173.200 170.756  1.00  0.00     0.293 HD
ENDBRANCH  10  23
BRANCH  11  25
ATOM     25  O   UNL     1      28.816 177.993 170.730  1.00  0.00    -0.508 OA
ATOM     26  H   UNL     1      28.389 178.782 170.260  1.00  0.00     0.293 HD
ENDBRANCH  11  25
ENDBRANCH   1   2
BRANCH   1  27
ATOM     27  C   UNL     1      30.909 171.557 165.520  1.00  0.00     0.339 C 
ATOM     28  C   UNL     1      31.332 170.156 166.052  1.00  0.00     0.214 C 
ATOM     29  O   UNL     1      30.943 171.660 164.102  1.00  0.00    -0.332 OA
ATOM     30  C   UNL     1      32.162 169.406 164.994  1.00  0.00     0.180 C 
ATOM     31  C   UNL     1      30.395 170.505 163.492  1.00  0.00     0.179 C 
ATOM     32  C   UNL     1      31.374 169.311 163.662  1.00  0.00     0.177 C 
BRANCH  28  33
ATOM     33  O   UNL     1      32.075 170.282 167.238  1.00  0.00    -0.384 OA
ATOM     34  H   UNL     1      31.445 170.122 167.989  1.00  0.00     0.211 HD
ENDBRANCH  28  33
BRANCH  30  35
ATOM     35  O   UNL     1      33.373 170.084 164.768  1.00  0.00    -0.387 OA
ATOM     36  H   UNL     1      34.101 169.412 164.830  1.00  0.00     0.211 HD
ENDBRANCH  30  35
BRANCH  31  37
ATOM     37  C   UNL     1      30.135 170.799 162.009  1.00  0.00     0.191 C 
BRANCH  37  38
ATOM     38  O   UNL     1      30.933 169.975 161.200  1.00  0.00    -0.394 OA
ATOM     39  H   UNL     1      30.964 169.086 161.639  1.00  0.00     0.210 HD
ENDBRANCH  37  38
ENDBRANCH  31  37
BRANCH  32  40
ATOM     40  O   UNL     1      30.681 168.090 163.570  1.00  0.00    -0.387 OA
ATOM     41  H   UNL     1      29.841 168.180 164.090  1.00  0.00     0.211 HD
ENDBRANCH  32  40
ENDBRANCH   1  27
TORSDOF 12
ENDMDL
