MODEL 1
REMARK VINA RESULT:    -3.921      0.000      0.000
REMARK INTER + INTRA:         -10.189
REMARK INTER:                  -7.589
REMARK INTRA:                  -2.600
REMARK UNBOUND:                -2.600
REMARK SMILES CCCCCCCCCCCCCCCCCC(=O)[O-]
REMARK SMILES IDX 10 1 11 2 12 3 13 4 14 5 15 6 16 7 17 8 18 9 19 10 20 11
REMARK SMILES IDX 9 12 8 13 7 14 6 15 5 16 4 17 3 18 2 19 1 20
REMARK H PARENT
REMARK Flexibility Score: inf
ROOT
ATOM      1  C   UNL     1      10.217 -19.870  21.608  1.00  0.00     0.000 C 
ENDROOT
BRANCH   1   2
ATOM      2  C   UNL     1      11.022 -18.825  22.396  1.00  0.00     0.000 C 
BRANCH   2   3
ATOM      3  C   UNL     1      11.115 -17.475  21.667  1.00  0.00     0.000 C 
BRANCH   3   4
ATOM      4  C   UNL     1      10.953 -17.611  20.143  1.00  0.00     0.000 C 
BRANCH   4   5
ATOM      5  C   UNL     1      12.298 -17.562  19.401  1.00  0.00     0.000 C 
BRANCH   5   6
ATOM      6  C   UNL     1      12.901 -18.961  19.179  1.00  0.00     0.000 C 
BRANCH   6   7
ATOM      7  C   UNL     1      14.321 -19.091  19.751  1.00  0.00     0.006 C 
BRANCH   7   8
ATOM      8  C   UNL     1      14.639 -18.017  20.799  1.00  0.00     0.053 C 
BRANCH   8   9
ATOM      9  C   UNL     1      15.827 -17.212  20.379  1.00  0.00     0.041 C 
ATOM     10  O   UNL     1      16.854 -17.784  19.925  1.00  0.00    -0.550 OA
ATOM     11  O   UNL     1      15.821 -15.831  20.536  1.00  0.00    -0.550 OA
ENDBRANCH   8   9
ENDBRANCH   7   8
ENDBRANCH   6   7
ENDBRANCH   5   6
ENDBRANCH   4   5
ENDBRANCH   3   4
ENDBRANCH   2   3
ENDBRANCH   1   2
BRANCH   1  12
ATOM     12  C   UNL     1      10.754 -21.287  21.864  1.00  0.00     0.000 C 
BRANCH  12  13
ATOM     13  C   UNL     1      12.293 -21.343  21.906  1.00  0.00    -0.000 C 
BRANCH  13  14
ATOM     14  C   UNL     1      12.913 -22.610  21.287  1.00  0.00    -0.000 C 
BRANCH  14  15
ATOM     15  C   UNL     1      14.363 -22.452  20.791  1.00  0.00    -0.000 C 
BRANCH  15  16
ATOM     16  C   UNL     1      15.421 -22.601  21.905  1.00  0.00    -0.000 C 
BRANCH  16  17
ATOM     17  C   UNL     1      16.278 -21.335  22.074  1.00  0.00    -0.000 C 
BRANCH  17  18
ATOM     18  C   UNL     1      16.791 -21.155  23.512  1.00  0.00    -0.000 C 
BRANCH  18  19
ATOM     19  C   UNL     1      15.659 -21.169  24.549  1.00  0.00    -0.003 C 
ATOM     20  C   UNL     1      14.667 -20.037  24.294  1.00  0.00     0.004 C 
ENDBRANCH  18  19
ENDBRANCH  17  18
ENDBRANCH  16  17
ENDBRANCH  15  16
ENDBRANCH  14  15
ENDBRANCH  13  14
ENDBRANCH  12  13
ENDBRANCH   1  12
TORSDOF 16
ENDMDL
MODEL 2
REMARK VINA RESULT:    -3.650      1.542      2.115
REMARK INTER + INTRA:          -9.664
REMARK INTER:                  -6.952
REMARK INTRA:                  -2.712
REMARK UNBOUND:                -2.600
REMARK SMILES CCCCCCCCCCCCCCCCCC(=O)[O-]
REMARK SMILES IDX 10 1 11 2 12 3 13 4 14 5 15 6 16 7 17 8 18 9 19 10 20 11
REMARK SMILES IDX 9 12 8 13 7 14 6 15 5 16 4 17 3 18 2 19 1 20
REMARK H PARENT
REMARK Flexibility Score: inf
ROOT
ATOM      1  C   UNL     1      11.808 -20.655  21.281  1.00  0.00     0.000 C 
ENDROOT
BRANCH   1   2
ATOM      2  C   UNL     1      11.833 -19.343  22.081  1.00  0.00     0.000 C 
BRANCH   2   3
ATOM      3  C   UNL     1      12.055 -18.111  21.190  1.00  0.00     0.000 C 
BRANCH   3   4
ATOM      4  C   UNL     1      12.356 -18.481  19.728  1.00  0.00     0.000 C 
BRANCH   4   5
ATOM      5  C   UNL     1      13.637 -17.813  19.203  1.00  0.00     0.000 C 
BRANCH   5   6
ATOM      6  C   UNL     1      14.855 -18.087  20.104  1.00  0.00     0.000 C 
BRANCH   6   7
ATOM      7  C   UNL     1      15.486 -16.799  20.655  1.00  0.00     0.006 C 
BRANCH   7   8
ATOM      8  C   UNL     1      14.962 -15.536  19.959  1.00  0.00     0.053 C 
BRANCH   8   9
ATOM      9  C   UNL     1      14.227 -14.670  20.931  1.00  0.00     0.041 C 
ATOM     10  O   UNL     1      12.968 -14.686  20.971  1.00  0.00    -0.550 OA
ATOM     11  O   UNL     1      14.931 -13.804  21.759  1.00  0.00    -0.550 OA
ENDBRANCH   8   9
ENDBRANCH   7   8
ENDBRANCH   6   7
ENDBRANCH   5   6
ENDBRANCH   4   5
ENDBRANCH   3   4
ENDBRANCH   2   3
ENDBRANCH   1   2
BRANCH   1  12
ATOM     12  C   UNL     1      12.020 -21.866  22.202  1.00  0.00     0.000 C 
BRANCH  12  13
ATOM     13  C   UNL     1      13.161 -22.786  21.726  1.00  0.00    -0.000 C 
BRANCH  13  14
ATOM     14  C   UNL     1      13.789 -22.393  20.375  1.00  0.00    -0.000 C 
BRANCH  14  15
ATOM     15  C   UNL     1      15.121 -21.624  20.473  1.00  0.00    -0.000 C 
BRANCH  15  16
ATOM     16  C   UNL     1      16.068 -22.160  21.569  1.00  0.00    -0.000 C 
BRANCH  16  17
ATOM     17  C   UNL     1      16.483 -21.068  22.571  1.00  0.00    -0.000 C 
BRANCH  17  18
ATOM     18  C   UNL     1      15.301 -20.192  23.015  1.00  0.00    -0.000 C 
BRANCH  18  19
ATOM     19  C   UNL     1      14.757 -20.590  24.394  1.00  0.00    -0.003 C 
ATOM     20  C   UNL     1      15.773 -21.425  25.167  1.00  0.00     0.004 C 
ENDBRANCH  18  19
ENDBRANCH  17  18
ENDBRANCH  16  17
ENDBRANCH  15  16
ENDBRANCH  14  15
ENDBRANCH  13  14
ENDBRANCH  12  13
ENDBRANCH   1  12
TORSDOF 16
ENDMDL
MODEL 3
REMARK VINA RESULT:    -3.518     13.744     16.219
REMARK INTER + INTRA:          -9.409
REMARK INTER:                  -6.403
REMARK INTRA:                  -3.007
REMARK UNBOUND:                -2.600
REMARK SMILES CCCCCCCCCCCCCCCCCC(=O)[O-]
REMARK SMILES IDX 10 1 11 2 12 3 13 4 14 5 15 6 16 7 17 8 18 9 19 10 20 11
REMARK SMILES IDX 9 12 8 13 7 14 6 15 5 16 4 17 3 18 2 19 1 20
REMARK H PARENT
REMARK Flexibility Score: inf
ROOT
ATOM      1  C   UNL     1      20.010  -4.887  30.228  1.00  0.00     0.000 C 
ENDROOT
BRANCH   1   2
ATOM      2  C   UNL     1      19.803  -5.345  31.680  1.00  0.00     0.000 C 
BRANCH   2   3
ATOM      3  C   UNL     1      18.483  -6.106  31.878  1.00  0.00     0.000 C 
BRANCH   3   4
ATOM      4  C   UNL     1      18.685  -7.627  31.988  1.00  0.00     0.000 C 
BRANCH   4   5
ATOM      5  C   UNL     1      20.156  -8.011  32.211  1.00  0.00     0.000 C 
BRANCH   5   6
ATOM      6  C   UNL     1      20.527  -9.343  31.532  1.00  0.00     0.000 C 
BRANCH   6   7
ATOM      7  C   UNL     1      19.664 -10.517  32.018  1.00  0.00     0.006 C 
BRANCH   7   8
ATOM      8  C   UNL     1      19.850 -11.781  31.169  1.00  0.00     0.053 C 
BRANCH   8   9
ATOM      9  C   UNL     1      21.214 -12.355  31.377  1.00  0.00     0.041 C 
ATOM     10  O   UNL     1      21.913 -12.706  30.389  1.00  0.00    -0.550 OA
ATOM     11  O   UNL     1      21.697 -12.551  32.666  1.00  0.00    -0.550 OA
ENDBRANCH   8   9
ENDBRANCH   7   8
ENDBRANCH   6   7
ENDBRANCH   5   6
ENDBRANCH   4   5
ENDBRANCH   3   4
ENDBRANCH   2   3
ENDBRANCH   1   2
BRANCH   1  12
ATOM     12  C   UNL     1      21.180  -5.639  29.575  1.00  0.00     0.000 C 
BRANCH  12  13
ATOM     13  C   UNL     1      20.725  -6.598  28.458  1.00  0.00    -0.000 C 
BRANCH  13  14
ATOM     14  C   UNL     1      19.903  -5.940  27.333  1.00  0.00    -0.000 C 
BRANCH  14  15
ATOM     15  C   UNL     1      18.560  -6.626  27.017  1.00  0.00    -0.000 C 
BRANCH  15  16
ATOM     16  C   UNL     1      17.747  -7.007  28.273  1.00  0.00    -0.000 C 
BRANCH  16  17
ATOM     17  C   UNL     1      17.255  -8.465  28.234  1.00  0.00    -0.000 C 
BRANCH  17  18
ATOM     18  C   UNL     1      18.312  -9.459  28.742  1.00  0.00    -0.000 C 
BRANCH  18  19
ATOM     19  C   UNL     1      19.048 -10.173  27.599  1.00  0.00    -0.003 C 
ATOM     20  C   UNL     1      20.554 -10.189  27.841  1.00  0.00     0.004 C 
ENDBRANCH  18  19
ENDBRANCH  17  18
ENDBRANCH  16  17
ENDBRANCH  15  16
ENDBRANCH  14  15
ENDBRANCH  13  14
ENDBRANCH  12  13
ENDBRANCH   1  12
TORSDOF 16
ENDMDL
MODEL 4
REMARK VINA RESULT:    -3.429     14.348     16.675
REMARK INTER + INTRA:          -9.237
REMARK INTER:                  -6.167
REMARK INTRA:                  -3.070
REMARK UNBOUND:                -2.600
REMARK SMILES CCCCCCCCCCCCCCCCCC(=O)[O-]
REMARK SMILES IDX 10 1 11 2 12 3 13 4 14 5 15 6 16 7 17 8 18 9 19 10 20 11
REMARK SMILES IDX 9 12 8 13 7 14 6 15 5 16 4 17 3 18 2 19 1 20
REMARK H PARENT
REMARK Flexibility Score: inf
ROOT
ATOM      1  C   UNL     1      20.719  -6.741  28.494  1.00  0.00     0.000 C 
ENDROOT
BRANCH   1   2
ATOM      2  C   UNL     1      20.530  -8.150  27.911  1.00  0.00     0.000 C 
BRANCH   2   3
ATOM      3  C   UNL     1      19.130  -8.361  27.313  1.00  0.00     0.000 C 
BRANCH   3   4
ATOM      4  C   UNL     1      18.105  -8.841  28.355  1.00  0.00     0.000 C 
BRANCH   4   5
ATOM      5  C   UNL     1      18.694  -9.877  29.326  1.00  0.00     0.000 C 
BRANCH   5   6
ATOM      6  C   UNL     1      18.472  -9.493  30.801  1.00  0.00     0.000 C 
BRANCH   6   7
ATOM      7  C   UNL     1      19.610  -9.973  31.716  1.00  0.00     0.006 C 
BRANCH   7   8
ATOM      8  C   UNL     1      20.731 -10.683  30.945  1.00  0.00     0.053 C 
BRANCH   8   9
ATOM      9  C   UNL     1      21.093 -11.970  31.615  1.00  0.00     0.041 C 
ATOM     10  O   UNL     1      20.798 -12.160  32.825  1.00  0.00    -0.550 OA
ATOM     11  O   UNL     1      21.802 -12.940  30.918  1.00  0.00    -0.550 OA
ENDBRANCH   8   9
ENDBRANCH   7   8
ENDBRANCH   6   7
ENDBRANCH   5   6
ENDBRANCH   4   5
ENDBRANCH   3   4
ENDBRANCH   2   3
ENDBRANCH   1   2
BRANCH   1  12
ATOM     12  C   UNL     1      21.035  -6.804  29.997  1.00  0.00     0.000 C 
BRANCH  12  13
ATOM     13  C   UNL     1      19.928  -6.178  30.866  1.00  0.00    -0.000 C 
BRANCH  13  14
ATOM     14  C   UNL     1      18.788  -5.503  30.079  1.00  0.00    -0.000 C 
BRANCH  14  15
ATOM     15  C   UNL     1      17.368  -5.806  30.596  1.00  0.00    -0.000 C 
BRANCH  15  16
ATOM     16  C   UNL     1      16.934  -4.910  31.775  1.00  0.00    -0.000 C 
BRANCH  16  17
ATOM     17  C   UNL     1      16.370  -5.723  32.954  1.00  0.00    -0.000 C 
BRANCH  17  18
ATOM     18  C   UNL     1      16.887  -7.171  32.973  1.00  0.00    -0.000 C 
BRANCH  18  19
ATOM     19  C   UNL     1      17.610  -7.523  34.281  1.00  0.00    -0.003 C 
ATOM     20  C   UNL     1      19.016  -6.931  34.307  1.00  0.00     0.004 C 
ENDBRANCH  18  19
ENDBRANCH  17  18
ENDBRANCH  16  17
ENDBRANCH  15  16
ENDBRANCH  14  15
ENDBRANCH  13  14
ENDBRANCH  12  13
ENDBRANCH   1  12
TORSDOF 16
ENDMDL
MODEL 5
REMARK VINA RESULT:    -3.419     13.446     15.686
REMARK INTER + INTRA:          -9.217
REMARK INTER:                  -6.284
REMARK INTRA:                  -2.933
REMARK UNBOUND:                -2.600
REMARK SMILES CCCCCCCCCCCCCCCCCC(=O)[O-]
REMARK SMILES IDX 10 1 11 2 12 3 13 4 14 5 15 6 16 7 17 8 18 9 19 10 20 11
REMARK SMILES IDX 9 12 8 13 7 14 6 15 5 16 4 17 3 18 2 19 1 20
REMARK H PARENT
REMARK Flexibility Score: inf
ROOT
ATOM      1  C   UNL     1      17.490  -5.369  31.076  1.00  0.00     0.000 C 
ENDROOT
BRANCH   1   2
ATOM      2  C   UNL     1      17.015  -6.769  31.495  1.00  0.00     0.000 C 
BRANCH   2   3
ATOM      3  C   UNL     1      16.785  -7.701  30.295  1.00  0.00     0.000 C 
BRANCH   3   4
ATOM      4  C   UNL     1      17.249  -9.142  30.564  1.00  0.00     0.000 C 
BRANCH   4   5
ATOM      5  C   UNL     1      17.258  -9.488  32.062  1.00  0.00     0.000 C 
BRANCH   5   6
ATOM      6  C   UNL     1      18.557 -10.192  32.496  1.00  0.00     0.000 C 
BRANCH   6   7
ATOM      7  C   UNL     1      19.225 -10.964  31.347  1.00  0.00     0.006 C 
BRANCH   7   8
ATOM      8  C   UNL     1      20.750 -11.044  31.495  1.00  0.00     0.053 C 
BRANCH   8   9
ATOM      9  C   UNL     1      21.166 -12.423  31.894  1.00  0.00     0.041 C 
ATOM     10  O   UNL     1      21.831 -13.141  31.100  1.00  0.00    -0.550 OA
ATOM     11  O   UNL     1      20.775 -12.938  33.124  1.00  0.00    -0.550 OA
ENDBRANCH   8   9
ENDBRANCH   7   8
ENDBRANCH   6   7
ENDBRANCH   5   6
ENDBRANCH   4   5
ENDBRANCH   3   4
ENDBRANCH   2   3
ENDBRANCH   1   2
BRANCH   1  12
ATOM     12  C   UNL     1      19.021  -5.260  31.154  1.00  0.00     0.000 C 
BRANCH  12  13
ATOM     13  C   UNL     1      19.676  -6.502  31.788  1.00  0.00    -0.000 C 
BRANCH  13  14
ATOM     14  C   UNL     1      20.485  -7.378  30.813  1.00  0.00    -0.000 C 
BRANCH  14  15
ATOM     15  C   UNL     1      20.479  -6.901  29.347  1.00  0.00    -0.000 C 
BRANCH  15  16
ATOM     16  C   UNL     1      19.965  -7.961  28.351  1.00  0.00    -0.000 C 
BRANCH  16  17
ATOM     17  C   UNL     1      20.825  -9.237  28.355  1.00  0.00    -0.000 C 
BRANCH  17  18
ATOM     18  C   UNL     1      20.054 -10.472  27.862  1.00  0.00    -0.000 C 
BRANCH  18  19
ATOM     19  C   UNL     1      18.697 -10.112  27.239  1.00  0.00    -0.003 C 
ATOM     20  C   UNL     1      18.030 -11.340  26.627  1.00  0.00     0.004 C 
ENDBRANCH  18  19
ENDBRANCH  17  18
ENDBRANCH  16  17
ENDBRANCH  15  16
ENDBRANCH  14  15
ENDBRANCH  13  14
ENDBRANCH  12  13
ENDBRANCH   1  12
TORSDOF 16
ENDMDL
MODEL 6
REMARK VINA RESULT:    -3.377     14.231     16.693
REMARK INTER + INTRA:          -9.136
REMARK INTER:                  -6.377
REMARK INTRA:                  -2.760
REMARK UNBOUND:                -2.600
REMARK SMILES CCCCCCCCCCCCCCCCCC(=O)[O-]
REMARK SMILES IDX 10 1 11 2 12 3 13 4 14 5 15 6 16 7 17 8 18 9 19 10 20 11
REMARK SMILES IDX 9 12 8 13 7 14 6 15 5 16 4 17 3 18 2 19 1 20
REMARK H PARENT
REMARK Flexibility Score: inf
ROOT
ATOM      1  C   UNL     1      18.584  -5.981  31.762  1.00  0.00     0.000 C 
ENDROOT
BRANCH   1   2
ATOM      2  C   UNL     1      18.795  -6.961  32.927  1.00  0.00     0.000 C 
BRANCH   2   3
ATOM      3  C   UNL     1      20.147  -7.687  32.853  1.00  0.00     0.000 C 
BRANCH   3   4
ATOM      4  C   UNL     1      20.011  -9.212  32.994  1.00  0.00     0.000 C 
BRANCH   4   5
ATOM      5  C   UNL     1      19.006  -9.616  34.085  1.00  0.00     0.000 C 
BRANCH   5   6
ATOM      6  C   UNL     1      18.308 -10.953  33.777  1.00  0.00     0.000 C 
BRANCH   6   7
ATOM      7  C   UNL     1      18.591 -11.456  32.353  1.00  0.00     0.006 C 
BRANCH   7   8
ATOM      8  C   UNL     1      19.120 -12.896  32.326  1.00  0.00     0.053 C 
BRANCH   8   9
ATOM      9  C   UNL     1      20.383 -13.004  33.119  1.00  0.00     0.041 C 
ATOM     10  O   UNL     1      21.459 -12.529  32.668  1.00  0.00    -0.550 OA
ATOM     11  O   UNL     1      20.384 -13.674  34.337  1.00  0.00    -0.550 OA
ENDBRANCH   8   9
ENDBRANCH   7   8
ENDBRANCH   6   7
ENDBRANCH   5   6
ENDBRANCH   4   5
ENDBRANCH   3   4
ENDBRANCH   2   3
ENDBRANCH   1   2
BRANCH   1  12
ATOM     12  C   UNL     1      19.750  -4.986  31.661  1.00  0.00     0.000 C 
BRANCH  12  13
ATOM     13  C   UNL     1      20.368  -4.932  30.251  1.00  0.00    -0.000 C 
BRANCH  13  14
ATOM     14  C   UNL     1      19.671  -5.820  29.203  1.00  0.00    -0.000 C 
BRANCH  14  15
ATOM     15  C   UNL     1      20.574  -6.304  28.052  1.00  0.00    -0.000 C 
BRANCH  15  16
ATOM     16  C   UNL     1      20.726  -7.839  27.986  1.00  0.00    -0.000 C 
BRANCH  16  17
ATOM     17  C   UNL     1      20.688  -8.493  29.379  1.00  0.00    -0.000 C 
BRANCH  17  18
ATOM     18  C   UNL     1      19.980  -9.858  29.371  1.00  0.00    -0.000 C 
BRANCH  18  19
ATOM     19  C   UNL     1      18.524  -9.766  28.893  1.00  0.00    -0.003 C 
ATOM     20  C   UNL     1      17.682  -8.931  29.854  1.00  0.00     0.004 C 
ENDBRANCH  18  19
ENDBRANCH  17  18
ENDBRANCH  16  17
ENDBRANCH  15  16
ENDBRANCH  14  15
ENDBRANCH  13  14
ENDBRANCH  12  13
ENDBRANCH   1  12
TORSDOF 16
ENDMDL
MODEL 7
REMARK VINA RESULT:    -3.377     15.457     17.511
REMARK INTER + INTRA:          -9.135
REMARK INTER:                  -6.128
REMARK INTRA:                  -3.007
REMARK UNBOUND:                -2.600
REMARK SMILES CCCCCCCCCCCCCCCCCC(=O)[O-]
REMARK SMILES IDX 10 1 11 2 12 3 13 4 14 5 15 6 16 7 17 8 18 9 19 10 20 11
REMARK SMILES IDX 9 12 8 13 7 14 6 15 5 16 4 17 3 18 2 19 1 20
REMARK H PARENT
REMARK Flexibility Score: inf
ROOT
ATOM      1  C   UNL     1      18.066  -5.121  31.518  1.00  0.00     0.000 C 
ENDROOT
BRANCH   1   2
ATOM      2  C   UNL     1      17.301  -5.829  30.388  1.00  0.00     0.000 C 
BRANCH   2   3
ATOM      3  C   UNL     1      16.857  -7.249  30.773  1.00  0.00     0.000 C 
BRANCH   3   4
ATOM      4  C   UNL     1      17.119  -7.572  32.254  1.00  0.00     0.000 C 
BRANCH   4   5
ATOM      5  C   UNL     1      18.011  -8.810  32.438  1.00  0.00     0.000 C 
BRANCH   5   6
ATOM      6  C   UNL     1      18.882  -8.725  33.705  1.00  0.00     0.000 C 
BRANCH   6   7
ATOM      7  C   UNL     1      20.072  -7.767  33.543  1.00  0.00     0.006 C 
BRANCH   7   8
ATOM      8  C   UNL     1      19.987  -6.552  34.477  1.00  0.00     0.053 C 
BRANCH   8   9
ATOM      9  C   UNL     1      20.940  -6.702  35.619  1.00  0.00     0.041 C 
ATOM     10  O   UNL     1      21.386  -5.684  36.212  1.00  0.00    -0.550 OA
ATOM     11  O   UNL     1      21.377  -7.966  35.998  1.00  0.00    -0.550 OA
ENDBRANCH   8   9
ENDBRANCH   7   8
ENDBRANCH   6   7
ENDBRANCH   5   6
ENDBRANCH   4   5
ENDBRANCH   3   4
ENDBRANCH   2   3
ENDBRANCH   1   2
BRANCH   1  12
ATOM     12  C   UNL     1      19.537  -4.900  31.133  1.00  0.00     0.000 C 
BRANCH  12  13
ATOM     13  C   UNL     1      19.837  -5.291  29.673  1.00  0.00    -0.000 C 
BRANCH  13  14
ATOM     14  C   UNL     1      21.005  -6.279  29.494  1.00  0.00    -0.000 C 
BRANCH  14  15
ATOM     15  C   UNL     1      20.752  -7.696  30.045  1.00  0.00    -0.000 C 
BRANCH  15  16
ATOM     16  C   UNL     1      19.860  -8.566  29.133  1.00  0.00    -0.000 C 
BRANCH  16  17
ATOM     17  C   UNL     1      19.917 -10.058  29.507  1.00  0.00    -0.000 C 
BRANCH  17  18
ATOM     18  C   UNL     1      20.895 -10.342  30.659  1.00  0.00    -0.000 C 
BRANCH  18  19
ATOM     19  C   UNL     1      20.449 -11.521  31.535  1.00  0.00    -0.003 C 
ATOM     20  C   UNL     1      21.420 -12.692  31.415  1.00  0.00     0.004 C 
ENDBRANCH  18  19
ENDBRANCH  17  18
ENDBRANCH  16  17
ENDBRANCH  15  16
ENDBRANCH  14  15
ENDBRANCH  13  14
ENDBRANCH  12  13
ENDBRANCH   1  12
TORSDOF 16
ENDMDL
MODEL 8
REMARK VINA RESULT:    -3.375     13.919     15.691
REMARK INTER + INTRA:          -9.132
REMARK INTER:                  -6.252
REMARK INTRA:                  -2.879
REMARK UNBOUND:                -2.600
REMARK SMILES CCCCCCCCCCCCCCCCCC(=O)[O-]
REMARK SMILES IDX 10 1 11 2 12 3 13 4 14 5 15 6 16 7 17 8 18 9 19 10 20 11
REMARK SMILES IDX 9 12 8 13 7 14 6 15 5 16 4 17 3 18 2 19 1 20
REMARK H PARENT
REMARK Flexibility Score: inf
ROOT
ATOM      1  C   UNL     1      19.769 -13.164  34.243  1.00  0.00     0.000 C 
ENDROOT
BRANCH   1   2
ATOM      2  C   UNL     1      20.112 -13.255  32.748  1.00  0.00     0.000 C 
BRANCH   2   3
ATOM      3  C   UNL     1      21.369 -12.452  32.379  1.00  0.00     0.000 C 
BRANCH   3   4
ATOM      4  C   UNL     1      21.279 -11.817  30.981  1.00  0.00     0.000 C 
BRANCH   4   5
ATOM      5  C   UNL     1      19.838 -11.451  30.592  1.00  0.00     0.000 C 
BRANCH   5   6
ATOM      6  C   UNL     1      19.776 -10.545  29.348  1.00  0.00     0.000 C 
BRANCH   6   7
ATOM      7  C   UNL     1      18.677  -9.477  29.446  1.00  0.00     0.006 C 
BRANCH   7   8
ATOM      8  C   UNL     1      19.096  -8.272  30.299  1.00  0.00     0.053 C 
BRANCH   8   9
ATOM      9  C   UNL     1      20.511  -7.889  30.005  1.00  0.00     0.041 C 
ATOM     10  O   UNL     1      21.404  -8.039  30.880  1.00  0.00    -0.550 OA
ATOM     11  O   UNL     1      20.835  -7.318  28.780  1.00  0.00    -0.550 OA
ENDBRANCH   8   9
ENDBRANCH   7   8
ENDBRANCH   6   7
ENDBRANCH   5   6
ENDBRANCH   4   5
ENDBRANCH   3   4
ENDBRANCH   2   3
ENDBRANCH   1   2
BRANCH   1  12
ATOM     12  C   UNL     1      18.254 -13.279  34.469  1.00  0.00     0.000 C 
BRANCH  12  13
ATOM     13  C   UNL     1      17.449 -13.224  33.156  1.00  0.00    -0.000 C 
BRANCH  13  14
ATOM     14  C   UNL     1      16.406 -12.092  33.082  1.00  0.00    -0.000 C 
BRANCH  14  15
ATOM     15  C   UNL     1      16.961 -10.719  32.657  1.00  0.00    -0.000 C 
BRANCH  15  16
ATOM     16  C   UNL     1      16.692  -9.597  33.682  1.00  0.00    -0.000 C 
BRANCH  16  17
ATOM     17  C   UNL     1      17.969  -8.822  34.052  1.00  0.00    -0.000 C 
BRANCH  17  18
ATOM     18  C   UNL     1      19.250  -9.553  33.619  1.00  0.00    -0.000 C 
BRANCH  18  19
ATOM     19  C   UNL     1      20.356  -9.488  34.683  1.00  0.00    -0.003 C 
ATOM     20  C   UNL     1      21.122  -8.171  34.601  1.00  0.00     0.004 C 
ENDBRANCH  18  19
ENDBRANCH  17  18
ENDBRANCH  16  17
ENDBRANCH  15  16
ENDBRANCH  14  15
ENDBRANCH  13  14
ENDBRANCH  12  13
ENDBRANCH   1  12
TORSDOF 16
ENDMDL
MODEL 9
REMARK VINA RESULT:    -3.350     13.369     15.799
REMARK INTER + INTRA:          -9.083
REMARK INTER:                  -6.312
REMARK INTRA:                  -2.771
REMARK UNBOUND:                -2.600
REMARK SMILES CCCCCCCCCCCCCCCCCC(=O)[O-]
REMARK SMILES IDX 10 1 11 2 12 3 13 4 14 5 15 6 16 7 17 8 18 9 19 10 20 11
REMARK SMILES IDX 9 12 8 13 7 14 6 15 5 16 4 17 3 18 2 19 1 20
REMARK H PARENT
REMARK Flexibility Score: inf
ROOT
ATOM      1  C   UNL     1      21.103  -6.059  29.270  1.00  0.00     0.000 C 
ENDROOT
BRANCH   1   2
ATOM      2  C   UNL     1      19.764  -5.494  29.769  1.00  0.00     0.000 C 
BRANCH   2   3
ATOM      3  C   UNL     1      19.725  -5.325  31.296  1.00  0.00     0.000 C 
BRANCH   3   4
ATOM      4  C   UNL     1      18.956  -6.456  31.999  1.00  0.00     0.000 C 
BRANCH   4   5
ATOM      5  C   UNL     1      19.871  -7.617  32.420  1.00  0.00     0.000 C 
BRANCH   5   6
ATOM      6  C   UNL     1      19.189  -8.989  32.269  1.00  0.00     0.000 C 
BRANCH   6   7
ATOM      7  C   UNL     1      20.140 -10.160  32.558  1.00  0.00     0.006 C 
BRANCH   7   8
ATOM      8  C   UNL     1      20.160 -11.201  31.431  1.00  0.00     0.053 C 
BRANCH   8   9
ATOM      9  C   UNL     1      21.052 -12.345  31.791  1.00  0.00     0.041 C 
ATOM     10  O   UNL     1      21.108 -12.757  32.980  1.00  0.00    -0.550 OA
ATOM     11  O   UNL     1      21.863 -12.926  30.823  1.00  0.00    -0.550 OA
ENDBRANCH   8   9
ENDBRANCH   7   8
ENDBRANCH   6   7
ENDBRANCH   5   6
ENDBRANCH   4   5
ENDBRANCH   3   4
ENDBRANCH   2   3
ENDBRANCH   1   2
BRANCH   1  12
ATOM     12  C   UNL     1      20.880  -7.201  28.267  1.00  0.00     0.000 C 
BRANCH  12  13
ATOM     13  C   UNL     1      20.734  -8.575  28.949  1.00  0.00    -0.000 C 
BRANCH  13  14
ATOM     14  C   UNL     1      20.949  -9.786  28.022  1.00  0.00    -0.000 C 
BRANCH  14  15
ATOM     15  C   UNL     1      19.688 -10.627  27.742  1.00  0.00    -0.000 C 
BRANCH  15  16
ATOM     16  C   UNL     1      18.912 -10.182  26.484  1.00  0.00    -0.000 C 
BRANCH  16  17
ATOM     17  C   UNL     1      17.559  -9.534  26.827  1.00  0.00    -0.000 C 
BRANCH  17  18
ATOM     18  C   UNL     1      17.629  -7.999  26.855  1.00  0.00    -0.000 C 
BRANCH  18  19
ATOM     19  C   UNL     1      17.011  -7.402  28.128  1.00  0.00    -0.003 C 
ATOM     20  C   UNL     1      17.080  -8.391  29.288  1.00  0.00     0.004 C 
ENDBRANCH  18  19
ENDBRANCH  17  18
ENDBRANCH  16  17
ENDBRANCH  15  16
ENDBRANCH  14  15
ENDBRANCH  13  14
ENDBRANCH  12  13
ENDBRANCH   1  12
TORSDOF 16
ENDMDL
