MODEL 1
REMARK VINA RESULT:    -3.821      0.000      0.000
REMARK INTER + INTRA:          -5.223
REMARK INTER:                  -4.938
REMARK INTRA:                  -0.286
REMARK UNBOUND:                -0.286
REMARK SMILES CCOC(=O)C=Cc1ccc(O)c(O)c1
REMARK SMILES IDX 6 1 7 2 4 3 5 4 3 5 2 6 1 7 8 8 15 9 9 10 13 11 10 12 11 13
REMARK SMILES IDX 14 14 12 16
REMARK H PARENT 14 15 12 17
REMARK Flexibility Score: inf
ROOT
ATOM      1  C   UNL     1     -10.235 -20.645  17.875  1.00  0.00     0.094 C 
ATOM      2  C   UNL     1     -10.948 -19.991  18.801  1.00  0.00     0.016 C 
ENDROOT
BRANCH   1   3
ATOM      3  C   UNL     1     -10.851 -21.160  16.642  1.00  0.00     0.330 C 
ATOM      4  O   UNL     1     -11.125 -22.388  16.560  1.00  0.00    -0.247 OA
BRANCH   3   5
ATOM      5  O   UNL     1     -11.125 -20.299  15.570  1.00  0.00    -0.463 OA
BRANCH   5   6
ATOM      6  C   UNL     1     -10.615 -20.496  14.253  1.00  0.00     0.230 C 
ATOM      7  C   UNL     1      -9.090 -20.499  14.260  1.00  0.00     0.049 C 
ENDBRANCH   5   6
ENDBRANCH   3   5
ENDBRANCH   1   3
BRANCH   2   8
ATOM      8  C   UNL     1     -10.367 -19.445  20.053  1.00  0.00    -0.021 A 
ATOM      9  C   UNL     1     -10.037 -20.261  21.155  1.00  0.00     0.058 A 
ATOM     10  C   UNL     1     -10.172 -18.058  20.155  1.00  0.00     0.012 A 
ATOM     11  C   UNL     1      -9.501 -19.697  22.323  1.00  0.00     0.157 A 
ATOM     12  C   UNL     1      -9.635 -17.498  21.316  1.00  0.00     0.051 A 
ATOM     13  C   UNL     1      -9.296 -18.315  22.402  1.00  0.00     0.157 A 
BRANCH  11  14
ATOM     14  O   UNL     1      -9.173 -20.507  23.410  1.00  0.00    -0.504 OA
ATOM     15  H   UNL     1      -8.242 -20.886  23.528  1.00  0.00     0.293 HD
ENDBRANCH  11  14
BRANCH  13  16
ATOM     16  O   UNL     1      -8.760 -17.761  23.562  1.00  0.00    -0.504 OA
ATOM     17  H   UNL     1      -7.838 -17.338  23.571  1.00  0.00     0.293 HD
ENDBRANCH  13  16
ENDBRANCH   2   8
TORSDOF 6
ENDMDL
MODEL 2
REMARK VINA RESULT:    -3.574      1.055      1.812
REMARK INTER + INTRA:          -4.905
REMARK INTER:                  -4.622
REMARK INTRA:                  -0.283
REMARK UNBOUND:                -0.286
REMARK SMILES CCOC(=O)C=Cc1ccc(O)c(O)c1
REMARK SMILES IDX 6 1 7 2 4 3 5 4 3 5 2 6 1 7 8 8 15 9 9 10 13 11 10 12 11 13
REMARK SMILES IDX 14 14 12 16
REMARK H PARENT 14 15 12 17
REMARK Flexibility Score: inf
ROOT
ATOM      1  C   UNL     1     -10.407 -20.882  18.103  1.00  0.00     0.094 C 
ATOM      2  C   UNL     1     -11.051 -20.813  19.275  1.00  0.00     0.016 C 
ENDROOT
BRANCH   1   3
ATOM      3  C   UNL     1     -10.874 -21.748  17.009  1.00  0.00     0.330 C 
ATOM      4  O   UNL     1     -11.043 -22.977  17.231  1.00  0.00    -0.247 OA
BRANCH   3   5
ATOM      5  O   UNL     1     -11.121 -21.216  15.736  1.00  0.00    -0.463 OA
BRANCH   5   6
ATOM      6  C   UNL     1     -10.458 -20.062  15.225  1.00  0.00     0.230 C 
ATOM      7  C   UNL     1      -9.262 -20.462  14.368  1.00  0.00     0.049 C 
ENDBRANCH   5   6
ENDBRANCH   3   5
ENDBRANCH   1   3
BRANCH   2   8
ATOM      8  C   UNL     1     -10.623 -19.946  20.401  1.00  0.00    -0.021 A 
ATOM      9  C   UNL     1     -10.027 -18.684  20.202  1.00  0.00     0.058 A 
ATOM     10  C   UNL     1     -10.787 -20.418  21.714  1.00  0.00     0.012 A 
ATOM     11  C   UNL     1      -9.627 -17.904  21.298  1.00  0.00     0.157 A 
ATOM     12  C   UNL     1     -10.391 -19.640  22.804  1.00  0.00     0.051 A 
ATOM     13  C   UNL     1      -9.813 -18.381  22.600  1.00  0.00     0.157 A 
BRANCH  11  14
ATOM     14  O   UNL     1      -9.040 -16.655  21.098  1.00  0.00    -0.504 OA
ATOM     15  H   UNL     1      -8.530 -16.184  21.835  1.00  0.00     0.293 HD
ENDBRANCH  11  14
BRANCH  13  16
ATOM     16  O   UNL     1      -9.418 -17.602  23.685  1.00  0.00    -0.504 OA
ATOM     17  H   UNL     1      -8.661 -17.888  24.297  1.00  0.00     0.293 HD
ENDBRANCH  13  16
ENDBRANCH   2   8
TORSDOF 6
ENDMDL
MODEL 3
REMARK VINA RESULT:    -3.441     18.516     21.022
REMARK INTER + INTRA:          -4.732
REMARK INTER:                  -4.478
REMARK INTRA:                  -0.254
REMARK UNBOUND:                -0.286
REMARK SMILES CCOC(=O)C=Cc1ccc(O)c(O)c1
REMARK SMILES IDX 6 1 7 2 4 3 5 4 3 5 2 6 1 7 8 8 15 9 9 10 13 11 10 12 11 13
REMARK SMILES IDX 14 14 12 16
REMARK H PARENT 14 15 12 17
REMARK Flexibility Score: inf
ROOT
ATOM      1  C   UNL     1       8.300 -21.653  13.285  1.00  0.00     0.094 C 
ATOM      2  C   UNL     1       8.293 -20.825  12.231  1.00  0.00     0.016 C 
ENDROOT
BRANCH   1   3
ATOM      3  C   UNL     1       8.087 -21.165  14.657  1.00  0.00     0.330 C 
ATOM      4  O   UNL     1       8.123 -19.924  14.878  1.00  0.00    -0.247 OA
BRANCH   3   5
ATOM      5  O   UNL     1       7.854 -22.066  15.704  1.00  0.00    -0.463 OA
BRANCH   5   6
ATOM      6  C   UNL     1       7.458 -21.664  17.014  1.00  0.00     0.230 C 
ATOM      7  C   UNL     1       5.944 -21.518  17.099  1.00  0.00     0.049 C 
ENDBRANCH   5   6
ENDBRANCH   3   5
ENDBRANCH   1   3
BRANCH   2   8
ATOM      8  C   UNL     1       8.492 -21.275  10.831  1.00  0.00    -0.021 A 
ATOM      9  C   UNL     1       8.601 -20.373   9.752  1.00  0.00     0.058 A 
ATOM     10  C   UNL     1       8.537 -22.654  10.567  1.00  0.00     0.012 A 
ATOM     11  C   UNL     1       8.777 -20.846   8.443  1.00  0.00     0.157 A 
ATOM     12  C   UNL     1       8.714 -23.124   9.265  1.00  0.00     0.051 A 
ATOM     13  C   UNL     1       8.837 -22.223   8.200  1.00  0.00     0.157 A 
BRANCH  11  14
ATOM     14  O   UNL     1       8.887 -19.952   7.379  1.00  0.00    -0.504 OA
ATOM     15  H   UNL     1       9.758 -19.828   6.878  1.00  0.00     0.293 HD
ENDBRANCH  11  14
BRANCH  13  16
ATOM     16  O   UNL     1       9.015 -22.688   6.898  1.00  0.00    -0.504 OA
ATOM     17  H   UNL     1       8.450 -23.442   6.522  1.00  0.00     0.293 HD
ENDBRANCH  13  16
ENDBRANCH   2   8
TORSDOF 6
ENDMDL
MODEL 4
REMARK VINA RESULT:    -3.296      2.332      2.615
REMARK INTER + INTRA:          -4.546
REMARK INTER:                  -4.265
REMARK INTRA:                  -0.281
REMARK UNBOUND:                -0.286
REMARK SMILES CCOC(=O)C=Cc1ccc(O)c(O)c1
REMARK SMILES IDX 6 1 7 2 4 3 5 4 3 5 2 6 1 7 8 8 15 9 9 10 13 11 10 12 11 13
REMARK SMILES IDX 14 14 12 16
REMARK H PARENT 14 15 12 17
REMARK Flexibility Score: inf
ROOT
ATOM      1  C   UNL     1      -8.825 -21.406  18.525  1.00  0.00     0.094 C 
ATOM      2  C   UNL     1      -9.808 -20.528  18.763  1.00  0.00     0.016 C 
ENDROOT
BRANCH   1   3
ATOM      3  C   UNL     1      -8.573 -21.944  17.179  1.00  0.00     0.330 C 
ATOM      4  O   UNL     1      -9.095 -21.374  16.184  1.00  0.00    -0.247 OA
BRANCH   3   5
ATOM      5  O   UNL     1      -7.767 -23.079  17.006  1.00  0.00    -0.463 OA
BRANCH   5   6
ATOM      6  C   UNL     1      -6.546 -23.071  16.271  1.00  0.00     0.230 C 
ATOM      7  C   UNL     1      -5.473 -22.287  17.016  1.00  0.00     0.049 C 
ENDBRANCH   5   6
ENDBRANCH   3   5
ENDBRANCH   1   3
BRANCH   2   8
ATOM      8  C   UNL     1     -10.092 -19.952  20.101  1.00  0.00    -0.021 A 
ATOM      9  C   UNL     1     -10.477 -20.743  21.202  1.00  0.00     0.058 A 
ATOM     10  C   UNL     1     -10.006 -18.559  20.265  1.00  0.00     0.012 A 
ATOM     11  C   UNL     1     -10.746 -20.151  22.445  1.00  0.00     0.157 A 
ATOM     12  C   UNL     1     -10.272 -17.971  21.503  1.00  0.00     0.051 A 
ATOM     13  C   UNL     1     -10.640 -18.764  22.597  1.00  0.00     0.157 A 
BRANCH  11  14
ATOM     14  O   UNL     1     -11.125 -20.937  23.533  1.00  0.00    -0.504 OA
ATOM     15  H   UNL     1     -10.842 -20.707  24.478  1.00  0.00     0.293 HD
ENDBRANCH  11  14
BRANCH  13  16
ATOM     16  O   UNL     1     -10.905 -18.181  23.834  1.00  0.00    -0.504 OA
ATOM     17  H   UNL     1     -10.360 -18.413  24.658  1.00  0.00     0.293 HD
ENDBRANCH  13  16
ENDBRANCH   2   8
TORSDOF 6
ENDMDL
MODEL 5
REMARK VINA RESULT:    -3.031      1.783      6.364
REMARK INTER + INTRA:          -4.203
REMARK INTER:                  -3.898
REMARK INTRA:                  -0.305
REMARK UNBOUND:                -0.286
REMARK SMILES CCOC(=O)C=Cc1ccc(O)c(O)c1
REMARK SMILES IDX 6 1 7 2 4 3 5 4 3 5 2 6 1 7 8 8 15 9 9 10 13 11 10 12 11 13
REMARK SMILES IDX 14 14 12 16
REMARK H PARENT 14 15 12 17
REMARK Flexibility Score: inf
ROOT
ATOM      1  C   UNL     1     -10.349 -19.561  20.798  1.00  0.00     0.094 C 
ATOM      2  C   UNL     1     -10.395 -20.651  20.020  1.00  0.00     0.016 C 
ENDROOT
BRANCH   1   3
ATOM      3  C   UNL     1     -10.515 -19.641  22.258  1.00  0.00     0.330 C 
ATOM      4  O   UNL     1     -10.934 -18.630  22.883  1.00  0.00    -0.247 OA
BRANCH   3   5
ATOM      5  O   UNL     1     -10.206 -20.823  22.945  1.00  0.00    -0.463 OA
BRANCH   5   6
ATOM      6  C   UNL     1      -8.876 -21.305  23.120  1.00  0.00     0.230 C 
ATOM      7  C   UNL     1      -8.724 -22.698  22.520  1.00  0.00     0.049 C 
ENDBRANCH   5   6
ENDBRANCH   3   5
ENDBRANCH   1   3
BRANCH   2   8
ATOM      8  C   UNL     1     -10.222 -20.619  18.547  1.00  0.00    -0.021 A 
ATOM      9  C   UNL     1      -9.167 -21.286  17.892  1.00  0.00     0.058 A 
ATOM     10  C   UNL     1     -11.125 -19.864  17.780  1.00  0.00     0.012 A 
ATOM     11  C   UNL     1      -9.037 -21.217  16.497  1.00  0.00     0.157 A 
ATOM     12  C   UNL     1     -10.997 -19.797  16.391  1.00  0.00     0.051 A 
ATOM     13  C   UNL     1      -9.955 -20.475  15.745  1.00  0.00     0.157 A 
BRANCH  11  14
ATOM     14  O   UNL     1      -7.994 -21.881  15.852  1.00  0.00    -0.504 OA
ATOM     15  H   UNL     1      -7.346 -22.471  16.359  1.00  0.00     0.293 HD
ENDBRANCH  11  14
BRANCH  13  16
ATOM     16  O   UNL     1      -9.824 -20.412  14.360  1.00  0.00    -0.504 OA
ATOM     17  H   UNL     1     -10.350 -21.027  13.748  1.00  0.00     0.293 HD
ENDBRANCH  13  16
ENDBRANCH   2   8
TORSDOF 6
ENDMDL
MODEL 6
REMARK VINA RESULT:    -3.020      2.053      2.701
REMARK INTER + INTRA:          -4.188
REMARK INTER:                  -3.930
REMARK INTRA:                  -0.258
REMARK UNBOUND:                -0.286
REMARK SMILES CCOC(=O)C=Cc1ccc(O)c(O)c1
REMARK SMILES IDX 6 1 7 2 4 3 5 4 3 5 2 6 1 7 8 8 15 9 9 10 13 11 10 12 11 13
REMARK SMILES IDX 14 14 12 16
REMARK H PARENT 14 15 12 17
REMARK Flexibility Score: inf
ROOT
ATOM      1  C   UNL     1      -9.342 -21.288  18.756  1.00  0.00     0.094 C 
ATOM      2  C   UNL     1     -10.420 -20.712  19.307  1.00  0.00     0.016 C 
ENDROOT
BRANCH   1   3
ATOM      3  C   UNL     1      -9.437 -22.107  17.538  1.00  0.00     0.330 C 
ATOM      4  O   UNL     1     -10.538 -22.648  17.247  1.00  0.00    -0.247 OA
BRANCH   3   5
ATOM      5  O   UNL     1      -8.318 -22.289  16.714  1.00  0.00    -0.463 OA
BRANCH   5   6
ATOM      6  C   UNL     1      -7.104 -22.891  17.159  1.00  0.00     0.230 C 
ATOM      7  C   UNL     1      -5.913 -21.989  16.859  1.00  0.00     0.049 C 
ENDBRANCH   5   6
ENDBRANCH   3   5
ENDBRANCH   1   3
BRANCH   2   8
ATOM      8  C   UNL     1     -10.370 -19.870  20.528  1.00  0.00    -0.021 A 
ATOM      9  C   UNL     1      -9.567 -18.714  20.620  1.00  0.00     0.058 A 
ATOM     10  C   UNL     1     -11.124 -20.261  21.646  1.00  0.00     0.012 A 
ATOM     11  C   UNL     1      -9.544 -17.956  21.800  1.00  0.00     0.157 A 
ATOM     12  C   UNL     1     -11.102 -19.504  22.820  1.00  0.00     0.051 A 
ATOM     13  C   UNL     1     -10.314 -18.349  22.900  1.00  0.00     0.157 A 
BRANCH  11  14
ATOM     14  O   UNL     1      -8.751 -16.812  21.887  1.00  0.00    -0.504 OA
ATOM     15  H   UNL     1      -8.829 -16.170  22.667  1.00  0.00     0.293 HD
ENDBRANCH  11  14
BRANCH  13  16
ATOM     16  O   UNL     1     -10.290 -17.591  24.068  1.00  0.00    -0.504 OA
ATOM     17  H   UNL     1     -10.145 -16.587  24.047  1.00  0.00     0.293 HD
ENDBRANCH  13  16
ENDBRANCH   2   8
TORSDOF 6
ENDMDL
MODEL 7
REMARK VINA RESULT:    -2.833     17.758     19.952
REMARK INTER + INTRA:          -3.947
REMARK INTER:                  -3.626
REMARK INTRA:                  -0.321
REMARK UNBOUND:                -0.286
REMARK SMILES CCOC(=O)C=Cc1ccc(O)c(O)c1
REMARK SMILES IDX 6 1 7 2 4 3 5 4 3 5 2 6 1 7 8 8 15 9 9 10 13 11 10 12 11 13
REMARK SMILES IDX 14 14 12 16
REMARK H PARENT 14 15 12 17
REMARK Flexibility Score: inf
ROOT
ATOM      1  C   UNL     1       8.062 -21.710  14.945  1.00  0.00     0.094 C 
ATOM      2  C   UNL     1       8.254 -22.410  13.818  1.00  0.00     0.016 C 
ENDROOT
BRANCH   1   3
ATOM      3  C   UNL     1       8.164 -22.333  16.273  1.00  0.00     0.330 C 
ATOM      4  O   UNL     1       9.117 -23.124  16.508  1.00  0.00    -0.247 OA
BRANCH   3   5
ATOM      5  O   UNL     1       7.211 -22.057  17.264  1.00  0.00    -0.463 OA
BRANCH   5   6
ATOM      6  C   UNL     1       6.209 -21.051  17.131  1.00  0.00     0.230 C 
ATOM      7  C   UNL     1       4.860 -21.675  16.794  1.00  0.00     0.049 C 
ENDBRANCH   5   6
ENDBRANCH   3   5
ENDBRANCH   1   3
BRANCH   2   8
ATOM      8  C   UNL     1       8.172 -21.821  12.459  1.00  0.00    -0.021 A 
ATOM      9  C   UNL     1       8.178 -22.608  11.289  1.00  0.00     0.058 A 
ATOM     10  C   UNL     1       8.123 -20.423  12.334  1.00  0.00     0.012 A 
ATOM     11  C   UNL     1       8.110 -22.004  10.024  1.00  0.00     0.157 A 
ATOM     12  C   UNL     1       8.053 -19.823  11.075  1.00  0.00     0.051 A 
ATOM     13  C   UNL     1       8.045 -20.611   9.917  1.00  0.00     0.157 A 
BRANCH  11  14
ATOM     14  O   UNL     1       8.113 -22.786   8.869  1.00  0.00    -0.504 OA
ATOM     15  H   UNL     1       7.947 -22.382   7.955  1.00  0.00     0.293 HD
ENDBRANCH  11  14
BRANCH  13  16
ATOM     16  O   UNL     1       7.974 -20.016   8.659  1.00  0.00    -0.504 OA
ATOM     17  H   UNL     1       7.259 -20.277   7.988  1.00  0.00     0.293 HD
ENDBRANCH  13  16
ENDBRANCH   2   8
TORSDOF 6
ENDMDL
MODEL 8
REMARK VINA RESULT:    -2.634      2.528      3.354
REMARK INTER + INTRA:          -3.690
REMARK INTER:                  -3.412
REMARK INTRA:                  -0.278
REMARK UNBOUND:                -0.286
REMARK SMILES CCOC(=O)C=Cc1ccc(O)c(O)c1
REMARK SMILES IDX 6 1 7 2 4 3 5 4 3 5 2 6 1 7 8 8 15 9 9 10 13 11 10 12 11 13
REMARK SMILES IDX 14 14 12 16
REMARK H PARENT 14 15 12 17
REMARK Flexibility Score: inf
ROOT
ATOM      1  C   UNL     1      -8.991 -21.609  17.994  1.00  0.00     0.094 C 
ATOM      2  C   UNL     1      -9.912 -20.886  18.646  1.00  0.00     0.016 C 
ENDROOT
BRANCH   1   3
ATOM      3  C   UNL     1      -8.716 -21.410  16.563  1.00  0.00     0.330 C 
ATOM      4  O   UNL     1      -9.598 -20.873  15.839  1.00  0.00    -0.247 OA
BRANCH   3   5
ATOM      5  O   UNL     1      -7.494 -21.816  16.010  1.00  0.00    -0.463 OA
BRANCH   5   6
ATOM      6  C   UNL     1      -6.692 -22.860  16.556  1.00  0.00     0.230 C 
ATOM      7  C   UNL     1      -5.254 -22.394  16.744  1.00  0.00     0.049 C 
ENDBRANCH   5   6
ENDBRANCH   3   5
ENDBRANCH   1   3
BRANCH   2   8
ATOM      8  C   UNL     1     -10.213 -21.046  20.090  1.00  0.00    -0.021 A 
ATOM      9  C   UNL     1     -10.520 -19.954  20.927  1.00  0.00     0.058 A 
ATOM     10  C   UNL     1     -10.156 -22.333  20.650  1.00  0.00     0.012 A 
ATOM     11  C   UNL     1     -10.787 -20.153  22.290  1.00  0.00     0.157 A 
ATOM     12  C   UNL     1     -10.424 -22.531  22.006  1.00  0.00     0.051 A 
ATOM     13  C   UNL     1     -10.742 -21.444  22.829  1.00  0.00     0.157 A 
BRANCH  11  14
ATOM     14  O   UNL     1     -11.093 -19.071  23.114  1.00  0.00    -0.504 OA
ATOM     15  H   UNL     1     -11.036 -19.140  24.123  1.00  0.00     0.293 HD
ENDBRANCH  11  14
BRANCH  13  16
ATOM     16  O   UNL     1     -11.012 -21.637  24.183  1.00  0.00    -0.504 OA
ATOM     17  H   UNL     1     -10.344 -22.092  24.797  1.00  0.00     0.293 HD
ENDBRANCH  13  16
ENDBRANCH   2   8
TORSDOF 6
ENDMDL
MODEL 9
REMARK VINA RESULT:    -2.564      2.493      3.375
REMARK INTER + INTRA:          -3.600
REMARK INTER:                  -3.478
REMARK INTRA:                  -0.121
REMARK UNBOUND:                -0.286
REMARK SMILES CCOC(=O)C=Cc1ccc(O)c(O)c1
REMARK SMILES IDX 6 1 7 2 4 3 5 4 3 5 2 6 1 7 8 8 15 9 9 10 13 11 10 12 11 13
REMARK SMILES IDX 14 14 12 16
REMARK H PARENT 14 15 12 17
REMARK Flexibility Score: inf
ROOT
ATOM      1  C   UNL     1      -7.910 -21.694  17.776  1.00  0.00     0.094 C 
ATOM      2  C   UNL     1      -8.856 -22.404  18.406  1.00  0.00     0.016 C 
ENDROOT
BRANCH   1   3
ATOM      3  C   UNL     1      -7.591 -21.913  16.356  1.00  0.00     0.330 C 
ATOM      4  O   UNL     1      -6.649 -22.693  16.053  1.00  0.00    -0.247 OA
BRANCH   3   5
ATOM      5  O   UNL     1      -8.321 -21.258  15.354  1.00  0.00    -0.463 OA
BRANCH   5   6
ATOM      6  C   UNL     1      -9.614 -20.694  15.565  1.00  0.00     0.230 C 
ATOM      7  C   UNL     1     -10.173 -20.127  14.265  1.00  0.00     0.049 C 
ENDBRANCH   5   6
ENDBRANCH   3   5
ENDBRANCH   1   3
BRANCH   2   8
ATOM      8  C   UNL     1      -9.217 -22.210  19.832  1.00  0.00    -0.021 A 
ATOM      9  C   UNL     1     -10.001 -21.124  20.275  1.00  0.00     0.058 A 
ATOM     10  C   UNL     1      -8.730 -23.124  20.780  1.00  0.00     0.012 A 
ATOM     11  C   UNL     1     -10.307 -20.976  21.636  1.00  0.00     0.157 A 
ATOM     12  C   UNL     1      -9.037 -22.978  22.134  1.00  0.00     0.051 A 
ATOM     13  C   UNL     1      -9.828 -21.905  22.566  1.00  0.00     0.157 A 
BRANCH  11  14
ATOM     14  O   UNL     1     -11.084 -19.903  22.071  1.00  0.00    -0.504 OA
ATOM     15  H   UNL     1     -11.999 -19.717  21.679  1.00  0.00     0.293 HD
ENDBRANCH  11  14
BRANCH  13  16
ATOM     16  O   UNL     1     -10.138 -21.756  23.916  1.00  0.00    -0.504 OA
ATOM     17  H   UNL     1     -11.098 -21.748  24.243  1.00  0.00     0.293 HD
ENDBRANCH  13  16
ENDBRANCH   2   8
TORSDOF 6
ENDMDL
