MODEL 1
REMARK VINA RESULT:    -5.541      0.000      0.000
REMARK INTER + INTRA:         -17.933
REMARK INTER:                 -14.611
REMARK INTRA:                  -3.322
REMARK UNBOUND:                -3.322
REMARK SMILES CCCCCCCCCCCCCCCCCCCCCCCCCCCCCC(=O)[O-]
REMARK SMILES IDX 16 1 17 2 18 3 19 4 20 5 21 6 22 7 23 8 24 9 25 10 26 11
REMARK SMILES IDX 27 12 28 13 29 14 30 15 31 16 32 17 15 18 14 19 13 20 12 21
REMARK SMILES IDX 11 22 10 23 9 24 8 25 7 26 6 27 5 28 4 29 3 30 2 31 1 32
REMARK H PARENT
REMARK Flexibility Score: inf
ROOT
ATOM      1  C   UNL     1       7.939  22.662  -5.229  1.00  0.00     0.000 C 
ENDROOT
BRANCH   1   2
ATOM      2  C   UNL     1       8.752  21.426  -5.664  1.00  0.00     0.000 C 
BRANCH   2   3
ATOM      3  C   UNL     1       9.966  21.766  -6.558  1.00  0.00     0.000 C 
BRANCH   3   4
ATOM      4  C   UNL     1       9.917  21.110  -7.954  1.00  0.00     0.000 C 
BRANCH   4   5
ATOM      5  C   UNL     1      10.227  22.108  -9.085  1.00  0.00     0.000 C 
BRANCH   5   6
ATOM      6  C   UNL     1      10.537  23.520  -8.550  1.00  0.00     0.000 C 
BRANCH   6   7
ATOM      7  C   UNL     1      11.879  24.101  -9.047  1.00  0.00     0.000 C 
BRANCH   7   8
ATOM      8  C   UNL     1      13.006  24.103  -7.997  1.00  0.00     0.000 C 
BRANCH   8   9
ATOM      9  C   UNL     1      13.380  22.687  -7.522  1.00  0.00     0.000 C 
BRANCH   9  10
ATOM     10  C   UNL     1      14.860  22.570  -7.109  1.00  0.00     0.000 C 
BRANCH  10  11
ATOM     11  C   UNL     1      15.549  23.913  -6.808  1.00  0.00     0.000 C 
BRANCH  11  12
ATOM     12  C   UNL     1      15.942  24.060  -5.328  1.00  0.00     0.000 C 
BRANCH  12  13
ATOM     13  C   UNL     1      14.983  23.313  -4.385  1.00  0.00     0.006 C 
BRANCH  13  14
ATOM     14  C   UNL     1      14.657  24.111  -3.117  1.00  0.00     0.053 C 
BRANCH  14  15
ATOM     15  C   UNL     1      13.618  23.399  -2.309  1.00  0.00     0.041 C 
ATOM     16  O   UNL     1      12.807  22.617  -2.871  1.00  0.00    -0.550 OA
ATOM     17  O   UNL     1      13.514  23.637  -0.944  1.00  0.00    -0.550 OA
ENDBRANCH  14  15
ENDBRANCH  13  14
ENDBRANCH  12  13
ENDBRANCH  11  12
ENDBRANCH  10  11
ENDBRANCH   9  10
ENDBRANCH   8   9
ENDBRANCH   7   8
ENDBRANCH   6   7
ENDBRANCH   5   6
ENDBRANCH   4   5
ENDBRANCH   3   4
ENDBRANCH   2   3
ENDBRANCH   1   2
BRANCH   1  18
ATOM     18  C   UNL     1       6.434  22.545  -5.533  1.00  0.00     0.000 C 
BRANCH  18  19
ATOM     19  C   UNL     1       5.899  23.764  -6.301  1.00  0.00     0.000 C 
BRANCH  19  20
ATOM     20  C   UNL     1       7.049  24.557  -6.941  1.00  0.00     0.000 C 
BRANCH  20  21
ATOM     21  C   UNL     1       7.038  24.490  -8.481  1.00  0.00     0.000 C 
BRANCH  21  22
ATOM     22  C   UNL     1       6.767  23.082  -9.040  1.00  0.00     0.000 C 
BRANCH  22  23
ATOM     23  C   UNL     1       5.646  23.001 -10.094  1.00  0.00     0.000 C 
BRANCH  23  24
ATOM     24  C   UNL     1       4.212  23.151  -9.545  1.00  0.00    -0.000 C 
BRANCH  24  25
ATOM     25  C   UNL     1       3.750  22.016  -8.613  1.00  0.00    -0.000 C 
BRANCH  25  26
ATOM     26  C   UNL     1       2.555  22.419  -7.729  1.00  0.00    -0.000 C 
BRANCH  26  27
ATOM     27  C   UNL     1       1.641  21.231  -7.388  1.00  0.00    -0.000 C 
BRANCH  27  28
ATOM     28  C   UNL     1       0.995  20.593  -8.629  1.00  0.00    -0.000 C 
BRANCH  28  29
ATOM     29  C   UNL     1       0.977  19.063  -8.508  1.00  0.00    -0.000 C 
BRANCH  29  30
ATOM     30  C   UNL     1      -0.446  18.494  -8.359  1.00  0.00    -0.000 C 
BRANCH  30  31
ATOM     31  C   UNL     1      -1.423  19.082  -9.387  1.00  0.00    -0.003 C 
ATOM     32  C   UNL     1      -1.702  18.090 -10.516  1.00  0.00     0.004 C 
ENDBRANCH  30  31
ENDBRANCH  29  30
ENDBRANCH  28  29
ENDBRANCH  27  28
ENDBRANCH  26  27
ENDBRANCH  25  26
ENDBRANCH  24  25
ENDBRANCH  23  24
ENDBRANCH  22  23
ENDBRANCH  21  22
ENDBRANCH  20  21
ENDBRANCH  19  20
ENDBRANCH  18  19
ENDBRANCH   1  18
TORSDOF 28
ENDMDL
MODEL 2
REMARK VINA RESULT:    -5.331      4.147     11.945
REMARK INTER + INTRA:         -17.381
REMARK INTER:                 -13.798
REMARK INTRA:                  -3.583
REMARK UNBOUND:                -3.322
REMARK SMILES CCCCCCCCCCCCCCCCCCCCCCCCCCCCCC(=O)[O-]
REMARK SMILES IDX 16 1 17 2 18 3 19 4 20 5 21 6 22 7 23 8 24 9 25 10 26 11
REMARK SMILES IDX 27 12 28 13 29 14 30 15 31 16 32 17 15 18 14 19 13 20 12 21
REMARK SMILES IDX 11 22 10 23 9 24 8 25 7 26 6 27 5 28 4 29 3 30 2 31 1 32
REMARK H PARENT
REMARK Flexibility Score: inf
ROOT
ATOM      1  C   UNL     1       9.743  21.985  -6.567  1.00  0.00     0.000 C 
ENDROOT
BRANCH   1   2
ATOM      2  C   UNL     1       8.750  21.343  -5.576  1.00  0.00     0.000 C 
BRANCH   2   3
ATOM      3  C   UNL     1       7.877  22.371  -4.821  1.00  0.00     0.000 C 
BRANCH   3   4
ATOM      4  C   UNL     1       6.690  22.909  -5.648  1.00  0.00     0.000 C 
BRANCH   4   5
ATOM      5  C   UNL     1       6.844  24.400  -5.998  1.00  0.00     0.000 C 
BRANCH   5   6
ATOM      6  C   UNL     1       7.046  24.629  -7.509  1.00  0.00     0.000 C 
BRANCH   6   7
ATOM      7  C   UNL     1       6.769  23.382  -8.376  1.00  0.00     0.000 C 
BRANCH   7   8
ATOM      8  C   UNL     1       5.711  23.588  -9.477  1.00  0.00     0.000 C 
BRANCH   8   9
ATOM      9  C   UNL     1       4.642  22.479  -9.489  1.00  0.00     0.000 C 
BRANCH   9  10
ATOM     10  C   UNL     1       3.897  22.357  -8.146  1.00  0.00     0.000 C 
BRANCH  10  11
ATOM     11  C   UNL     1       2.365  22.262  -8.271  1.00  0.00     0.000 C 
BRANCH  11  12
ATOM     12  C   UNL     1       1.824  20.871  -7.895  1.00  0.00     0.000 C 
BRANCH  12  13
ATOM     13  C   UNL     1       0.437  20.937  -7.232  1.00  0.00     0.006 C 
BRANCH  13  14
ATOM     14  C   UNL     1       0.268  22.168  -6.333  1.00  0.00     0.053 C 
BRANCH  14  15
ATOM     15  C   UNL     1      -1.184  22.453  -6.111  1.00  0.00     0.041 C 
ATOM     16  O   UNL     1      -1.801  23.234  -6.885  1.00  0.00    -0.550 OA
ATOM     17  O   UNL     1      -1.846  21.894  -5.024  1.00  0.00    -0.550 OA
ENDBRANCH  14  15
ENDBRANCH  13  14
ENDBRANCH  12  13
ENDBRANCH  11  12
ENDBRANCH  10  11
ENDBRANCH   9  10
ENDBRANCH   8   9
ENDBRANCH   7   8
ENDBRANCH   6   7
ENDBRANCH   5   6
ENDBRANCH   4   5
ENDBRANCH   3   4
ENDBRANCH   2   3
ENDBRANCH   1   2
BRANCH   1  18
ATOM     18  C   UNL     1       9.873  21.212  -7.893  1.00  0.00     0.000 C 
BRANCH  18  19
ATOM     19  C   UNL     1      10.137  22.144  -9.086  1.00  0.00     0.000 C 
BRANCH  19  20
ATOM     20  C   UNL     1      10.417  23.577  -8.610  1.00  0.00     0.000 C 
BRANCH  20  21
ATOM     21  C   UNL     1      11.769  24.122  -9.114  1.00  0.00     0.000 C 
BRANCH  21  22
ATOM     22  C   UNL     1      12.890  24.075  -8.061  1.00  0.00     0.000 C 
BRANCH  22  23
ATOM     23  C   UNL     1      13.281  22.665  -7.583  1.00  0.00     0.000 C 
BRANCH  23  24
ATOM     24  C   UNL     1      13.569  22.535  -6.073  1.00  0.00    -0.000 C 
BRANCH  24  25
ATOM     25  C   UNL     1      14.622  23.514  -5.524  1.00  0.00    -0.000 C 
BRANCH  25  26
ATOM     26  C   UNL     1      16.011  23.316  -6.160  1.00  0.00    -0.000 C 
BRANCH  26  27
ATOM     27  C   UNL     1      16.423  24.489  -7.063  1.00  0.00    -0.000 C 
BRANCH  27  28
ATOM     28  C   UNL     1      16.190  25.862  -6.411  1.00  0.00    -0.000 C 
BRANCH  28  29
ATOM     29  C   UNL     1      17.491  26.403  -5.800  1.00  0.00    -0.000 C 
BRANCH  29  30
ATOM     30  C   UNL     1      17.358  26.717  -4.300  1.00  0.00    -0.000 C 
BRANCH  30  31
ATOM     31  C   UNL     1      15.947  26.438  -3.763  1.00  0.00    -0.003 C 
ATOM     32  C   UNL     1      15.976  25.396  -2.647  1.00  0.00     0.004 C 
ENDBRANCH  30  31
ENDBRANCH  29  30
ENDBRANCH  28  29
ENDBRANCH  27  28
ENDBRANCH  26  27
ENDBRANCH  25  26
ENDBRANCH  24  25
ENDBRANCH  23  24
ENDBRANCH  22  23
ENDBRANCH  21  22
ENDBRANCH  20  21
ENDBRANCH  19  20
ENDBRANCH  18  19
ENDBRANCH   1  18
TORSDOF 28
ENDMDL
MODEL 3
REMARK VINA RESULT:    -5.300      2.718      5.240
REMARK INTER + INTRA:         -17.298
REMARK INTER:                 -13.666
REMARK INTRA:                  -3.632
REMARK UNBOUND:                -3.322
REMARK SMILES CCCCCCCCCCCCCCCCCCCCCCCCCCCCCC(=O)[O-]
REMARK SMILES IDX 16 1 17 2 18 3 19 4 20 5 21 6 22 7 23 8 24 9 25 10 26 11
REMARK SMILES IDX 27 12 28 13 29 14 30 15 31 16 32 17 15 18 14 19 13 20 12 21
REMARK SMILES IDX 11 22 10 23 9 24 8 25 7 26 6 27 5 28 4 29 3 30 2 31 1 32
REMARK H PARENT
REMARK Flexibility Score: inf
ROOT
ATOM      1  C   UNL     1      12.475  23.098  -7.400  1.00  0.00     0.000 C 
ENDROOT
BRANCH   1   2
ATOM      2  C   UNL     1      13.696  22.156  -7.434  1.00  0.00     0.000 C 
BRANCH   2   3
ATOM      3  C   UNL     1      14.822  22.566  -6.458  1.00  0.00     0.000 C 
BRANCH   3   4
ATOM      4  C   UNL     1      16.234  22.520  -7.079  1.00  0.00     0.000 C 
BRANCH   4   5
ATOM      5  C   UNL     1      17.335  22.884  -6.066  1.00  0.00     0.000 C 
BRANCH   5   6
ATOM      6  C   UNL     1      18.049  24.202  -6.426  1.00  0.00     0.000 C 
BRANCH   6   7
ATOM      7  C   UNL     1      17.243  25.115  -7.374  1.00  0.00     0.000 C 
BRANCH   7   8
ATOM      8  C   UNL     1      16.648  26.370  -6.706  1.00  0.00     0.000 C 
BRANCH   8   9
ATOM      9  C   UNL     1      15.870  26.045  -5.418  1.00  0.00     0.000 C 
BRANCH   9  10
ATOM     10  C   UNL     1      16.630  26.460  -4.143  1.00  0.00     0.000 C 
BRANCH  10  11
ATOM     11  C   UNL     1      16.038  25.903  -2.835  1.00  0.00     0.000 C 
BRANCH  11  12
ATOM     12  C   UNL     1      16.689  24.576  -2.407  1.00  0.00     0.000 C 
BRANCH  12  13
ATOM     13  C   UNL     1      15.812  23.355  -2.734  1.00  0.00     0.006 C 
BRANCH  13  14
ATOM     14  C   UNL     1      14.359  23.736  -3.043  1.00  0.00     0.053 C 
BRANCH  14  15
ATOM     15  C   UNL     1      13.463  23.317  -1.920  1.00  0.00     0.041 C 
ATOM     16  O   UNL     1      13.677  23.736  -0.751  1.00  0.00    -0.550 OA
ATOM     17  O   UNL     1      12.422  22.427  -2.154  1.00  0.00    -0.550 OA
ENDBRANCH  14  15
ENDBRANCH  13  14
ENDBRANCH  12  13
ENDBRANCH  11  12
ENDBRANCH  10  11
ENDBRANCH   9  10
ENDBRANCH   8   9
ENDBRANCH   7   8
ENDBRANCH   6   7
ENDBRANCH   5   6
ENDBRANCH   4   5
ENDBRANCH   3   4
ENDBRANCH   2   3
ENDBRANCH   1   2
BRANCH   1  18
ATOM     18  C   UNL     1      12.629  24.333  -8.308  1.00  0.00     0.000 C 
BRANCH  18  19
ATOM     19  C   UNL     1      11.651  24.311  -9.492  1.00  0.00     0.000 C 
BRANCH  19  20
ATOM     20  C   UNL     1      11.137  22.886  -9.752  1.00  0.00     0.000 C 
BRANCH  20  21
ATOM     21  C   UNL     1       9.618  22.835 -10.011  1.00  0.00     0.000 C 
BRANCH  21  22
ATOM     22  C   UNL     1       8.806  22.268  -8.833  1.00  0.00     0.000 C 
BRANCH  22  23
ATOM     23  C   UNL     1       8.340  23.309  -7.797  1.00  0.00     0.000 C 
BRANCH  23  24
ATOM     24  C   UNL     1       8.116  22.766  -6.371  1.00  0.00    -0.000 C 
BRANCH  24  25
ATOM     25  C   UNL     1       6.697  22.972  -5.811  1.00  0.00    -0.000 C 
BRANCH  25  26
ATOM     26  C   UNL     1       5.737  23.606  -6.835  1.00  0.00    -0.000 C 
BRANCH  26  27
ATOM     27  C   UNL     1       4.563  22.684  -7.198  1.00  0.00    -0.000 C 
BRANCH  27  28
ATOM     28  C   UNL     1       4.125  22.816  -8.666  1.00  0.00    -0.000 C 
BRANCH  28  29
ATOM     29  C   UNL     1       5.274  22.441  -9.614  1.00  0.00    -0.000 C 
BRANCH  29  30
ATOM     30  C   UNL     1       5.588  23.549 -10.634  1.00  0.00    -0.000 C 
BRANCH  30  31
ATOM     31  C   UNL     1       4.329  24.289 -11.105  1.00  0.00    -0.003 C 
ATOM     32  C   UNL     1       4.648  25.730 -11.500  1.00  0.00     0.004 C 
ENDBRANCH  30  31
ENDBRANCH  29  30
ENDBRANCH  28  29
ENDBRANCH  27  28
ENDBRANCH  26  27
ENDBRANCH  25  26
ENDBRANCH  24  25
ENDBRANCH  23  24
ENDBRANCH  22  23
ENDBRANCH  21  22
ENDBRANCH  20  21
ENDBRANCH  19  20
ENDBRANCH  18  19
ENDBRANCH   1  18
TORSDOF 28
ENDMDL
MODEL 4
REMARK VINA RESULT:    -5.282      3.176     10.603
REMARK INTER + INTRA:         -17.250
REMARK INTER:                 -13.547
REMARK INTRA:                  -3.703
REMARK UNBOUND:                -3.322
REMARK SMILES CCCCCCCCCCCCCCCCCCCCCCCCCCCCCC(=O)[O-]
REMARK SMILES IDX 16 1 17 2 18 3 19 4 20 5 21 6 22 7 23 8 24 9 25 10 26 11
REMARK SMILES IDX 27 12 28 13 29 14 30 15 31 16 32 17 15 18 14 19 13 20 12 21
REMARK SMILES IDX 11 22 10 23 9 24 8 25 7 26 6 27 5 28 4 29 3 30 2 31 1 32
REMARK H PARENT
REMARK Flexibility Score: inf
ROOT
ATOM      1  C   UNL     1       9.600  23.518  -9.564  1.00  0.00     0.000 C 
ENDROOT
BRANCH   1   2
ATOM      2  C   UNL     1       8.549  22.506 -10.066  1.00  0.00     0.000 C 
BRANCH   2   3
ATOM      3  C   UNL     1       7.184  22.625  -9.352  1.00  0.00     0.000 C 
BRANCH   3   4
ATOM      4  C   UNL     1       6.292  23.761  -9.895  1.00  0.00     0.000 C 
BRANCH   4   5
ATOM      5  C   UNL     1       4.791  23.436  -9.784  1.00  0.00     0.000 C 
BRANCH   5   6
ATOM      6  C   UNL     1       4.510  22.304  -8.776  1.00  0.00     0.000 C 
BRANCH   6   7
ATOM      7  C   UNL     1       3.899  22.785  -7.443  1.00  0.00     0.000 C 
BRANCH   7   8
ATOM      8  C   UNL     1       4.881  22.807  -6.256  1.00  0.00     0.000 C 
BRANCH   8   9
ATOM      9  C   UNL     1       5.811  24.034  -6.275  1.00  0.00     0.000 C 
BRANCH   9  10
ATOM     10  C   UNL     1       7.216  23.725  -5.725  1.00  0.00     0.000 C 
BRANCH  10  11
ATOM     11  C   UNL     1       7.328  22.387  -4.970  1.00  0.00     0.000 C 
BRANCH  11  12
ATOM     12  C   UNL     1       8.714  21.736  -5.116  1.00  0.00     0.000 C 
BRANCH  12  13
ATOM     13  C   UNL     1       9.320  21.947  -6.515  1.00  0.00     0.006 C 
BRANCH  13  14
ATOM     14  C   UNL     1      10.843  21.760  -6.534  1.00  0.00     0.053 C 
BRANCH  14  15
ATOM     15  C   UNL     1      11.215  20.634  -7.447  1.00  0.00     0.041 C 
ATOM     16  O   UNL     1      12.168  20.769  -8.260  1.00  0.00    -0.550 OA
ATOM     17  O   UNL     1      10.481  19.454  -7.434  1.00  0.00    -0.550 OA
ENDBRANCH  14  15
ENDBRANCH  13  14
ENDBRANCH  12  13
ENDBRANCH  11  12
ENDBRANCH  10  11
ENDBRANCH   9  10
ENDBRANCH   8   9
ENDBRANCH   7   8
ENDBRANCH   6   7
ENDBRANCH   5   6
ENDBRANCH   4   5
ENDBRANCH   3   4
ENDBRANCH   2   3
ENDBRANCH   1   2
BRANCH   1  18
ATOM     18  C   UNL     1      11.006  23.283 -10.148  1.00  0.00     0.000 C 
BRANCH  18  19
ATOM     19  C   UNL     1      11.991  24.395  -9.757  1.00  0.00     0.000 C 
BRANCH  19  20
ATOM     20  C   UNL     1      12.284  24.363  -8.250  1.00  0.00     0.000 C 
BRANCH  20  21
ATOM     21  C   UNL     1      13.719  23.901  -7.927  1.00  0.00     0.000 C 
BRANCH  21  22
ATOM     22  C   UNL     1      14.273  24.468  -6.609  1.00  0.00     0.000 C 
BRANCH  22  23
ATOM     23  C   UNL     1      15.174  25.708  -6.757  1.00  0.00     0.000 C 
BRANCH  23  24
ATOM     24  C   UNL     1      16.692  25.430  -6.721  1.00  0.00    -0.000 C 
BRANCH  24  25
ATOM     25  C   UNL     1      17.080  23.941  -6.712  1.00  0.00    -0.000 C 
BRANCH  25  26
ATOM     26  C   UNL     1      17.815  23.523  -5.424  1.00  0.00    -0.000 C 
BRANCH  26  27
ATOM     27  C   UNL     1      16.853  23.209  -4.268  1.00  0.00    -0.000 C 
BRANCH  27  28
ATOM     28  C   UNL     1      16.455  24.455  -3.459  1.00  0.00    -0.000 C 
BRANCH  28  29
ATOM     29  C   UNL     1      15.199  24.181  -2.619  1.00  0.00    -0.000 C 
BRANCH  29  30
ATOM     30  C   UNL     1      14.419  25.463  -2.281  1.00  0.00    -0.000 C 
BRANCH  30  31
ATOM     31  C   UNL     1      14.840  26.654  -3.152  1.00  0.00    -0.003 C 
ATOM     32  C   UNL     1      15.307  27.830  -2.295  1.00  0.00     0.004 C 
ENDBRANCH  30  31
ENDBRANCH  29  30
ENDBRANCH  28  29
ENDBRANCH  27  28
ENDBRANCH  26  27
ENDBRANCH  25  26
ENDBRANCH  24  25
ENDBRANCH  23  24
ENDBRANCH  22  23
ENDBRANCH  21  22
ENDBRANCH  20  21
ENDBRANCH  19  20
ENDBRANCH  18  19
ENDBRANCH   1  18
TORSDOF 28
ENDMDL
MODEL 5
REMARK VINA RESULT:    -5.244      3.988     11.555
REMARK INTER + INTRA:         -17.151
REMARK INTER:                 -13.940
REMARK INTRA:                  -3.212
REMARK UNBOUND:                -3.322
REMARK SMILES CCCCCCCCCCCCCCCCCCCCCCCCCCCCCC(=O)[O-]
REMARK SMILES IDX 16 1 17 2 18 3 19 4 20 5 21 6 22 7 23 8 24 9 25 10 26 11
REMARK SMILES IDX 27 12 28 13 29 14 30 15 31 16 32 17 15 18 14 19 13 20 12 21
REMARK SMILES IDX 11 22 10 23 9 24 8 25 7 26 6 27 5 28 4 29 3 30 2 31 1 32
REMARK H PARENT
REMARK Flexibility Score: inf
ROOT
ATOM      1  C   UNL     1       9.574  21.817  -6.039  1.00  0.00     0.000 C 
ENDROOT
BRANCH   1   2
ATOM      2  C   UNL     1       8.271  21.540  -5.259  1.00  0.00     0.000 C 
BRANCH   2   3
ATOM      3  C   UNL     1       7.407  22.800  -5.030  1.00  0.00     0.000 C 
BRANCH   3   4
ATOM      4  C   UNL     1       6.571  23.216  -6.258  1.00  0.00     0.000 C 
BRANCH   4   5
ATOM      5  C   UNL     1       6.879  24.651  -6.723  1.00  0.00     0.000 C 
BRANCH   5   6
ATOM      6  C   UNL     1       7.200  24.722  -8.229  1.00  0.00     0.000 C 
BRANCH   6   7
ATOM      7  C   UNL     1       7.827  23.432  -8.800  1.00  0.00     0.000 C 
BRANCH   7   8
ATOM      8  C   UNL     1       6.927  22.662  -9.786  1.00  0.00     0.000 C 
BRANCH   8   9
ATOM      9  C   UNL     1       5.887  23.567 -10.472  1.00  0.00     0.000 C 
BRANCH   9  10
ATOM     10  C   UNL     1       4.476  23.412  -9.872  1.00  0.00     0.000 C 
BRANCH  10  11
ATOM     11  C   UNL     1       4.291  22.168  -8.984  1.00  0.00     0.000 C 
BRANCH  11  12
ATOM     12  C   UNL     1       3.299  22.403  -7.832  1.00  0.00     0.000 C 
BRANCH  12  13
ATOM     13  C   UNL     1       1.855  22.028  -8.211  1.00  0.00     0.006 C 
BRANCH  13  14
ATOM     14  C   UNL     1       1.282  20.911  -7.329  1.00  0.00     0.053 C 
BRANCH  14  15
ATOM     15  C   UNL     1       0.095  20.285  -7.991  1.00  0.00     0.041 C 
ATOM     16  O   UNL     1       0.244  19.601  -9.039  1.00  0.00    -0.550 OA
ATOM     17  O   UNL     1      -1.180  20.497  -7.481  1.00  0.00    -0.550 OA
ENDBRANCH  14  15
ENDBRANCH  13  14
ENDBRANCH  12  13
ENDBRANCH  11  12
ENDBRANCH  10  11
ENDBRANCH   9  10
ENDBRANCH   8   9
ENDBRANCH   7   8
ENDBRANCH   6   7
ENDBRANCH   5   6
ENDBRANCH   4   5
ENDBRANCH   3   4
ENDBRANCH   2   3
ENDBRANCH   1   2
BRANCH   1  18
ATOM     18  C   UNL     1       9.884  20.756  -7.111  1.00  0.00     0.000 C 
BRANCH  18  19
ATOM     19  C   UNL     1      11.182  21.062  -7.874  1.00  0.00     0.000 C 
BRANCH  19  20
ATOM     20  C   UNL     1      11.228  22.534  -8.310  1.00  0.00     0.000 C 
BRANCH  20  21
ATOM     21  C   UNL     1      12.508  23.257  -7.844  1.00  0.00     0.000 C 
BRANCH  21  22
ATOM     22  C   UNL     1      13.430  22.388  -6.971  1.00  0.00     0.000 C 
BRANCH  22  23
ATOM     23  C   UNL     1      14.917  22.404  -7.371  1.00  0.00     0.000 C 
BRANCH  23  24
ATOM     24  C   UNL     1      15.874  23.024  -6.331  1.00  0.00    -0.000 C 
BRANCH  24  25
ATOM     25  C   UNL     1      15.566  24.484  -5.953  1.00  0.00    -0.000 C 
BRANCH  25  26
ATOM     26  C   UNL     1      15.555  24.717  -4.430  1.00  0.00    -0.000 C 
BRANCH  26  27
ATOM     27  C   UNL     1      14.767  23.639  -3.671  1.00  0.00    -0.000 C 
BRANCH  27  28
ATOM     28  C   UNL     1      15.078  23.613  -2.165  1.00  0.00    -0.000 C 
BRANCH  28  29
ATOM     29  C   UNL     1      13.829  23.969  -1.345  1.00  0.00    -0.000 C 
BRANCH  29  30
ATOM     30  C   UNL     1      13.749  25.467  -1.004  1.00  0.00    -0.000 C 
BRANCH  30  31
ATOM     31  C   UNL     1      15.131  26.131  -0.944  1.00  0.00    -0.003 C 
ATOM     32  C   UNL     1      15.194  27.363  -1.845  1.00  0.00     0.004 C 
ENDBRANCH  30  31
ENDBRANCH  29  30
ENDBRANCH  28  29
ENDBRANCH  27  28
ENDBRANCH  26  27
ENDBRANCH  25  26
ENDBRANCH  24  25
ENDBRANCH  23  24
ENDBRANCH  22  23
ENDBRANCH  21  22
ENDBRANCH  20  21
ENDBRANCH  19  20
ENDBRANCH  18  19
ENDBRANCH   1  18
TORSDOF 28
ENDMDL
MODEL 6
REMARK VINA RESULT:    -5.215      1.267      2.017
REMARK INTER + INTRA:         -17.074
REMARK INTER:                 -13.650
REMARK INTRA:                  -3.425
REMARK UNBOUND:                -3.322
REMARK SMILES CCCCCCCCCCCCCCCCCCCCCCCCCCCCCC(=O)[O-]
REMARK SMILES IDX 16 1 17 2 18 3 19 4 20 5 21 6 22 7 23 8 24 9 25 10 26 11
REMARK SMILES IDX 27 12 28 13 29 14 30 15 31 16 32 17 15 18 14 19 13 20 12 21
REMARK SMILES IDX 11 22 10 23 9 24 8 25 7 26 6 27 5 28 4 29 3 30 2 31 1 32
REMARK H PARENT
REMARK Flexibility Score: inf
ROOT
ATOM      1  C   UNL     1       7.616  22.596  -4.946  1.00  0.00     0.000 C 
ENDROOT
BRANCH   1   2
ATOM      2  C   UNL     1       8.529  21.400  -5.290  1.00  0.00     0.000 C 
BRANCH   2   3
ATOM      3  C   UNL     1       9.712  21.771  -6.213  1.00  0.00     0.000 C 
BRANCH   3   4
ATOM      4  C   UNL     1      10.136  20.637  -7.170  1.00  0.00     0.000 C 
BRANCH   4   5
ATOM      5  C   UNL     1      10.985  21.147  -8.349  1.00  0.00     0.000 C 
BRANCH   5   6
ATOM      6  C   UNL     1      11.727  22.455  -8.012  1.00  0.00     0.000 C 
BRANCH   6   7
ATOM      7  C   UNL     1      13.164  22.246  -7.488  1.00  0.00     0.000 C 
BRANCH   7   8
ATOM      8  C   UNL     1      13.902  23.542  -7.101  1.00  0.00     0.000 C 
BRANCH   8   9
ATOM      9  C   UNL     1      15.269  23.275  -6.446  1.00  0.00     0.000 C 
BRANCH   9  10
ATOM     10  C   UNL     1      16.031  24.572  -6.110  1.00  0.00     0.000 C 
BRANCH  10  11
ATOM     11  C   UNL     1      16.881  24.501  -4.827  1.00  0.00     0.000 C 
BRANCH  11  12
ATOM     12  C   UNL     1      16.628  23.217  -4.018  1.00  0.00     0.000 C 
BRANCH  12  13
ATOM     13  C   UNL     1      15.930  23.494  -2.675  1.00  0.00     0.006 C 
BRANCH  13  14
ATOM     14  C   UNL     1      14.467  23.924  -2.845  1.00  0.00     0.053 C 
BRANCH  14  15
ATOM     15  C   UNL     1      13.762  23.897  -1.526  1.00  0.00     0.041 C 
ATOM     16  O   UNL     1      13.205  22.839  -1.129  1.00  0.00    -0.550 OA
ATOM     17  O   UNL     1      13.677  25.052  -0.757  1.00  0.00    -0.550 OA
ENDBRANCH  14  15
ENDBRANCH  13  14
ENDBRANCH  12  13
ENDBRANCH  11  12
ENDBRANCH  10  11
ENDBRANCH   9  10
ENDBRANCH   8   9
ENDBRANCH   7   8
ENDBRANCH   6   7
ENDBRANCH   5   6
ENDBRANCH   4   5
ENDBRANCH   3   4
ENDBRANCH   2   3
ENDBRANCH   1   2
BRANCH   1  18
ATOM     18  C   UNL     1       6.223  22.511  -5.599  1.00  0.00     0.000 C 
BRANCH  18  19
ATOM     19  C   UNL     1       5.753  23.868  -6.146  1.00  0.00     0.000 C 
BRANCH  19  20
ATOM     20  C   UNL     1       6.950  24.736  -6.560  1.00  0.00     0.000 C 
BRANCH  20  21
ATOM     21  C   UNL     1       7.174  24.758  -8.086  1.00  0.00     0.000 C 
BRANCH  21  22
ATOM     22  C   UNL     1       8.208  23.728  -8.577  1.00  0.00     0.000 C 
BRANCH  22  23
ATOM     23  C   UNL     1       7.637  22.586  -9.438  1.00  0.00     0.000 C 
BRANCH  23  24
ATOM     24  C   UNL     1       6.941  23.027 -10.743  1.00  0.00    -0.000 C 
BRANCH  24  25
ATOM     25  C   UNL     1       5.408  22.893 -10.740  1.00  0.00    -0.000 C 
BRANCH  25  26
ATOM     26  C   UNL     1       4.878  22.115  -9.521  1.00  0.00    -0.000 C 
BRANCH  26  27
ATOM     27  C   UNL     1       3.684  22.810  -8.847  1.00  0.00    -0.000 C 
BRANCH  27  28
ATOM     28  C   UNL     1       3.020  21.947  -7.761  1.00  0.00    -0.000 C 
BRANCH  28  29
ATOM     29  C   UNL     1       1.596  21.549  -8.177  1.00  0.00    -0.000 C 
BRANCH  29  30
ATOM     30  C   UNL     1       0.855  20.763  -7.082  1.00  0.00    -0.000 C 
BRANCH  30  31
ATOM     31  C   UNL     1       0.476  19.345  -7.531  1.00  0.00    -0.003 C 
ATOM     32  C   UNL     1       1.274  18.923  -8.764  1.00  0.00     0.004 C 
ENDBRANCH  30  31
ENDBRANCH  29  30
ENDBRANCH  28  29
ENDBRANCH  27  28
ENDBRANCH  26  27
ENDBRANCH  25  26
ENDBRANCH  24  25
ENDBRANCH  23  24
ENDBRANCH  22  23
ENDBRANCH  21  22
ENDBRANCH  20  21
ENDBRANCH  19  20
ENDBRANCH  18  19
ENDBRANCH   1  18
TORSDOF 28
ENDMDL
MODEL 7
REMARK VINA RESULT:    -5.193      3.549     10.755
REMARK INTER + INTRA:         -17.014
REMARK INTER:                 -13.984
REMARK INTRA:                  -3.030
REMARK UNBOUND:                -3.322
REMARK SMILES CCCCCCCCCCCCCCCCCCCCCCCCCCCCCC(=O)[O-]
REMARK SMILES IDX 16 1 17 2 18 3 19 4 20 5 21 6 22 7 23 8 24 9 25 10 26 11
REMARK SMILES IDX 27 12 28 13 29 14 30 15 31 16 32 17 15 18 14 19 13 20 12 21
REMARK SMILES IDX 11 22 10 23 9 24 8 25 7 26 6 27 5 28 4 29 3 30 2 31 1 32
REMARK H PARENT
REMARK Flexibility Score: inf
ROOT
ATOM      1  C   UNL     1      11.792  20.992  -7.612  1.00  0.00     0.000 C 
ENDROOT
BRANCH   1   2
ATOM      2  C   UNL     1      10.367  20.648  -7.129  1.00  0.00     0.000 C 
BRANCH   2   3
ATOM      3  C   UNL     1       9.680  21.798  -6.359  1.00  0.00     0.000 C 
BRANCH   3   4
ATOM      4  C   UNL     1       8.688  21.320  -5.278  1.00  0.00     0.000 C 
BRANCH   4   5
ATOM      5  C   UNL     1       7.503  22.286  -5.097  1.00  0.00     0.000 C 
BRANCH   5   6
ATOM      6  C   UNL     1       7.589  23.500  -6.043  1.00  0.00     0.000 C 
BRANCH   6   7
ATOM      7  C   UNL     1       6.218  24.015  -6.532  1.00  0.00     0.000 C 
BRANCH   7   8
ATOM      8  C   UNL     1       5.222  22.911  -6.936  1.00  0.00     0.000 C 
BRANCH   8   9
ATOM      9  C   UNL     1       4.908  22.915  -8.443  1.00  0.00     0.000 C 
BRANCH   9  10
ATOM     10  C   UNL     1       6.034  23.547  -9.283  1.00  0.00     0.000 C 
BRANCH  10  11
ATOM     11  C   UNL     1       6.765  22.564 -10.216  1.00  0.00     0.000 C 
BRANCH  11  12
ATOM     12  C   UNL     1       8.124  22.111  -9.653  1.00  0.00     0.000 C 
BRANCH  12  13
ATOM     13  C   UNL     1       9.156  23.251  -9.613  1.00  0.00     0.006 C 
BRANCH  13  14
ATOM     14  C   UNL     1      10.492  22.864 -10.262  1.00  0.00     0.053 C 
BRANCH  14  15
ATOM     15  C   UNL     1      11.352  24.075 -10.439  1.00  0.00     0.041 C 
ATOM     16  O   UNL     1      11.682  24.452 -11.596  1.00  0.00    -0.550 OA
ATOM     17  O   UNL     1      11.831  24.759  -9.328  1.00  0.00    -0.550 OA
ENDBRANCH  14  15
ENDBRANCH  13  14
ENDBRANCH  12  13
ENDBRANCH  11  12
ENDBRANCH  10  11
ENDBRANCH   9  10
ENDBRANCH   8   9
ENDBRANCH   7   8
ENDBRANCH   6   7
ENDBRANCH   5   6
ENDBRANCH   4   5
ENDBRANCH   3   4
ENDBRANCH   2   3
ENDBRANCH   1   2
BRANCH   1  18
ATOM     18  C   UNL     1      12.346  22.295  -7.006  1.00  0.00     0.000 C 
BRANCH  18  19
ATOM     19  C   UNL     1      13.880  22.360  -7.070  1.00  0.00     0.000 C 
BRANCH  19  20
ATOM     20  C   UNL     1      14.363  23.815  -7.167  1.00  0.00     0.000 C 
BRANCH  20  21
ATOM     21  C   UNL     1      15.886  23.928  -7.378  1.00  0.00     0.000 C 
BRANCH  21  22
ATOM     22  C   UNL     1      16.487  25.253  -6.875  1.00  0.00     0.000 C 
BRANCH  22  23
ATOM     23  C   UNL     1      15.980  25.722  -5.499  1.00  0.00     0.000 C 
BRANCH  23  24
ATOM     24  C   UNL     1      16.641  25.037  -4.284  1.00  0.00    -0.000 C 
BRANCH  24  25
ATOM     25  C   UNL     1      16.165  23.600  -4.008  1.00  0.00    -0.000 C 
BRANCH  25  26
ATOM     26  C   UNL     1      15.973  23.311  -2.508  1.00  0.00    -0.000 C 
BRANCH  26  27
ATOM     27  C   UNL     1      15.538  24.554  -1.715  1.00  0.00    -0.000 C 
BRANCH  27  28
ATOM     28  C   UNL     1      14.198  24.366  -0.985  1.00  0.00    -0.000 C 
BRANCH  28  29
ATOM     29  C   UNL     1      14.002  25.452   0.082  1.00  0.00    -0.000 C 
BRANCH  29  30
ATOM     30  C   UNL     1      12.933  25.077   1.123  1.00  0.00    -0.000 C 
BRANCH  30  31
ATOM     31  C   UNL     1      13.111  23.650   1.660  1.00  0.00    -0.003 C 
ATOM     32  C   UNL     1      11.785  22.890   1.662  1.00  0.00     0.004 C 
ENDBRANCH  30  31
ENDBRANCH  29  30
ENDBRANCH  28  29
ENDBRANCH  27  28
ENDBRANCH  26  27
ENDBRANCH  25  26
ENDBRANCH  24  25
ENDBRANCH  23  24
ENDBRANCH  22  23
ENDBRANCH  21  22
ENDBRANCH  20  21
ENDBRANCH  19  20
ENDBRANCH  18  19
ENDBRANCH   1  18
TORSDOF 28
ENDMDL
MODEL 8
REMARK VINA RESULT:    -5.179      4.722     11.857
REMARK INTER + INTRA:         -16.978
REMARK INTER:                 -14.212
REMARK INTRA:                  -2.766
REMARK UNBOUND:                -3.322
REMARK SMILES CCCCCCCCCCCCCCCCCCCCCCCCCCCCCC(=O)[O-]
REMARK SMILES IDX 16 1 17 2 18 3 19 4 20 5 21 6 22 7 23 8 24 9 25 10 26 11
REMARK SMILES IDX 27 12 28 13 29 14 30 15 31 16 32 17 15 18 14 19 13 20 12 21
REMARK SMILES IDX 11 22 10 23 9 24 8 25 7 26 6 27 5 28 4 29 3 30 2 31 1 32
REMARK H PARENT
REMARK Flexibility Score: inf
ROOT
ATOM      1  C   UNL     1      12.432  21.621  -7.548  1.00  0.00     0.000 C 
ENDROOT
BRANCH   1   2
ATOM      2  C   UNL     1      11.006  21.053  -7.707  1.00  0.00     0.000 C 
BRANCH   2   3
ATOM      3  C   UNL     1      10.061  21.417  -6.540  1.00  0.00     0.000 C 
BRANCH   3   4
ATOM      4  C   UNL     1       8.961  22.431  -6.919  1.00  0.00     0.000 C 
BRANCH   4   5
ATOM      5  C   UNL     1       8.831  22.616  -8.442  1.00  0.00     0.000 C 
BRANCH   5   6
ATOM      6  C   UNL     1       7.777  23.678  -8.814  1.00  0.00     0.000 C 
BRANCH   6   7
ATOM      7  C   UNL     1       6.503  23.631  -7.944  1.00  0.00     0.000 C 
BRANCH   7   8
ATOM      8  C   UNL     1       5.235  23.166  -8.685  1.00  0.00     0.000 C 
BRANCH   8   9
ATOM      9  C   UNL     1       5.551  22.438 -10.004  1.00  0.00     0.000 C 
BRANCH   9  10
ATOM     10  C   UNL     1       5.455  23.363 -11.232  1.00  0.00     0.000 C 
BRANCH  10  11
ATOM     11  C   UNL     1       4.598  24.625 -11.018  1.00  0.00     0.000 C 
BRANCH  11  12
ATOM     12  C   UNL     1       3.879  25.080 -12.299  1.00  0.00     0.000 C 
BRANCH  12  13
ATOM     13  C   UNL     1       3.819  26.612 -12.430  1.00  0.00     0.006 C 
BRANCH  13  14
ATOM     14  C   UNL     1       4.875  27.322 -11.574  1.00  0.00     0.053 C 
BRANCH  14  15
ATOM     15  C   UNL     1       4.706  28.806 -11.665  1.00  0.00     0.041 C 
ATOM     16  O   UNL     1       5.709  29.546 -11.850  1.00  0.00    -0.550 OA
ATOM     17  O   UNL     1       3.449  29.375 -11.499  1.00  0.00    -0.550 OA
ENDBRANCH  14  15
ENDBRANCH  13  14
ENDBRANCH  12  13
ENDBRANCH  11  12
ENDBRANCH  10  11
ENDBRANCH   9  10
ENDBRANCH   8   9
ENDBRANCH   7   8
ENDBRANCH   6   7
ENDBRANCH   5   6
ENDBRANCH   4   5
ENDBRANCH   3   4
ENDBRANCH   2   3
ENDBRANCH   1   2
BRANCH   1  18
ATOM     18  C   UNL     1      12.535  23.121  -7.879  1.00  0.00     0.000 C 
BRANCH  18  19
ATOM     19  C   UNL     1      13.727  23.791  -7.178  1.00  0.00     0.000 C 
BRANCH  19  20
ATOM     20  C   UNL     1      14.961  22.878  -7.204  1.00  0.00     0.000 C 
BRANCH  20  21
ATOM     21  C   UNL     1      16.125  23.419  -6.349  1.00  0.00     0.000 C 
BRANCH  21  22
ATOM     22  C   UNL     1      16.996  24.461  -7.074  1.00  0.00     0.000 C 
BRANCH  22  23
ATOM     23  C   UNL     1      16.637  25.931  -6.784  1.00  0.00     0.000 C 
BRANCH  23  24
ATOM     24  C   UNL     1      17.683  26.716  -5.965  1.00  0.00    -0.000 C 
BRANCH  24  25
ATOM     25  C   UNL     1      17.543  26.586  -4.437  1.00  0.00    -0.000 C 
BRANCH  25  26
ATOM     26  C   UNL     1      16.075  26.562  -3.971  1.00  0.00    -0.000 C 
BRANCH  26  27
ATOM     27  C   UNL     1      15.895  25.863  -2.615  1.00  0.00    -0.000 C 
BRANCH  27  28
ATOM     28  C   UNL     1      16.628  24.514  -2.530  1.00  0.00    -0.000 C 
BRANCH  28  29
ATOM     29  C   UNL     1      15.660  23.392  -2.127  1.00  0.00    -0.000 C 
BRANCH  29  30
ATOM     30  C   UNL     1      14.307  23.925  -1.624  1.00  0.00    -0.000 C 
BRANCH  30  31
ATOM     31  C   UNL     1      13.123  23.378  -2.433  1.00  0.00    -0.003 C 
ATOM     32  C   UNL     1      13.590  22.766  -3.753  1.00  0.00     0.004 C 
ENDBRANCH  30  31
ENDBRANCH  29  30
ENDBRANCH  28  29
ENDBRANCH  27  28
ENDBRANCH  26  27
ENDBRANCH  25  26
ENDBRANCH  24  25
ENDBRANCH  23  24
ENDBRANCH  22  23
ENDBRANCH  21  22
ENDBRANCH  20  21
ENDBRANCH  19  20
ENDBRANCH  18  19
ENDBRANCH   1  18
TORSDOF 28
ENDMDL
MODEL 9
REMARK VINA RESULT:    -5.100      1.404      3.389
REMARK INTER + INTRA:         -16.770
REMARK INTER:                 -14.304
REMARK INTRA:                  -2.466
REMARK UNBOUND:                -3.322
REMARK SMILES CCCCCCCCCCCCCCCCCCCCCCCCCCCCCC(=O)[O-]
REMARK SMILES IDX 16 1 17 2 18 3 19 4 20 5 21 6 22 7 23 8 24 9 25 10 26 11
REMARK SMILES IDX 27 12 28 13 29 14 30 15 31 16 32 17 15 18 14 19 13 20 12 21
REMARK SMILES IDX 11 22 10 23 9 24 8 25 7 26 6 27 5 28 4 29 3 30 2 31 1 32
REMARK H PARENT
REMARK Flexibility Score: inf
ROOT
ATOM      1  C   UNL     1       7.977  23.856  -8.317  1.00  0.00     0.000 C 
ENDROOT
BRANCH   1   2
ATOM      2  C   UNL     1       8.613  22.864  -9.312  1.00  0.00     0.000 C 
BRANCH   2   3
ATOM      3  C   UNL     1       9.814  22.086  -8.729  1.00  0.00     0.000 C 
BRANCH   3   4
ATOM      4  C   UNL     1       9.665  21.737  -7.233  1.00  0.00     0.000 C 
BRANCH   4   5
ATOM      5  C   UNL     1      11.016  21.721  -6.494  1.00  0.00     0.000 C 
BRANCH   5   6
ATOM      6  C   UNL     1      12.137  22.394  -7.310  1.00  0.00     0.000 C 
BRANCH   6   7
ATOM      7  C   UNL     1      13.507  22.412  -6.600  1.00  0.00     0.000 C 
BRANCH   7   8
ATOM      8  C   UNL     1      14.534  23.387  -7.208  1.00  0.00     0.000 C 
BRANCH   8   9
ATOM      9  C   UNL     1      15.969  22.833  -7.182  1.00  0.00     0.000 C 
BRANCH   9  10
ATOM     10  C   UNL     1      16.951  23.758  -6.437  1.00  0.00     0.000 C 
BRANCH  10  11
ATOM     11  C   UNL     1      16.688  23.885  -4.925  1.00  0.00     0.000 C 
BRANCH  11  12
ATOM     12  C   UNL     1      15.820  25.106  -4.574  1.00  0.00     0.000 C 
BRANCH  12  13
ATOM     13  C   UNL     1      15.017  24.907  -3.276  1.00  0.00     0.006 C 
BRANCH  13  14
ATOM     14  C   UNL     1      14.857  23.428  -2.900  1.00  0.00     0.053 C 
BRANCH  14  15
ATOM     15  C   UNL     1      13.538  23.202  -2.232  1.00  0.00     0.041 C 
ATOM     16  O   UNL     1      13.412  23.410  -0.996  1.00  0.00    -0.550 OA
ATOM     17  O   UNL     1      12.460  22.717  -2.964  1.00  0.00    -0.550 OA
ENDBRANCH  14  15
ENDBRANCH  13  14
ENDBRANCH  12  13
ENDBRANCH  11  12
ENDBRANCH  10  11
ENDBRANCH   9  10
ENDBRANCH   8   9
ENDBRANCH   7   8
ENDBRANCH   6   7
ENDBRANCH   5   6
ENDBRANCH   4   5
ENDBRANCH   3   4
ENDBRANCH   2   3
ENDBRANCH   1   2
BRANCH   1  18
ATOM     18  C   UNL     1       6.460  23.658  -8.139  1.00  0.00     0.000 C 
BRANCH  18  19
ATOM     19  C   UNL     1       5.731  23.508  -9.483  1.00  0.00     0.000 C 
BRANCH  19  20
ATOM     20  C   UNL     1       4.678  22.392  -9.412  1.00  0.00     0.000 C 
BRANCH  20  21
ATOM     21  C   UNL     1       3.874  22.410  -8.097  1.00  0.00     0.000 C 
BRANCH  21  22
ATOM     22  C   UNL     1       2.349  22.359  -8.300  1.00  0.00     0.000 C 
BRANCH  22  23
ATOM     23  C   UNL     1       1.625  21.228  -7.546  1.00  0.00     0.000 C 
BRANCH  23  24
ATOM     24  C   UNL     1       1.372  19.945  -8.364  1.00  0.00    -0.000 C 
BRANCH  24  25
ATOM     25  C   UNL     1       0.737  18.785  -7.576  1.00  0.00    -0.000 C 
BRANCH  25  26
ATOM     26  C   UNL     1      -0.572  18.278  -8.210  1.00  0.00    -0.000 C 
BRANCH  26  27
ATOM     27  C   UNL     1      -0.686  18.634  -9.701  1.00  0.00    -0.000 C 
BRANCH  27  28
ATOM     28  C   UNL     1      -2.100  19.082 -10.107  1.00  0.00    -0.000 C 
BRANCH  28  29
ATOM     29  C   UNL     1      -2.114  20.573 -10.473  1.00  0.00    -0.000 C 
BRANCH  29  30
ATOM     30  C   UNL     1      -1.829  21.485  -9.267  1.00  0.00    -0.000 C 
BRANCH  30  31
ATOM     31  C   UNL     1      -1.095  22.773  -9.665  1.00  0.00    -0.003 C 
ATOM     32  C   UNL     1      -1.676  23.987  -8.943  1.00  0.00     0.004 C 
ENDBRANCH  30  31
ENDBRANCH  29  30
ENDBRANCH  28  29
ENDBRANCH  27  28
ENDBRANCH  26  27
ENDBRANCH  25  26
ENDBRANCH  24  25
ENDBRANCH  23  24
ENDBRANCH  22  23
ENDBRANCH  21  22
ENDBRANCH  20  21
ENDBRANCH  19  20
ENDBRANCH  18  19
ENDBRANCH   1  18
TORSDOF 28
ENDMDL
