MODEL 1
REMARK VINA RESULT:    -3.467      0.000      0.000
REMARK INTER + INTRA:         -11.026
REMARK INTER:                  -7.926
REMARK INTRA:                  -3.101
REMARK UNBOUND:                -3.101
REMARK SMILES CCCCCCCCCCCCCCCCCCCCCCCC(=O)[O-]
REMARK SMILES IDX 13 1 14 2 15 3 16 4 17 5 18 6 19 7 20 8 21 9 22 10 23 11
REMARK SMILES IDX 24 12 25 13 26 14 12 15 11 16 10 17 9 18 8 19 7 20 6 21 5 22
REMARK SMILES IDX 4 23 3 24 2 25 1 26
REMARK H PARENT
REMARK Flexibility Score: inf
ROOT
ATOM      1  C   UNL     1      10.350  -5.773  20.372  1.00  0.00     0.000 C 
ENDROOT
BRANCH   1   2
ATOM      2  C   UNL     1       9.820  -6.522  19.137  1.00  0.00     0.000 C 
BRANCH   2   3
ATOM      3  C   UNL     1       9.941  -5.719  17.822  1.00  0.00     0.000 C 
BRANCH   3   4
ATOM      4  C   UNL     1       8.573  -5.470  17.165  1.00  0.00     0.000 C 
BRANCH   4   5
ATOM      5  C   UNL     1       8.384  -4.013  16.701  1.00  0.00     0.000 C 
BRANCH   5   6
ATOM      6  C   UNL     1       8.175  -2.986  17.831  1.00  0.00     0.000 C 
BRANCH   6   7
ATOM      7  C   UNL     1       7.058  -3.329  18.834  1.00  0.00     0.000 C 
BRANCH   7   8
ATOM      8  C   UNL     1       5.977  -2.234  18.968  1.00  0.00     0.000 C 
BRANCH   8   9
ATOM      9  C   UNL     1       6.453  -0.863  18.452  1.00  0.00     0.000 C 
BRANCH   9  10
ATOM     10  C   UNL     1       5.299   0.013  17.932  1.00  0.00     0.006 C 
BRANCH  10  11
ATOM     11  C   UNL     1       5.360   0.315  16.426  1.00  0.00     0.053 C 
BRANCH  11  12
ATOM     12  C   UNL     1       5.783  -0.880  15.627  1.00  0.00     0.041 C 
ATOM     13  O   UNL     1       4.975  -1.825  15.425  1.00  0.00    -0.550 OA
ATOM     14  O   UNL     1       7.058  -0.936  15.078  1.00  0.00    -0.550 OA
ENDBRANCH  11  12
ENDBRANCH  10  11
ENDBRANCH   9  10
ENDBRANCH   8   9
ENDBRANCH   7   8
ENDBRANCH   6   7
ENDBRANCH   5   6
ENDBRANCH   4   5
ENDBRANCH   3   4
ENDBRANCH   2   3
ENDBRANCH   1   2
BRANCH   1  15
ATOM     15  C   UNL     1      11.000  -4.426  20.017  1.00  0.00     0.000 C 
BRANCH  15  16
ATOM     16  C   UNL     1      10.549  -3.285  20.944  1.00  0.00     0.000 C 
BRANCH  16  17
ATOM     17  C   UNL     1      10.553  -1.916  20.248  1.00  0.00     0.000 C 
BRANCH  17  18
ATOM     18  C   UNL     1       9.453  -1.008  20.813  1.00  0.00    -0.000 C 
BRANCH  18  19
ATOM     19  C   UNL     1       8.644  -1.732  21.897  1.00  0.00    -0.000 C 
BRANCH  19  20
ATOM     20  C   UNL     1       8.479  -0.851  23.141  1.00  0.00    -0.000 C 
BRANCH  20  21
ATOM     21  C   UNL     1       9.646  -1.055  24.119  1.00  0.00    -0.000 C 
BRANCH  21  22
ATOM     22  C   UNL     1       9.272  -0.722  25.575  1.00  0.00    -0.000 C 
BRANCH  22  23
ATOM     23  C   UNL     1       7.899  -1.256  26.028  1.00  0.00    -0.000 C 
BRANCH  23  24
ATOM     24  C   UNL     1       8.010  -2.418  27.031  1.00  0.00    -0.000 C 
BRANCH  24  25
ATOM     25  C   UNL     1       7.129  -3.615  26.645  1.00  0.00    -0.003 C 
ATOM     26  C   UNL     1       5.741  -3.194  26.163  1.00  0.00     0.004 C 
ENDBRANCH  24  25
ENDBRANCH  23  24
ENDBRANCH  22  23
ENDBRANCH  21  22
ENDBRANCH  20  21
ENDBRANCH  19  20
ENDBRANCH  18  19
ENDBRANCH  17  18
ENDBRANCH  16  17
ENDBRANCH  15  16
ENDBRANCH   1  15
TORSDOF 22
ENDMDL
MODEL 2
REMARK VINA RESULT:    -3.297      2.117      5.565
REMARK INTER + INTRA:         -10.639
REMARK INTER:                  -7.073
REMARK INTRA:                  -3.566
REMARK UNBOUND:                -3.101
REMARK SMILES CCCCCCCCCCCCCCCCCCCCCCCC(=O)[O-]
REMARK SMILES IDX 13 1 14 2 15 3 16 4 17 5 18 6 19 7 20 8 21 9 22 10 23 11
REMARK SMILES IDX 24 12 25 13 26 14 12 15 11 16 10 17 9 18 8 19 7 20 6 21 5 22
REMARK SMILES IDX 4 23 3 24 2 25 1 26
REMARK H PARENT
REMARK Flexibility Score: inf
ROOT
ATOM      1  C   UNL     1       7.938  -0.416  24.940  1.00  0.00     0.000 C 
ENDROOT
BRANCH   1   2
ATOM      2  C   UNL     1       8.524  -1.289  23.818  1.00  0.00     0.000 C 
BRANCH   2   3
ATOM      3  C   UNL     1       9.936  -1.837  24.126  1.00  0.00     0.000 C 
BRANCH   3   4
ATOM      4  C   UNL     1      10.807  -1.943  22.862  1.00  0.00     0.000 C 
BRANCH   4   5
ATOM      5  C   UNL     1      10.508  -0.840  21.830  1.00  0.00     0.000 C 
BRANCH   5   6
ATOM      6  C   UNL     1      10.095  -1.342  20.433  1.00  0.00     0.000 C 
BRANCH   6   7
ATOM      7  C   UNL     1       9.484  -2.755  20.395  1.00  0.00     0.000 C 
BRANCH   7   8
ATOM      8  C   UNL     1       7.963  -2.789  20.659  1.00  0.00     0.000 C 
BRANCH   8   9
ATOM      9  C   UNL     1       7.176  -1.860  19.715  1.00  0.00     0.000 C 
BRANCH   9  10
ATOM     10  C   UNL     1       6.653  -2.586  18.462  1.00  0.00     0.006 C 
BRANCH  10  11
ATOM     11  C   UNL     1       7.438  -2.279  17.177  1.00  0.00     0.053 C 
BRANCH  11  12
ATOM     12  C   UNL     1       8.094  -3.501  16.610  1.00  0.00     0.041 C 
ATOM     13  O   UNL     1       8.183  -4.550  17.300  1.00  0.00    -0.550 OA
ATOM     14  O   UNL     1       8.580  -3.490  15.308  1.00  0.00    -0.550 OA
ENDBRANCH  11  12
ENDBRANCH  10  11
ENDBRANCH   9  10
ENDBRANCH   8   9
ENDBRANCH   7   8
ENDBRANCH   6   7
ENDBRANCH   5   6
ENDBRANCH   4   5
ENDBRANCH   3   4
ENDBRANCH   2   3
ENDBRANCH   1   2
BRANCH   1  15
ATOM     15  C   UNL     1       8.766  -0.478  26.235  1.00  0.00     0.000 C 
BRANCH  15  16
ATOM     16  C   UNL     1       8.474   0.695  27.185  1.00  0.00     0.000 C 
BRANCH  16  17
ATOM     17  C   UNL     1       8.027   0.233  28.580  1.00  0.00     0.000 C 
BRANCH  17  18
ATOM     18  C   UNL     1       6.505   0.048  28.637  1.00  0.00    -0.000 C 
BRANCH  18  19
ATOM     19  C   UNL     1       6.129  -1.148  29.520  1.00  0.00    -0.000 C 
BRANCH  19  20
ATOM     20  C   UNL     1       7.381  -1.855  30.054  1.00  0.00    -0.000 C 
BRANCH  20  21
ATOM     21  C   UNL     1       7.462  -3.298  29.533  1.00  0.00    -0.000 C 
BRANCH  21  22
ATOM     22  C   UNL     1       8.501  -3.470  28.408  1.00  0.00    -0.000 C 
BRANCH  22  23
ATOM     23  C   UNL     1       7.912  -3.854  27.037  1.00  0.00    -0.000 C 
BRANCH  23  24
ATOM     24  C   UNL     1       6.373  -3.872  27.032  1.00  0.00    -0.000 C 
BRANCH  24  25
ATOM     25  C   UNL     1       5.779  -3.104  25.842  1.00  0.00    -0.003 C 
ATOM     26  C   UNL     1       4.604  -2.212  26.245  1.00  0.00     0.004 C 
ENDBRANCH  24  25
ENDBRANCH  23  24
ENDBRANCH  22  23
ENDBRANCH  21  22
ENDBRANCH  20  21
ENDBRANCH  19  20
ENDBRANCH  18  19
ENDBRANCH  17  18
ENDBRANCH  16  17
ENDBRANCH  15  16
ENDBRANCH   1  15
TORSDOF 22
ENDMDL
MODEL 3
REMARK VINA RESULT:    -3.288      1.820      3.416
REMARK INTER + INTRA:         -10.618
REMARK INTER:                  -7.538
REMARK INTRA:                  -3.080
REMARK UNBOUND:                -3.101
REMARK SMILES CCCCCCCCCCCCCCCCCCCCCCCC(=O)[O-]
REMARK SMILES IDX 13 1 14 2 15 3 16 4 17 5 18 6 19 7 20 8 21 9 22 10 23 11
REMARK SMILES IDX 24 12 25 13 26 14 12 15 11 16 10 17 9 18 8 19 7 20 6 21 5 22
REMARK SMILES IDX 4 23 3 24 2 25 1 26
REMARK H PARENT
REMARK Flexibility Score: inf
ROOT
ATOM      1  C   UNL     1      10.353  -2.143  21.402  1.00  0.00     0.000 C 
ENDROOT
BRANCH   1   2
ATOM      2  C   UNL     1      10.007  -3.418  20.614  1.00  0.00     0.000 C 
BRANCH   2   3
ATOM      3  C   UNL     1      11.099  -4.509  20.682  1.00  0.00     0.000 C 
BRANCH   3   4
ATOM      4  C   UNL     1      10.530  -5.918  20.445  1.00  0.00     0.000 C 
BRANCH   4   5
ATOM      5  C   UNL     1      10.306  -6.234  18.954  1.00  0.00     0.000 C 
BRANCH   5   6
ATOM      6  C   UNL     1       8.867  -6.634  18.577  1.00  0.00     0.000 C 
BRANCH   6   7
ATOM      7  C   UNL     1       8.100  -5.608  17.720  1.00  0.00     0.000 C 
BRANCH   7   8
ATOM      8  C   UNL     1       8.988  -4.842  16.715  1.00  0.00     0.000 C 
BRANCH   8   9
ATOM      9  C   UNL     1       9.047  -3.332  17.006  1.00  0.00     0.000 C 
BRANCH   9  10
ATOM     10  C   UNL     1       7.709  -2.619  16.737  1.00  0.00     0.006 C 
BRANCH  10  11
ATOM     11  C   UNL     1       7.402  -1.461  17.700  1.00  0.00     0.053 C 
BRANCH  11  12
ATOM     12  C   UNL     1       6.866  -1.945  19.012  1.00  0.00     0.041 C 
ATOM     13  O   UNL     1       7.145  -1.331  20.076  1.00  0.00    -0.550 OA
ATOM     14  O   UNL     1       6.031  -3.055  19.058  1.00  0.00    -0.550 OA
ENDBRANCH  11  12
ENDBRANCH  10  11
ENDBRANCH   9  10
ENDBRANCH   8   9
ENDBRANCH   7   8
ENDBRANCH   6   7
ENDBRANCH   5   6
ENDBRANCH   4   5
ENDBRANCH   3   4
ENDBRANCH   2   3
ENDBRANCH   1   2
BRANCH   1  15
ATOM     15  C   UNL     1      10.990  -2.444  22.769  1.00  0.00     0.000 C 
BRANCH  15  16
ATOM     16  C   UNL     1      10.299  -1.701  23.924  1.00  0.00     0.000 C 
BRANCH  16  17
ATOM     17  C   UNL     1       8.868  -1.263  23.577  1.00  0.00     0.000 C 
BRANCH  17  18
ATOM     18  C   UNL     1       8.612   0.182  24.021  1.00  0.00    -0.000 C 
BRANCH  18  19
ATOM     19  C   UNL     1       7.182   0.352  24.549  1.00  0.00    -0.000 C 
BRANCH  19  20
ATOM     20  C   UNL     1       7.173   0.507  26.075  1.00  0.00    -0.000 C 
BRANCH  20  21
ATOM     21  C   UNL     1       8.590   0.354  26.651  1.00  0.00    -0.000 C 
BRANCH  21  22
ATOM     22  C   UNL     1       8.788  -0.974  27.406  1.00  0.00    -0.000 C 
BRANCH  22  23
ATOM     23  C   UNL     1       7.498  -1.785  27.636  1.00  0.00    -0.000 C 
BRANCH  23  24
ATOM     24  C   UNL     1       7.441  -3.069  26.790  1.00  0.00    -0.000 C 
BRANCH  24  25
ATOM     25  C   UNL     1       6.241  -3.090  25.831  1.00  0.00    -0.003 C 
ATOM     26  C   UNL     1       4.989  -2.459  26.441  1.00  0.00     0.004 C 
ENDBRANCH  24  25
ENDBRANCH  23  24
ENDBRANCH  22  23
ENDBRANCH  21  22
ENDBRANCH  20  21
ENDBRANCH  19  20
ENDBRANCH  18  19
ENDBRANCH  17  18
ENDBRANCH  16  17
ENDBRANCH  15  16
ENDBRANCH   1  15
TORSDOF 22
ENDMDL
MODEL 4
REMARK VINA RESULT:    -3.269      7.060      9.472
REMARK INTER + INTRA:         -10.575
REMARK INTER:                  -7.669
REMARK INTRA:                  -2.906
REMARK UNBOUND:                -3.101
REMARK SMILES CCCCCCCCCCCCCCCCCCCCCCCC(=O)[O-]
REMARK SMILES IDX 13 1 14 2 15 3 16 4 17 5 18 6 19 7 20 8 21 9 22 10 23 11
REMARK SMILES IDX 24 12 25 13 26 14 12 15 11 16 10 17 9 18 8 19 7 20 6 21 5 22
REMARK SMILES IDX 4 23 3 24 2 25 1 26
REMARK H PARENT
REMARK Flexibility Score: inf
ROOT
ATOM      1  C   UNL     1       2.630   2.856  18.974  1.00  0.00     0.000 C 
ENDROOT
BRANCH   1   2
ATOM      2  C   UNL     1       2.099   4.293  18.837  1.00  0.00     0.000 C 
BRANCH   2   3
ATOM      3  C   UNL     1       0.661   4.376  18.276  1.00  0.00     0.000 C 
BRANCH   3   4
ATOM      4  C   UNL     1       0.362   5.743  17.639  1.00  0.00     0.000 C 
BRANCH   4   5
ATOM      5  C   UNL     1       1.219   6.026  16.390  1.00  0.00     0.000 C 
BRANCH   5   6
ATOM      6  C   UNL     1       0.718   5.369  15.089  1.00  0.00     0.000 C 
BRANCH   6   7
ATOM      7  C   UNL     1       1.769   4.550  14.317  1.00  0.00     0.000 C 
BRANCH   7   8
ATOM      8  C   UNL     1       2.065   3.166  14.936  1.00  0.00     0.000 C 
BRANCH   8   9
ATOM      9  C   UNL     1       3.519   3.033  15.426  1.00  0.00     0.000 C 
BRANCH   9  10
ATOM     10  C   UNL     1       3.992   1.570  15.502  1.00  0.00     0.006 C 
BRANCH  10  11
ATOM     11  C   UNL     1       4.455   0.983  14.159  1.00  0.00     0.053 C 
BRANCH  11  12
ATOM     12  C   UNL     1       3.648  -0.214  13.758  1.00  0.00     0.041 C 
ATOM     13  O   UNL     1       2.441  -0.081  13.424  1.00  0.00    -0.550 OA
ATOM     14  O   UNL     1       4.238  -1.472  13.722  1.00  0.00    -0.550 OA
ENDBRANCH  11  12
ENDBRANCH  10  11
ENDBRANCH   9  10
ENDBRANCH   8   9
ENDBRANCH   7   8
ENDBRANCH   6   7
ENDBRANCH   5   6
ENDBRANCH   4   5
ENDBRANCH   3   4
ENDBRANCH   2   3
ENDBRANCH   1   2
BRANCH   1  15
ATOM     15  C   UNL     1       1.629   1.802  18.473  1.00  0.00     0.000 C 
BRANCH  15  16
ATOM     16  C   UNL     1       1.432   0.647  19.468  1.00  0.00     0.000 C 
BRANCH  16  17
ATOM     17  C   UNL     1       0.947   1.125  20.845  1.00  0.00     0.000 C 
BRANCH  17  18
ATOM     18  C   UNL     1       0.493  -0.058  21.710  1.00  0.00    -0.000 C 
BRANCH  18  19
ATOM     19  C   UNL     1      -0.239  -1.108  20.865  1.00  0.00    -0.000 C 
BRANCH  19  20
ATOM     20  C   UNL     1      -1.757  -1.020  21.072  1.00  0.00    -0.000 C 
BRANCH  20  21
ATOM     21  C   UNL     1      -2.105  -0.956  22.567  1.00  0.00    -0.000 C 
BRANCH  21  22
ATOM     22  C   UNL     1      -2.141  -2.344  23.233  1.00  0.00    -0.000 C 
BRANCH  22  23
ATOM     23  C   UNL     1      -1.002  -2.610  24.236  1.00  0.00    -0.000 C 
BRANCH  23  24
ATOM     24  C   UNL     1       0.034  -3.619  23.710  1.00  0.00    -0.000 C 
BRANCH  24  25
ATOM     25  C   UNL     1       1.430  -3.395  24.309  1.00  0.00    -0.003 C 
ATOM     26  C   UNL     1       1.638  -1.963  24.802  1.00  0.00     0.004 C 
ENDBRANCH  24  25
ENDBRANCH  23  24
ENDBRANCH  22  23
ENDBRANCH  21  22
ENDBRANCH  20  21
ENDBRANCH  19  20
ENDBRANCH  18  19
ENDBRANCH  17  18
ENDBRANCH  16  17
ENDBRANCH  15  16
ENDBRANCH   1  15
TORSDOF 22
ENDMDL
MODEL 5
REMARK VINA RESULT:    -3.223      8.829     11.125
REMARK INTER + INTRA:         -10.468
REMARK INTER:                  -6.026
REMARK INTRA:                  -4.442
REMARK UNBOUND:                -3.101
REMARK SMILES CCCCCCCCCCCCCCCCCCCCCCCC(=O)[O-]
REMARK SMILES IDX 13 1 14 2 15 3 16 4 17 5 18 6 19 7 20 8 21 9 22 10 23 11
REMARK SMILES IDX 24 12 25 13 26 14 12 15 11 16 10 17 9 18 8 19 7 20 6 21 5 22
REMARK SMILES IDX 4 23 3 24 2 25 1 26
REMARK H PARENT
REMARK Flexibility Score: inf
ROOT
ATOM      1  C   UNL     1       0.818  -3.825  24.107  1.00  0.00     0.000 C 
ENDROOT
BRANCH   1   2
ATOM      2  C   UNL     1       0.151  -5.011  24.824  1.00  0.00     0.000 C 
BRANCH   2   3
ATOM      3  C   UNL     1      -0.799  -4.594  25.969  1.00  0.00     0.000 C 
BRANCH   3   4
ATOM      4  C   UNL     1      -2.270  -4.565  25.523  1.00  0.00     0.000 C 
BRANCH   4   5
ATOM      5  C   UNL     1      -2.830  -3.136  25.385  1.00  0.00     0.000 C 
BRANCH   5   6
ATOM      6  C   UNL     1      -3.351  -2.768  23.982  1.00  0.00     0.000 C 
BRANCH   6   7
ATOM      7  C   UNL     1      -3.662  -1.275  23.766  1.00  0.00     0.000 C 
BRANCH   7   8
ATOM      8  C   UNL     1      -3.979  -0.906  22.299  1.00  0.00     0.000 C 
BRANCH   8   9
ATOM      9  C   UNL     1      -3.909  -2.119  21.354  1.00  0.00     0.000 C 
BRANCH   9  10
ATOM     10  C   UNL     1      -5.300  -2.646  20.957  1.00  0.00     0.006 C 
BRANCH  10  11
ATOM     11  C   UNL     1      -5.391  -3.175  19.517  1.00  0.00     0.053 C 
BRANCH  11  12
ATOM     12  C   UNL     1      -5.496  -4.669  19.469  1.00  0.00     0.041 C 
ATOM     13  O   UNL     1      -5.338  -5.280  18.379  1.00  0.00    -0.550 OA
ATOM     14  O   UNL     1      -5.737  -5.388  20.633  1.00  0.00    -0.550 OA
ENDBRANCH  11  12
ENDBRANCH  10  11
ENDBRANCH   9  10
ENDBRANCH   8   9
ENDBRANCH   7   8
ENDBRANCH   6   7
ENDBRANCH   5   6
ENDBRANCH   4   5
ENDBRANCH   3   4
ENDBRANCH   2   3
ENDBRANCH   1   2
BRANCH   1  15
ATOM     15  C   UNL     1       0.172  -3.513  22.747  1.00  0.00     0.000 C 
BRANCH  15  16
ATOM     16  C   UNL     1      -0.162  -2.022  22.576  1.00  0.00     0.000 C 
BRANCH  16  17
ATOM     17  C   UNL     1      -0.331  -1.616  21.103  1.00  0.00     0.000 C 
BRANCH  17  18
ATOM     18  C   UNL     1      -0.568  -0.106  20.973  1.00  0.00    -0.000 C 
BRANCH  18  19
ATOM     19  C   UNL     1       0.655   0.687  21.448  1.00  0.00    -0.000 C 
BRANCH  19  20
ATOM     20  C   UNL     1       0.250   1.782  22.443  1.00  0.00    -0.000 C 
BRANCH  20  21
ATOM     21  C   UNL     1      -1.268   1.771  22.683  1.00  0.00    -0.000 C 
BRANCH  21  22
ATOM     22  C   UNL     1      -1.637   1.681  24.176  1.00  0.00    -0.000 C 
BRANCH  22  23
ATOM     23  C   UNL     1      -0.478   1.269  25.104  1.00  0.00    -0.000 C 
BRANCH  23  24
ATOM     24  C   UNL     1      -0.683  -0.119  25.736  1.00  0.00    -0.000 C 
BRANCH  24  25
ATOM     25  C   UNL     1       0.644  -0.839  26.019  1.00  0.00    -0.003 C 
ATOM     26  C   UNL     1       1.789  -0.329  25.144  1.00  0.00     0.004 C 
ENDBRANCH  24  25
ENDBRANCH  23  24
ENDBRANCH  22  23
ENDBRANCH  21  22
ENDBRANCH  20  21
ENDBRANCH  19  20
ENDBRANCH  18  19
ENDBRANCH  17  18
ENDBRANCH  16  17
ENDBRANCH  15  16
ENDBRANCH   1  15
TORSDOF 22
ENDMDL
MODEL 6
REMARK VINA RESULT:    -3.213      3.097      5.685
REMARK INTER + INTRA:         -10.445
REMARK INTER:                  -6.504
REMARK INTRA:                  -3.941
REMARK UNBOUND:                -3.101
REMARK SMILES CCCCCCCCCCCCCCCCCCCCCCCC(=O)[O-]
REMARK SMILES IDX 13 1 14 2 15 3 16 4 17 5 18 6 19 7 20 8 21 9 22 10 23 11
REMARK SMILES IDX 24 12 25 13 26 14 12 15 11 16 10 17 9 18 8 19 7 20 6 21 5 22
REMARK SMILES IDX 4 23 3 24 2 25 1 26
REMARK H PARENT
REMARK Flexibility Score: inf
ROOT
ATOM      1  C   UNL     1       7.111  -1.114  15.926  1.00  0.00     0.000 C 
ENDROOT
BRANCH   1   2
ATOM      2  C   UNL     1       8.482  -0.737  16.513  1.00  0.00     0.000 C 
BRANCH   2   3
ATOM      3  C   UNL     1       8.896   0.726  16.240  1.00  0.00     0.000 C 
BRANCH   3   4
ATOM      4  C   UNL     1       8.732   1.619  17.481  1.00  0.00     0.000 C 
BRANCH   4   5
ATOM      5  C   UNL     1       8.540   0.814  18.780  1.00  0.00     0.000 C 
BRANCH   5   6
ATOM      6  C   UNL     1       7.206   1.058  19.512  1.00  0.00     0.000 C 
BRANCH   6   7
ATOM      7  C   UNL     1       6.070   1.628  18.641  1.00  0.00     0.000 C 
BRANCH   7   8
ATOM      8  C   UNL     1       4.663   1.131  19.041  1.00  0.00     0.000 C 
BRANCH   8   9
ATOM      9  C   UNL     1       3.685   1.102  17.852  1.00  0.00     0.000 C 
BRANCH   9  10
ATOM     10  C   UNL     1       4.401   1.074  16.490  1.00  0.00     0.006 C 
BRANCH  10  11
ATOM     11  C   UNL     1       3.599   1.702  15.339  1.00  0.00     0.053 C 
BRANCH  11  12
ATOM     12  C   UNL     1       3.393   0.745  14.205  1.00  0.00     0.041 C 
ATOM     13  O   UNL     1       2.682   1.075  13.219  1.00  0.00    -0.550 OA
ATOM     14  O   UNL     1       4.011  -0.499  14.222  1.00  0.00    -0.550 OA
ENDBRANCH  11  12
ENDBRANCH  10  11
ENDBRANCH   9  10
ENDBRANCH   8   9
ENDBRANCH   7   8
ENDBRANCH   6   7
ENDBRANCH   5   6
ENDBRANCH   4   5
ENDBRANCH   3   4
ENDBRANCH   2   3
ENDBRANCH   1   2
BRANCH   1  15
ATOM     15  C   UNL     1       6.282  -1.997  16.873  1.00  0.00     0.000 C 
BRANCH  15  16
ATOM     16  C   UNL     1       7.148  -2.748  17.898  1.00  0.00     0.000 C 
BRANCH  16  17
ATOM     17  C   UNL     1       6.572  -2.691  19.320  1.00  0.00     0.000 C 
BRANCH  17  18
ATOM     18  C   UNL     1       7.687  -2.514  20.359  1.00  0.00    -0.000 C 
BRANCH  18  19
ATOM     19  C   UNL     1       9.070  -2.590  19.700  1.00  0.00    -0.000 C 
BRANCH  19  20
ATOM     20  C   UNL     1      10.185  -2.431  20.741  1.00  0.00    -0.000 C 
BRANCH  20  21
ATOM     21  C   UNL     1      10.795  -3.793  21.105  1.00  0.00    -0.000 C 
BRANCH  21  22
ATOM     22  C   UNL     1      10.793  -4.783  19.926  1.00  0.00    -0.000 C 
BRANCH  22  23
ATOM     23  C   UNL     1       9.926  -6.039  20.137  1.00  0.00    -0.000 C 
BRANCH  23  24
ATOM     24  C   UNL     1       9.618  -6.781  18.825  1.00  0.00    -0.000 C 
BRANCH  24  25
ATOM     25  C   UNL     1       8.374  -6.228  18.114  1.00  0.00    -0.003 C 
ATOM     26  C   UNL     1       8.692  -5.643  16.738  1.00  0.00     0.004 C 
ENDBRANCH  24  25
ENDBRANCH  23  24
ENDBRANCH  22  23
ENDBRANCH  21  22
ENDBRANCH  20  21
ENDBRANCH  19  20
ENDBRANCH  18  19
ENDBRANCH  17  18
ENDBRANCH  16  17
ENDBRANCH  15  16
ENDBRANCH   1  15
TORSDOF 22
ENDMDL
MODEL 7
REMARK VINA RESULT:    -3.196      2.826      6.038
REMARK INTER + INTRA:         -10.408
REMARK INTER:                  -6.394
REMARK INTRA:                  -4.014
REMARK UNBOUND:                -3.101
REMARK SMILES CCCCCCCCCCCCCCCCCCCCCCCC(=O)[O-]
REMARK SMILES IDX 13 1 14 2 15 3 16 4 17 5 18 6 19 7 20 8 21 9 22 10 23 11
REMARK SMILES IDX 24 12 25 13 26 14 12 15 11 16 10 17 9 18 8 19 7 20 6 21 5 22
REMARK SMILES IDX 4 23 3 24 2 25 1 26
REMARK H PARENT
REMARK Flexibility Score: inf
ROOT
ATOM      1  C   UNL     1       9.299   0.180  20.148  1.00  0.00     0.000 C 
ENDROOT
BRANCH   1   2
ATOM      2  C   UNL     1       9.369  -0.136  18.645  1.00  0.00     0.000 C 
BRANCH   2   3
ATOM      3  C   UNL     1      10.518  -1.097  18.263  1.00  0.00     0.000 C 
BRANCH   3   4
ATOM      4  C   UNL     1      10.027  -2.284  17.417  1.00  0.00     0.000 C 
BRANCH   4   5
ATOM      5  C   UNL     1       8.635  -2.049  16.801  1.00  0.00     0.000 C 
BRANCH   5   6
ATOM      6  C   UNL     1       7.601  -3.158  17.077  1.00  0.00     0.000 C 
BRANCH   6   7
ATOM      7  C   UNL     1       7.274  -3.400  18.563  1.00  0.00     0.000 C 
BRANCH   7   8
ATOM      8  C   UNL     1       6.320  -2.350  19.175  1.00  0.00     0.000 C 
BRANCH   8   9
ATOM      9  C   UNL     1       5.277  -1.837  18.166  1.00  0.00     0.000 C 
BRANCH   9  10
ATOM     10  C   UNL     1       4.728  -0.445  18.530  1.00  0.00     0.006 C 
BRANCH  10  11
ATOM     11  C   UNL     1       5.806   0.581  18.912  1.00  0.00     0.053 C 
BRANCH  11  12
ATOM     12  C   UNL     1       6.110   1.526  17.790  1.00  0.00     0.041 C 
ATOM     13  O   UNL     1       6.479   1.082  16.671  1.00  0.00    -0.550 OA
ATOM     14  O   UNL     1       5.956   2.895  17.971  1.00  0.00    -0.550 OA
ENDBRANCH  11  12
ENDBRANCH  10  11
ENDBRANCH   9  10
ENDBRANCH   8   9
ENDBRANCH   7   8
ENDBRANCH   6   7
ENDBRANCH   5   6
ENDBRANCH   4   5
ENDBRANCH   3   4
ENDBRANCH   2   3
ENDBRANCH   1   2
BRANCH   1  15
ATOM     15  C   UNL     1       9.157  -1.082  21.015  1.00  0.00     0.000 C 
BRANCH  15  16
ATOM     16  C   UNL     1      10.372  -1.317  21.927  1.00  0.00     0.000 C 
BRANCH  16  17
ATOM     17  C   UNL     1      11.069  -2.659  21.655  1.00  0.00     0.000 C 
BRANCH  17  18
ATOM     18  C   UNL     1      10.177  -3.582  20.815  1.00  0.00    -0.000 C 
BRANCH  18  19
ATOM     19  C   UNL     1      10.942  -4.837  20.376  1.00  0.00    -0.000 C 
BRANCH  19  20
ATOM     20  C   UNL     1      10.006  -5.841  19.692  1.00  0.00    -0.000 C 
BRANCH  20  21
ATOM     21  C   UNL     1      10.601  -6.330  18.363  1.00  0.00    -0.000 C 
BRANCH  21  22
ATOM     22  C   UNL     1       9.560  -6.398  17.230  1.00  0.00    -0.000 C 
BRANCH  22  23
ATOM     23  C   UNL     1       8.153  -6.846  17.672  1.00  0.00    -0.000 C 
BRANCH  23  24
ATOM     24  C   UNL     1       7.701  -8.151  16.993  1.00  0.00    -0.000 C 
BRANCH  24  25
ATOM     25  C   UNL     1       8.732  -9.279  17.138  1.00  0.00    -0.003 C 
ATOM     26  C   UNL     1       9.224  -9.804  15.789  1.00  0.00     0.004 C 
ENDBRANCH  24  25
ENDBRANCH  23  24
ENDBRANCH  22  23
ENDBRANCH  21  22
ENDBRANCH  20  21
ENDBRANCH  19  20
ENDBRANCH  18  19
ENDBRANCH  17  18
ENDBRANCH  16  17
ENDBRANCH  15  16
ENDBRANCH   1  15
TORSDOF 22
ENDMDL
MODEL 8
REMARK VINA RESULT:    -3.191      3.399      6.867
REMARK INTER + INTRA:         -10.396
REMARK INTER:                  -6.127
REMARK INTRA:                  -4.269
REMARK UNBOUND:                -3.101
REMARK SMILES CCCCCCCCCCCCCCCCCCCCCCCC(=O)[O-]
REMARK SMILES IDX 13 1 14 2 15 3 16 4 17 5 18 6 19 7 20 8 21 9 22 10 23 11
REMARK SMILES IDX 24 12 25 13 26 14 12 15 11 16 10 17 9 18 8 19 7 20 6 21 5 22
REMARK SMILES IDX 4 23 3 24 2 25 1 26
REMARK H PARENT
REMARK Flexibility Score: inf
ROOT
ATOM      1  C   UNL     1       7.299   1.701  16.655  1.00  0.00     0.000 C 
ENDROOT
BRANCH   1   2
ATOM      2  C   UNL     1       6.730   2.725  17.652  1.00  0.00     0.000 C 
BRANCH   2   3
ATOM      3  C   UNL     1       5.191   2.685  17.777  1.00  0.00     0.000 C 
BRANCH   3   4
ATOM      4  C   UNL     1       4.731   2.419  19.220  1.00  0.00     0.000 C 
BRANCH   4   5
ATOM      5  C   UNL     1       3.223   2.658  19.425  1.00  0.00     0.000 C 
BRANCH   5   6
ATOM      6  C   UNL     1       2.307   1.512  18.952  1.00  0.00     0.000 C 
BRANCH   6   7
ATOM      7  C   UNL     1       1.335   1.873  17.814  1.00  0.00     0.000 C 
BRANCH   7   8
ATOM      8  C   UNL     1       1.582   3.267  17.196  1.00  0.00     0.000 C 
BRANCH   8   9
ATOM      9  C   UNL     1       1.633   3.234  15.657  1.00  0.00     0.000 C 
BRANCH   9  10
ATOM     10  C   UNL     1       1.873   1.820  15.098  1.00  0.00     0.006 C 
BRANCH  10  11
ATOM     11  C   UNL     1       3.349   1.484  14.834  1.00  0.00     0.053 C 
BRANCH  11  12
ATOM     12  C   UNL     1       3.507   0.364  13.852  1.00  0.00     0.041 C 
ATOM     13  O   UNL     1       4.654   0.023  13.459  1.00  0.00    -0.550 OA
ATOM     14  O   UNL     1       2.390  -0.325  13.395  1.00  0.00    -0.550 OA
ENDBRANCH  11  12
ENDBRANCH  10  11
ENDBRANCH   9  10
ENDBRANCH   8   9
ENDBRANCH   7   8
ENDBRANCH   6   7
ENDBRANCH   5   6
ENDBRANCH   4   5
ENDBRANCH   3   4
ENDBRANCH   2   3
ENDBRANCH   1   2
BRANCH   1  15
ATOM     15  C   UNL     1       8.668   1.149  17.088  1.00  0.00     0.000 C 
BRANCH  15  16
ATOM     16  C   UNL     1       9.189   0.049  16.148  1.00  0.00     0.000 C 
BRANCH  16  17
ATOM     17  C   UNL     1       9.205  -1.339  16.807  1.00  0.00     0.000 C 
BRANCH  17  18
ATOM     18  C   UNL     1       8.369  -2.340  16.002  1.00  0.00    -0.000 C 
BRANCH  18  19
ATOM     19  C   UNL     1       7.066  -2.686  16.735  1.00  0.00    -0.000 C 
BRANCH  19  20
ATOM     20  C   UNL     1       5.929  -1.749  16.308  1.00  0.00    -0.000 C 
BRANCH  20  21
ATOM     21  C   UNL     1       5.188  -1.192  17.534  1.00  0.00    -0.000 C 
BRANCH  21  22
ATOM     22  C   UNL     1       5.821  -1.633  18.867  1.00  0.00    -0.000 C 
BRANCH  22  23
ATOM     23  C   UNL     1       6.693  -0.563  19.553  1.00  0.00    -0.000 C 
BRANCH  23  24
ATOM     24  C   UNL     1       7.846  -1.168  20.372  1.00  0.00    -0.000 C 
BRANCH  24  25
ATOM     25  C   UNL     1       7.795  -2.702  20.417  1.00  0.00    -0.003 C 
ATOM     26  C   UNL     1       9.086  -3.349  19.914  1.00  0.00     0.004 C 
ENDBRANCH  24  25
ENDBRANCH  23  24
ENDBRANCH  22  23
ENDBRANCH  21  22
ENDBRANCH  20  21
ENDBRANCH  19  20
ENDBRANCH  18  19
ENDBRANCH  17  18
ENDBRANCH  16  17
ENDBRANCH  15  16
ENDBRANCH   1  15
TORSDOF 22
ENDMDL
MODEL 9
REMARK VINA RESULT:    -3.186      8.008     11.139
REMARK INTER + INTRA:         -10.385
REMARK INTER:                  -6.019
REMARK INTRA:                  -4.366
REMARK UNBOUND:                -3.101
REMARK SMILES CCCCCCCCCCCCCCCCCCCCCCCC(=O)[O-]
REMARK SMILES IDX 13 1 14 2 15 3 16 4 17 5 18 6 19 7 20 8 21 9 22 10 23 11
REMARK SMILES IDX 24 12 25 13 26 14 12 15 11 16 10 17 9 18 8 19 7 20 6 21 5 22
REMARK SMILES IDX 4 23 3 24 2 25 1 26
REMARK H PARENT
REMARK Flexibility Score: inf
ROOT
ATOM      1  C   UNL     1       1.564   5.971  17.942  1.00  0.00     0.000 C 
ENDROOT
BRANCH   1   2
ATOM      2  C   UNL     1       0.241   6.094  17.168  1.00  0.00     0.000 C 
BRANCH   2   3
ATOM      3  C   UNL     1       0.275   7.147  16.038  1.00  0.00     0.000 C 
BRANCH   3   4
ATOM      4  C   UNL     1      -0.148   6.558  14.681  1.00  0.00     0.000 C 
BRANCH   4   5
ATOM      5  C   UNL     1       0.706   7.075  13.508  1.00  0.00     0.000 C 
BRANCH   5   6
ATOM      6  C   UNL     1       0.628   6.233  12.219  1.00  0.00     0.000 C 
BRANCH   6   7
ATOM      7  C   UNL     1       1.952   5.579  11.779  1.00  0.00     0.000 C 
BRANCH   7   8
ATOM      8  C   UNL     1       1.818   4.089  11.397  1.00  0.00     0.000 C 
BRANCH   8   9
ATOM      9  C   UNL     1       3.101   3.521  10.762  1.00  0.00     0.000 C 
BRANCH   9  10
ATOM     10  C   UNL     1       3.437   2.104  11.260  1.00  0.00     0.006 C 
BRANCH  10  11
ATOM     11  C   UNL     1       2.274   1.385  11.962  1.00  0.00     0.053 C 
BRANCH  11  12
ATOM     12  C   UNL     1       2.751   0.353  12.936  1.00  0.00     0.041 C 
ATOM     13  O   UNL     1       3.818   0.535  13.580  1.00  0.00    -0.550 OA
ATOM     14  O   UNL     1       2.003  -0.798  13.155  1.00  0.00    -0.550 OA
ENDBRANCH  11  12
ENDBRANCH  10  11
ENDBRANCH   9  10
ENDBRANCH   8   9
ENDBRANCH   7   8
ENDBRANCH   6   7
ENDBRANCH   5   6
ENDBRANCH   4   5
ENDBRANCH   3   4
ENDBRANCH   2   3
ENDBRANCH   1   2
BRANCH   1  15
ATOM     15  C   UNL     1       2.751   6.602  17.195  1.00  0.00     0.000 C 
BRANCH  15  16
ATOM     16  C   UNL     1       3.699   5.553  16.591  1.00  0.00     0.000 C 
BRANCH  16  17
ATOM     17  C   UNL     1       3.416   5.281  15.105  1.00  0.00     0.000 C 
BRANCH  17  18
ATOM     18  C   UNL     1       3.196   3.785  14.852  1.00  0.00    -0.000 C 
BRANCH  18  19
ATOM     19  C   UNL     1       1.716   3.411  15.009  1.00  0.00    -0.000 C 
BRANCH  19  20
ATOM     20  C   UNL     1       1.504   2.504  16.228  1.00  0.00    -0.000 C 
BRANCH  20  21
ATOM     21  C   UNL     1       2.827   1.856  16.667  1.00  0.00    -0.000 C 
BRANCH  21  22
ATOM     22  C   UNL     1       2.919   1.659  18.191  1.00  0.00    -0.000 C 
BRANCH  22  23
ATOM     23  C   UNL     1       2.105   2.668  19.024  1.00  0.00    -0.000 C 
BRANCH  23  24
ATOM     24  C   UNL     1       1.050   1.993  19.918  1.00  0.00    -0.000 C 
BRANCH  24  25
ATOM     25  C   UNL     1       1.008   0.469  19.731  1.00  0.00    -0.003 C 
ATOM     26  C   UNL     1       0.198  -0.236  20.819  1.00  0.00     0.004 C 
ENDBRANCH  24  25
ENDBRANCH  23  24
ENDBRANCH  22  23
ENDBRANCH  21  22
ENDBRANCH  20  21
ENDBRANCH  19  20
ENDBRANCH  18  19
ENDBRANCH  17  18
ENDBRANCH  16  17
ENDBRANCH  15  16
ENDBRANCH   1  15
TORSDOF 22
ENDMDL
