MODEL 1
REMARK VINA RESULT:     0.000      0.000      0.000
REMARK INTER + INTRA:          -0.301
REMARK INTER:                   0.000
REMARK INTRA:                  -0.301
REMARK UNBOUND:                -0.301
REMARK SMILES O=c1c(O)c(-c2ccc(O)cc2)oc2cc(O)cc(O)c12
REMARK SMILES IDX 5 1 3 2 2 3 1 4 21 5 19 6 18 7 16 8 15 9 14 10 13 11 6 12
REMARK SMILES IDX 7 13 8 14 9 15 12 16 11 17 10 18 4 20 20 22 17 24
REMARK H PARENT 10 19 4 21 20 23 17 25
REMARK Flexibility Score: inf
ROOT
ATOM      1  C   UNL     1     128.860 125.762 154.394  1.00  0.00     0.180 A 
ATOM      2  C   UNL     1     130.017 126.138 155.099  1.00  0.00     0.208 A 
ATOM      3  C   UNL     1     131.216 125.447 154.858  1.00  0.00     0.238 A 
ATOM      4  O   UNL     1     132.235 125.751 155.530  1.00  0.00    -0.285 OA
ATOM      5  C   UNL     1     131.246 124.403 153.903  1.00  0.00     0.111 A 
ATOM      6  C   UNL     1     132.415 123.663 153.548  1.00  0.00     0.134 A 
ATOM      7  C   UNL     1     132.302 122.565 152.687  1.00  0.00     0.093 A 
ATOM      8  C   UNL     1     131.074 122.219 152.117  1.00  0.00     0.123 A 
ATOM      9  C   UNL     1     129.940 122.972 152.410  1.00  0.00     0.094 A 
ATOM     10  C   UNL     1     130.013 124.051 153.293  1.00  0.00     0.146 A 
ATOM     11  O   UNL     1     128.906 124.735 153.554  1.00  0.00    -0.452 OA
ENDROOT
BRANCH   1  12
ATOM     12  C   UNL     1     127.566 126.459 154.576  1.00  0.00     0.021 A 
ATOM     13  C   UNL     1     127.221 127.579 153.800  1.00  0.00     0.016 A 
ATOM     14  C   UNL     1     125.983 128.207 153.973  1.00  0.00     0.047 A 
ATOM     15  C   UNL     1     125.070 127.714 154.915  1.00  0.00     0.115 A 
ATOM     16  C   UNL     1     126.636 125.959 155.504  1.00  0.00     0.016 A 
ATOM     17  C   UNL     1     125.399 126.588 155.675  1.00  0.00     0.047 A 
BRANCH  15  18
ATOM     18  O   UNL     1     123.835 128.331 155.097  1.00  0.00    -0.508 OA
ATOM     19  H   UNL     1     123.756 129.234 155.549  1.00  0.00     0.293 HD
ENDBRANCH  15  18
ENDBRANCH   1  12
BRANCH   2  20
ATOM     20  O   UNL     1     129.959 127.157 156.054  1.00  0.00    -0.502 OA
ATOM     21  H   UNL     1     130.632 127.914 156.082  1.00  0.00     0.293 HD
ENDBRANCH   2  20
BRANCH   6  22
ATOM     22  O   UNL     1     133.703 123.980 153.989  1.00  0.00    -0.507 OA
ATOM     23  H   UNL     1     134.543 123.854 153.445  1.00  0.00     0.293 HD
ENDBRANCH   6  22
BRANCH   8  24
ATOM     24  O   UNL     1     130.974 121.134 151.248  1.00  0.00    -0.508 OA
ATOM     25  H   UNL     1     130.088 120.673 151.077  1.00  0.00     0.293 HD
ENDBRANCH   8  24
TORSDOF 5
ENDMDL
MODEL 2
REMARK VINA RESULT:     0.000      9.074     11.998
REMARK INTER + INTRA:          -0.301
REMARK INTER:                   0.000
REMARK INTRA:                  -0.301
REMARK UNBOUND:                -0.301
REMARK SMILES O=c1c(O)c(-c2ccc(O)cc2)oc2cc(O)cc(O)c12
REMARK SMILES IDX 5 1 3 2 2 3 1 4 21 5 19 6 18 7 16 8 15 9 14 10 13 11 6 12
REMARK SMILES IDX 7 13 8 14 9 15 12 16 11 17 10 18 4 20 20 22 17 24
REMARK H PARENT 10 19 4 21 20 23 17 25
REMARK Flexibility Score: inf
ROOT
ATOM      1  C   UNL     1     121.776 128.824 148.069  1.00  0.00     0.180 A 
ATOM      2  C   UNL     1     121.564 128.949 146.685  1.00  0.00     0.208 A 
ATOM      3  C   UNL     1     121.752 130.202 146.078  1.00  0.00     0.238 A 
ATOM      4  O   UNL     1     121.508 130.321 144.849  1.00  0.00    -0.285 OA
ATOM      5  C   UNL     1     122.165 131.308 146.859  1.00  0.00     0.111 A 
ATOM      6  C   UNL     1     122.425 132.613 146.343  1.00  0.00     0.134 A 
ATOM      7  C   UNL     1     122.702 133.663 147.226  1.00  0.00     0.093 A 
ATOM      8  C   UNL     1     122.792 133.442 148.602  1.00  0.00     0.123 A 
ATOM      9  C   UNL     1     122.599 132.160 149.110  1.00  0.00     0.094 A 
ATOM     10  C   UNL     1     122.286 131.099 148.258  1.00  0.00     0.146 A 
ATOM     11  O   UNL     1     122.099 129.895 148.784  1.00  0.00    -0.452 OA
ENDROOT
BRANCH   1  12
ATOM     12  C   UNL     1     121.623 127.531 148.775  1.00  0.00     0.021 A 
ATOM     13  C   UNL     1     122.700 126.637 148.909  1.00  0.00     0.016 A 
ATOM     14  C   UNL     1     122.538 125.432 149.601  1.00  0.00     0.047 A 
ATOM     15  C   UNL     1     121.302 125.113 150.178  1.00  0.00     0.115 A 
ATOM     16  C   UNL     1     120.393 127.212 149.375  1.00  0.00     0.016 A 
ATOM     17  C   UNL     1     120.233 126.007 150.066  1.00  0.00     0.047 A 
BRANCH  15  18
ATOM     18  O   UNL     1     121.128 123.916 150.869  1.00  0.00    -0.508 OA
ATOM     19  H   UNL     1     120.764 123.899 151.814  1.00  0.00     0.293 HD
ENDBRANCH  15  18
ENDBRANCH   1  12
BRANCH   2  20
ATOM     20  O   UNL     1     121.135 127.850 145.937  1.00  0.00    -0.502 OA
ATOM     21  H   UNL     1     120.928 126.952 146.359  1.00  0.00     0.293 HD
ENDBRANCH   2  20
BRANCH   6  22
ATOM     22  O   UNL     1     122.450 132.922 144.979  1.00  0.00    -0.507 OA
ATOM     23  H   UNL     1     122.984 133.674 144.571  1.00  0.00     0.293 HD
ENDBRANCH   6  22
BRANCH   8  24
ATOM     24  O   UNL     1     123.084 134.489 149.474  1.00  0.00    -0.508 OA
ATOM     25  H   UNL     1     122.870 135.451 149.237  1.00  0.00     0.293 HD
ENDBRANCH   8  24
TORSDOF 5
ENDMDL
MODEL 3
REMARK VINA RESULT:     0.000     11.708     13.439
REMARK INTER + INTRA:          -0.301
REMARK INTER:                   0.000
REMARK INTRA:                  -0.301
REMARK UNBOUND:                -0.301
REMARK SMILES O=c1c(O)c(-c2ccc(O)cc2)oc2cc(O)cc(O)c12
REMARK SMILES IDX 5 1 3 2 2 3 1 4 21 5 19 6 18 7 16 8 15 9 14 10 13 11 6 12
REMARK SMILES IDX 7 13 8 14 9 15 12 16 11 17 10 18 4 20 20 22 17 24
REMARK H PARENT 10 19 4 21 20 23 17 25
REMARK Flexibility Score: inf
ROOT
ATOM      1  C   UNL     1     121.047 124.824 145.160  1.00  0.00     0.180 A 
ATOM      2  C   UNL     1     119.873 124.123 144.833  1.00  0.00     0.208 A 
ATOM      3  C   UNL     1     119.642 123.770 143.493  1.00  0.00     0.238 A 
ATOM      4  O   UNL     1     118.564 123.191 143.198  1.00  0.00    -0.285 OA
ATOM      5  C   UNL     1     120.595 124.106 142.502  1.00  0.00     0.111 A 
ATOM      6  C   UNL     1     120.483 123.762 141.121  1.00  0.00     0.134 A 
ATOM      7  C   UNL     1     121.420 124.258 140.207  1.00  0.00     0.093 A 
ATOM      8  C   UNL     1     122.502 125.032 140.634  1.00  0.00     0.123 A 
ATOM      9  C   UNL     1     122.652 125.323 141.987  1.00  0.00     0.094 A 
ATOM     10  C   UNL     1     121.714 124.872 142.918  1.00  0.00     0.146 A 
ATOM     11  O   UNL     1     121.889 125.181 144.197  1.00  0.00    -0.452 OA
ENDROOT
BRANCH   1  12
ATOM     12  C   UNL     1     121.373 125.208 146.552  1.00  0.00     0.021 A 
ATOM     13  C   UNL     1     122.096 124.351 147.400  1.00  0.00     0.016 A 
ATOM     14  C   UNL     1     122.412 124.746 148.704  1.00  0.00     0.047 A 
ATOM     15  C   UNL     1     122.022 126.007 149.171  1.00  0.00     0.115 A 
ATOM     16  C   UNL     1     121.003 126.480 147.023  1.00  0.00     0.016 A 
ATOM     17  C   UNL     1     121.320 126.872 148.327  1.00  0.00     0.047 A 
BRANCH  15  18
ATOM     18  O   UNL     1     122.330 126.411 150.468  1.00  0.00    -0.508 OA
ATOM     19  H   UNL     1     122.779 125.784 151.125  1.00  0.00     0.293 HD
ENDBRANCH  15  18
ENDBRANCH   1  12
BRANCH   2  20
ATOM     20  O   UNL     1     118.935 123.822 145.824  1.00  0.00    -0.502 OA
ATOM     21  H   UNL     1     118.552 122.892 145.945  1.00  0.00     0.293 HD
ENDBRANCH   2  20
BRANCH   6  22
ATOM     22  O   UNL     1     119.494 122.920 140.604  1.00  0.00    -0.507 OA
ATOM     23  H   UNL     1     119.667 122.144 139.983  1.00  0.00     0.293 HD
ENDBRANCH   6  22
BRANCH   8  24
ATOM     24  O   UNL     1     123.439 125.510 139.720  1.00  0.00    -0.508 OA
ATOM     25  H   UNL     1     124.435 125.418 139.885  1.00  0.00     0.293 HD
ENDBRANCH   8  24
TORSDOF 5
ENDMDL
MODEL 4
REMARK VINA RESULT:     0.000     11.210     12.560
REMARK INTER + INTRA:          -0.301
REMARK INTER:                   0.000
REMARK INTRA:                  -0.301
REMARK UNBOUND:                -0.301
REMARK SMILES O=c1c(O)c(-c2ccc(O)cc2)oc2cc(O)cc(O)c12
REMARK SMILES IDX 5 1 3 2 2 3 1 4 21 5 19 6 18 7 16 8 15 9 14 10 13 11 6 12
REMARK SMILES IDX 7 13 8 14 9 15 12 16 11 17 10 18 4 20 20 22 17 24
REMARK H PARENT 10 19 4 21 20 23 17 25
REMARK Flexibility Score: inf
ROOT
ATOM      1  C   UNL     1     121.954 124.180 144.303  1.00  0.00     0.180 A 
ATOM      2  C   UNL     1     122.405 124.991 143.247  1.00  0.00     0.208 A 
ATOM      3  C   UNL     1     123.511 125.832 143.459  1.00  0.00     0.238 A 
ATOM      4  O   UNL     1     123.876 126.595 142.528  1.00  0.00    -0.285 OA
ATOM      5  C   UNL     1     124.160 125.836 144.716  1.00  0.00     0.111 A 
ATOM      6  C   UNL     1     125.314 126.617 145.029  1.00  0.00     0.134 A 
ATOM      7  C   UNL     1     125.795 126.642 146.343  1.00  0.00     0.093 A 
ATOM      8  C   UNL     1     125.204 125.865 147.342  1.00  0.00     0.123 A 
ATOM      9  C   UNL     1     124.115 125.054 147.033  1.00  0.00     0.094 A 
ATOM     10  C   UNL     1     123.590 125.035 145.739  1.00  0.00     0.146 A 
ATOM     11  O   UNL     1     122.544 124.256 145.490  1.00  0.00    -0.452 OA
ENDROOT
BRANCH   1  12
ATOM     12  C   UNL     1     120.812 123.251 144.149  1.00  0.00     0.021 A 
ATOM     13  C   UNL     1     120.996 121.927 143.709  1.00  0.00     0.016 A 
ATOM     14  C   UNL     1     119.905 121.061 143.594  1.00  0.00     0.047 A 
ATOM     15  C   UNL     1     118.618 121.501 143.930  1.00  0.00     0.115 A 
ATOM     16  C   UNL     1     119.520 123.677 144.503  1.00  0.00     0.016 A 
ATOM     17  C   UNL     1     118.430 122.809 144.387  1.00  0.00     0.047 A 
BRANCH  15  18
ATOM     18  O   UNL     1     117.523 120.647 143.818  1.00  0.00    -0.508 OA
ATOM     19  H   UNL     1     117.129 120.184 144.628  1.00  0.00     0.293 HD
ENDBRANCH  15  18
ENDBRANCH   1  12
BRANCH   2  20
ATOM     20  O   UNL     1     121.735 124.987 142.021  1.00  0.00    -0.502 OA
ATOM     21  H   UNL     1     121.721 125.792 141.406  1.00  0.00     0.293 HD
ENDBRANCH   2  20
BRANCH   6  22
ATOM     22  O   UNL     1     126.035 127.357 144.087  1.00  0.00    -0.507 OA
ATOM     23  H   UNL     1     126.567 128.188 144.294  1.00  0.00     0.293 HD
ENDBRANCH   6  22
BRANCH   8  24
ATOM     24  O   UNL     1     125.699 125.884 148.645  1.00  0.00    -0.508 OA
ATOM     25  H   UNL     1     125.258 125.353 149.387  1.00  0.00     0.293 HD
ENDBRANCH   8  24
TORSDOF 5
ENDMDL
MODEL 5
REMARK VINA RESULT:     0.000      8.264      9.692
REMARK INTER + INTRA:          -0.301
REMARK INTER:                   0.000
REMARK INTRA:                  -0.301
REMARK UNBOUND:                -0.301
REMARK SMILES O=c1c(O)c(-c2ccc(O)cc2)oc2cc(O)cc(O)c12
REMARK SMILES IDX 5 1 3 2 2 3 1 4 21 5 19 6 18 7 16 8 15 9 14 10 13 11 6 12
REMARK SMILES IDX 7 13 8 14 9 15 12 16 11 17 10 18 4 20 20 22 17 24
REMARK H PARENT 10 19 4 21 20 23 17 25
REMARK Flexibility Score: inf
ROOT
ATOM      1  C   UNL     1     126.989 121.406 146.301  1.00  0.00     0.180 A 
ATOM      2  C   UNL     1     127.579 122.623 145.916  1.00  0.00     0.208 A 
ATOM      3  C   UNL     1     128.642 122.604 144.997  1.00  0.00     0.238 A 
ATOM      4  O   UNL     1     129.201 123.690 144.698  1.00  0.00    -0.285 OA
ATOM      5  C   UNL     1     129.088 121.371 144.462  1.00  0.00     0.111 A 
ATOM      6  C   UNL     1     130.128 121.238 143.494  1.00  0.00     0.134 A 
ATOM      7  C   UNL     1     130.576 119.961 143.133  1.00  0.00     0.093 A 
ATOM      8  C   UNL     1     129.978 118.813 143.657  1.00  0.00     0.123 A 
ATOM      9  C   UNL     1     128.922 118.933 144.557  1.00  0.00     0.094 A 
ATOM     10  C   UNL     1     128.476 120.193 144.964  1.00  0.00     0.146 A 
ATOM     11  O   UNL     1     127.474 120.262 145.831  1.00  0.00    -0.452 OA
ENDROOT
BRANCH   1  12
ATOM     12  C   UNL     1     125.850 121.347 147.244  1.00  0.00     0.021 A 
ATOM     13  C   UNL     1     124.520 121.417 146.794  1.00  0.00     0.016 A 
ATOM     14  C   UNL     1     123.459 121.336 147.702  1.00  0.00     0.047 A 
ATOM     15  C   UNL     1     123.715 121.169 149.069  1.00  0.00     0.115 A 
ATOM     16  C   UNL     1     126.096 121.160 148.616  1.00  0.00     0.016 A 
ATOM     17  C   UNL     1     125.034 121.079 149.521  1.00  0.00     0.047 A 
BRANCH  15  18
ATOM     18  O   UNL     1     122.667 121.088 149.983  1.00  0.00    -0.508 OA
ATOM     19  H   UNL     1     122.660 121.643 150.831  1.00  0.00     0.293 HD
ENDBRANCH  15  18
ENDBRANCH   1  12
BRANCH   2  20
ATOM     20  O   UNL     1     127.137 123.826 146.473  1.00  0.00    -0.502 OA
ATOM     21  H   UNL     1     126.608 124.508 145.943  1.00  0.00     0.293 HD
ENDBRANCH   2  20
BRANCH   6  22
ATOM     22  O   UNL     1     130.731 122.317 142.842  1.00  0.00    -0.507 OA
ATOM     23  H   UNL     1     130.320 122.826 142.073  1.00  0.00     0.293 HD
ENDBRANCH   6  22
BRANCH   8  24
ATOM     24  O   UNL     1     130.419 117.546 143.281  1.00  0.00    -0.508 OA
ATOM     25  H   UNL     1     130.804 116.897 143.957  1.00  0.00     0.293 HD
ENDBRANCH   8  24
TORSDOF 5
ENDMDL
MODEL 6
REMARK VINA RESULT:     0.000     11.400     12.162
REMARK INTER + INTRA:          -0.301
REMARK INTER:                   0.000
REMARK INTRA:                  -0.301
REMARK UNBOUND:                -0.301
REMARK SMILES O=c1c(O)c(-c2ccc(O)cc2)oc2cc(O)cc(O)c12
REMARK SMILES IDX 5 1 3 2 2 3 1 4 21 5 19 6 18 7 16 8 15 9 14 10 13 11 6 12
REMARK SMILES IDX 7 13 8 14 9 15 12 16 11 17 10 18 4 20 20 22 17 24
REMARK H PARENT 10 19 4 21 20 23 17 25
REMARK Flexibility Score: inf
ROOT
ATOM      1  C   UNL     1     127.185 128.796 143.499  1.00  0.00     0.180 A 
ATOM      2  C   UNL     1     128.238 128.300 144.288  1.00  0.00     0.208 A 
ATOM      3  C   UNL     1     129.561 128.606 143.929  1.00  0.00     0.238 A 
ATOM      4  O   UNL     1     130.499 128.114 144.607  1.00  0.00    -0.285 OA
ATOM      5  C   UNL     1     129.813 129.417 142.797  1.00  0.00     0.111 A 
ATOM      6  C   UNL     1     131.112 129.823 142.365  1.00  0.00     0.134 A 
ATOM      7  C   UNL     1     131.252 130.517 141.157  1.00  0.00     0.093 A 
ATOM      8  C   UNL     1     130.136 130.875 140.398  1.00  0.00     0.123 A 
ATOM      9  C   UNL     1     128.860 130.535 140.842  1.00  0.00     0.094 A 
ATOM     10  C   UNL     1     128.690 129.812 142.024  1.00  0.00     0.146 A 
ATOM     11  O   UNL     1     127.458 129.499 142.405  1.00  0.00    -0.452 OA
ENDROOT
BRANCH   1  12
ATOM     12  C   UNL     1     125.765 128.538 143.828  1.00  0.00     0.021 A 
ATOM     13  C   UNL     1     125.039 129.398 144.670  1.00  0.00     0.016 A 
ATOM     14  C   UNL     1     123.691 129.147 144.947  1.00  0.00     0.047 A 
ATOM     15  C   UNL     1     123.050 128.041 144.375  1.00  0.00     0.115 A 
ATOM     16  C   UNL     1     125.107 127.442 143.242  1.00  0.00     0.016 A 
ATOM     17  C   UNL     1     123.760 127.193 143.521  1.00  0.00     0.047 A 
BRANCH  15  18
ATOM     18  O   UNL     1     121.708 127.779 144.645  1.00  0.00    -0.508 OA
ATOM     19  H   UNL     1     120.966 128.252 144.143  1.00  0.00     0.293 HD
ENDBRANCH  15  18
ENDBRANCH   1  12
BRANCH   2  20
ATOM     20  O   UNL     1     127.966 127.483 145.388  1.00  0.00    -0.502 OA
ATOM     21  H   UNL     1     127.617 127.851 146.266  1.00  0.00     0.293 HD
ENDBRANCH   2  20
BRANCH   6  22
ATOM     22  O   UNL     1     132.283 129.596 143.093  1.00  0.00    -0.507 OA
ATOM     23  H   UNL     1     132.507 130.038 143.972  1.00  0.00     0.293 HD
ENDBRANCH   6  22
BRANCH   8  24
ATOM     24  O   UNL     1     130.283 131.579 139.204  1.00  0.00    -0.508 OA
ATOM     25  H   UNL     1     129.794 131.301 138.361  1.00  0.00     0.293 HD
ENDBRANCH   8  24
TORSDOF 5
ENDMDL
MODEL 7
REMARK VINA RESULT:     0.000      5.879      7.079
REMARK INTER + INTRA:          -0.301
REMARK INTER:                   0.000
REMARK INTRA:                  -0.301
REMARK UNBOUND:                -0.301
REMARK SMILES O=c1c(O)c(-c2ccc(O)cc2)oc2cc(O)cc(O)c12
REMARK SMILES IDX 5 1 3 2 2 3 1 4 21 5 19 6 18 7 16 8 15 9 14 10 13 11 6 12
REMARK SMILES IDX 7 13 8 14 9 15 12 16 11 17 10 18 4 20 20 22 17 24
REMARK H PARENT 10 19 4 21 20 23 17 25
REMARK Flexibility Score: inf
ROOT
ATOM      1  C   UNL     1     126.483 126.229 148.453  1.00  0.00     0.180 A 
ATOM      2  C   UNL     1     127.105 125.305 149.312  1.00  0.00     0.208 A 
ATOM      3  C   UNL     1     127.691 124.153 148.763  1.00  0.00     0.238 A 
ATOM      4  O   UNL     1     128.199 123.304 149.541  1.00  0.00    -0.285 OA
ATOM      5  C   UNL     1     127.663 123.947 147.363  1.00  0.00     0.111 A 
ATOM      6  C   UNL     1     128.261 122.836 146.695  1.00  0.00     0.134 A 
ATOM      7  C   UNL     1     128.059 122.667 145.320  1.00  0.00     0.093 A 
ATOM      8  C   UNL     1     127.336 123.602 144.577  1.00  0.00     0.123 A 
ATOM      9  C   UNL     1     126.799 124.721 145.210  1.00  0.00     0.094 A 
ATOM     10  C   UNL     1     126.953 124.900 146.587  1.00  0.00     0.146 A 
ATOM     11  O   UNL     1     126.416 125.974 147.152  1.00  0.00    -0.452 OA
ENDROOT
BRANCH   1  12
ATOM     12  C   UNL     1     125.867 127.478 148.954  1.00  0.00     0.021 A 
ATOM     13  C   UNL     1     126.610 128.665 149.078  1.00  0.00     0.016 A 
ATOM     14  C   UNL     1     126.000 129.839 149.531  1.00  0.00     0.047 A 
ATOM     15  C   UNL     1     124.636 129.844 149.852  1.00  0.00     0.115 A 
ATOM     16  C   UNL     1     124.494 127.498 149.258  1.00  0.00     0.016 A 
ATOM     17  C   UNL     1     123.887 128.673 149.711  1.00  0.00     0.047 A 
BRANCH  15  18
ATOM     18  O   UNL     1     124.018 131.007 150.305  1.00  0.00    -0.508 OA
ATOM     19  H   UNL     1     123.764 131.127 151.279  1.00  0.00     0.293 HD
ENDBRANCH  15  18
ENDBRANCH   1  12
BRANCH   2  20
ATOM     20  O   UNL     1     127.102 125.517 150.693  1.00  0.00    -0.502 OA
ATOM     21  H   UNL     1     127.104 124.755 151.360  1.00  0.00     0.293 HD
ENDBRANCH   2  20
BRANCH   6  22
ATOM     22  O   UNL     1     129.079 121.894 147.326  1.00  0.00    -0.507 OA
ATOM     23  H   UNL     1     129.671 121.234 146.846  1.00  0.00     0.293 HD
ENDBRANCH   6  22
BRANCH   8  24
ATOM     24  O   UNL     1     127.152 123.434 143.206  1.00  0.00    -0.508 OA
ATOM     25  H   UNL     1     126.252 123.175 142.820  1.00  0.00     0.293 HD
ENDBRANCH   8  24
TORSDOF 5
ENDMDL
MODEL 8
REMARK VINA RESULT:     0.000      8.660     10.594
REMARK INTER + INTRA:          -0.301
REMARK INTER:                   0.000
REMARK INTRA:                  -0.301
REMARK UNBOUND:                -0.301
REMARK SMILES O=c1c(O)c(-c2ccc(O)cc2)oc2cc(O)cc(O)c12
REMARK SMILES IDX 5 1 3 2 2 3 1 4 21 5 19 6 18 7 16 8 15 9 14 10 13 11 6 12
REMARK SMILES IDX 7 13 8 14 9 15 12 16 11 17 10 18 4 20 20 22 17 24
REMARK H PARENT 10 19 4 21 20 23 17 25
REMARK Flexibility Score: inf
ROOT
ATOM      1  C   UNL     1     127.096 128.058 145.768  1.00  0.00     0.180 A 
ATOM      2  C   UNL     1     126.592 127.570 144.550  1.00  0.00     0.208 A 
ATOM      3  C   UNL     1     125.476 126.716 144.568  1.00  0.00     0.238 A 
ATOM      4  O   UNL     1     125.063 126.240 143.479  1.00  0.00    -0.285 OA
ATOM      5  C   UNL     1     124.871 126.375 145.801  1.00  0.00     0.111 A 
ATOM      6  C   UNL     1     123.712 125.551 145.934  1.00  0.00     0.134 A 
ATOM      7  C   UNL     1     123.276 125.174 147.210  1.00  0.00     0.093 A 
ATOM      8  C   UNL     1     123.918 125.642 148.358  1.00  0.00     0.123 A 
ATOM      9  C   UNL     1     125.012 126.495 148.239  1.00  0.00     0.094 A 
ATOM     10  C   UNL     1     125.493 126.861 146.980  1.00  0.00     0.146 A 
ATOM     11  O   UNL     1     126.545 127.667 146.912  1.00  0.00    -0.452 OA
ENDROOT
BRANCH   1  12
ATOM     12  C   UNL     1     128.251 128.981 145.828  1.00  0.00     0.021 A 
ATOM     13  C   UNL     1     128.080 130.376 145.773  1.00  0.00     0.016 A 
ATOM     14  C   UNL     1     129.184 131.229 145.856  1.00  0.00     0.047 A 
ATOM     15  C   UNL     1     130.472 130.700 146.009  1.00  0.00     0.115 A 
ATOM     16  C   UNL     1     129.545 128.460 146.003  1.00  0.00     0.016 A 
ATOM     17  C   UNL     1     130.648 129.316 146.085  1.00  0.00     0.047 A 
BRANCH  15  18
ATOM     18  O   UNL     1     131.581 131.540 146.091  1.00  0.00    -0.508 OA
ATOM     19  H   UNL     1     131.582 132.459 145.663  1.00  0.00     0.293 HD
ENDBRANCH  15  18
ENDBRANCH   1  12
BRANCH   2  20
ATOM     20  O   UNL     1     127.219 127.901 143.346  1.00  0.00    -0.502 OA
ATOM     21  H   UNL     1     128.219 127.809 143.211  1.00  0.00     0.293 HD
ENDBRANCH   2  20
BRANCH   6  22
ATOM     22  O   UNL     1     122.944 125.104 144.855  1.00  0.00    -0.507 OA
ATOM     23  H   UNL     1     122.521 124.191 144.790  1.00  0.00     0.293 HD
ENDBRANCH   6  22
BRANCH   8  24
ATOM     24  O   UNL     1     123.468 125.274 149.625  1.00  0.00    -0.508 OA
ATOM     25  H   UNL     1     123.461 125.931 150.396  1.00  0.00     0.293 HD
ENDBRANCH   8  24
TORSDOF 5
ENDMDL
MODEL 9
REMARK VINA RESULT:     0.000     11.422     13.956
REMARK INTER + INTRA:          -0.300
REMARK INTER:                   0.000
REMARK INTRA:                  -0.300
REMARK UNBOUND:                -0.301
REMARK SMILES O=c1c(O)c(-c2ccc(O)cc2)oc2cc(O)cc(O)c12
REMARK SMILES IDX 5 1 3 2 2 3 1 4 21 5 19 6 18 7 16 8 15 9 14 10 13 11 6 12
REMARK SMILES IDX 7 13 8 14 9 15 12 16 11 17 10 18 4 20 20 22 17 24
REMARK H PARENT 10 19 4 21 20 23 17 25
REMARK Flexibility Score: inf
ROOT
ATOM      1  C   UNL     1     123.149 121.151 144.465  1.00  0.00     0.180 A 
ATOM      2  C   UNL     1     122.769 121.120 145.818  1.00  0.00     0.208 A 
ATOM      3  C   UNL     1     121.781 122.011 146.269  1.00  0.00     0.238 A 
ATOM      4  O   UNL     1     121.484 122.015 147.492  1.00  0.00    -0.285 OA
ATOM      5  C   UNL     1     121.175 122.909 145.358  1.00  0.00     0.111 A 
ATOM      6  C   UNL     1     120.135 123.827 145.697  1.00  0.00     0.134 A 
ATOM      7  C   UNL     1     119.700 124.758 144.747  1.00  0.00     0.093 A 
ATOM      8  C   UNL     1     120.221 124.763 143.451  1.00  0.00     0.123 A 
ATOM      9  C   UNL     1     121.193 123.832 143.094  1.00  0.00     0.094 A 
ATOM     10  C   UNL     1     121.673 122.913 144.029  1.00  0.00     0.146 A 
ATOM     11  O   UNL     1     122.608 122.050 143.651  1.00  0.00    -0.452 OA
ENDROOT
BRANCH   1  12
ATOM     12  C   UNL     1     124.164 120.227 143.910  1.00  0.00     0.021 A 
ATOM     13  C   UNL     1     123.806 118.970 143.392  1.00  0.00     0.016 A 
ATOM     14  C   UNL     1     124.779 118.123 142.851  1.00  0.00     0.047 A 
ATOM     15  C   UNL     1     126.119 118.529 142.810  1.00  0.00     0.115 A 
ATOM     16  C   UNL     1     125.508 120.633 143.846  1.00  0.00     0.016 A 
ATOM     17  C   UNL     1     126.479 119.785 143.305  1.00  0.00     0.047 A 
BRANCH  15  18
ATOM     18  O   UNL     1     127.098 117.694 142.275  1.00  0.00    -0.508 OA
ATOM     19  H   UNL     1     127.743 117.187 142.869  1.00  0.00     0.293 HD
ENDBRANCH  15  18
ENDBRANCH   1  12
BRANCH   2  20
ATOM     20  O   UNL     1     123.397 120.241 146.704  1.00  0.00    -0.502 OA
ATOM     21  H   UNL     1     123.433 120.409 147.703  1.00  0.00     0.293 HD
ENDBRANCH   2  20
BRANCH   6  22
ATOM     22  O   UNL     1     119.482 123.846 146.933  1.00  0.00    -0.507 OA
ATOM     23  H   UNL     1     119.379 124.663 147.515  1.00  0.00     0.293 HD
ENDBRANCH   6  22
BRANCH   8  24
ATOM     24  O   UNL     1     119.771 125.683 142.506  1.00  0.00    -0.508 OA
ATOM     25  H   UNL     1     118.986 125.479 141.899  1.00  0.00     0.293 HD
ENDBRANCH   8  24
TORSDOF 5
ENDMDL
