MODEL 1
REMARK VINA RESULT:    -5.708      0.000      0.000
REMARK INTER + INTRA:          -6.904
REMARK INTER:                  -6.709
REMARK INTRA:                  -0.195
REMARK UNBOUND:                -0.195
REMARK SMILES O=c1c(O)c(-c2ccc(O)cc2)oc2cc(O)cc(O)c12
REMARK SMILES IDX 5 1 3 2 2 3 1 4 21 5 19 6 18 7 16 8 15 9 14 10 13 11 6 12
REMARK SMILES IDX 7 13 8 14 9 15 12 16 11 17 10 18 4 20 20 22 17 24
REMARK H PARENT 10 19 4 21 20 23 17 25
REMARK Flexibility Score: inf
ROOT
ATOM      1  C   UNL     1     141.037 153.218 120.334  1.00  0.00     0.180 A 
ATOM      2  C   UNL     1     142.018 153.705 121.219  1.00  0.00     0.208 A 
ATOM      3  C   UNL     1     142.088 155.086 121.461  1.00  0.00     0.238 A 
ATOM      4  O   UNL     1     142.969 155.536 122.243  1.00  0.00    -0.285 OA
ATOM      5  C   UNL     1     141.169 155.951 120.831  1.00  0.00     0.111 A 
ATOM      6  C   UNL     1     141.169 157.354 121.023  1.00  0.00     0.134 A 
ATOM      7  C   UNL     1     140.216 158.146 120.367  1.00  0.00     0.093 A 
ATOM      8  C   UNL     1     139.262 157.562 119.526  1.00  0.00     0.123 A 
ATOM      9  C   UNL     1     139.258 156.180 119.332  1.00  0.00     0.094 A 
ATOM     10  C   UNL     1     140.201 155.373 119.976  1.00  0.00     0.146 A 
ATOM     11  O   UNL     1     140.178 154.062 119.770  1.00  0.00    -0.452 OA
ENDROOT
BRANCH   1  12
ATOM     12  C   UNL     1     140.912 151.777 120.015  1.00  0.00     0.021 A 
ATOM     13  C   UNL     1     141.898 151.101 119.273  1.00  0.00     0.016 A 
ATOM     14  C   UNL     1     141.745 149.747 118.964  1.00  0.00     0.047 A 
ATOM     15  C   UNL     1     140.602 149.054 119.376  1.00  0.00     0.115 A 
ATOM     16  C   UNL     1     139.756 151.080 120.407  1.00  0.00     0.016 A 
ATOM     17  C   UNL     1     139.606 149.726 120.098  1.00  0.00     0.047 A 
BRANCH  15  18
ATOM     18  O   UNL     1     140.464 147.704 119.062  1.00  0.00    -0.508 OA
ATOM     19  H   UNL     1     140.098 147.039 119.733  1.00  0.00     0.293 HD
ENDBRANCH  15  18
ENDBRANCH   1  12
BRANCH   2  20
ATOM     20  O   UNL     1     142.884 152.822 121.869  1.00  0.00    -0.502 OA
ATOM     21  H   UNL     1     142.553 152.111 122.511  1.00  0.00     0.293 HD
ENDBRANCH   2  20
BRANCH   6  22
ATOM     22  O   UNL     1     142.107 157.964 121.857  1.00  0.00    -0.507 OA
ATOM     23  H   UNL     1     142.473 157.497 122.679  1.00  0.00     0.293 HD
ENDBRANCH   6  22
BRANCH   8  24
ATOM     24  O   UNL     1     138.314 158.349 118.876  1.00  0.00    -0.508 OA
ATOM     25  H   UNL     1     138.165 159.319 119.128  1.00  0.00     0.293 HD
ENDBRANCH   8  24
TORSDOF 5
ENDMDL
MODEL 2
REMARK VINA RESULT:    -5.699      1.639      6.553
REMARK INTER + INTRA:          -6.893
REMARK INTER:                  -6.787
REMARK INTRA:                  -0.106
REMARK UNBOUND:                -0.195
REMARK SMILES O=c1c(O)c(-c2ccc(O)cc2)oc2cc(O)cc(O)c12
REMARK SMILES IDX 5 1 3 2 2 3 1 4 21 5 19 6 18 7 16 8 15 9 14 10 13 11 6 12
REMARK SMILES IDX 7 13 8 14 9 15 12 16 11 17 10 18 4 20 20 22 17 24
REMARK H PARENT 10 19 4 21 20 23 17 25
REMARK Flexibility Score: inf
ROOT
ATOM      1  C   UNL     1     141.351 153.458 120.291  1.00  0.00     0.180 A 
ATOM      2  C   UNL     1     142.454 152.610 120.070  1.00  0.00     0.208 A 
ATOM      3  C   UNL     1     142.222 151.248 119.823  1.00  0.00     0.238 A 
ATOM      4  O   UNL     1     143.202 150.476 119.634  1.00  0.00    -0.285 OA
ATOM      5  C   UNL     1     140.899 150.762 119.782  1.00  0.00     0.111 A 
ATOM      6  C   UNL     1     140.579 149.404 119.536  1.00  0.00     0.134 A 
ATOM      7  C   UNL     1     139.237 149.001 119.503  1.00  0.00     0.093 A 
ATOM      8  C   UNL     1     138.209 149.928 119.709  1.00  0.00     0.123 A 
ATOM      9  C   UNL     1     138.519 151.267 119.953  1.00  0.00     0.094 A 
ATOM     10  C   UNL     1     139.851 151.689 119.992  1.00  0.00     0.146 A 
ATOM     11  O   UNL     1     140.117 152.968 120.231  1.00  0.00    -0.452 OA
ENDROOT
BRANCH   1  12
ATOM     12  C   UNL     1     141.516 154.902 120.576  1.00  0.00     0.021 A 
ATOM     13  C   UNL     1     142.248 155.352 121.690  1.00  0.00     0.016 A 
ATOM     14  C   UNL     1     142.368 156.720 121.951  1.00  0.00     0.047 A 
ATOM     15  C   UNL     1     141.748 157.655 121.116  1.00  0.00     0.115 A 
ATOM     16  C   UNL     1     140.877 155.846 119.753  1.00  0.00     0.016 A 
ATOM     17  C   UNL     1     141.000 157.213 120.016  1.00  0.00     0.047 A 
BRANCH  15  18
ATOM     18  O   UNL     1     141.877 159.014 121.387  1.00  0.00    -0.508 OA
ATOM     19  H   UNL     1     141.916 159.702 120.644  1.00  0.00     0.293 HD
ENDBRANCH  15  18
ENDBRANCH   1  12
BRANCH   2  20
ATOM     20  O   UNL     1     143.752 153.126 120.066  1.00  0.00    -0.502 OA
ATOM     21  H   UNL     1     143.974 154.039 120.444  1.00  0.00     0.293 HD
ENDBRANCH   2  20
BRANCH   6  22
ATOM     22  O   UNL     1     141.583 148.458 119.326  1.00  0.00    -0.507 OA
ATOM     23  H   UNL     1     142.281 148.256 120.032  1.00  0.00     0.293 HD
ENDBRANCH   6  22
BRANCH   8  24
ATOM     24  O   UNL     1     136.875 149.527 119.674  1.00  0.00    -0.508 OA
ATOM     25  H   UNL     1     136.458 149.004 120.435  1.00  0.00     0.293 HD
ENDBRANCH   8  24
TORSDOF 5
ENDMDL
MODEL 3
REMARK VINA RESULT:    -5.469      3.592      6.079
REMARK INTER + INTRA:          -6.623
REMARK INTER:                  -6.372
REMARK INTRA:                  -0.251
REMARK UNBOUND:                -0.195
REMARK SMILES O=c1c(O)c(-c2ccc(O)cc2)oc2cc(O)cc(O)c12
REMARK SMILES IDX 5 1 3 2 2 3 1 4 21 5 19 6 18 7 16 8 15 9 14 10 13 11 6 12
REMARK SMILES IDX 7 13 8 14 9 15 12 16 11 17 10 18 4 20 20 22 17 24
REMARK H PARENT 10 19 4 21 20 23 17 25
REMARK Flexibility Score: inf
ROOT
ATOM      1  C   UNL     1     138.764 147.914 120.403  1.00  0.00     0.180 A 
ATOM      2  C   UNL     1     139.839 148.379 119.620  1.00  0.00     0.208 A 
ATOM      3  C   UNL     1     140.139 149.750 119.626  1.00  0.00     0.238 A 
ATOM      4  O   UNL     1     141.091 150.180 118.919  1.00  0.00    -0.285 OA
ATOM      5  C   UNL     1     139.377 150.627 120.425  1.00  0.00     0.111 A 
ATOM      6  C   UNL     1     139.616 152.021 120.491  1.00  0.00     0.134 A 
ATOM      7  C   UNL     1     138.819 152.825 121.318  1.00  0.00     0.093 A 
ATOM      8  C   UNL     1     137.790 152.263 122.081  1.00  0.00     0.123 A 
ATOM      9  C   UNL     1     137.549 150.889 122.019  1.00  0.00     0.094 A 
ATOM     10  C   UNL     1     138.332 150.070 121.200  1.00  0.00     0.146 A 
ATOM     11  O   UNL     1     138.077 148.768 121.156  1.00  0.00    -0.452 OA
ENDROOT
BRANCH   1  12
ATOM     12  C   UNL     1     138.375 146.485 120.435  1.00  0.00     0.021 A 
ATOM     13  C   UNL     1     138.774 145.639 121.486  1.00  0.00     0.016 A 
ATOM     14  C   UNL     1     138.415 144.288 121.480  1.00  0.00     0.047 A 
ATOM     15  C   UNL     1     137.669 143.761 120.422  1.00  0.00     0.115 A 
ATOM     16  C   UNL     1     137.643 145.944 119.365  1.00  0.00     0.016 A 
ATOM     17  C   UNL     1     137.285 144.594 119.362  1.00  0.00     0.047 A 
BRANCH  15  18
ATOM     18  O   UNL     1     137.317 142.414 120.431  1.00  0.00    -0.508 OA
ATOM     19  H   UNL     1     137.994 141.691 120.644  1.00  0.00     0.293 HD
ENDBRANCH  15  18
ENDBRANCH   1  12
BRANCH   2  20
ATOM     20  O   UNL     1     140.609 147.482 118.875  1.00  0.00    -0.502 OA
ATOM     21  H   UNL     1     140.408 147.269 117.905  1.00  0.00     0.293 HD
ENDBRANCH   2  20
BRANCH   6  22
ATOM     22  O   UNL     1     140.636 152.610 119.742  1.00  0.00    -0.507 OA
ATOM     23  H   UNL     1     140.720 152.458 118.744  1.00  0.00     0.293 HD
ENDBRANCH   6  22
BRANCH   8  24
ATOM     24  O   UNL     1     136.999 153.062 122.904  1.00  0.00    -0.508 OA
ATOM     25  H   UNL     1     136.441 153.821 122.530  1.00  0.00     0.293 HD
ENDBRANCH   8  24
TORSDOF 5
ENDMDL
MODEL 4
REMARK VINA RESULT:    -5.448      2.539      5.094
REMARK INTER + INTRA:          -6.599
REMARK INTER:                  -6.489
REMARK INTRA:                  -0.110
REMARK UNBOUND:                -0.195
REMARK SMILES O=c1c(O)c(-c2ccc(O)cc2)oc2cc(O)cc(O)c12
REMARK SMILES IDX 5 1 3 2 2 3 1 4 21 5 19 6 18 7 16 8 15 9 14 10 13 11 6 12
REMARK SMILES IDX 7 13 8 14 9 15 12 16 11 17 10 18 4 20 20 22 17 24
REMARK H PARENT 10 19 4 21 20 23 17 25
REMARK Flexibility Score: inf
ROOT
ATOM      1  C   UNL     1     139.123 149.658 120.024  1.00  0.00     0.180 A 
ATOM      2  C   UNL     1     138.141 150.534 119.521  1.00  0.00     0.208 A 
ATOM      3  C   UNL     1     138.453 151.896 119.384  1.00  0.00     0.238 A 
ATOM      4  O   UNL     1     137.578 152.692 118.945  1.00  0.00    -0.285 OA
ATOM      5  C   UNL     1     139.740 152.354 119.732  1.00  0.00     0.111 A 
ATOM      6  C   UNL     1     140.136 153.709 119.621  1.00  0.00     0.134 A 
ATOM      7  C   UNL     1     141.438 154.085 119.980  1.00  0.00     0.093 A 
ATOM      8  C   UNL     1     142.352 153.132 120.444  1.00  0.00     0.123 A 
ATOM      9  C   UNL     1     141.966 151.795 120.557  1.00  0.00     0.094 A 
ATOM     10  C   UNL     1     140.672 151.401 120.206  1.00  0.00     0.146 A 
ATOM     11  O   UNL     1     140.330 150.124 120.328  1.00  0.00    -0.452 OA
ENDROOT
BRANCH   1  12
ATOM     12  C   UNL     1     138.863 148.212 120.214  1.00  0.00     0.021 A 
ATOM     13  C   UNL     1     137.846 147.756 121.071  1.00  0.00     0.016 A 
ATOM     14  C   UNL     1     137.637 146.385 121.252  1.00  0.00     0.047 A 
ATOM     15  C   UNL     1     138.448 145.455 120.595  1.00  0.00     0.115 A 
ATOM     16  C   UNL     1     139.688 147.273 119.573  1.00  0.00     0.016 A 
ATOM     17  C   UNL     1     139.476 145.903 119.755  1.00  0.00     0.047 A 
BRANCH  15  18
ATOM     18  O   UNL     1     138.227 144.094 120.784  1.00  0.00    -0.508 OA
ATOM     19  H   UNL     1     137.942 143.492 120.020  1.00  0.00     0.293 HD
ENDBRANCH  15  18
ENDBRANCH   1  12
BRANCH   2  20
ATOM     20  O   UNL     1     136.889 150.046 119.136  1.00  0.00    -0.502 OA
ATOM     21  H   UNL     1     136.433 149.281 119.620  1.00  0.00     0.293 HD
ENDBRANCH   2  20
BRANCH   6  22
ATOM     22  O   UNL     1     139.247 154.681 119.159  1.00  0.00    -0.507 OA
ATOM     23  H   UNL     1     138.608 155.159 119.785  1.00  0.00     0.293 HD
ENDBRANCH   6  22
BRANCH   8  24
ATOM     24  O   UNL     1     143.647 153.505 120.799  1.00  0.00    -0.508 OA
ATOM     25  H   UNL     1     143.910 153.657 121.766  1.00  0.00     0.293 HD
ENDBRANCH   8  24
TORSDOF 5
ENDMDL
MODEL 5
REMARK VINA RESULT:    -5.142      2.110      3.318
REMARK INTER + INTRA:          -6.238
REMARK INTER:                  -6.425
REMARK INTRA:                   0.187
REMARK UNBOUND:                -0.195
REMARK SMILES O=c1c(O)c(-c2ccc(O)cc2)oc2cc(O)cc(O)c12
REMARK SMILES IDX 5 1 3 2 2 3 1 4 21 5 19 6 18 7 16 8 15 9 14 10 13 11 6 12
REMARK SMILES IDX 7 13 8 14 9 15 12 16 11 17 10 18 4 20 20 22 17 24
REMARK H PARENT 10 19 4 21 20 23 17 25
REMARK Flexibility Score: inf
ROOT
ATOM      1  C   UNL     1     140.228 150.811 120.268  1.00  0.00     0.180 A 
ATOM      2  C   UNL     1     141.574 150.836 119.854  1.00  0.00     0.208 A 
ATOM      3  C   UNL     1     142.305 152.026 119.998  1.00  0.00     0.238 A 
ATOM      4  O   UNL     1     143.508 152.065 119.620  1.00  0.00    -0.285 OA
ATOM      5  C   UNL     1     141.687 153.159 120.568  1.00  0.00     0.111 A 
ATOM      6  C   UNL     1     142.355 154.394 120.751  1.00  0.00     0.134 A 
ATOM      7  C   UNL     1     141.674 155.472 121.334  1.00  0.00     0.093 A 
ATOM      8  C   UNL     1     140.341 155.338 121.739  1.00  0.00     0.123 A 
ATOM      9  C   UNL     1     139.678 154.123 121.559  1.00  0.00     0.094 A 
ATOM     10  C   UNL     1     140.339 153.036 120.978  1.00  0.00     0.146 A 
ATOM     11  O   UNL     1     139.684 151.893 120.814  1.00  0.00    -0.452 OA
ENDROOT
BRANCH   1  12
ATOM     12  C   UNL     1     139.387 149.599 120.132  1.00  0.00     0.021 A 
ATOM     13  C   UNL     1     139.509 148.742 119.023  1.00  0.00     0.016 A 
ATOM     14  C   UNL     1     138.686 147.618 118.905  1.00  0.00     0.047 A 
ATOM     15  C   UNL     1     137.723 147.343 119.881  1.00  0.00     0.115 A 
ATOM     16  C   UNL     1     138.402 149.329 121.097  1.00  0.00     0.016 A 
ATOM     17  C   UNL     1     137.582 148.204 120.978  1.00  0.00     0.047 A 
BRANCH  15  18
ATOM     18  O   UNL     1     136.912 146.219 119.751  1.00  0.00    -0.508 OA
ATOM     19  H   UNL     1     137.007 145.423 120.371  1.00  0.00     0.293 HD
ENDBRANCH  15  18
ENDBRANCH   1  12
BRANCH   2  20
ATOM     20  O   UNL     1     142.176 149.686 119.338  1.00  0.00    -0.502 OA
ATOM     21  H   UNL     1     141.662 148.827 119.182  1.00  0.00     0.293 HD
ENDBRANCH   2  20
BRANCH   6  22
ATOM     22  O   UNL     1     143.684 154.557 120.359  1.00  0.00    -0.507 OA
ATOM     23  H   UNL     1     144.410 153.917 120.659  1.00  0.00     0.293 HD
ENDBRANCH   6  22
BRANCH   8  24
ATOM     24  O   UNL     1     139.665 156.409 122.319  1.00  0.00    -0.508 OA
ATOM     25  H   UNL     1     138.653 156.450 122.339  1.00  0.00     0.293 HD
ENDBRANCH   8  24
TORSDOF 5
ENDMDL
MODEL 6
REMARK VINA RESULT:    -5.078      1.692      6.731
REMARK INTER + INTRA:          -6.163
REMARK INTER:                  -5.991
REMARK INTRA:                  -0.172
REMARK UNBOUND:                -0.195
REMARK SMILES O=c1c(O)c(-c2ccc(O)cc2)oc2cc(O)cc(O)c12
REMARK SMILES IDX 5 1 3 2 2 3 1 4 21 5 19 6 18 7 16 8 15 9 14 10 13 11 6 12
REMARK SMILES IDX 7 13 8 14 9 15 12 16 11 17 10 18 4 20 20 22 17 24
REMARK H PARENT 10 19 4 21 20 23 17 25
REMARK Flexibility Score: inf
ROOT
ATOM      1  C   UNL     1     140.529 153.132 120.264  1.00  0.00     0.180 A 
ATOM      2  C   UNL     1     141.776 152.502 120.084  1.00  0.00     0.208 A 
ATOM      3  C   UNL     1     141.807 151.124 119.818  1.00  0.00     0.238 A 
ATOM      4  O   UNL     1     142.918 150.547 119.666  1.00  0.00    -0.285 OA
ATOM      5  C   UNL     1     140.598 150.406 119.718  1.00  0.00     0.111 A 
ATOM      6  C   UNL     1     140.542 149.017 119.449  1.00  0.00     0.134 A 
ATOM      7  C   UNL     1     139.298 148.376 119.357  1.00  0.00     0.093 A 
ATOM      8  C   UNL     1     138.111 149.097 119.524  1.00  0.00     0.123 A 
ATOM      9  C   UNL     1     138.160 150.466 119.790  1.00  0.00     0.094 A 
ATOM     10  C   UNL     1     139.390 151.123 119.889  1.00  0.00     0.146 A 
ATOM     11  O   UNL     1     139.409 152.426 120.148  1.00  0.00    -0.452 OA
ENDROOT
BRANCH   1  12
ATOM     12  C   UNL     1     140.415 154.578 120.565  1.00  0.00     0.021 A 
ATOM     13  C   UNL     1     139.945 155.034 121.810  1.00  0.00     0.016 A 
ATOM     14  C   UNL     1     139.823 156.403 122.061  1.00  0.00     0.047 A 
ATOM     15  C   UNL     1     140.152 157.334 121.071  1.00  0.00     0.115 A 
ATOM     16  C   UNL     1     140.723 155.518 119.567  1.00  0.00     0.016 A 
ATOM     17  C   UNL     1     140.602 156.887 119.821  1.00  0.00     0.047 A 
BRANCH  15  18
ATOM     18  O   UNL     1     140.027 158.695 121.335  1.00  0.00    -0.508 OA
ATOM     19  H   UNL     1     139.717 159.347 120.624  1.00  0.00     0.293 HD
ENDBRANCH  15  18
ENDBRANCH   1  12
BRANCH   2  20
ATOM     20  O   UNL     1     142.957 153.246 120.138  1.00  0.00    -0.502 OA
ATOM     21  H   UNL     1     143.455 153.536 119.304  1.00  0.00     0.293 HD
ENDBRANCH   2  20
BRANCH   6  22
ATOM     22  O   UNL     1     141.709 148.272 119.276  1.00  0.00    -0.507 OA
ATOM     23  H   UNL     1     142.515 148.650 118.790  1.00  0.00     0.293 HD
ENDBRANCH   6  22
BRANCH   8  24
ATOM     24  O   UNL     1     136.875 148.460 119.430  1.00  0.00    -0.508 OA
ATOM     25  H   UNL     1     136.741 147.510 119.756  1.00  0.00     0.293 HD
ENDBRANCH   8  24
TORSDOF 5
ENDMDL
MODEL 7
REMARK VINA RESULT:    -5.005      1.399      3.280
REMARK INTER + INTRA:          -6.077
REMARK INTER:                  -5.916
REMARK INTRA:                  -0.160
REMARK UNBOUND:                -0.195
REMARK SMILES O=c1c(O)c(-c2ccc(O)cc2)oc2cc(O)cc(O)c12
REMARK SMILES IDX 5 1 3 2 2 3 1 4 21 5 19 6 18 7 16 8 15 9 14 10 13 11 6 12
REMARK SMILES IDX 7 13 8 14 9 15 12 16 11 17 10 18 4 20 20 22 17 24
REMARK H PARENT 10 19 4 21 20 23 17 25
REMARK Flexibility Score: inf
ROOT
ATOM      1  C   UNL     1     139.986 152.429 120.053  1.00  0.00     0.180 A 
ATOM      2  C   UNL     1     138.945 153.258 119.591  1.00  0.00     0.208 A 
ATOM      3  C   UNL     1     139.018 154.638 119.835  1.00  0.00     0.238 A 
ATOM      4  O   UNL     1     138.087 155.389 119.436  1.00  0.00    -0.285 OA
ATOM      5  C   UNL     1     140.134 155.168 120.516  1.00  0.00     0.111 A 
ATOM      6  C   UNL     1     140.287 156.547 120.798  1.00  0.00     0.134 A 
ATOM      7  C   UNL     1     141.431 156.996 121.473  1.00  0.00     0.093 A 
ATOM      8  C   UNL     1     142.426 156.094 121.867  1.00  0.00     0.123 A 
ATOM      9  C   UNL     1     142.279 154.734 121.592  1.00  0.00     0.094 A 
ATOM     10  C   UNL     1     141.145 154.265 120.922  1.00  0.00     0.146 A 
ATOM     11  O   UNL     1     141.030 152.965 120.678  1.00  0.00    -0.452 OA
ENDROOT
BRANCH   1  12
ATOM     12  C   UNL     1     139.972 150.962 119.850  1.00  0.00     0.021 A 
ATOM     13  C   UNL     1     138.995 150.148 120.451  1.00  0.00     0.016 A 
ATOM     14  C   UNL     1     139.017 148.763 120.265  1.00  0.00     0.047 A 
ATOM     15  C   UNL     1     140.020 148.171 119.490  1.00  0.00     0.115 A 
ATOM     16  C   UNL     1     140.989 150.360 119.091  1.00  0.00     0.016 A 
ATOM     17  C   UNL     1     141.008 148.975 118.904  1.00  0.00     0.047 A 
BRANCH  15  18
ATOM     18  O   UNL     1     140.029 146.791 119.312  1.00  0.00    -0.508 OA
ATOM     19  H   UNL     1     140.490 146.174 119.971  1.00  0.00     0.293 HD
ENDBRANCH  15  18
ENDBRANCH   1  12
BRANCH   2  20
ATOM     20  O   UNL     1     137.875 152.715 118.875  1.00  0.00    -0.502 OA
ATOM     21  H   UNL     1     137.088 152.269 119.331  1.00  0.00     0.293 HD
ENDBRANCH   2  20
BRANCH   6  22
ATOM     22  O   UNL     1     139.312 157.470 120.416  1.00  0.00    -0.507 OA
ATOM     23  H   UNL     1     139.556 158.349 119.974  1.00  0.00     0.293 HD
ENDBRANCH   6  22
BRANCH   8  24
ATOM     24  O   UNL     1     143.563 156.541 122.536  1.00  0.00    -0.508 OA
ATOM     25  H   UNL     1     143.845 157.514 122.513  1.00  0.00     0.293 HD
ENDBRANCH   8  24
TORSDOF 5
ENDMDL
MODEL 8
REMARK VINA RESULT:    -4.967      1.385      3.105
REMARK INTER + INTRA:          -6.032
REMARK INTER:                  -5.909
REMARK INTRA:                  -0.123
REMARK UNBOUND:                -0.195
REMARK SMILES O=c1c(O)c(-c2ccc(O)cc2)oc2cc(O)cc(O)c12
REMARK SMILES IDX 5 1 3 2 2 3 1 4 21 5 19 6 18 7 16 8 15 9 14 10 13 11 6 12
REMARK SMILES IDX 7 13 8 14 9 15 12 16 11 17 10 18 4 20 20 22 17 24
REMARK H PARENT 10 19 4 21 20 23 17 25
REMARK Flexibility Score: inf
ROOT
ATOM      1  C   UNL     1     140.062 152.390 120.101  1.00  0.00     0.180 A 
ATOM      2  C   UNL     1     139.027 153.208 119.608  1.00  0.00     0.208 A 
ATOM      3  C   UNL     1     139.088 154.591 119.837  1.00  0.00     0.238 A 
ATOM      4  O   UNL     1     138.161 155.333 119.411  1.00  0.00    -0.285 OA
ATOM      5  C   UNL     1     140.186 155.134 120.536  1.00  0.00     0.111 A 
ATOM      6  C   UNL     1     140.325 156.517 120.806  1.00  0.00     0.134 A 
ATOM      7  C   UNL     1     141.453 156.980 121.500  1.00  0.00     0.093 A 
ATOM      8  C   UNL     1     142.443 156.088 121.926  1.00  0.00     0.123 A 
ATOM      9  C   UNL     1     142.310 154.723 121.663  1.00  0.00     0.094 A 
ATOM     10  C   UNL     1     141.193 154.242 120.974  1.00  0.00     0.146 A 
ATOM     11  O   UNL     1     141.089 152.938 120.742  1.00  0.00    -0.452 OA
ENDROOT
BRANCH   1  12
ATOM     12  C   UNL     1     140.059 150.920 119.914  1.00  0.00     0.021 A 
ATOM     13  C   UNL     1     141.024 150.280 119.115  1.00  0.00     0.016 A 
ATOM     14  C   UNL     1     140.985 148.895 118.934  1.00  0.00     0.047 A 
ATOM     15  C   UNL     1     139.977 148.133 119.534  1.00  0.00     0.115 A 
ATOM     16  C   UNL     1     139.037 150.152 120.496  1.00  0.00     0.016 A 
ATOM     17  C   UNL     1     139.001 148.767 120.315  1.00  0.00     0.047 A 
BRANCH  15  18
ATOM     18  O   UNL     1     139.952 146.754 119.346  1.00  0.00    -0.508 OA
ATOM     19  H   UNL     1     140.007 146.111 120.128  1.00  0.00     0.293 HD
ENDBRANCH  15  18
ENDBRANCH   1  12
BRANCH   2  20
ATOM     20  O   UNL     1     137.975 152.651 118.875  1.00  0.00    -0.502 OA
ATOM     21  H   UNL     1     137.395 153.203 118.254  1.00  0.00     0.293 HD
ENDBRANCH   2  20
BRANCH   6  22
ATOM     22  O   UNL     1     139.355 157.430 120.393  1.00  0.00    -0.507 OA
ATOM     23  H   UNL     1     138.617 157.169 119.748  1.00  0.00     0.293 HD
ENDBRANCH   6  22
BRANCH   8  24
ATOM     24  O   UNL     1     143.564 156.548 122.613  1.00  0.00    -0.508 OA
ATOM     25  H   UNL     1     144.467 156.098 122.519  1.00  0.00     0.293 HD
ENDBRANCH   8  24
TORSDOF 5
ENDMDL
