MODEL 1
REMARK VINA RESULT:    -1.578      0.000      0.000
REMARK INTER + INTRA:          -6.986
REMARK INTER:                  -3.423
REMARK INTRA:                  -3.562
REMARK UNBOUND:                -3.562
REMARK SMILES CCCCCCCCCCCCCCCCCCCCCC(=O)[O-]
REMARK SMILES IDX 12 1 11 2 10 3 9 4 8 5 7 6 6 7 5 8 4 9 3 10 2 11 1 12 13 13
REMARK SMILES IDX 14 14 15 15 16 16 17 17 18 18 19 19 20 20 21 21 22 22 23 23
REMARK SMILES IDX 24 24
REMARK H PARENT
REMARK Flexibility Score: inf
ROOT
ATOM      1  C   UNL     1     -20.570 -23.212  29.387  1.00  0.00     0.000 C 
ENDROOT
BRANCH   1   2
ATOM      2  C   UNL     1     -19.575 -23.079  30.555  1.00  0.00     0.000 C 
BRANCH   2   3
ATOM      3  C   UNL     1     -18.711 -21.812  30.452  1.00  0.00     0.000 C 
BRANCH   3   4
ATOM      4  C   UNL     1     -18.209 -21.327  31.824  1.00  0.00    -0.000 C 
BRANCH   4   5
ATOM      5  C   UNL     1     -16.675 -21.315  31.921  1.00  0.00    -0.000 C 
BRANCH   5   6
ATOM      6  C   UNL     1     -15.992 -21.630  30.580  1.00  0.00    -0.000 C 
BRANCH   6   7
ATOM      7  C   UNL     1     -15.126 -22.902  30.637  1.00  0.00    -0.000 C 
BRANCH   7   8
ATOM      8  C   UNL     1     -15.432 -23.847  31.816  1.00  0.00    -0.000 C 
BRANCH   8   9
ATOM      9  C   UNL     1     -15.710 -25.311  31.423  1.00  0.00    -0.000 C 
BRANCH   9  10
ATOM     10  C   UNL     1     -16.779 -25.500  30.329  1.00  0.00    -0.000 C 
BRANCH  10  11
ATOM     11  C   UNL     1     -17.865 -26.540  30.659  1.00  0.00    -0.003 C 
ATOM     12  C   UNL     1     -17.288 -27.884  31.098  1.00  0.00     0.004 C 
ENDBRANCH  10  11
ENDBRANCH   9  10
ENDBRANCH   8   9
ENDBRANCH   7   8
ENDBRANCH   6   7
ENDBRANCH   5   6
ENDBRANCH   4   5
ENDBRANCH   3   4
ENDBRANCH   2   3
ENDBRANCH   1   2
BRANCH   1  13
ATOM     13  C   UNL     1     -20.443 -22.073  28.360  1.00  0.00     0.000 C 
BRANCH  13  14
ATOM     14  C   UNL     1     -19.786 -22.468  27.026  1.00  0.00     0.000 C 
BRANCH  14  15
ATOM     15  C   UNL     1     -19.493 -23.975  26.925  1.00  0.00     0.000 C 
BRANCH  15  16
ATOM     16  C   UNL     1     -17.989 -24.293  26.837  1.00  0.00     0.000 C 
BRANCH  16  17
ATOM     17  C   UNL     1     -17.059 -23.233  27.458  1.00  0.00     0.000 C 
BRANCH  17  18
ATOM     18  C   UNL     1     -15.784 -22.995  26.630  1.00  0.00     0.000 C 
BRANCH  18  19
ATOM     19  C   UNL     1     -15.278 -21.544  26.713  1.00  0.00     0.000 C 
BRANCH  19  20
ATOM     20  C   UNL     1     -16.318 -20.524  27.212  1.00  0.00     0.006 C 
BRANCH  20  21
ATOM     21  C   UNL     1     -16.830 -19.596  26.102  1.00  0.00     0.053 C 
BRANCH  21  22
ATOM     22  C   UNL     1     -16.309 -18.207  26.298  1.00  0.00     0.041 C 
ATOM     23  O   UNL     1     -17.091 -17.222  26.224  1.00  0.00    -0.550 OA
ATOM     24  O   UNL     1     -14.970 -18.003  26.607  1.00  0.00    -0.550 OA
ENDBRANCH  21  22
ENDBRANCH  20  21
ENDBRANCH  19  20
ENDBRANCH  18  19
ENDBRANCH  17  18
ENDBRANCH  16  17
ENDBRANCH  15  16
ENDBRANCH  14  15
ENDBRANCH  13  14
ENDBRANCH   1  13
TORSDOF 20
ENDMDL
MODEL 2
REMARK VINA RESULT:    -1.525      3.816      6.777
REMARK INTER + INTRA:          -6.870
REMARK INTER:                  -2.660
REMARK INTRA:                  -4.209
REMARK UNBOUND:                -3.562
REMARK SMILES CCCCCCCCCCCCCCCCCCCCCC(=O)[O-]
REMARK SMILES IDX 12 1 11 2 10 3 9 4 8 5 7 6 6 7 5 8 4 9 3 10 2 11 1 12 13 13
REMARK SMILES IDX 14 14 15 15 16 16 17 17 18 18 19 19 20 20 21 21 22 22 23 23
REMARK SMILES IDX 24 24
REMARK H PARENT
REMARK Flexibility Score: inf
ROOT
ATOM      1  C   UNL     1     -18.801 -25.696  27.904  1.00  0.00     0.000 C 
ENDROOT
BRANCH   1   2
ATOM      2  C   UNL     1     -17.395 -26.164  28.322  1.00  0.00     0.000 C 
BRANCH   2   3
ATOM      3  C   UNL     1     -16.513 -25.008  28.821  1.00  0.00     0.000 C 
BRANCH   3   4
ATOM      4  C   UNL     1     -15.397 -25.484  29.769  1.00  0.00    -0.000 C 
BRANCH   4   5
ATOM      5  C   UNL     1     -15.668 -25.106  31.235  1.00  0.00    -0.000 C 
BRANCH   5   6
ATOM      6  C   UNL     1     -16.829 -24.110  31.387  1.00  0.00    -0.000 C 
BRANCH   6   7
ATOM      7  C   UNL     1     -16.391 -22.777  32.020  1.00  0.00    -0.000 C 
BRANCH   7   8
ATOM      8  C   UNL     1     -16.114 -21.638  31.018  1.00  0.00    -0.000 C 
BRANCH   8   9
ATOM      9  C   UNL     1     -17.110 -21.544  29.846  1.00  0.00    -0.000 C 
BRANCH   9  10
ATOM     10  C   UNL     1     -16.469 -21.350  28.459  1.00  0.00    -0.000 C 
BRANCH  10  11
ATOM     11  C   UNL     1     -17.453 -21.399  27.277  1.00  0.00    -0.003 C 
ATOM     12  C   UNL     1     -17.035 -22.392  26.194  1.00  0.00     0.004 C 
ENDBRANCH  10  11
ENDBRANCH   9  10
ENDBRANCH   8   9
ENDBRANCH   7   8
ENDBRANCH   6   7
ENDBRANCH   5   6
ENDBRANCH   4   5
ENDBRANCH   3   4
ENDBRANCH   2   3
ENDBRANCH   1   2
BRANCH   1  13
ATOM     13  C   UNL     1     -19.192 -24.344  28.528  1.00  0.00     0.000 C 
BRANCH  13  14
ATOM     14  C   UNL     1     -20.146 -24.433  29.733  1.00  0.00     0.000 C 
BRANCH  14  15
ATOM     15  C   UNL     1     -21.374 -25.318  29.460  1.00  0.00     0.000 C 
BRANCH  15  16
ATOM     16  C   UNL     1     -21.455 -26.542  30.393  1.00  0.00     0.000 C 
BRANCH  16  17
ATOM     17  C   UNL     1     -21.085 -27.887  29.740  1.00  0.00     0.000 C 
BRANCH  17  18
ATOM     18  C   UNL     1     -19.949 -28.618  30.477  1.00  0.00     0.000 C 
BRANCH  18  19
ATOM     19  C   UNL     1     -19.050 -27.666  31.286  1.00  0.00     0.000 C 
BRANCH  19  20
ATOM     20  C   UNL     1     -17.619 -28.181  31.531  1.00  0.00     0.006 C 
BRANCH  20  21
ATOM     21  C   UNL     1     -17.172 -29.225  30.498  1.00  0.00     0.053 C 
BRANCH  21  22
ATOM     22  C   UNL     1     -15.713 -29.080  30.203  1.00  0.00     0.041 C 
ATOM     23  O   UNL     1     -14.876 -29.059  31.143  1.00  0.00    -0.550 OA
ATOM     24  O   UNL     1     -15.272 -29.014  28.886  1.00  0.00    -0.550 OA
ENDBRANCH  21  22
ENDBRANCH  20  21
ENDBRANCH  19  20
ENDBRANCH  18  19
ENDBRANCH  17  18
ENDBRANCH  16  17
ENDBRANCH  15  16
ENDBRANCH  14  15
ENDBRANCH  13  14
ENDBRANCH   1  13
TORSDOF 20
ENDMDL
MODEL 3
REMARK VINA RESULT:    -1.523      3.303      6.134
REMARK INTER + INTRA:          -6.867
REMARK INTER:                  -3.110
REMARK INTRA:                  -3.757
REMARK UNBOUND:                -3.562
REMARK SMILES CCCCCCCCCCCCCCCCCCCCCC(=O)[O-]
REMARK SMILES IDX 12 1 11 2 10 3 9 4 8 5 7 6 6 7 5 8 4 9 3 10 2 11 1 12 13 13
REMARK SMILES IDX 14 14 15 15 16 16 17 17 18 18 19 19 20 20 21 21 22 22 23 23
REMARK SMILES IDX 24 24
REMARK H PARENT
REMARK Flexibility Score: inf
ROOT
ATOM      1  C   UNL     1     -19.574 -22.425  27.686  1.00  0.00     0.000 C 
ENDROOT
BRANCH   1   2
ATOM      2  C   UNL     1     -19.353 -22.050  29.162  1.00  0.00     0.000 C 
BRANCH   2   3
ATOM      3  C   UNL     1     -20.380 -22.706  30.099  1.00  0.00     0.000 C 
BRANCH   3   4
ATOM      4  C   UNL     1     -20.365 -22.097  31.512  1.00  0.00    -0.000 C 
BRANCH   4   5
ATOM      5  C   UNL     1     -19.493 -20.834  31.601  1.00  0.00    -0.000 C 
BRANCH   5   6
ATOM      6  C   UNL     1     -20.267 -19.612  32.123  1.00  0.00    -0.000 C 
BRANCH   6   7
ATOM      7  C   UNL     1     -21.760 -19.650  31.751  1.00  0.00    -0.000 C 
BRANCH   7   8
ATOM      8  C   UNL     1     -22.325 -18.335  31.178  1.00  0.00    -0.000 C 
BRANCH   8   9
ATOM      9  C   UNL     1     -22.456 -18.296  29.644  1.00  0.00    -0.000 C 
BRANCH   9  10
ATOM     10  C   UNL     1     -21.996 -19.574  28.917  1.00  0.00    -0.000 C 
BRANCH  10  11
ATOM     11  C   UNL     1     -23.125 -20.385  28.256  1.00  0.00    -0.003 C 
ATOM     12  C   UNL     1     -23.757 -21.406  29.201  1.00  0.00     0.004 C 
ENDBRANCH  10  11
ENDBRANCH   9  10
ENDBRANCH   8   9
ENDBRANCH   7   8
ENDBRANCH   6   7
ENDBRANCH   5   6
ENDBRANCH   4   5
ENDBRANCH   3   4
ENDBRANCH   2   3
ENDBRANCH   1   2
BRANCH   1  13
ATOM     13  C   UNL     1     -18.370 -22.076  26.792  1.00  0.00     0.000 C 
BRANCH  13  14
ATOM     14  C   UNL     1     -17.172 -21.451  27.528  1.00  0.00     0.000 C 
BRANCH  14  15
ATOM     15  C   UNL     1     -15.895 -22.302  27.427  1.00  0.00     0.000 C 
BRANCH  15  16
ATOM     16  C   UNL     1     -15.155 -22.441  28.771  1.00  0.00     0.000 C 
BRANCH  16  17
ATOM     17  C   UNL     1     -15.641 -21.495  29.886  1.00  0.00     0.000 C 
BRANCH  17  18
ATOM     18  C   UNL     1     -16.203 -22.245  31.106  1.00  0.00     0.000 C 
BRANCH  18  19
ATOM     19  C   UNL     1     -15.317 -23.425  31.544  1.00  0.00     0.000 C 
BRANCH  19  20
ATOM     20  C   UNL     1     -15.961 -24.813  31.380  1.00  0.00     0.006 C 
BRANCH  20  21
ATOM     21  C   UNL     1     -17.386 -24.750  30.813  1.00  0.00     0.053 C 
BRANCH  21  22
ATOM     22  C   UNL     1     -17.443 -25.394  29.464  1.00  0.00     0.041 C 
ATOM     23  O   UNL     1     -18.554 -25.591  28.903  1.00  0.00    -0.550 OA
ATOM     24  O   UNL     1     -16.268 -25.732  28.804  1.00  0.00    -0.550 OA
ENDBRANCH  21  22
ENDBRANCH  20  21
ENDBRANCH  19  20
ENDBRANCH  18  19
ENDBRANCH  17  18
ENDBRANCH  16  17
ENDBRANCH  15  16
ENDBRANCH  14  15
ENDBRANCH  13  14
ENDBRANCH   1  13
TORSDOF 20
ENDMDL
MODEL 4
REMARK VINA RESULT:    -1.451      2.656      5.734
REMARK INTER + INTRA:          -6.710
REMARK INTER:                  -3.004
REMARK INTRA:                  -3.706
REMARK UNBOUND:                -3.562
REMARK SMILES CCCCCCCCCCCCCCCCCCCCCC(=O)[O-]
REMARK SMILES IDX 12 1 11 2 10 3 9 4 8 5 7 6 6 7 5 8 4 9 3 10 2 11 1 12 13 13
REMARK SMILES IDX 14 14 15 15 16 16 17 17 18 18 19 19 20 20 21 21 22 22 23 23
REMARK SMILES IDX 24 24
REMARK H PARENT
REMARK Flexibility Score: inf
ROOT
ATOM      1  C   UNL     1     -16.074 -22.933  31.930  1.00  0.00     0.000 C 
ENDROOT
BRANCH   1   2
ATOM      2  C   UNL     1     -15.786 -21.813  30.913  1.00  0.00     0.000 C 
BRANCH   2   3
ATOM      3  C   UNL     1     -16.991 -21.518  30.004  1.00  0.00     0.000 C 
BRANCH   3   4
ATOM      4  C   UNL     1     -16.807 -22.076  28.581  1.00  0.00    -0.000 C 
BRANCH   4   5
ATOM      5  C   UNL     1     -16.778 -20.971  27.513  1.00  0.00    -0.000 C 
BRANCH   5   6
ATOM      6  C   UNL     1     -17.655 -21.299  26.293  1.00  0.00    -0.000 C 
BRANCH   6   7
ATOM      7  C   UNL     1     -19.097 -20.780  26.439  1.00  0.00    -0.000 C 
BRANCH   7   8
ATOM      8  C   UNL     1     -20.146 -21.854  26.788  1.00  0.00    -0.000 C 
BRANCH   8   9
ATOM      9  C   UNL     1     -19.972 -23.198  26.055  1.00  0.00    -0.000 C 
BRANCH   9  10
ATOM     10  C   UNL     1     -20.747 -24.380  26.668  1.00  0.00    -0.000 C 
BRANCH  10  11
ATOM     11  C   UNL     1     -19.906 -25.642  26.928  1.00  0.00    -0.003 C 
ATOM     12  C   UNL     1     -20.664 -26.712  27.711  1.00  0.00     0.004 C 
ENDBRANCH  10  11
ENDBRANCH   9  10
ENDBRANCH   8   9
ENDBRANCH   7   8
ENDBRANCH   6   7
ENDBRANCH   5   6
ENDBRANCH   4   5
ENDBRANCH   3   4
ENDBRANCH   2   3
ENDBRANCH   1   2
BRANCH   1  13
ATOM     13  C   UNL     1     -15.063 -24.091  31.847  1.00  0.00     0.000 C 
BRANCH  13  14
ATOM     14  C   UNL     1     -15.644 -25.430  31.359  1.00  0.00     0.000 C 
BRANCH  14  15
ATOM     15  C   UNL     1     -15.970 -25.430  29.857  1.00  0.00     0.000 C 
BRANCH  15  16
ATOM     16  C   UNL     1     -17.483 -25.433  29.567  1.00  0.00     0.000 C 
BRANCH  16  17
ATOM     17  C   UNL     1     -18.375 -25.837  30.756  1.00  0.00     0.000 C 
BRANCH  17  18
ATOM     18  C   UNL     1     -19.263 -24.685  31.258  1.00  0.00     0.000 C 
BRANCH  18  19
ATOM     19  C   UNL     1     -19.793 -23.797  30.118  1.00  0.00     0.000 C 
BRANCH  19  20
ATOM     20  C   UNL     1     -20.896 -22.806  30.531  1.00  0.00     0.006 C 
BRANCH  20  21
ATOM     21  C   UNL     1     -20.458 -21.339  30.420  1.00  0.00     0.053 C 
BRANCH  21  22
ATOM     22  C   UNL     1     -21.379 -20.455  31.200  1.00  0.00     0.041 C 
ATOM     23  O   UNL     1     -22.549 -20.838  31.467  1.00  0.00    -0.550 OA
ATOM     24  O   UNL     1     -20.931 -19.228  31.674  1.00  0.00    -0.550 OA
ENDBRANCH  21  22
ENDBRANCH  20  21
ENDBRANCH  19  20
ENDBRANCH  18  19
ENDBRANCH  17  18
ENDBRANCH  16  17
ENDBRANCH  15  16
ENDBRANCH  14  15
ENDBRANCH  13  14
ENDBRANCH   1  13
TORSDOF 20
ENDMDL
MODEL 5
REMARK VINA RESULT:    -1.438      2.996      4.704
REMARK INTER + INTRA:          -6.681
REMARK INTER:                  -2.915
REMARK INTRA:                  -3.766
REMARK UNBOUND:                -3.562
REMARK SMILES CCCCCCCCCCCCCCCCCCCCCC(=O)[O-]
REMARK SMILES IDX 12 1 11 2 10 3 9 4 8 5 7 6 6 7 5 8 4 9 3 10 2 11 1 12 13 13
REMARK SMILES IDX 14 14 15 15 16 16 17 17 18 18 19 19 20 20 21 21 22 22 23 23
REMARK SMILES IDX 24 24
REMARK H PARENT
REMARK Flexibility Score: inf
ROOT
ATOM      1  C   UNL     1     -15.468 -22.450  29.631  1.00  0.00     0.000 C 
ENDROOT
BRANCH   1   2
ATOM      2  C   UNL     1     -15.473 -23.342  30.886  1.00  0.00     0.000 C 
BRANCH   2   3
ATOM      3  C   UNL     1     -16.021 -22.614  32.125  1.00  0.00     0.000 C 
BRANCH   3   4
ATOM      4  C   UNL     1     -16.436 -21.163  31.822  1.00  0.00    -0.000 C 
BRANCH   4   5
ATOM      5  C   UNL     1     -17.928 -20.908  32.089  1.00  0.00    -0.000 C 
BRANCH   5   6
ATOM      6  C   UNL     1     -18.835 -21.460  30.976  1.00  0.00    -0.000 C 
BRANCH   6   7
ATOM      7  C   UNL     1     -19.792 -22.556  31.477  1.00  0.00    -0.000 C 
BRANCH   7   8
ATOM      8  C   UNL     1     -19.287 -24.000  31.290  1.00  0.00    -0.000 C 
BRANCH   8   9
ATOM      9  C   UNL     1     -19.595 -24.626  29.916  1.00  0.00    -0.000 C 
BRANCH   9  10
ATOM     10  C   UNL     1     -18.542 -25.629  29.406  1.00  0.00    -0.000 C 
BRANCH  10  11
ATOM     11  C   UNL     1     -17.639 -26.231  30.497  1.00  0.00    -0.003 C 
ATOM     12  C   UNL     1     -17.803 -27.743  30.639  1.00  0.00     0.004 C 
ENDBRANCH  10  11
ENDBRANCH   9  10
ENDBRANCH   8   9
ENDBRANCH   7   8
ENDBRANCH   6   7
ENDBRANCH   5   6
ENDBRANCH   4   5
ENDBRANCH   3   4
ENDBRANCH   2   3
ENDBRANCH   1   2
BRANCH   1  13
ATOM     13  C   UNL     1     -16.090 -23.141  28.404  1.00  0.00     0.000 C 
BRANCH  13  14
ATOM     14  C   UNL     1     -17.325 -22.437  27.816  1.00  0.00     0.000 C 
BRANCH  14  15
ATOM     15  C   UNL     1     -17.519 -22.719  26.317  1.00  0.00     0.000 C 
BRANCH  15  16
ATOM     16  C   UNL     1     -18.808 -23.504  26.012  1.00  0.00     0.000 C 
BRANCH  16  17
ATOM     17  C   UNL     1     -20.076 -22.643  25.848  1.00  0.00     0.000 C 
BRANCH  17  18
ATOM     18  C   UNL     1     -21.044 -22.771  27.036  1.00  0.00     0.000 C 
BRANCH  18  19
ATOM     19  C   UNL     1     -20.885 -21.636  28.064  1.00  0.00     0.000 C 
BRANCH  19  20
ATOM     20  C   UNL     1     -22.112 -20.717  28.208  1.00  0.00     0.006 C 
BRANCH  20  21
ATOM     21  C   UNL     1     -21.976 -19.710  29.358  1.00  0.00     0.053 C 
BRANCH  21  22
ATOM     22  C   UNL     1     -22.571 -20.264  30.614  1.00  0.00     0.041 C 
ATOM     23  O   UNL     1     -22.412 -19.663  31.709  1.00  0.00    -0.550 OA
ATOM     24  O   UNL     1     -23.341 -21.420  30.569  1.00  0.00    -0.550 OA
ENDBRANCH  21  22
ENDBRANCH  20  21
ENDBRANCH  19  20
ENDBRANCH  18  19
ENDBRANCH  17  18
ENDBRANCH  16  17
ENDBRANCH  15  16
ENDBRANCH  14  15
ENDBRANCH  13  14
ENDBRANCH   1  13
TORSDOF 20
ENDMDL
MODEL 6
REMARK VINA RESULT:    -1.430     20.188     23.041
REMARK INTER + INTRA:          -6.663
REMARK INTER:                  -2.637
REMARK INTRA:                  -4.026
REMARK UNBOUND:                -3.562
REMARK SMILES CCCCCCCCCCCCCCCCCCCCCC(=O)[O-]
REMARK SMILES IDX 12 1 11 2 10 3 9 4 8 5 7 6 6 7 5 8 4 9 3 10 2 11 1 12 13 13
REMARK SMILES IDX 14 14 15 15 16 16 17 17 18 18 19 19 20 20 21 21 22 22 23 23
REMARK SMILES IDX 24 24
REMARK H PARENT
REMARK Flexibility Score: inf
ROOT
ATOM      1  C   UNL     1     -29.441 -34.175  18.906  1.00  0.00     0.000 C 
ENDROOT
BRANCH   1   2
ATOM      2  C   UNL     1     -30.925 -34.508  19.147  1.00  0.00     0.000 C 
BRANCH   2   3
ATOM      3  C   UNL     1     -31.453 -35.581  18.182  1.00  0.00     0.000 C 
BRANCH   3   4
ATOM      4  C   UNL     1     -32.937 -35.377  17.826  1.00  0.00    -0.000 C 
BRANCH   4   5
ATOM      5  C   UNL     1     -33.264 -35.808  16.388  1.00  0.00    -0.000 C 
BRANCH   5   6
ATOM      6  C   UNL     1     -32.024 -35.841  15.479  1.00  0.00    -0.000 C 
BRANCH   6   7
ATOM      7  C   UNL     1     -32.283 -35.220  14.095  1.00  0.00    -0.000 C 
BRANCH   7   8
ATOM      8  C   UNL     1     -31.312 -35.670  12.985  1.00  0.00    -0.000 C 
BRANCH   8   9
ATOM      9  C   UNL     1     -29.925 -36.125  13.478  1.00  0.00    -0.000 C 
BRANCH   9  10
ATOM     10  C   UNL     1     -28.937 -34.984  13.792  1.00  0.00    -0.000 C 
BRANCH  10  11
ATOM     11  C   UNL     1     -28.600 -34.073  12.599  1.00  0.00    -0.003 C 
ATOM     12  C   UNL     1     -28.613 -32.589  12.961  1.00  0.00     0.004 C 
ENDBRANCH  10  11
ENDBRANCH   9  10
ENDBRANCH   8   9
ENDBRANCH   7   8
ENDBRANCH   6   7
ENDBRANCH   5   6
ENDBRANCH   4   5
ENDBRANCH   3   4
ENDBRANCH   2   3
ENDBRANCH   1   2
BRANCH   1  13
ATOM     13  C   UNL     1     -29.066 -34.160  17.413  1.00  0.00     0.000 C 
BRANCH  13  14
ATOM     14  C   UNL     1     -29.186 -32.789  16.724  1.00  0.00     0.000 C 
BRANCH  14  15
ATOM     15  C   UNL     1     -30.562 -32.563  16.077  1.00  0.00     0.000 C 
BRANCH  15  16
ATOM     16  C   UNL     1     -31.295 -31.327  16.633  1.00  0.00     0.000 C 
BRANCH  16  17
ATOM     17  C   UNL     1     -32.600 -31.628  17.394  1.00  0.00     0.000 C 
BRANCH  17  18
ATOM     18  C   UNL     1     -33.860 -31.318  16.568  1.00  0.00     0.000 C 
BRANCH  18  19
ATOM     19  C   UNL     1     -34.307 -32.499  15.689  1.00  0.00     0.000 C 
BRANCH  19  20
ATOM     20  C   UNL     1     -34.356 -32.199  14.180  1.00  0.00     0.006 C 
BRANCH  20  21
ATOM     21  C   UNL     1     -33.790 -30.817  13.824  1.00  0.00     0.053 C 
BRANCH  21  22
ATOM     22  C   UNL     1     -32.851 -30.918  12.663  1.00  0.00     0.041 C 
ATOM     23  O   UNL     1     -32.587 -29.898  11.973  1.00  0.00    -0.550 OA
ATOM     24  O   UNL     1     -32.231 -32.126  12.372  1.00  0.00    -0.550 OA
ENDBRANCH  21  22
ENDBRANCH  20  21
ENDBRANCH  19  20
ENDBRANCH  18  19
ENDBRANCH  17  18
ENDBRANCH  16  17
ENDBRANCH  15  16
ENDBRANCH  14  15
ENDBRANCH  13  14
ENDBRANCH   1  13
TORSDOF 20
ENDMDL
MODEL 7
REMARK VINA RESULT:    -1.409      3.862      6.565
REMARK INTER + INTRA:          -6.619
REMARK INTER:                  -2.673
REMARK INTRA:                  -3.946
REMARK UNBOUND:                -3.562
REMARK SMILES CCCCCCCCCCCCCCCCCCCCCC(=O)[O-]
REMARK SMILES IDX 12 1 11 2 10 3 9 4 8 5 7 6 6 7 5 8 4 9 3 10 2 11 1 12 13 13
REMARK SMILES IDX 14 14 15 15 16 16 17 17 18 18 19 19 20 20 21 21 22 22 23 23
REMARK SMILES IDX 24 24
REMARK H PARENT
REMARK Flexibility Score: inf
ROOT
ATOM      1  C   UNL     1     -17.196 -23.163  28.310  1.00  0.00     0.000 C 
ENDROOT
BRANCH   1   2
ATOM      2  C   UNL     1     -17.993 -23.834  27.176  1.00  0.00     0.000 C 
BRANCH   2   3
ATOM      3  C   UNL     1     -18.568 -25.199  27.588  1.00  0.00     0.000 C 
BRANCH   3   4
ATOM      4  C   UNL     1     -20.052 -25.118  27.990  1.00  0.00    -0.000 C 
BRANCH   4   5
ATOM      5  C   UNL     1     -20.325 -25.740  29.369  1.00  0.00    -0.000 C 
BRANCH   5   6
ATOM      6  C   UNL     1     -19.092 -25.714  30.288  1.00  0.00    -0.000 C 
BRANCH   6   7
ATOM      7  C   UNL     1     -19.183 -24.628  31.375  1.00  0.00    -0.000 C 
BRANCH   7   8
ATOM      8  C   UNL     1     -20.599 -24.072  31.626  1.00  0.00    -0.000 C 
BRANCH   8   9
ATOM      9  C   UNL     1     -20.739 -22.547  31.464  1.00  0.00    -0.000 C 
BRANCH   9  10
ATOM     10  C   UNL     1     -21.443 -22.090  30.171  1.00  0.00    -0.000 C 
BRANCH  10  11
ATOM     11  C   UNL     1     -22.774 -22.802  29.873  1.00  0.00    -0.003 C 
ATOM     12  C   UNL     1     -23.994 -21.931  30.168  1.00  0.00     0.004 C 
ENDBRANCH  10  11
ENDBRANCH   9  10
ENDBRANCH   8   9
ENDBRANCH   7   8
ENDBRANCH   6   7
ENDBRANCH   5   6
ENDBRANCH   4   5
ENDBRANCH   3   4
ENDBRANCH   2   3
ENDBRANCH   1   2
BRANCH   1  13
ATOM     13  C   UNL     1     -17.953 -21.992  28.962  1.00  0.00     0.000 C 
BRANCH  13  14
ATOM     14  C   UNL     1     -17.377 -21.511  30.305  1.00  0.00     0.000 C 
BRANCH  14  15
ATOM     15  C   UNL     1     -15.999 -22.117  30.617  1.00  0.00     0.000 C 
BRANCH  15  16
ATOM     16  C   UNL     1     -15.987 -22.955  31.910  1.00  0.00     0.000 C 
BRANCH  16  17
ATOM     17  C   UNL     1     -14.973 -24.115  31.928  1.00  0.00     0.000 C 
BRANCH  17  18
ATOM     18  C   UNL     1     -15.555 -25.428  31.378  1.00  0.00     0.000 C 
BRANCH  18  19
ATOM     19  C   UNL     1     -15.218 -25.658  29.894  1.00  0.00     0.000 C 
BRANCH  19  20
ATOM     20  C   UNL     1     -15.722 -26.993  29.316  1.00  0.00     0.006 C 
BRANCH  20  21
ATOM     21  C   UNL     1     -15.519 -27.105  27.799  1.00  0.00     0.053 C 
BRANCH  21  22
ATOM     22  C   UNL     1     -15.797 -28.499  27.333  1.00  0.00     0.041 C 
ATOM     23  O   UNL     1     -14.884 -29.367  27.352  1.00  0.00    -0.550 OA
ATOM     24  O   UNL     1     -17.076 -28.854  26.923  1.00  0.00    -0.550 OA
ENDBRANCH  21  22
ENDBRANCH  20  21
ENDBRANCH  19  20
ENDBRANCH  18  19
ENDBRANCH  17  18
ENDBRANCH  16  17
ENDBRANCH  15  16
ENDBRANCH  14  15
ENDBRANCH  13  14
ENDBRANCH   1  13
TORSDOF 20
ENDMDL
MODEL 8
REMARK VINA RESULT:     1.293     20.081     23.325
REMARK INTER + INTRA:          -0.757
REMARK INTER:                   3.161
REMARK INTRA:                  -3.918
REMARK UNBOUND:                -3.562
REMARK SMILES CCCCCCCCCCCCCCCCCCCCCC(=O)[O-]
REMARK SMILES IDX 12 1 11 2 10 3 9 4 8 5 7 6 6 7 5 8 4 9 3 10 2 11 1 12 13 13
REMARK SMILES IDX 14 14 15 15 16 16 17 17 18 18 19 19 20 20 21 21 22 22 23 23
REMARK SMILES IDX 24 24
REMARK H PARENT
REMARK Flexibility Score: inf
ROOT
ATOM      1  C   UNL     1     -30.650 -32.032  16.546  1.00  0.00     0.000 C 
ENDROOT
BRANCH   1   2
ATOM      2  C   UNL     1     -31.903 -32.823  16.128  1.00  0.00     0.000 C 
BRANCH   2   3
ATOM      3  C   UNL     1     -32.650 -32.169  14.955  1.00  0.00     0.000 C 
BRANCH   3   4
ATOM      4  C   UNL     1     -33.609 -33.145  14.248  1.00  0.00    -0.000 C 
BRANCH   4   5
ATOM      5  C   UNL     1     -34.000 -34.337  15.137  1.00  0.00    -0.000 C 
BRANCH   5   6
ATOM      6  C   UNL     1     -34.346 -35.596  14.325  1.00  0.00    -0.000 C 
BRANCH   6   7
ATOM      7  C   UNL     1     -33.836 -35.528  12.875  1.00  0.00    -0.000 C 
BRANCH   7   8
ATOM      8  C   UNL     1     -32.433 -36.125  12.647  1.00  0.00    -0.000 C 
BRANCH   8   9
ATOM      9  C   UNL     1     -31.346 -35.105  12.255  1.00  0.00    -0.000 C 
BRANCH   9  10
ATOM     10  C   UNL     1     -30.258 -34.871  13.320  1.00  0.00    -0.000 C 
BRANCH  10  11
ATOM     11  C   UNL     1     -29.594 -33.484  13.273  1.00  0.00    -0.003 C 
ATOM     12  C   UNL     1     -28.078 -33.555  13.092  1.00  0.00     0.004 C 
ENDBRANCH  10  11
ENDBRANCH   9  10
ENDBRANCH   8   9
ENDBRANCH   7   8
ENDBRANCH   6   7
ENDBRANCH   5   6
ENDBRANCH   4   5
ENDBRANCH   3   4
ENDBRANCH   2   3
ENDBRANCH   1   2
BRANCH   1  13
ATOM     13  C   UNL     1     -29.882 -32.694  17.705  1.00  0.00     0.000 C 
BRANCH  13  14
ATOM     14  C   UNL     1     -28.535 -33.328  17.315  1.00  0.00     0.000 C 
BRANCH  14  15
ATOM     15  C   UNL     1     -28.692 -34.691  16.622  1.00  0.00     0.000 C 
BRANCH  15  16
ATOM     16  C   UNL     1     -29.507 -35.700  17.453  1.00  0.00     0.000 C 
BRANCH  16  17
ATOM     17  C   UNL     1     -30.851 -36.125  16.832  1.00  0.00     0.000 C 
BRANCH  17  18
ATOM     18  C   UNL     1     -32.054 -35.817  17.739  1.00  0.00     0.000 C 
BRANCH  18  19
ATOM     19  C   UNL     1     -31.655 -35.590  19.208  1.00  0.00     0.000 C 
BRANCH  19  20
ATOM     20  C   UNL     1     -32.697 -34.832  20.051  1.00  0.00     0.006 C 
BRANCH  20  21
ATOM     21  C   UNL     1     -32.807 -33.347  19.677  1.00  0.00     0.053 C 
BRANCH  21  22
ATOM     22  C   UNL     1     -34.242 -32.937  19.573  1.00  0.00     0.041 C 
ATOM     23  O   UNL     1     -34.797 -32.857  18.445  1.00  0.00    -0.550 OA
ATOM     24  O   UNL     1     -34.980 -32.688  20.723  1.00  0.00    -0.550 OA
ENDBRANCH  21  22
ENDBRANCH  20  21
ENDBRANCH  19  20
ENDBRANCH  18  19
ENDBRANCH  17  18
ENDBRANCH  16  17
ENDBRANCH  15  16
ENDBRANCH  14  15
ENDBRANCH  13  14
ENDBRANCH   1  13
TORSDOF 20
ENDMDL
