MODEL 1
REMARK VINA RESULT:    -3.232      0.000      0.000
REMARK INTER + INTRA:          -6.243
REMARK INTER:                  -5.877
REMARK INTRA:                  -0.366
REMARK UNBOUND:                -0.366
REMARK SMILES CCCCCCCCCCCCCCCC(=O)[O-]
REMARK SMILES IDX 9 1 10 2 11 3 12 4 13 5 14 6 15 7 16 8 17 9 18 10 8 11 7 12
REMARK SMILES IDX 6 13 5 14 4 15 3 16 2 17 1 18
REMARK H PARENT
REMARK Flexibility Score: inf
ROOT
ATOM      1  C   UNL     1      36.836 107.217 263.511  1.00  0.00     0.000 C 
ENDROOT
BRANCH   1   2
ATOM      2  C   UNL     1      35.670 106.558 262.757  1.00  0.00     0.000 C 
BRANCH   2   3
ATOM      3  C   UNL     1      35.310 105.174 263.323  1.00  0.00     0.000 C 
BRANCH   3   4
ATOM      4  C   UNL     1      35.759 104.996 264.783  1.00  0.00     0.000 C 
BRANCH   4   5
ATOM      5  C   UNL     1      34.903 105.806 265.769  1.00  0.00     0.000 C 
BRANCH   5   6
ATOM      6  C   UNL     1      35.657 106.040 267.084  1.00  0.00     0.006 C 
BRANCH   6   7
ATOM      7  C   UNL     1      34.875 106.979 268.007  1.00  0.00     0.053 C 
BRANCH   7   8
ATOM      8  C   UNL     1      35.012 108.397 267.549  1.00  0.00     0.041 C 
ATOM      9  O   UNL     1      35.061 109.332 268.390  1.00  0.00    -0.550 OA
ATOM     10  O   UNL     1      35.029 108.690 266.192  1.00  0.00    -0.550 OA
ENDBRANCH   7   8
ENDBRANCH   6   7
ENDBRANCH   5   6
ENDBRANCH   4   5
ENDBRANCH   3   4
ENDBRANCH   2   3
ENDBRANCH   1   2
BRANCH   1  11
ATOM     11  C   UNL     1      38.203 106.632 263.113  1.00  0.00     0.000 C 
BRANCH  11  12
ATOM     12  C   UNL     1      38.746 107.233 261.806  1.00  0.00    -0.000 C 
BRANCH  12  13
ATOM     13  C   UNL     1      38.894 106.183 260.692  1.00  0.00    -0.000 C 
BRANCH  13  14
ATOM     14  C   UNL     1      37.539 105.651 260.198  1.00  0.00    -0.000 C 
BRANCH  14  15
ATOM     15  C   UNL     1      37.539 105.324 258.697  1.00  0.00    -0.000 C 
BRANCH  15  16
ATOM     16  C   UNL     1      36.949 106.485 257.883  1.00  0.00    -0.000 C 
BRANCH  16  17
ATOM     17  C   UNL     1      36.167 107.481 258.754  1.00  0.00    -0.003 C 
ATOM     18  C   UNL     1      35.597 108.648 257.950  1.00  0.00     0.004 C 
ENDBRANCH  16  17
ENDBRANCH  15  16
ENDBRANCH  14  15
ENDBRANCH  13  14
ENDBRANCH  12  13
ENDBRANCH  11  12
ENDBRANCH   1  11
TORSDOF 14
ENDMDL
MODEL 2
REMARK VINA RESULT:    -3.061      1.212      3.072
REMARK INTER + INTRA:          -5.931
REMARK INTER:                  -6.687
REMARK INTRA:                   0.756
REMARK UNBOUND:                -0.366
REMARK SMILES CCCCCCCCCCCCCCCC(=O)[O-]
REMARK SMILES IDX 9 1 10 2 11 3 12 4 13 5 14 6 15 7 16 8 17 9 18 10 8 11 7 12
REMARK SMILES IDX 6 13 5 14 4 15 3 16 2 17 1 18
REMARK H PARENT
REMARK Flexibility Score: inf
ROOT
ATOM      1  C   UNL     1      36.011 104.664 265.493  1.00  0.00     0.000 C 
ENDROOT
BRANCH   1   2
ATOM      2  C   UNL     1      35.097 104.589 266.727  1.00  0.00     0.000 C 
BRANCH   2   3
ATOM      3  C   UNL     1      35.004 105.931 267.474  1.00  0.00     0.000 C 
BRANCH   3   4
ATOM      4  C   UNL     1      35.316 105.797 268.973  1.00  0.00     0.000 C 
BRANCH   4   5
ATOM      5  C   UNL     1      35.383 107.154 269.689  1.00  0.00     0.000 C 
BRANCH   5   6
ATOM      6  C   UNL     1      34.878 108.280 268.776  1.00  0.00     0.006 C 
BRANCH   6   7
ATOM      7  C   UNL     1      35.699 108.350 267.485  1.00  0.00     0.053 C 
BRANCH   7   8
ATOM      8  C   UNL     1      35.145 109.395 266.569  1.00  0.00     0.041 C 
ATOM      9  O   UNL     1      34.875 110.544 267.007  1.00  0.00    -0.550 OA
ATOM     10  O   UNL     1      34.875 109.084 265.242  1.00  0.00    -0.550 OA
ENDBRANCH   7   8
ENDBRANCH   6   7
ENDBRANCH   5   6
ENDBRANCH   4   5
ENDBRANCH   3   4
ENDBRANCH   2   3
ENDBRANCH   1   2
BRANCH   1  11
ATOM     11  C   UNL     1      35.226 104.896 264.190  1.00  0.00     0.000 C 
BRANCH  11  12
ATOM     12  C   UNL     1      35.036 106.388 263.871  1.00  0.00    -0.000 C 
BRANCH  12  13
ATOM     13  C   UNL     1      36.082 106.914 262.872  1.00  0.00    -0.000 C 
BRANCH  13  14
ATOM     14  C   UNL     1      36.428 105.886 261.783  1.00  0.00    -0.000 C 
BRANCH  14  15
ATOM     15  C   UNL     1      37.657 106.287 260.954  1.00  0.00    -0.000 C 
BRANCH  15  16
ATOM     16  C   UNL     1      37.819 105.367 259.734  1.00  0.00    -0.000 C 
BRANCH  16  17
ATOM     17  C   UNL     1      37.441 106.062 258.416  1.00  0.00    -0.003 C 
ATOM     18  C   UNL     1      36.506 107.253 258.622  1.00  0.00     0.004 C 
ENDBRANCH  16  17
ENDBRANCH  15  16
ENDBRANCH  14  15
ENDBRANCH  13  14
ENDBRANCH  12  13
ENDBRANCH  11  12
ENDBRANCH   1  11
TORSDOF 14
ENDMDL
MODEL 3
REMARK VINA RESULT:    -2.795      1.590      2.140
REMARK INTER + INTRA:          -5.448
REMARK INTER:                  -4.484
REMARK INTRA:                  -0.964
REMARK UNBOUND:                -0.366
REMARK SMILES CCCCCCCCCCCCCCCC(=O)[O-]
REMARK SMILES IDX 9 1 10 2 11 3 12 4 13 5 14 6 15 7 16 8 17 9 18 10 8 11 7 12
REMARK SMILES IDX 6 13 5 14 4 15 3 16 2 17 1 18
REMARK H PARENT
REMARK Flexibility Score: inf
ROOT
ATOM      1  C   UNL     1      38.297 106.924 263.163  1.00  0.00     0.000 C 
ENDROOT
BRANCH   1   2
ATOM      2  C   UNL     1      37.213 105.845 263.006  1.00  0.00     0.000 C 
BRANCH   2   3
ATOM      3  C   UNL     1      36.082 105.992 264.039  1.00  0.00     0.000 C 
BRANCH   3   4
ATOM      4  C   UNL     1      35.294 107.301 263.872  1.00  0.00     0.000 C 
BRANCH   4   5
ATOM      5  C   UNL     1      34.875 107.917 265.215  1.00  0.00     0.000 C 
BRANCH   5   6
ATOM      6  C   UNL     1      34.886 106.862 266.329  1.00  0.00     0.006 C 
BRANCH   6   7
ATOM      7  C   UNL     1      35.552 107.407 267.596  1.00  0.00     0.053 C 
BRANCH   7   8
ATOM      8  C   UNL     1      35.214 106.550 268.775  1.00  0.00     0.041 C 
ATOM      9  O   UNL     1      34.918 105.337 268.613  1.00  0.00    -0.550 OA
ATOM     10  O   UNL     1      35.172 107.104 270.048  1.00  0.00    -0.550 OA
ENDBRANCH   7   8
ENDBRANCH   6   7
ENDBRANCH   5   6
ENDBRANCH   4   5
ENDBRANCH   3   4
ENDBRANCH   2   3
ENDBRANCH   1   2
BRANCH   1  11
ATOM     11  C   UNL     1      39.109 107.138 261.873  1.00  0.00     0.000 C 
BRANCH  11  12
ATOM     12  C   UNL     1      38.961 105.972 260.881  1.00  0.00    -0.000 C 
BRANCH  12  13
ATOM     13  C   UNL     1      38.454 106.433 259.504  1.00  0.00    -0.000 C 
BRANCH  13  14
ATOM     14  C   UNL     1      36.963 106.810 259.519  1.00  0.00    -0.000 C 
BRANCH  14  15
ATOM     15  C   UNL     1      36.291 106.633 258.150  1.00  0.00    -0.000 C 
BRANCH  15  16
ATOM     16  C   UNL     1      35.277 107.758 257.888  1.00  0.00    -0.000 C 
BRANCH  16  17
ATOM     17  C   UNL     1      35.820 109.144 258.272  1.00  0.00    -0.003 C 
ATOM     18  C   UNL     1      34.875 110.278 257.879  1.00  0.00     0.004 C 
ENDBRANCH  16  17
ENDBRANCH  15  16
ENDBRANCH  14  15
ENDBRANCH  13  14
ENDBRANCH  12  13
ENDBRANCH  11  12
ENDBRANCH   1  11
TORSDOF 14
ENDMDL
MODEL 4
REMARK VINA RESULT:    -2.703      2.427      7.162
REMARK INTER + INTRA:          -5.281
REMARK INTER:                  -4.958
REMARK INTRA:                  -0.323
REMARK UNBOUND:                -0.366
REMARK SMILES CCCCCCCCCCCCCCCC(=O)[O-]
REMARK SMILES IDX 9 1 10 2 11 3 12 4 13 5 14 6 15 7 16 8 17 9 18 10 8 11 7 12
REMARK SMILES IDX 6 13 5 14 4 15 3 16 2 17 1 18
REMARK H PARENT
REMARK Flexibility Score: inf
ROOT
ATOM      1  C   UNL     1      35.326 105.444 263.800  1.00  0.00     0.000 C 
ENDROOT
BRANCH   1   2
ATOM      2  C   UNL     1      34.880 104.371 262.793  1.00  0.00     0.000 C 
BRANCH   2   3
ATOM      3  C   UNL     1      35.949 104.088 261.723  1.00  0.00     0.000 C 
BRANCH   3   4
ATOM      4  C   UNL     1      36.211 105.298 260.813  1.00  0.00     0.000 C 
BRANCH   4   5
ATOM      5  C   UNL     1      37.409 105.086 259.874  1.00  0.00     0.000 C 
BRANCH   5   6
ATOM      6  C   UNL     1      38.639 105.856 260.373  1.00  0.00     0.006 C 
BRANCH   6   7
ATOM      7  C   UNL     1      38.225 107.080 261.196  1.00  0.00     0.053 C 
BRANCH   7   8
ATOM      8  C   UNL     1      38.948 107.100 262.505  1.00  0.00     0.041 C 
ATOM      9  O   UNL     1      40.207 107.097 262.534  1.00  0.00    -0.550 OA
ATOM     10  O   UNL     1      38.233 107.066 263.695  1.00  0.00    -0.550 OA
ENDBRANCH   7   8
ENDBRANCH   6   7
ENDBRANCH   5   6
ENDBRANCH   4   5
ENDBRANCH   3   4
ENDBRANCH   2   3
ENDBRANCH   1   2
BRANCH   1  11
ATOM     11  C   UNL     1      35.277 106.865 263.210  1.00  0.00     0.000 C 
BRANCH  11  12
ATOM     12  C   UNL     1      34.876 107.923 264.251  1.00  0.00    -0.000 C 
BRANCH  12  13
ATOM     13  C   UNL     1      35.532 107.679 265.621  1.00  0.00    -0.000 C 
BRANCH  13  14
ATOM     14  C   UNL     1      35.394 108.884 266.566  1.00  0.00    -0.000 C 
BRANCH  14  15
ATOM     15  C   UNL     1      34.958 108.483 267.983  1.00  0.00    -0.000 C 
BRANCH  15  16
ATOM     16  C   UNL     1      34.876 106.954 268.119  1.00  0.00    -0.000 C 
BRANCH  16  17
ATOM     17  C   UNL     1      35.084 106.478 269.566  1.00  0.00    -0.003 C 
ATOM     18  C   UNL     1      35.860 107.485 270.414  1.00  0.00     0.004 C 
ENDBRANCH  16  17
ENDBRANCH  15  16
ENDBRANCH  14  15
ENDBRANCH  13  14
ENDBRANCH  12  13
ENDBRANCH  11  12
ENDBRANCH   1  11
TORSDOF 14
ENDMDL
MODEL 5
REMARK VINA RESULT:    -2.672      3.183      7.844
REMARK INTER + INTRA:          -5.224
REMARK INTER:                  -6.252
REMARK INTRA:                   1.028
REMARK UNBOUND:                -0.366
REMARK SMILES CCCCCCCCCCCCCCCC(=O)[O-]
REMARK SMILES IDX 9 1 10 2 11 3 12 4 13 5 14 6 15 7 16 8 17 9 18 10 8 11 7 12
REMARK SMILES IDX 6 13 5 14 4 15 3 16 2 17 1 18
REMARK H PARENT
REMARK Flexibility Score: inf
ROOT
ATOM      1  C   UNL     1      36.117 105.385 263.638  1.00  0.00     0.000 C 
ENDROOT
BRANCH   1   2
ATOM      2  C   UNL     1      36.412 106.313 262.449  1.00  0.00     0.000 C 
BRANCH   2   3
ATOM      3  C   UNL     1      37.838 106.889 262.491  1.00  0.00     0.000 C 
BRANCH   3   4
ATOM      4  C   UNL     1      38.569 106.760 261.145  1.00  0.00     0.000 C 
BRANCH   4   5
ATOM      5  C   UNL     1      38.411 105.367 260.515  1.00  0.00     0.000 C 
BRANCH   5   6
ATOM      6  C   UNL     1      37.481 105.420 259.296  1.00  0.00     0.006 C 
BRANCH   6   7
ATOM      7  C   UNL     1      37.500 106.808 258.650  1.00  0.00     0.053 C 
BRANCH   7   8
ATOM      8  C   UNL     1      36.116 107.225 258.265  1.00  0.00     0.041 C 
ATOM      9  O   UNL     1      35.280 106.367 257.877  1.00  0.00    -0.550 OA
ATOM     10  O   UNL     1      35.765 108.569 258.280  1.00  0.00    -0.550 OA
ENDBRANCH   7   8
ENDBRANCH   6   7
ENDBRANCH   5   6
ENDBRANCH   4   5
ENDBRANCH   3   4
ENDBRANCH   2   3
ENDBRANCH   1   2
BRANCH   1  11
ATOM     11  C   UNL     1      34.876 105.825 264.437  1.00  0.00     0.000 C 
BRANCH  11  12
ATOM     12  C   UNL     1      34.995 105.506 265.937  1.00  0.00    -0.000 C 
BRANCH  12  13
ATOM     13  C   UNL     1      34.878 106.763 266.816  1.00  0.00    -0.000 C 
BRANCH  13  14
ATOM     14  C   UNL     1      35.138 108.060 266.032  1.00  0.00    -0.000 C 
BRANCH  14  15
ATOM     15  C   UNL     1      34.982 109.320 266.896  1.00  0.00    -0.000 C 
BRANCH  15  16
ATOM     16  C   UNL     1      34.970 108.962 268.390  1.00  0.00    -0.000 C 
BRANCH  16  17
ATOM     17  C   UNL     1      35.992 107.870 268.745  1.00  0.00    -0.003 C 
ATOM     18  C   UNL     1      35.422 106.810 269.686  1.00  0.00     0.004 C 
ENDBRANCH  16  17
ENDBRANCH  15  16
ENDBRANCH  14  15
ENDBRANCH  13  14
ENDBRANCH  12  13
ENDBRANCH  11  12
ENDBRANCH   1  11
TORSDOF 14
ENDMDL
MODEL 6
REMARK VINA RESULT:    -2.516      3.204      7.352
REMARK INTER + INTRA:          -4.940
REMARK INTER:                  -5.079
REMARK INTRA:                   0.139
REMARK UNBOUND:                -0.366
REMARK SMILES CCCCCCCCCCCCCCCC(=O)[O-]
REMARK SMILES IDX 9 1 10 2 11 3 12 4 13 5 14 6 15 7 16 8 17 9 18 10 8 11 7 12
REMARK SMILES IDX 6 13 5 14 4 15 3 16 2 17 1 18
REMARK H PARENT
REMARK Flexibility Score: inf
ROOT
ATOM      1  C   UNL     1      36.274 107.678 264.985  1.00  0.00     0.000 C 
ENDROOT
BRANCH   1   2
ATOM      2  C   UNL     1      36.237 106.891 263.665  1.00  0.00     0.000 C 
BRANCH   2   3
ATOM      3  C   UNL     1      35.121 105.832 263.642  1.00  0.00     0.000 C 
BRANCH   3   4
ATOM      4  C   UNL     1      35.466 104.628 262.751  1.00  0.00     0.000 C 
BRANCH   4   5
ATOM      5  C   UNL     1      35.973 105.045 261.362  1.00  0.00     0.000 C 
BRANCH   5   6
ATOM      6  C   UNL     1      36.928 106.241 261.464  1.00  0.00     0.006 C 
BRANCH   6   7
ATOM      7  C   UNL     1      37.808 106.350 260.215  1.00  0.00     0.053 C 
BRANCH   7   8
ATOM      8  C   UNL     1      36.967 106.575 258.999  1.00  0.00     0.041 C 
ATOM      9  O   UNL     1      36.359 107.667 258.842  1.00  0.00    -0.550 OA
ATOM     10  O   UNL     1      36.807 105.559 258.066  1.00  0.00    -0.550 OA
ENDBRANCH   7   8
ENDBRANCH   6   7
ENDBRANCH   5   6
ENDBRANCH   4   5
ENDBRANCH   3   4
ENDBRANCH   2   3
ENDBRANCH   1   2
BRANCH   1  11
ATOM     11  C   UNL     1      34.920 108.326 265.325  1.00  0.00     0.000 C 
BRANCH  11  12
ATOM     12  C   UNL     1      34.954 109.105 266.650  1.00  0.00    -0.000 C 
BRANCH  12  13
ATOM     13  C   UNL     1      35.764 108.380 267.739  1.00  0.00    -0.000 C 
BRANCH  13  14
ATOM     14  C   UNL     1      34.876 107.558 268.687  1.00  0.00    -0.000 C 
BRANCH  14  15
ATOM     15  C   UNL     1      35.250 106.069 268.712  1.00  0.00    -0.000 C 
BRANCH  15  16
ATOM     16  C   UNL     1      34.941 105.404 267.362  1.00  0.00    -0.000 C 
BRANCH  16  17
ATOM     17  C   UNL     1      35.475 103.964 267.276  1.00  0.00    -0.003 C 
ATOM     18  C   UNL     1      36.459 103.767 266.125  1.00  0.00     0.004 C 
ENDBRANCH  16  17
ENDBRANCH  15  16
ENDBRANCH  14  15
ENDBRANCH  13  14
ENDBRANCH  12  13
ENDBRANCH  11  12
ENDBRANCH   1  11
TORSDOF 14
ENDMDL
MODEL 7
REMARK VINA RESULT:    -2.350      1.700      2.916
REMARK INTER + INTRA:          -4.638
REMARK INTER:                  -3.813
REMARK INTRA:                  -0.826
REMARK UNBOUND:                -0.366
REMARK SMILES CCCCCCCCCCCCCCCC(=O)[O-]
REMARK SMILES IDX 9 1 10 2 11 3 12 4 13 5 14 6 15 7 16 8 17 9 18 10 8 11 7 12
REMARK SMILES IDX 6 13 5 14 4 15 3 16 2 17 1 18
REMARK H PARENT
REMARK Flexibility Score: inf
ROOT
ATOM      1  C   UNL     1      36.178 104.947 265.018  1.00  0.00     0.000 C 
ENDROOT
BRANCH   1   2
ATOM      2  C   UNL     1      35.302 105.745 265.998  1.00  0.00     0.000 C 
BRANCH   2   3
ATOM      3  C   UNL     1      34.888 107.115 265.435  1.00  0.00     0.000 C 
BRANCH   3   4
ATOM      4  C   UNL     1      35.871 108.234 265.817  1.00  0.00     0.000 C 
BRANCH   4   5
ATOM      5  C   UNL     1      35.371 109.089 266.990  1.00  0.00     0.000 C 
BRANCH   5   6
ATOM      6  C   UNL     1      34.877 108.203 268.142  1.00  0.00     0.006 C 
BRANCH   6   7
ATOM      7  C   UNL     1      35.695 108.449 269.413  1.00  0.00     0.053 C 
BRANCH   7   8
ATOM      8  C   UNL     1      36.025 107.153 270.083  1.00  0.00     0.041 C 
ATOM      9  O   UNL     1      36.998 107.079 270.878  1.00  0.00    -0.550 OA
ATOM     10  O   UNL     1      35.291 106.011 269.787  1.00  0.00    -0.550 OA
ENDBRANCH   7   8
ENDBRANCH   6   7
ENDBRANCH   5   6
ENDBRANCH   4   5
ENDBRANCH   3   4
ENDBRANCH   2   3
ENDBRANCH   1   2
BRANCH   1  11
ATOM     11  C   UNL     1      35.406 104.502 263.763  1.00  0.00     0.000 C 
BRANCH  11  12
ATOM     12  C   UNL     1      36.038 105.026 262.463  1.00  0.00    -0.000 C 
BRANCH  12  13
ATOM     13  C   UNL     1      36.577 106.460 262.608  1.00  0.00    -0.000 C 
BRANCH  13  14
ATOM     14  C   UNL     1      37.514 106.859 261.456  1.00  0.00    -0.000 C 
BRANCH  14  15
ATOM     15  C   UNL     1      37.796 105.698 260.490  1.00  0.00    -0.000 C 
BRANCH  15  16
ATOM     16  C   UNL     1      37.828 106.191 259.036  1.00  0.00    -0.000 C 
BRANCH  16  17
ATOM     17  C   UNL     1      36.428 106.255 258.402  1.00  0.00    -0.003 C 
ATOM     18  C   UNL     1      36.060 107.659 257.925  1.00  0.00     0.004 C 
ENDBRANCH  16  17
ENDBRANCH  15  16
ENDBRANCH  14  15
ENDBRANCH  13  14
ENDBRANCH  12  13
ENDBRANCH  11  12
ENDBRANCH   1  11
TORSDOF 14
ENDMDL
MODEL 8
REMARK VINA RESULT:    -2.090      1.767      3.269
REMARK INTER + INTRA:          -4.167
REMARK INTER:                  -3.660
REMARK INTRA:                  -0.507
REMARK UNBOUND:                -0.366
REMARK SMILES CCCCCCCCCCCCCCCC(=O)[O-]
REMARK SMILES IDX 9 1 10 2 11 3 12 4 13 5 14 6 15 7 16 8 17 9 18 10 8 11 7 12
REMARK SMILES IDX 6 13 5 14 4 15 3 16 2 17 1 18
REMARK H PARENT
REMARK Flexibility Score: inf
ROOT
ATOM      1  C   UNL     1      35.925 105.782 262.267  1.00  0.00     0.000 C 
ENDROOT
BRANCH   1   2
ATOM      2  C   UNL     1      35.398 104.862 263.380  1.00  0.00     0.000 C 
BRANCH   2   3
ATOM      3  C   UNL     1      34.885 105.648 264.600  1.00  0.00     0.000 C 
BRANCH   3   4
ATOM      4  C   UNL     1      34.955 107.170 264.396  1.00  0.00     0.000 C 
BRANCH   4   5
ATOM      5  C   UNL     1      35.304 107.925 265.687  1.00  0.00     0.000 C 
BRANCH   5   6
ATOM      6  C   UNL     1      34.925 107.101 266.924  1.00  0.00     0.006 C 
BRANCH   6   7
ATOM      7  C   UNL     1      35.140 107.906 268.208  1.00  0.00     0.053 C 
BRANCH   7   8
ATOM      8  C   UNL     1      35.260 106.992 269.386  1.00  0.00     0.041 C 
ATOM      9  O   UNL     1      35.704 107.424 270.482  1.00  0.00    -0.550 OA
ATOM     10  O   UNL     1      34.933 105.648 269.258  1.00  0.00    -0.550 OA
ENDBRANCH   7   8
ENDBRANCH   6   7
ENDBRANCH   5   6
ENDBRANCH   4   5
ENDBRANCH   3   4
ENDBRANCH   2   3
ENDBRANCH   1   2
BRANCH   1  11
ATOM     11  C   UNL     1      36.014 105.071 260.905  1.00  0.00     0.000 C 
BRANCH  11  12
ATOM     12  C   UNL     1      36.268 106.047 259.744  1.00  0.00    -0.000 C 
BRANCH  12  13
ATOM     13  C   UNL     1      37.497 105.655 258.905  1.00  0.00    -0.000 C 
BRANCH  13  14
ATOM     14  C   UNL     1      38.818 105.841 259.670  1.00  0.00    -0.000 C 
BRANCH  14  15
ATOM     15  C   UNL     1      38.682 106.793 260.868  1.00  0.00    -0.000 C 
BRANCH  15  16
ATOM     16  C   UNL     1      39.992 106.855 261.669  1.00  0.00    -0.000 C 
BRANCH  16  17
ATOM     17  C   UNL     1      39.757 106.847 263.189  1.00  0.00    -0.003 C 
ATOM     18  C   UNL     1      38.382 107.388 263.577  1.00  0.00     0.004 C 
ENDBRANCH  16  17
ENDBRANCH  15  16
ENDBRANCH  14  15
ENDBRANCH  13  14
ENDBRANCH  12  13
ENDBRANCH  11  12
ENDBRANCH   1  11
TORSDOF 14
ENDMDL
MODEL 9
REMARK VINA RESULT:    -2.041      2.230      3.711
REMARK INTER + INTRA:          -4.077
REMARK INTER:                  -4.025
REMARK INTRA:                  -0.052
REMARK UNBOUND:                -0.366
REMARK SMILES CCCCCCCCCCCCCCCC(=O)[O-]
REMARK SMILES IDX 9 1 10 2 11 3 12 4 13 5 14 6 15 7 16 8 17 9 18 10 8 11 7 12
REMARK SMILES IDX 6 13 5 14 4 15 3 16 2 17 1 18
REMARK H PARENT
REMARK Flexibility Score: inf
ROOT
ATOM      1  C   UNL     1      35.022 107.720 265.540  1.00  0.00     0.000 C 
ENDROOT
BRANCH   1   2
ATOM      2  C   UNL     1      35.111 109.035 266.332  1.00  0.00     0.000 C 
BRANCH   2   3
ATOM      3  C   UNL     1      35.822 108.861 267.685  1.00  0.00     0.000 C 
BRANCH   3   4
ATOM      4  C   UNL     1      34.879 108.356 268.789  1.00  0.00     0.000 C 
BRANCH   4   5
ATOM      5  C   UNL     1      35.497 107.228 269.627  1.00  0.00     0.000 C 
BRANCH   5   6
ATOM      6  C   UNL     1      34.976 105.859 269.171  1.00  0.00     0.006 C 
BRANCH   6   7
ATOM      7  C   UNL     1      34.877 105.789 267.644  1.00  0.00     0.053 C 
BRANCH   7   8
ATOM      8  C   UNL     1      35.264 104.429 267.156  1.00  0.00     0.041 C 
ATOM      9  O   UNL     1      35.006 103.409 267.848  1.00  0.00    -0.550 OA
ATOM     10  O   UNL     1      35.961 104.292 265.962  1.00  0.00    -0.550 OA
ENDBRANCH   7   8
ENDBRANCH   6   7
ENDBRANCH   5   6
ENDBRANCH   4   5
ENDBRANCH   3   4
ENDBRANCH   2   3
ENDBRANCH   1   2
BRANCH   1  11
ATOM     11  C   UNL     1      36.159 107.570 264.514  1.00  0.00     0.000 C 
BRANCH  11  12
ATOM     12  C   UNL     1      35.643 107.244 263.103  1.00  0.00    -0.000 C 
BRANCH  12  13
ATOM     13  C   UNL     1      35.878 105.773 262.716  1.00  0.00    -0.000 C 
BRANCH  13  14
ATOM     14  C   UNL     1      37.062 105.598 261.751  1.00  0.00    -0.000 C 
BRANCH  14  15
ATOM     15  C   UNL     1      37.489 106.916 261.088  1.00  0.00    -0.000 C 
BRANCH  15  16
ATOM     16  C   UNL     1      36.758 107.119 259.752  1.00  0.00    -0.000 C 
BRANCH  16  17
ATOM     17  C   UNL     1      36.808 105.871 258.855  1.00  0.00    -0.003 C 
ATOM     18  C   UNL     1      38.148 105.713 258.137  1.00  0.00     0.004 C 
ENDBRANCH  16  17
ENDBRANCH  15  16
ENDBRANCH  14  15
ENDBRANCH  13  14
ENDBRANCH  12  13
ENDBRANCH  11  12
ENDBRANCH   1  11
TORSDOF 14
ENDMDL
