MODEL 1
REMARK VINA RESULT:     6.198      0.000      0.000
REMARK INTER + INTRA:          15.238
REMARK INTER:                  16.343
REMARK INTRA:                  -1.104
REMARK UNBOUND:                -1.104
REMARK SMILES CCCCCCCCCCCCCCCCCCCCCCCCCCCCCC(=O)[O-]
REMARK SMILES IDX 16 1 17 2 18 3 19 4 20 5 21 6 22 7 23 8 24 9 25 10 26 11
REMARK SMILES IDX 27 12 28 13 29 14 30 15 31 16 32 17 15 18 14 19 13 20 12 21
REMARK SMILES IDX 11 22 10 23 9 24 8 25 7 26 6 27 5 28 4 29 3 30 2 31 1 32
REMARK H PARENT
REMARK Flexibility Score: inf
ROOT
ATOM      1  C   UNL     1     -21.964  -8.373 -28.606  1.00  0.00     0.000 C 
ENDROOT
BRANCH   1   2
ATOM      2  C   UNL     1     -20.900  -7.291 -28.323  1.00  0.00     0.000 C 
BRANCH   2   3
ATOM      3  C   UNL     1     -21.397  -5.848 -28.539  1.00  0.00     0.000 C 
BRANCH   3   4
ATOM      4  C   UNL     1     -21.714  -5.479 -29.998  1.00  0.00     0.000 C 
BRANCH   4   5
ATOM      5  C   UNL     1     -22.461  -4.143 -30.128  1.00  0.00     0.000 C 
BRANCH   5   6
ATOM      6  C   UNL     1     -22.124  -3.458 -31.463  1.00  0.00     0.000 C 
BRANCH   6   7
ATOM      7  C   UNL     1     -23.106  -2.320 -31.809  1.00  0.00     0.000 C 
BRANCH   7   8
ATOM      8  C   UNL     1     -22.543  -0.910 -31.561  1.00  0.00     0.000 C 
BRANCH   8   9
ATOM      9  C   UNL     1     -23.343   0.187 -32.281  1.00  0.00     0.000 C 
BRANCH   9  10
ATOM     10  C   UNL     1     -22.646   0.722 -33.548  1.00  0.00     0.000 C 
BRANCH  10  11
ATOM     11  C   UNL     1     -22.672   2.252 -33.725  1.00  0.00     0.000 C 
BRANCH  11  12
ATOM     12  C   UNL     1     -23.679   2.728 -34.782  1.00  0.00     0.000 C 
BRANCH  12  13
ATOM     13  C   UNL     1     -24.047   4.204 -34.565  1.00  0.00     0.006 C 
BRANCH  13  14
ATOM     14  C   UNL     1     -25.113   4.383 -33.474  1.00  0.00     0.053 C 
BRANCH  14  15
ATOM     15  C   UNL     1     -26.473   3.949 -33.930  1.00  0.00     0.041 C 
ATOM     16  O   UNL     1     -27.006   2.912 -33.450  1.00  0.00    -0.550 OA
ATOM     17  O   UNL     1     -27.156   4.693 -34.884  1.00  0.00    -0.550 OA
ENDBRANCH  14  15
ENDBRANCH  13  14
ENDBRANCH  12  13
ENDBRANCH  11  12
ENDBRANCH  10  11
ENDBRANCH   9  10
ENDBRANCH   8   9
ENDBRANCH   7   8
ENDBRANCH   6   7
ENDBRANCH   5   6
ENDBRANCH   4   5
ENDBRANCH   3   4
ENDBRANCH   2   3
ENDBRANCH   1   2
BRANCH   1  18
ATOM     18  C   UNL     1     -22.401  -9.113 -27.332  1.00  0.00     0.000 C 
BRANCH  18  19
ATOM     19  C   UNL     1     -21.706 -10.474 -27.211  1.00  0.00     0.000 C 
BRANCH  19  20
ATOM     20  C   UNL     1     -22.517 -11.423 -26.314  1.00  0.00     0.000 C 
BRANCH  20  21
ATOM     21  C   UNL     1     -21.880 -12.819 -26.198  1.00  0.00     0.000 C 
BRANCH  21  22
ATOM     22  C   UNL     1     -22.535 -13.713 -25.129  1.00  0.00     0.000 C 
BRANCH  22  23
ATOM     23  C   UNL     1     -23.931 -13.212 -24.715  1.00  0.00     0.000 C 
BRANCH  23  24
ATOM     24  C   UNL     1     -24.625 -14.148 -23.709  1.00  0.00    -0.000 C 
BRANCH  24  25
ATOM     25  C   UNL     1     -23.670 -14.991 -22.845  1.00  0.00    -0.000 C 
BRANCH  25  26
ATOM     26  C   UNL     1     -23.958 -14.850 -21.340  1.00  0.00    -0.000 C 
BRANCH  26  27
ATOM     27  C   UNL     1     -22.686 -14.911 -20.478  1.00  0.00    -0.000 C 
BRANCH  27  28
ATOM     28  C   UNL     1     -22.548 -13.790 -19.429  1.00  0.00    -0.000 C 
BRANCH  28  29
ATOM     29  C   UNL     1     -21.087 -13.431 -19.080  1.00  0.00    -0.000 C 
BRANCH  29  30
ATOM     30  C   UNL     1     -20.739 -11.978 -19.439  1.00  0.00    -0.000 C 
BRANCH  30  31
ATOM     31  C   UNL     1     -19.220 -11.770 -19.485  1.00  0.00    -0.003 C 
ATOM     32  C   UNL     1     -18.873 -10.298 -19.687  1.00  0.00     0.004 C 
ENDBRANCH  30  31
ENDBRANCH  29  30
ENDBRANCH  28  29
ENDBRANCH  27  28
ENDBRANCH  26  27
ENDBRANCH  25  26
ENDBRANCH  24  25
ENDBRANCH  23  24
ENDBRANCH  22  23
ENDBRANCH  21  22
ENDBRANCH  20  21
ENDBRANCH  19  20
ENDBRANCH  18  19
ENDBRANCH   1  18
TORSDOF 28
ENDMDL
MODEL 2
REMARK VINA RESULT:     6.242      6.123     16.898
REMARK INTER + INTRA:          15.354
REMARK INTER:                  16.023
REMARK INTRA:                  -0.669
REMARK UNBOUND:                -1.104
REMARK SMILES CCCCCCCCCCCCCCCCCCCCCCCCCCCCCC(=O)[O-]
REMARK SMILES IDX 16 1 17 2 18 3 19 4 20 5 21 6 22 7 23 8 24 9 25 10 26 11
REMARK SMILES IDX 27 12 28 13 29 14 30 15 31 16 32 17 15 18 14 19 13 20 12 21
REMARK SMILES IDX 11 22 10 23 9 24 8 25 7 26 6 27 5 28 4 29 3 30 2 31 1 32
REMARK H PARENT
REMARK Flexibility Score: inf
ROOT
ATOM      1  C   UNL     1     -24.194   3.141 -32.275  1.00  0.00     0.000 C 
ENDROOT
BRANCH   1   2
ATOM      2  C   UNL     1     -24.383   1.764 -32.946  1.00  0.00     0.000 C 
BRANCH   2   3
ATOM      3  C   UNL     1     -24.178   0.567 -31.995  1.00  0.00     0.000 C 
BRANCH   3   4
ATOM      4  C   UNL     1     -22.888  -0.237 -32.226  1.00  0.00     0.000 C 
BRANCH   4   5
ATOM      5  C   UNL     1     -23.131  -1.753 -32.283  1.00  0.00     0.000 C 
BRANCH   5   6
ATOM      6  C   UNL     1     -22.333  -2.474 -31.184  1.00  0.00     0.000 C 
BRANCH   6   7
ATOM      7  C   UNL     1     -23.008  -3.782 -30.723  1.00  0.00     0.000 C 
BRANCH   7   8
ATOM      8  C   UNL     1     -22.027  -4.837 -30.183  1.00  0.00     0.000 C 
BRANCH   8   9
ATOM      9  C   UNL     1     -22.372  -6.262 -30.645  1.00  0.00     0.000 C 
BRANCH   9  10
ATOM     10  C   UNL     1     -21.200  -7.253 -30.499  1.00  0.00     0.000 C 
BRANCH  10  11
ATOM     11  C   UNL     1     -20.758  -7.550 -29.054  1.00  0.00     0.000 C 
BRANCH  11  12
ATOM     12  C   UNL     1     -21.883  -7.378 -28.023  1.00  0.00     0.000 C 
BRANCH  12  13
ATOM     13  C   UNL     1     -22.638  -8.699 -27.808  1.00  0.00     0.006 C 
BRANCH  13  14
ATOM     14  C   UNL     1     -24.138  -8.478 -27.566  1.00  0.00     0.053 C 
BRANCH  14  15
ATOM     15  C   UNL     1     -24.515  -8.657 -26.126  1.00  0.00     0.041 C 
ATOM     16  O   UNL     1     -23.680  -8.412 -25.214  1.00  0.00    -0.550 OA
ATOM     17  O   UNL     1     -25.792  -9.088 -25.791  1.00  0.00    -0.550 OA
ENDBRANCH  14  15
ENDBRANCH  13  14
ENDBRANCH  12  13
ENDBRANCH  11  12
ENDBRANCH  10  11
ENDBRANCH   9  10
ENDBRANCH   8   9
ENDBRANCH   7   8
ENDBRANCH   6   7
ENDBRANCH   5   6
ENDBRANCH   4   5
ENDBRANCH   3   4
ENDBRANCH   2   3
ENDBRANCH   1   2
BRANCH   1  18
ATOM     18  C   UNL     1     -24.698   4.295 -33.155  1.00  0.00     0.000 C 
BRANCH  18  19
ATOM     19  C   UNL     1     -26.211   4.489 -33.010  1.00  0.00     0.000 C 
BRANCH  19  20
ATOM     20  C   UNL     1     -26.960   3.838 -34.184  1.00  0.00     0.000 C 
BRANCH  20  21
ATOM     21  C   UNL     1     -27.704   4.865 -35.056  1.00  0.00     0.000 C 
BRANCH  21  22
ATOM     22  C   UNL     1     -27.032   5.124 -36.417  1.00  0.00     0.000 C 
BRANCH  22  23
ATOM     23  C   UNL     1     -25.699   4.369 -36.571  1.00  0.00     0.000 C 
BRANCH  23  24
ATOM     24  C   UNL     1     -24.687   5.121 -37.454  1.00  0.00    -0.000 C 
BRANCH  24  25
ATOM     25  C   UNL     1     -24.510   4.544 -38.869  1.00  0.00    -0.000 C 
BRANCH  25  26
ATOM     26  C   UNL     1     -23.450   3.428 -38.922  1.00  0.00    -0.000 C 
BRANCH  26  27
ATOM     27  C   UNL     1     -22.590   3.357 -37.650  1.00  0.00    -0.000 C 
BRANCH  27  28
ATOM     28  C   UNL     1     -23.054   2.328 -36.600  1.00  0.00    -0.000 C 
BRANCH  28  29
ATOM     29  C   UNL     1     -23.194   0.890 -37.146  1.00  0.00    -0.000 C 
BRANCH  29  30
ATOM     30  C   UNL     1     -22.862   0.797 -38.643  1.00  0.00    -0.000 C 
BRANCH  30  31
ATOM     31  C   UNL     1     -22.314  -0.589 -39.002  1.00  0.00    -0.003 C 
ATOM     32  C   UNL     1     -21.347  -1.091 -37.932  1.00  0.00     0.004 C 
ENDBRANCH  30  31
ENDBRANCH  29  30
ENDBRANCH  28  29
ENDBRANCH  27  28
ENDBRANCH  26  27
ENDBRANCH  25  26
ENDBRANCH  24  25
ENDBRANCH  23  24
ENDBRANCH  22  23
ENDBRANCH  21  22
ENDBRANCH  20  21
ENDBRANCH  19  20
ENDBRANCH  18  19
ENDBRANCH   1  18
TORSDOF 28
ENDMDL
MODEL 3
REMARK VINA RESULT:     7.069      1.655      2.117
REMARK INTER + INTRA:          17.535
REMARK INTER:                  18.758
REMARK INTRA:                  -1.223
REMARK UNBOUND:                -1.104
REMARK SMILES CCCCCCCCCCCCCCCCCCCCCCCCCCCCCC(=O)[O-]
REMARK SMILES IDX 16 1 17 2 18 3 19 4 20 5 21 6 22 7 23 8 24 9 25 10 26 11
REMARK SMILES IDX 27 12 28 13 29 14 30 15 31 16 32 17 15 18 14 19 13 20 12 21
REMARK SMILES IDX 11 22 10 23 9 24 8 25 7 26 6 27 5 28 4 29 3 30 2 31 1 32
REMARK H PARENT
REMARK Flexibility Score: inf
ROOT
ATOM      1  C   UNL     1     -22.622  -7.967 -29.067  1.00  0.00     0.000 C 
ENDROOT
BRANCH   1   2
ATOM      2  C   UNL     1     -21.473  -7.046 -29.532  1.00  0.00     0.000 C 
BRANCH   2   3
ATOM      3  C   UNL     1     -21.781  -5.541 -29.401  1.00  0.00     0.000 C 
BRANCH   3   4
ATOM      4  C   UNL     1     -22.152  -4.834 -30.715  1.00  0.00     0.000 C 
BRANCH   4   5
ATOM      5  C   UNL     1     -22.653  -3.397 -30.500  1.00  0.00     0.000 C 
BRANCH   5   6
ATOM      6  C   UNL     1     -22.553  -2.585 -31.802  1.00  0.00     0.000 C 
BRANCH   6   7
ATOM      7  C   UNL     1     -22.676  -1.066 -31.563  1.00  0.00     0.000 C 
BRANCH   7   8
ATOM      8  C   UNL     1     -23.483  -0.326 -32.643  1.00  0.00     0.000 C 
BRANCH   8   9
ATOM      9  C   UNL     1     -23.059   1.143 -32.802  1.00  0.00     0.000 C 
BRANCH   9  10
ATOM     10  C   UNL     1     -24.250   2.120 -32.870  1.00  0.00     0.000 C 
BRANCH  10  11
ATOM     11  C   UNL     1     -24.456   2.824 -34.225  1.00  0.00     0.000 C 
BRANCH  11  12
ATOM     12  C   UNL     1     -23.849   4.234 -34.279  1.00  0.00     0.000 C 
BRANCH  12  13
ATOM     13  C   UNL     1     -22.727   4.309 -35.327  1.00  0.00     0.006 C 
BRANCH  13  14
ATOM     14  C   UNL     1     -22.841   3.197 -36.380  1.00  0.00     0.053 C 
BRANCH  14  15
ATOM     15  C   UNL     1     -23.268   3.721 -37.717  1.00  0.00     0.041 C 
ATOM     16  O   UNL     1     -22.456   3.745 -38.682  1.00  0.00    -0.550 OA
ATOM     17  O   UNL     1     -24.567   4.179 -37.902  1.00  0.00    -0.550 OA
ENDBRANCH  14  15
ENDBRANCH  13  14
ENDBRANCH  12  13
ENDBRANCH  11  12
ENDBRANCH  10  11
ENDBRANCH   9  10
ENDBRANCH   8   9
ENDBRANCH   7   8
ENDBRANCH   6   7
ENDBRANCH   5   6
ENDBRANCH   4   5
ENDBRANCH   3   4
ENDBRANCH   2   3
ENDBRANCH   1   2
BRANCH   1  18
ATOM     18  C   UNL     1     -22.407  -8.493 -27.639  1.00  0.00     0.000 C 
BRANCH  18  19
ATOM     19  C   UNL     1     -21.687  -9.847 -27.645  1.00  0.00     0.000 C 
BRANCH  19  20
ATOM     20  C   UNL     1     -22.342 -10.818 -26.650  1.00  0.00     0.000 C 
BRANCH  20  21
ATOM     21  C   UNL     1     -21.829 -12.261 -26.805  1.00  0.00     0.000 C 
BRANCH  21  22
ATOM     22  C   UNL     1     -22.196 -13.179 -25.625  1.00  0.00     0.000 C 
BRANCH  22  23
ATOM     23  C   UNL     1     -23.522 -12.780 -24.955  1.00  0.00     0.000 C 
BRANCH  23  24
ATOM     24  C   UNL     1     -24.323 -13.993 -24.448  1.00  0.00    -0.000 C 
BRANCH  24  25
ATOM     25  C   UNL     1     -23.621 -14.821 -23.358  1.00  0.00    -0.000 C 
BRANCH  25  26
ATOM     26  C   UNL     1     -23.961 -14.334 -21.937  1.00  0.00    -0.000 C 
BRANCH  26  27
ATOM     27  C   UNL     1     -23.079 -14.978 -20.856  1.00  0.00    -0.000 C 
BRANCH  27  28
ATOM     28  C   UNL     1     -22.662 -14.041 -19.704  1.00  0.00    -0.000 C 
BRANCH  28  29
ATOM     29  C   UNL     1     -21.424 -14.523 -18.917  1.00  0.00    -0.000 C 
BRANCH  29  30
ATOM     30  C   UNL     1     -20.200 -13.620 -19.139  1.00  0.00    -0.000 C 
BRANCH  30  31
ATOM     31  C   UNL     1     -20.611 -12.145 -19.218  1.00  0.00    -0.003 C 
ATOM     32  C   UNL     1     -19.443 -11.273 -19.671  1.00  0.00     0.004 C 
ENDBRANCH  30  31
ENDBRANCH  29  30
ENDBRANCH  28  29
ENDBRANCH  27  28
ENDBRANCH  26  27
ENDBRANCH  25  26
ENDBRANCH  24  25
ENDBRANCH  23  24
ENDBRANCH  22  23
ENDBRANCH  21  22
ENDBRANCH  20  21
ENDBRANCH  19  20
ENDBRANCH  18  19
ENDBRANCH   1  18
TORSDOF 28
ENDMDL
MODEL 4
REMARK VINA RESULT:     7.216      6.224     17.056
REMARK INTER + INTRA:          17.925
REMARK INTER:                  17.971
REMARK INTRA:                  -0.046
REMARK UNBOUND:                -1.104
REMARK SMILES CCCCCCCCCCCCCCCCCCCCCCCCCCCCCC(=O)[O-]
REMARK SMILES IDX 16 1 17 2 18 3 19 4 20 5 21 6 22 7 23 8 24 9 25 10 26 11
REMARK SMILES IDX 27 12 28 13 29 14 30 15 31 16 32 17 15 18 14 19 13 20 12 21
REMARK SMILES IDX 11 22 10 23 9 24 8 25 7 26 6 27 5 28 4 29 3 30 2 31 1 32
REMARK H PARENT
REMARK Flexibility Score: inf
ROOT
ATOM      1  C   UNL     1     -26.194   2.511 -34.083  1.00  0.00     0.000 C 
ENDROOT
BRANCH   1   2
ATOM      2  C   UNL     1     -25.015   3.114 -34.877  1.00  0.00     0.000 C 
BRANCH   2   3
ATOM      3  C   UNL     1     -23.986   3.862 -34.005  1.00  0.00     0.000 C 
BRANCH   3   4
ATOM      4  C   UNL     1     -23.166   2.972 -33.055  1.00  0.00     0.000 C 
BRANCH   4   5
ATOM      5  C   UNL     1     -23.737   1.551 -32.926  1.00  0.00     0.000 C 
BRANCH   5   6
ATOM      6  C   UNL     1     -22.821   0.674 -32.056  1.00  0.00     0.000 C 
BRANCH   6   7
ATOM      7  C   UNL     1     -22.978  -0.830 -32.359  1.00  0.00     0.000 C 
BRANCH   7   8
ATOM      8  C   UNL     1     -22.513  -1.751 -31.218  1.00  0.00     0.000 C 
BRANCH   8   9
ATOM      9  C   UNL     1     -22.516  -3.237 -31.612  1.00  0.00     0.000 C 
BRANCH   9  10
ATOM     10  C   UNL     1     -22.407  -4.191 -30.407  1.00  0.00     0.000 C 
BRANCH  10  11
ATOM     11  C   UNL     1     -21.979  -5.634 -30.738  1.00  0.00     0.000 C 
BRANCH  11  12
ATOM     12  C   UNL     1     -22.197  -6.616 -29.577  1.00  0.00     0.000 C 
BRANCH  12  13
ATOM     13  C   UNL     1     -20.884  -6.875 -28.823  1.00  0.00     0.006 C 
BRANCH  13  14
ATOM     14  C   UNL     1     -21.096  -7.734 -27.567  1.00  0.00     0.053 C 
BRANCH  14  15
ATOM     15  C   UNL     1     -22.399  -8.473 -27.596  1.00  0.00     0.041 C 
ATOM     16  O   UNL     1     -23.480  -7.870 -27.351  1.00  0.00    -0.550 OA
ATOM     17  O   UNL     1     -22.422  -9.829 -27.899  1.00  0.00    -0.550 OA
ENDBRANCH  14  15
ENDBRANCH  13  14
ENDBRANCH  12  13
ENDBRANCH  11  12
ENDBRANCH  10  11
ENDBRANCH   9  10
ENDBRANCH   8   9
ENDBRANCH   7   8
ENDBRANCH   6   7
ENDBRANCH   5   6
ENDBRANCH   4   5
ENDBRANCH   3   4
ENDBRANCH   2   3
ENDBRANCH   1   2
BRANCH   1  18
ATOM     18  C   UNL     1     -26.985   3.578 -33.311  1.00  0.00     0.000 C 
BRANCH  18  19
ATOM     19  C   UNL     1     -28.331   3.871 -33.983  1.00  0.00     0.000 C 
BRANCH  19  20
ATOM     20  C   UNL     1     -28.219   3.742 -35.510  1.00  0.00     0.000 C 
BRANCH  20  21
ATOM     21  C   UNL     1     -28.226   5.107 -36.223  1.00  0.00     0.000 C 
BRANCH  21  22
ATOM     22  C   UNL     1     -28.176   5.004 -37.758  1.00  0.00     0.000 C 
BRANCH  22  23
ATOM     23  C   UNL     1     -26.749   4.777 -38.289  1.00  0.00     0.000 C 
BRANCH  23  24
ATOM     24  C   UNL     1     -25.697   4.726 -37.167  1.00  0.00    -0.000 C 
BRANCH  24  25
ATOM     25  C   UNL     1     -24.273   5.117 -37.599  1.00  0.00    -0.000 C 
BRANCH  25  26
ATOM     26  C   UNL     1     -23.954   4.682 -39.042  1.00  0.00    -0.000 C 
BRANCH  26  27
ATOM     27  C   UNL     1     -22.938   3.530 -39.110  1.00  0.00    -0.000 C 
BRANCH  27  28
ATOM     28  C   UNL     1     -23.298   2.286 -38.274  1.00  0.00    -0.000 C 
BRANCH  28  29
ATOM     29  C   UNL     1     -22.468   1.031 -38.624  1.00  0.00    -0.000 C 
BRANCH  29  30
ATOM     30  C   UNL     1     -22.370   0.047 -37.448  1.00  0.00    -0.000 C 
BRANCH  30  31
ATOM     31  C   UNL     1     -21.903  -1.334 -37.922  1.00  0.00    -0.003 C 
ATOM     32  C   UNL     1     -20.629  -1.762 -37.198  1.00  0.00     0.004 C 
ENDBRANCH  30  31
ENDBRANCH  29  30
ENDBRANCH  28  29
ENDBRANCH  27  28
ENDBRANCH  26  27
ENDBRANCH  25  26
ENDBRANCH  24  25
ENDBRANCH  23  24
ENDBRANCH  22  23
ENDBRANCH  21  22
ENDBRANCH  20  21
ENDBRANCH  19  20
ENDBRANCH  18  19
ENDBRANCH   1  18
TORSDOF 28
ENDMDL
MODEL 5
REMARK VINA RESULT:     7.560     11.258     15.400
REMARK INTER + INTRA:          18.831
REMARK INTER:                  20.222
REMARK INTRA:                  -1.391
REMARK UNBOUND:                -1.104
REMARK SMILES CCCCCCCCCCCCCCCCCCCCCCCCCCCCCC(=O)[O-]
REMARK SMILES IDX 16 1 17 2 18 3 19 4 20 5 21 6 22 7 23 8 24 9 25 10 26 11
REMARK SMILES IDX 27 12 28 13 29 14 30 15 31 16 32 17 15 18 14 19 13 20 12 21
REMARK SMILES IDX 11 22 10 23 9 24 8 25 7 26 6 27 5 28 4 29 3 30 2 31 1 32
REMARK H PARENT
REMARK Flexibility Score: inf
ROOT
ATOM      1  C   UNL     1     -18.129  -3.503 -34.372  1.00  0.00     0.000 C 
ENDROOT
BRANCH   1   2
ATOM      2  C   UNL     1     -18.583  -2.930 -35.732  1.00  0.00     0.000 C 
BRANCH   2   3
ATOM      3  C   UNL     1     -20.078  -3.150 -36.039  1.00  0.00     0.000 C 
BRANCH   3   4
ATOM      4  C   UNL     1     -20.564  -2.559 -37.374  1.00  0.00     0.000 C 
BRANCH   4   5
ATOM      5  C   UNL     1     -21.363  -1.259 -37.196  1.00  0.00     0.000 C 
BRANCH   5   6
ATOM      6  C   UNL     1     -22.309  -1.035 -38.388  1.00  0.00     0.000 C 
BRANCH   6   7
ATOM      7  C   UNL     1     -22.763   0.433 -38.516  1.00  0.00     0.000 C 
BRANCH   7   8
ATOM      8  C   UNL     1     -22.427   1.302 -37.291  1.00  0.00     0.000 C 
BRANCH   8   9
ATOM      9  C   UNL     1     -23.389   2.489 -37.121  1.00  0.00     0.000 C 
BRANCH   9  10
ATOM     10  C   UNL     1     -22.681   3.798 -36.720  1.00  0.00     0.000 C 
BRANCH  10  11
ATOM     11  C   UNL     1     -22.809   4.196 -35.237  1.00  0.00     0.000 C 
BRANCH  11  12
ATOM     12  C   UNL     1     -22.733   3.000 -34.276  1.00  0.00     0.000 C 
BRANCH  12  13
ATOM     13  C   UNL     1     -23.836   3.082 -33.210  1.00  0.00     0.006 C 
BRANCH  13  14
ATOM     14  C   UNL     1     -25.183   2.554 -33.727  1.00  0.00     0.053 C 
BRANCH  14  15
ATOM     15  C   UNL     1     -26.228   3.625 -33.791  1.00  0.00     0.041 C 
ATOM     16  O   UNL     1     -27.451   3.329 -33.719  1.00  0.00    -0.550 OA
ATOM     17  O   UNL     1     -25.851   4.956 -33.924  1.00  0.00    -0.550 OA
ENDBRANCH  14  15
ENDBRANCH  13  14
ENDBRANCH  12  13
ENDBRANCH  11  12
ENDBRANCH  10  11
ENDBRANCH   9  10
ENDBRANCH   8   9
ENDBRANCH   7   8
ENDBRANCH   6   7
ENDBRANCH   5   6
ENDBRANCH   4   5
ENDBRANCH   3   4
ENDBRANCH   2   3
ENDBRANCH   1   2
BRANCH   1  18
ATOM     18  C   UNL     1     -16.746  -2.983 -33.951  1.00  0.00     0.000 C 
BRANCH  18  19
ATOM     19  C   UNL     1     -15.719  -4.119 -33.885  1.00  0.00     0.000 C 
BRANCH  19  20
ATOM     20  C   UNL     1     -14.308  -3.566 -33.626  1.00  0.00     0.000 C 
BRANCH  20  21
ATOM     21  C   UNL     1     -13.205  -4.609 -33.884  1.00  0.00     0.000 C 
BRANCH  21  22
ATOM     22  C   UNL     1     -12.235  -4.218 -35.014  1.00  0.00     0.000 C 
BRANCH  22  23
ATOM     23  C   UNL     1     -11.754  -2.760 -34.902  1.00  0.00     0.000 C 
BRANCH  23  24
ATOM     24  C   UNL     1     -10.903  -2.318 -36.106  1.00  0.00    -0.000 C 
BRANCH  24  25
ATOM     25  C   UNL     1     -10.266  -0.924 -35.971  1.00  0.00    -0.000 C 
BRANCH  25  26
ATOM     26  C   UNL     1      -9.861  -0.327 -37.331  1.00  0.00    -0.000 C 
BRANCH  26  27
ATOM     27  C   UNL     1      -9.040   0.966 -37.197  1.00  0.00    -0.000 C 
BRANCH  27  28
ATOM     28  C   UNL     1      -9.575   1.981 -36.167  1.00  0.00    -0.000 C 
BRANCH  28  29
ATOM     29  C   UNL     1      -9.995   3.335 -36.778  1.00  0.00    -0.000 C 
BRANCH  29  30
ATOM     30  C   UNL     1     -10.203   3.253 -38.298  1.00  0.00    -0.000 C 
BRANCH  30  31
ATOM     31  C   UNL     1     -11.650   2.876 -38.638  1.00  0.00    -0.003 C 
ATOM     32  C   UNL     1     -12.584   4.070 -38.465  1.00  0.00     0.004 C 
ENDBRANCH  30  31
ENDBRANCH  29  30
ENDBRANCH  28  29
ENDBRANCH  27  28
ENDBRANCH  26  27
ENDBRANCH  25  26
ENDBRANCH  24  25
ENDBRANCH  23  24
ENDBRANCH  22  23
ENDBRANCH  21  22
ENDBRANCH  20  21
ENDBRANCH  19  20
ENDBRANCH  18  19
ENDBRANCH   1  18
TORSDOF 28
ENDMDL
MODEL 6
REMARK VINA RESULT:     7.624      1.616      2.375
REMARK INTER + INTRA:          18.999
REMARK INTER:                  20.341
REMARK INTRA:                  -1.343
REMARK UNBOUND:                -1.104
REMARK SMILES CCCCCCCCCCCCCCCCCCCCCCCCCCCCCC(=O)[O-]
REMARK SMILES IDX 16 1 17 2 18 3 19 4 20 5 21 6 22 7 23 8 24 9 25 10 26 11
REMARK SMILES IDX 27 12 28 13 29 14 30 15 31 16 32 17 15 18 14 19 13 20 12 21
REMARK SMILES IDX 11 22 10 23 9 24 8 25 7 26 6 27 5 28 4 29 3 30 2 31 1 32
REMARK H PARENT
REMARK Flexibility Score: inf
ROOT
ATOM      1  C   UNL     1     -21.224  -7.619 -29.250  1.00  0.00     0.000 C 
ENDROOT
BRANCH   1   2
ATOM      2  C   UNL     1     -22.377  -6.799 -29.867  1.00  0.00     0.000 C 
BRANCH   2   3
ATOM      3  C   UNL     1     -21.912  -5.572 -30.677  1.00  0.00     0.000 C 
BRANCH   3   4
ATOM      4  C   UNL     1     -22.396  -4.215 -30.142  1.00  0.00     0.000 C 
BRANCH   4   5
ATOM      5  C   UNL     1     -22.926  -3.290 -31.249  1.00  0.00     0.000 C 
BRANCH   5   6
ATOM      6  C   UNL     1     -22.287  -1.895 -31.146  1.00  0.00     0.000 C 
BRANCH   6   7
ATOM      7  C   UNL     1     -22.814  -0.921 -32.219  1.00  0.00     0.000 C 
BRANCH   7   8
ATOM      8  C   UNL     1     -23.659   0.234 -31.655  1.00  0.00     0.000 C 
BRANCH   8   9
ATOM      9  C   UNL     1     -24.351   1.058 -32.753  1.00  0.00     0.000 C 
BRANCH   9  10
ATOM     10  C   UNL     1     -23.842   2.510 -32.843  1.00  0.00     0.000 C 
BRANCH  10  11
ATOM     11  C   UNL     1     -24.864   3.597 -32.461  1.00  0.00     0.000 C 
BRANCH  11  12
ATOM     12  C   UNL     1     -25.209   4.545 -33.620  1.00  0.00     0.000 C 
BRANCH  12  13
ATOM     13  C   UNL     1     -23.960   4.870 -34.453  1.00  0.00     0.006 C 
BRANCH  13  14
ATOM     14  C   UNL     1     -24.176   4.607 -35.951  1.00  0.00     0.053 C 
BRANCH  14  15
ATOM     15  C   UNL     1     -23.198   3.613 -36.500  1.00  0.00     0.041 C 
ATOM     16  O   UNL     1     -22.028   3.970 -36.805  1.00  0.00    -0.550 OA
ATOM     17  O   UNL     1     -23.578   2.287 -36.671  1.00  0.00    -0.550 OA
ENDBRANCH  14  15
ENDBRANCH  13  14
ENDBRANCH  12  13
ENDBRANCH  11  12
ENDBRANCH  10  11
ENDBRANCH   9  10
ENDBRANCH   8   9
ENDBRANCH   7   8
ENDBRANCH   6   7
ENDBRANCH   5   6
ENDBRANCH   4   5
ENDBRANCH   3   4
ENDBRANCH   2   3
ENDBRANCH   1   2
BRANCH   1  18
ATOM     18  C   UNL     1     -21.531  -8.073 -27.814  1.00  0.00     0.000 C 
BRANCH  18  19
ATOM     19  C   UNL     1     -23.006  -8.457 -27.653  1.00  0.00     0.000 C 
BRANCH  19  20
ATOM     20  C   UNL     1     -23.151  -9.718 -26.787  1.00  0.00     0.000 C 
BRANCH  20  21
ATOM     21  C   UNL     1     -21.826 -10.486 -26.631  1.00  0.00     0.000 C 
BRANCH  21  22
ATOM     22  C   UNL     1     -22.007 -12.006 -26.463  1.00  0.00     0.000 C 
BRANCH  22  23
ATOM     23  C   UNL     1     -23.334 -12.371 -25.772  1.00  0.00     0.000 C 
BRANCH  23  24
ATOM     24  C   UNL     1     -23.172 -13.483 -24.720  1.00  0.00    -0.000 C 
BRANCH  24  25
ATOM     25  C   UNL     1     -24.492 -14.029 -24.149  1.00  0.00    -0.000 C 
BRANCH  25  26
ATOM     26  C   UNL     1     -24.528 -13.991 -22.610  1.00  0.00    -0.000 C 
BRANCH  26  27
ATOM     27  C   UNL     1     -23.343 -14.727 -21.964  1.00  0.00    -0.000 C 
BRANCH  27  28
ATOM     28  C   UNL     1     -23.428 -14.894 -20.434  1.00  0.00    -0.000 C 
BRANCH  28  29
ATOM     29  C   UNL     1     -22.155 -14.452 -19.680  1.00  0.00    -0.000 C 
BRANCH  29  30
ATOM     30  C   UNL     1     -21.845 -12.960 -19.878  1.00  0.00    -0.000 C 
BRANCH  30  31
ATOM     31  C   UNL     1     -20.760 -12.488 -18.902  1.00  0.00    -0.003 C 
ATOM     32  C   UNL     1     -19.476 -12.125 -19.643  1.00  0.00     0.004 C 
ENDBRANCH  30  31
ENDBRANCH  29  30
ENDBRANCH  28  29
ENDBRANCH  27  28
ENDBRANCH  26  27
ENDBRANCH  25  26
ENDBRANCH  24  25
ENDBRANCH  23  24
ENDBRANCH  22  23
ENDBRANCH  21  22
ENDBRANCH  20  21
ENDBRANCH  19  20
ENDBRANCH  18  19
ENDBRANCH   1  18
TORSDOF 28
ENDMDL
MODEL 7
REMARK VINA RESULT:     7.694      2.318      4.980
REMARK INTER + INTRA:          19.183
REMARK INTER:                  20.657
REMARK INTRA:                  -1.473
REMARK UNBOUND:                -1.104
REMARK SMILES CCCCCCCCCCCCCCCCCCCCCCCCCCCCCC(=O)[O-]
REMARK SMILES IDX 16 1 17 2 18 3 19 4 20 5 21 6 22 7 23 8 24 9 25 10 26 11
REMARK SMILES IDX 27 12 28 13 29 14 30 15 31 16 32 17 15 18 14 19 13 20 12 21
REMARK SMILES IDX 11 22 10 23 9 24 8 25 7 26 6 27 5 28 4 29 3 30 2 31 1 32
REMARK H PARENT
REMARK Flexibility Score: inf
ROOT
ATOM      1  C   UNL     1     -22.399  -4.797 -31.059  1.00  0.00     0.000 C 
ENDROOT
BRANCH   1   2
ATOM      2  C   UNL     1     -22.061  -3.296 -31.190  1.00  0.00     0.000 C 
BRANCH   2   3
ATOM      3  C   UNL     1     -23.112  -2.482 -31.970  1.00  0.00     0.000 C 
BRANCH   3   4
ATOM      4  C   UNL     1     -22.684  -1.053 -32.346  1.00  0.00     0.000 C 
BRANCH   4   5
ATOM      5  C   UNL     1     -23.780  -0.010 -32.080  1.00  0.00     0.000 C 
BRANCH   5   6
ATOM      6  C   UNL     1     -23.433   1.329 -32.751  1.00  0.00     0.000 C 
BRANCH   6   7
ATOM      7  C   UNL     1     -24.685   2.154 -33.112  1.00  0.00     0.000 C 
BRANCH   7   8
ATOM      8  C   UNL     1     -24.748   3.529 -32.426  1.00  0.00     0.000 C 
BRANCH   8   9
ATOM      9  C   UNL     1     -25.183   4.652 -33.381  1.00  0.00     0.000 C 
BRANCH   9  10
ATOM     10  C   UNL     1     -25.952   4.143 -34.616  1.00  0.00     0.000 C 
BRANCH  10  11
ATOM     11  C   UNL     1     -26.031   5.124 -35.801  1.00  0.00     0.000 C 
BRANCH  11  12
ATOM     12  C   UNL     1     -25.767   4.461 -37.161  1.00  0.00     0.000 C 
BRANCH  12  13
ATOM     13  C   UNL     1     -24.512   5.049 -37.824  1.00  0.00     0.006 C 
BRANCH  13  14
ATOM     14  C   UNL     1     -23.386   4.014 -37.957  1.00  0.00     0.053 C 
BRANCH  14  15
ATOM     15  C   UNL     1     -22.882   3.547 -36.625  1.00  0.00     0.041 C 
ATOM     16  O   UNL     1     -22.946   2.327 -36.311  1.00  0.00    -0.550 OA
ATOM     17  O   UNL     1     -22.336   4.459 -35.730  1.00  0.00    -0.550 OA
ENDBRANCH  14  15
ENDBRANCH  13  14
ENDBRANCH  12  13
ENDBRANCH  11  12
ENDBRANCH  10  11
ENDBRANCH   9  10
ENDBRANCH   8   9
ENDBRANCH   7   8
ENDBRANCH   6   7
ENDBRANCH   5   6
ENDBRANCH   4   5
ENDBRANCH   3   4
ENDBRANCH   2   3
ENDBRANCH   1   2
BRANCH   1  18
ATOM     18  C   UNL     1     -21.670  -5.460 -29.880  1.00  0.00     0.000 C 
BRANCH  18  19
ATOM     19  C   UNL     1     -21.943  -6.967 -29.830  1.00  0.00     0.000 C 
BRANCH  19  20
ATOM     20  C   UNL     1     -21.361  -7.586 -28.549  1.00  0.00     0.000 C 
BRANCH  20  21
ATOM     21  C   UNL     1     -22.340  -7.529 -27.363  1.00  0.00     0.000 C 
BRANCH  21  22
ATOM     22  C   UNL     1     -23.466  -8.577 -27.438  1.00  0.00     0.000 C 
BRANCH  22  23
ATOM     23  C   UNL     1     -24.172  -8.783 -26.086  1.00  0.00     0.000 C 
BRANCH  23  24
ATOM     24  C   UNL     1     -24.326 -10.269 -25.715  1.00  0.00    -0.000 C 
BRANCH  24  25
ATOM     25  C   UNL     1     -25.746 -10.835 -25.886  1.00  0.00    -0.000 C 
BRANCH  25  26
ATOM     26  C   UNL     1     -25.809 -12.353 -25.643  1.00  0.00    -0.000 C 
BRANCH  26  27
ATOM     27  C   UNL     1     -24.711 -12.855 -24.691  1.00  0.00    -0.000 C 
BRANCH  27  28
ATOM     28  C   UNL     1     -24.633 -14.385 -24.524  1.00  0.00    -0.000 C 
BRANCH  28  29
ATOM     29  C   UNL     1     -23.924 -14.843 -23.231  1.00  0.00    -0.000 C 
BRANCH  29  30
ATOM     30  C   UNL     1     -24.907 -15.061 -22.070  1.00  0.00    -0.000 C 
BRANCH  30  31
ATOM     31  C   UNL     1     -24.181 -15.030 -20.720  1.00  0.00    -0.003 C 
ATOM     32  C   UNL     1     -23.021 -14.038 -20.743  1.00  0.00     0.004 C 
ENDBRANCH  30  31
ENDBRANCH  29  30
ENDBRANCH  28  29
ENDBRANCH  27  28
ENDBRANCH  26  27
ENDBRANCH  25  26
ENDBRANCH  24  25
ENDBRANCH  23  24
ENDBRANCH  22  23
ENDBRANCH  21  22
ENDBRANCH  20  21
ENDBRANCH  19  20
ENDBRANCH  18  19
ENDBRANCH   1  18
TORSDOF 28
ENDMDL
MODEL 8
REMARK VINA RESULT:     7.837      6.360     17.218
REMARK INTER + INTRA:          19.560
REMARK INTER:                  21.810
REMARK INTRA:                  -2.250
REMARK UNBOUND:                -1.104
REMARK SMILES CCCCCCCCCCCCCCCCCCCCCCCCCCCCCC(=O)[O-]
REMARK SMILES IDX 16 1 17 2 18 3 19 4 20 5 21 6 22 7 23 8 24 9 25 10 26 11
REMARK SMILES IDX 27 12 28 13 29 14 30 15 31 16 32 17 15 18 14 19 13 20 12 21
REMARK SMILES IDX 11 22 10 23 9 24 8 25 7 26 6 27 5 28 4 29 3 30 2 31 1 32
REMARK H PARENT
REMARK Flexibility Score: inf
ROOT
ATOM      1  C   UNL     1     -24.407   4.702 -34.219  1.00  0.00     0.000 C 
ENDROOT
BRANCH   1   2
ATOM      2  C   UNL     1     -23.931   3.234 -34.186  1.00  0.00     0.000 C 
BRANCH   2   3
ATOM      3  C   UNL     1     -22.423   3.056 -34.451  1.00  0.00     0.000 C 
BRANCH   3   4
ATOM      4  C   UNL     1     -21.721   2.020 -33.557  1.00  0.00     0.000 C 
BRANCH   4   5
ATOM      5  C   UNL     1     -22.687   0.971 -32.986  1.00  0.00     0.000 C 
BRANCH   5   6
ATOM      6  C   UNL     1     -21.912  -0.211 -32.380  1.00  0.00     0.000 C 
BRANCH   6   7
ATOM      7  C   UNL     1     -22.596  -0.788 -31.124  1.00  0.00     0.000 C 
BRANCH   7   8
ATOM      8  C   UNL     1     -21.927  -2.059 -30.574  1.00  0.00     0.000 C 
BRANCH   8   9
ATOM      9  C   UNL     1     -22.499  -3.347 -31.187  1.00  0.00     0.000 C 
BRANCH   9  10
ATOM     10  C   UNL     1     -22.346  -4.580 -30.275  1.00  0.00     0.000 C 
BRANCH  10  11
ATOM     11  C   UNL     1     -21.161  -4.536 -29.291  1.00  0.00     0.000 C 
BRANCH  11  12
ATOM     12  C   UNL     1     -21.355  -5.435 -28.062  1.00  0.00     0.000 C 
BRANCH  12  13
ATOM     13  C   UNL     1     -20.453  -6.677 -28.142  1.00  0.00     0.006 C 
BRANCH  13  14
ATOM     14  C   UNL     1     -21.200  -7.963 -27.757  1.00  0.00     0.053 C 
BRANCH  14  15
ATOM     15  C   UNL     1     -22.639  -7.932 -28.176  1.00  0.00     0.041 C 
ATOM     16  O   UNL     1     -23.556  -8.033 -27.316  1.00  0.00    -0.550 OA
ATOM     17  O   UNL     1     -22.969  -7.786 -29.518  1.00  0.00    -0.550 OA
ENDBRANCH  14  15
ENDBRANCH  13  14
ENDBRANCH  12  13
ENDBRANCH  11  12
ENDBRANCH  10  11
ENDBRANCH   9  10
ENDBRANCH   8   9
ENDBRANCH   7   8
ENDBRANCH   6   7
ENDBRANCH   5   6
ENDBRANCH   4   5
ENDBRANCH   3   4
ENDBRANCH   2   3
ENDBRANCH   1   2
BRANCH   1  18
ATOM     18  C   UNL     1     -25.878   4.850 -33.800  1.00  0.00     0.000 C 
BRANCH  18  19
ATOM     19  C   UNL     1     -26.404   3.569 -33.143  1.00  0.00     0.000 C 
BRANCH  19  20
ATOM     20  C   UNL     1     -27.630   3.031 -33.897  1.00  0.00     0.000 C 
BRANCH  20  21
ATOM     21  C   UNL     1     -28.845   3.972 -33.803  1.00  0.00     0.000 C 
BRANCH  21  22
ATOM     22  C   UNL     1     -28.989   4.921 -35.006  1.00  0.00     0.000 C 
BRANCH  22  23
ATOM     23  C   UNL     1     -28.489   4.291 -36.319  1.00  0.00     0.000 C 
BRANCH  23  24
ATOM     24  C   UNL     1     -27.387   5.125 -36.998  1.00  0.00    -0.000 C 
BRANCH  24  25
ATOM     25  C   UNL     1     -27.383   5.059 -38.535  1.00  0.00    -0.000 C 
BRANCH  25  26
ATOM     26  C   UNL     1     -26.126   4.366 -39.092  1.00  0.00    -0.000 C 
BRANCH  26  27
ATOM     27  C   UNL     1     -24.820   4.949 -38.527  1.00  0.00    -0.000 C 
BRANCH  27  28
ATOM     28  C   UNL     1     -23.977   3.975 -37.680  1.00  0.00    -0.000 C 
BRANCH  28  29
ATOM     29  C   UNL     1     -22.570   3.699 -38.252  1.00  0.00    -0.000 C 
BRANCH  29  30
ATOM     30  C   UNL     1     -22.528   2.432 -39.120  1.00  0.00    -0.000 C 
BRANCH  30  31
ATOM     31  C   UNL     1     -23.206   1.254 -38.410  1.00  0.00    -0.003 C 
ATOM     32  C   UNL     1     -22.841  -0.071 -39.074  1.00  0.00     0.004 C 
ENDBRANCH  30  31
ENDBRANCH  29  30
ENDBRANCH  28  29
ENDBRANCH  27  28
ENDBRANCH  26  27
ENDBRANCH  25  26
ENDBRANCH  24  25
ENDBRANCH  23  24
ENDBRANCH  22  23
ENDBRANCH  21  22
ENDBRANCH  20  21
ENDBRANCH  19  20
ENDBRANCH  18  19
ENDBRANCH   1  18
TORSDOF 28
ENDMDL
