MODEL 1
REMARK VINA RESULT:     8.671      0.000      0.000
REMARK INTER + INTRA:          16.090
REMARK INTER:                  16.782
REMARK INTRA:                  -0.692
REMARK UNBOUND:                -0.692
REMARK SMILES CCCCCCCCCCCCCCCCCC(=O)[O-]
REMARK SMILES IDX 10 1 11 2 12 3 13 4 14 5 15 6 16 7 17 8 18 9 19 10 20 11
REMARK SMILES IDX 9 12 8 13 7 14 6 15 5 16 4 17 3 18 2 19 1 20
REMARK H PARENT
REMARK Flexibility Score: inf
ROOT
ATOM      1  C   UNL     1     -32.226  12.765  17.743  1.00  0.00     0.000 C 
ENDROOT
BRANCH   1   2
ATOM      2  C   UNL     1     -33.571  12.865  17.001  1.00  0.00     0.000 C 
BRANCH   2   3
ATOM      3  C   UNL     1     -33.791  14.236  16.344  1.00  0.00     0.000 C 
BRANCH   3   4
ATOM      4  C   UNL     1     -34.441  15.218  17.329  1.00  0.00     0.000 C 
BRANCH   4   5
ATOM      5  C   UNL     1     -34.825  16.558  16.675  1.00  0.00     0.000 C 
BRANCH   5   6
ATOM      6  C   UNL     1     -35.258  17.661  17.658  1.00  0.00     0.000 C 
BRANCH   6   7
ATOM      7  C   UNL     1     -36.783  17.768  17.807  1.00  0.00     0.006 C 
BRANCH   7   8
ATOM      8  C   UNL     1     -37.462  16.446  17.437  1.00  0.00     0.053 C 
BRANCH   8   9
ATOM      9  C   UNL     1     -38.747  16.290  18.188  1.00  0.00     0.041 C 
ATOM     10  O   UNL     1     -38.816  15.506  19.171  1.00  0.00    -0.550 OA
ATOM     11  O   UNL     1     -39.857  17.048  17.833  1.00  0.00    -0.550 OA
ENDBRANCH   8   9
ENDBRANCH   7   8
ENDBRANCH   6   7
ENDBRANCH   5   6
ENDBRANCH   4   5
ENDBRANCH   3   4
ENDBRANCH   2   3
ENDBRANCH   1   2
BRANCH   1  12
ATOM     12  C   UNL     1     -32.323  12.269  19.200  1.00  0.00     0.000 C 
BRANCH  12  13
ATOM     13  C   UNL     1     -33.591  12.712  19.955  1.00  0.00    -0.000 C 
BRANCH  13  14
ATOM     14  C   UNL     1     -33.970  11.835  21.165  1.00  0.00    -0.000 C 
BRANCH  14  15
ATOM     15  C   UNL     1     -33.934  10.318  20.908  1.00  0.00    -0.000 C 
BRANCH  15  16
ATOM     16  C   UNL     1     -33.779   9.498  22.198  1.00  0.00    -0.000 C 
BRANCH  16  17
ATOM     17  C   UNL     1     -33.504   8.021  21.879  1.00  0.00    -0.000 C 
BRANCH  17  18
ATOM     18  C   UNL     1     -34.497   7.064  22.564  1.00  0.00    -0.000 C 
BRANCH  18  19
ATOM     19  C   UNL     1     -34.880   7.450  24.005  1.00  0.00    -0.003 C 
ATOM     20  C   UNL     1     -34.017   6.757  25.060  1.00  0.00     0.004 C 
ENDBRANCH  18  19
ENDBRANCH  17  18
ENDBRANCH  16  17
ENDBRANCH  15  16
ENDBRANCH  14  15
ENDBRANCH  13  14
ENDBRANCH  12  13
ENDBRANCH   1  12
TORSDOF 16
ENDMDL
MODEL 2
REMARK VINA RESULT:     8.761      3.675      9.073
REMARK INTER + INTRA:          16.263
REMARK INTER:                  16.971
REMARK INTRA:                  -0.707
REMARK UNBOUND:                -0.692
REMARK SMILES CCCCCCCCCCCCCCCCCC(=O)[O-]
REMARK SMILES IDX 10 1 11 2 12 3 13 4 14 5 15 6 16 7 17 8 18 9 19 10 20 11
REMARK SMILES IDX 9 12 8 13 7 14 6 15 5 16 4 17 3 18 2 19 1 20
REMARK H PARENT
REMARK Flexibility Score: inf
ROOT
ATOM      1  C   UNL     1     -33.199  12.662  17.238  1.00  0.00     0.000 C 
ENDROOT
BRANCH   1   2
ATOM      2  C   UNL     1     -32.346  13.025  18.468  1.00  0.00     0.000 C 
BRANCH   2   3
ATOM      3  C   UNL     1     -33.025  12.658  19.796  1.00  0.00     0.000 C 
BRANCH   3   4
ATOM      4  C   UNL     1     -33.734  11.300  19.693  1.00  0.00     0.000 C 
BRANCH   4   5
ATOM      5  C   UNL     1     -33.959  10.636  21.064  1.00  0.00     0.000 C 
BRANCH   5   6
ATOM      6  C   UNL     1     -33.686   9.121  21.104  1.00  0.00     0.000 C 
BRANCH   6   7
ATOM      7  C   UNL     1     -33.600   8.564  22.534  1.00  0.00     0.006 C 
BRANCH   7   8
ATOM      8  C   UNL     1     -34.406   7.270  22.666  1.00  0.00     0.053 C 
BRANCH   8   9
ATOM      9  C   UNL     1     -34.805   7.045  24.091  1.00  0.00     0.041 C 
ATOM     10  O   UNL     1     -33.927   6.837  24.969  1.00  0.00    -0.550 OA
ATOM     11  O   UNL     1     -36.144   7.114  24.458  1.00  0.00    -0.550 OA
ENDBRANCH   8   9
ENDBRANCH   7   8
ENDBRANCH   6   7
ENDBRANCH   5   6
ENDBRANCH   4   5
ENDBRANCH   3   4
ENDBRANCH   2   3
ENDBRANCH   1   2
BRANCH   1  12
ATOM     12  C   UNL     1     -33.769  13.868  16.464  1.00  0.00     0.000 C 
BRANCH  12  13
ATOM     13  C   UNL     1     -34.304  15.013  17.345  1.00  0.00    -0.000 C 
BRANCH  13  14
ATOM     14  C   UNL     1     -34.931  16.192  16.574  1.00  0.00    -0.000 C 
BRANCH  14  15
ATOM     15  C   UNL     1     -35.150  17.470  17.402  1.00  0.00    -0.000 C 
BRANCH  15  16
ATOM     16  C   UNL     1     -36.586  17.600  17.931  1.00  0.00    -0.000 C 
BRANCH  16  17
ATOM     17  C   UNL     1     -37.480  16.483  17.370  1.00  0.00    -0.000 C 
BRANCH  17  18
ATOM     18  C   UNL     1     -38.512  15.971  18.390  1.00  0.00    -0.000 C 
BRANCH  18  19
ATOM     19  C   UNL     1     -39.915  16.594  18.264  1.00  0.00    -0.003 C 
ATOM     20  C   UNL     1     -40.131  17.318  16.935  1.00  0.00     0.004 C 
ENDBRANCH  18  19
ENDBRANCH  17  18
ENDBRANCH  16  17
ENDBRANCH  15  16
ENDBRANCH  14  15
ENDBRANCH  13  14
ENDBRANCH  12  13
ENDBRANCH   1  12
TORSDOF 16
ENDMDL
MODEL 3
REMARK VINA RESULT:     9.514      1.802      2.271
REMARK INTER + INTRA:          17.722
REMARK INTER:                  18.424
REMARK INTRA:                  -0.702
REMARK UNBOUND:                -0.692
REMARK SMILES CCCCCCCCCCCCCCCCCC(=O)[O-]
REMARK SMILES IDX 10 1 11 2 12 3 13 4 14 5 15 6 16 7 17 8 18 9 19 10 20 11
REMARK SMILES IDX 9 12 8 13 7 14 6 15 5 16 4 17 3 18 2 19 1 20
REMARK H PARENT
REMARK Flexibility Score: inf
ROOT
ATOM      1  C   UNL     1     -32.289  12.755  17.780  1.00  0.00     0.000 C 
ENDROOT
BRANCH   1   2
ATOM      2  C   UNL     1     -33.604  12.830  16.982  1.00  0.00     0.000 C 
BRANCH   2   3
ATOM      3  C   UNL     1     -33.845  14.210  16.353  1.00  0.00     0.000 C 
BRANCH   3   4
ATOM      4  C   UNL     1     -34.516  15.160  17.356  1.00  0.00     0.000 C 
BRANCH   4   5
ATOM      5  C   UNL     1     -34.808  16.551  16.762  1.00  0.00     0.000 C 
BRANCH   5   6
ATOM      6  C   UNL     1     -35.252  17.613  17.784  1.00  0.00     0.000 C 
BRANCH   6   7
ATOM      7  C   UNL     1     -36.774  17.820  17.811  1.00  0.00     0.006 C 
BRANCH   7   8
ATOM      8  C   UNL     1     -37.506  16.558  17.345  1.00  0.00     0.053 C 
BRANCH   8   9
ATOM      9  C   UNL     1     -38.777  16.377  18.112  1.00  0.00     0.041 C 
ATOM     10  O   UNL     1     -39.851  16.878  17.687  1.00  0.00    -0.550 OA
ATOM     11  O   UNL     1     -38.787  15.613  19.273  1.00  0.00    -0.550 OA
ENDBRANCH   8   9
ENDBRANCH   7   8
ENDBRANCH   6   7
ENDBRANCH   5   6
ENDBRANCH   4   5
ENDBRANCH   3   4
ENDBRANCH   2   3
ENDBRANCH   1   2
BRANCH   1  12
ATOM     12  C   UNL     1     -32.460  12.487  19.289  1.00  0.00     0.000 C 
BRANCH  12  13
ATOM     13  C   UNL     1     -33.304  11.246  19.639  1.00  0.00    -0.000 C 
BRANCH  13  14
ATOM     14  C   UNL     1     -34.066  11.331  20.976  1.00  0.00    -0.000 C 
BRANCH  14  15
ATOM     15  C   UNL     1     -33.981  12.691  21.690  1.00  0.00    -0.000 C 
BRANCH  15  16
ATOM     16  C   UNL     1     -34.513  12.644  23.130  1.00  0.00    -0.000 C 
BRANCH  16  17
ATOM     17  C   UNL     1     -33.767  11.584  23.955  1.00  0.00    -0.000 C 
BRANCH  17  18
ATOM     18  C   UNL     1     -34.340  11.415  25.374  1.00  0.00    -0.000 C 
BRANCH  18  19
ATOM     19  C   UNL     1     -34.025  10.065  26.045  1.00  0.00    -0.003 C 
ATOM     20  C   UNL     1     -32.873  10.149  27.047  1.00  0.00     0.004 C 
ENDBRANCH  18  19
ENDBRANCH  17  18
ENDBRANCH  16  17
ENDBRANCH  15  16
ENDBRANCH  14  15
ENDBRANCH  13  14
ENDBRANCH  12  13
ENDBRANCH   1  12
TORSDOF 16
ENDMDL
MODEL 4
REMARK VINA RESULT:     9.523      4.140      8.716
REMARK INTER + INTRA:          17.739
REMARK INTER:                  18.553
REMARK INTRA:                  -0.815
REMARK UNBOUND:                -0.692
REMARK SMILES CCCCCCCCCCCCCCCCCC(=O)[O-]
REMARK SMILES IDX 10 1 11 2 12 3 13 4 14 5 15 6 16 7 17 8 18 9 19 10 20 11
REMARK SMILES IDX 9 12 8 13 7 14 6 15 5 16 4 17 3 18 2 19 1 20
REMARK H PARENT
REMARK Flexibility Score: inf
ROOT
ATOM      1  C   UNL     1     -32.629  12.804  17.699  1.00  0.00     0.000 C 
ENDROOT
BRANCH   1   2
ATOM      2  C   UNL     1     -32.911  12.647  19.205  1.00  0.00     0.000 C 
BRANCH   2   3
ATOM      3  C   UNL     1     -33.475  11.266  19.567  1.00  0.00     0.000 C 
BRANCH   3   4
ATOM      4  C   UNL     1     -33.877  11.208  21.048  1.00  0.00     0.000 C 
BRANCH   4   5
ATOM      5  C   UNL     1     -34.050  12.603  21.677  1.00  0.00     0.000 C 
BRANCH   5   6
ATOM      6  C   UNL     1     -34.541  12.600  23.137  1.00  0.00     0.000 C 
BRANCH   6   7
ATOM      7  C   UNL     1     -33.753  11.632  24.033  1.00  0.00     0.006 C 
BRANCH   7   8
ATOM      8  C   UNL     1     -34.341  11.593  25.446  1.00  0.00     0.053 C 
BRANCH   8   9
ATOM      9  C   UNL     1     -33.755  10.459  26.225  1.00  0.00     0.041 C 
ATOM     10  O   UNL     1     -32.647  10.597  26.810  1.00  0.00    -0.550 OA
ATOM     11  O   UNL     1     -34.454   9.264  26.349  1.00  0.00    -0.550 OA
ENDBRANCH   8   9
ENDBRANCH   7   8
ENDBRANCH   6   7
ENDBRANCH   5   6
ENDBRANCH   4   5
ENDBRANCH   3   4
ENDBRANCH   2   3
ENDBRANCH   1   2
BRANCH   1  12
ATOM     12  C   UNL     1     -33.663  13.651  16.930  1.00  0.00     0.000 C 
BRANCH  12  13
ATOM     13  C   UNL     1     -34.227  14.856  17.708  1.00  0.00    -0.000 C 
BRANCH  13  14
ATOM     14  C   UNL     1     -34.786  15.995  16.833  1.00  0.00    -0.000 C 
BRANCH  14  15
ATOM     15  C   UNL     1     -35.153  17.281  17.594  1.00  0.00    -0.000 C 
BRANCH  15  16
ATOM     16  C   UNL     1     -36.666  17.434  17.812  1.00  0.00    -0.000 C 
BRANCH  16  17
ATOM     17  C   UNL     1     -37.409  16.147  17.422  1.00  0.00    -0.000 C 
BRANCH  17  18
ATOM     18  C   UNL     1     -38.594  15.833  18.353  1.00  0.00    -0.000 C 
BRANCH  18  19
ATOM     19  C   UNL     1     -39.722  16.882  18.343  1.00  0.00    -0.003 C 
ATOM     20  C   UNL     1     -40.256  17.174  16.941  1.00  0.00     0.004 C 
ENDBRANCH  18  19
ENDBRANCH  17  18
ENDBRANCH  16  17
ENDBRANCH  15  16
ENDBRANCH  14  15
ENDBRANCH  13  14
ENDBRANCH  12  13
ENDBRANCH   1  12
TORSDOF 16
ENDMDL
MODEL 5
REMARK VINA RESULT:     9.531      0.937      1.460
REMARK INTER + INTRA:          17.753
REMARK INTER:                  18.514
REMARK INTRA:                  -0.761
REMARK UNBOUND:                -0.692
REMARK SMILES CCCCCCCCCCCCCCCCCC(=O)[O-]
REMARK SMILES IDX 10 1 11 2 12 3 13 4 14 5 15 6 16 7 17 8 18 9 19 10 20 11
REMARK SMILES IDX 9 12 8 13 7 14 6 15 5 16 4 17 3 18 2 19 1 20
REMARK H PARENT
REMARK Flexibility Score: inf
ROOT
ATOM      1  C   UNL     1     -32.687  12.632  19.042  1.00  0.00     0.000 C 
ENDROOT
BRANCH   1   2
ATOM      2  C   UNL     1     -33.270  12.431  17.631  1.00  0.00     0.000 C 
BRANCH   2   3
ATOM      3  C   UNL     1     -33.430  13.747  16.857  1.00  0.00     0.000 C 
BRANCH   3   4
ATOM      4  C   UNL     1     -34.211  14.779  17.683  1.00  0.00     0.000 C 
BRANCH   4   5
ATOM      5  C   UNL     1     -34.746  15.947  16.834  1.00  0.00     0.000 C 
BRANCH   5   6
ATOM      6  C   UNL     1     -35.078  17.226  17.625  1.00  0.00     0.000 C 
BRANCH   6   7
ATOM      7  C   UNL     1     -36.588  17.483  17.743  1.00  0.00     0.006 C 
BRANCH   7   8
ATOM      8  C   UNL     1     -37.383  16.199  17.491  1.00  0.00     0.053 C 
BRANCH   8   9
ATOM      9  C   UNL     1     -38.713  16.264  18.172  1.00  0.00     0.041 C 
ATOM     10  O   UNL     1     -38.881  15.708  19.290  1.00  0.00    -0.550 OA
ATOM     11  O   UNL     1     -39.755  16.980  17.597  1.00  0.00    -0.550 OA
ENDBRANCH   8   9
ENDBRANCH   7   8
ENDBRANCH   6   7
ENDBRANCH   5   6
ENDBRANCH   4   5
ENDBRANCH   3   4
ENDBRANCH   2   3
ENDBRANCH   1   2
BRANCH   1  12
ATOM     12  C   UNL     1     -33.632  12.243  20.197  1.00  0.00     0.000 C 
BRANCH  12  13
ATOM     13  C   UNL     1     -33.873  10.730  20.360  1.00  0.00    -0.000 C 
BRANCH  13  14
ATOM     14  C   UNL     1     -33.630  10.180  21.780  1.00  0.00    -0.000 C 
BRANCH  14  15
ATOM     15  C   UNL     1     -33.524   8.648  21.876  1.00  0.00    -0.000 C 
BRANCH  15  16
ATOM     16  C   UNL     1     -34.769   8.002  22.503  1.00  0.00    -0.000 C 
BRANCH  16  17
ATOM     17  C   UNL     1     -34.380   6.811  23.392  1.00  0.00    -0.000 C 
BRANCH  17  18
ATOM     18  C   UNL     1     -34.333   7.167  24.888  1.00  0.00    -0.000 C 
BRANCH  18  19
ATOM     19  C   UNL     1     -35.008   8.501  25.258  1.00  0.00    -0.003 C 
ATOM     20  C   UNL     1     -34.121   9.403  26.116  1.00  0.00     0.004 C 
ENDBRANCH  18  19
ENDBRANCH  17  18
ENDBRANCH  16  17
ENDBRANCH  15  16
ENDBRANCH  14  15
ENDBRANCH  13  14
ENDBRANCH  12  13
ENDBRANCH   1  12
TORSDOF 16
ENDMDL
MODEL 6
REMARK VINA RESULT:     9.856      3.437      9.367
REMARK INTER + INTRA:          18.383
REMARK INTER:                  18.975
REMARK INTRA:                  -0.592
REMARK UNBOUND:                -0.692
REMARK SMILES CCCCCCCCCCCCCCCCCC(=O)[O-]
REMARK SMILES IDX 10 1 11 2 12 3 13 4 14 5 15 6 16 7 17 8 18 9 19 10 20 11
REMARK SMILES IDX 9 12 8 13 7 14 6 15 5 16 4 17 3 18 2 19 1 20
REMARK H PARENT
REMARK Flexibility Score: inf
ROOT
ATOM      1  C   UNL     1     -33.442  11.224  19.570  1.00  0.00     0.000 C 
ENDROOT
BRANCH   1   2
ATOM      2  C   UNL     1     -33.661  10.906  21.061  1.00  0.00     0.000 C 
BRANCH   2   3
ATOM      3  C   UNL     1     -33.319   9.453  21.419  1.00  0.00     0.000 C 
BRANCH   3   4
ATOM      4  C   UNL     1     -34.463   8.798  22.205  1.00  0.00     0.000 C 
BRANCH   4   5
ATOM      5  C   UNL     1     -34.089   7.415  22.770  1.00  0.00     0.000 C 
BRANCH   5   6
ATOM      6  C   UNL     1     -34.796   7.037  24.084  1.00  0.00     0.000 C 
BRANCH   6   7
ATOM      7  C   UNL     1     -34.179   7.720  25.315  1.00  0.00     0.006 C 
BRANCH   7   8
ATOM      8  C   UNL     1     -34.916   9.021  25.645  1.00  0.00     0.053 C 
BRANCH   8   9
ATOM      9  C   UNL     1     -33.945  10.083  26.052  1.00  0.00     0.041 C 
ATOM     10  O   UNL     1     -34.076  11.260  25.623  1.00  0.00    -0.550 OA
ATOM     11  O   UNL     1     -32.923   9.786  26.946  1.00  0.00    -0.550 OA
ENDBRANCH   8   9
ENDBRANCH   7   8
ENDBRANCH   6   7
ENDBRANCH   5   6
ENDBRANCH   4   5
ENDBRANCH   3   4
ENDBRANCH   2   3
ENDBRANCH   1   2
BRANCH   1  12
ATOM     12  C   UNL     1     -33.140  12.704  19.259  1.00  0.00     0.000 C 
BRANCH  12  13
ATOM     13  C   UNL     1     -32.802  13.004  17.786  1.00  0.00    -0.000 C 
BRANCH  13  14
ATOM     14  C   UNL     1     -33.896  13.760  17.006  1.00  0.00    -0.000 C 
BRANCH  14  15
ATOM     15  C   UNL     1     -34.406  15.046  17.679  1.00  0.00    -0.000 C 
BRANCH  15  16
ATOM     16  C   UNL     1     -34.936  16.077  16.672  1.00  0.00    -0.000 C 
BRANCH  16  17
ATOM     17  C   UNL     1     -35.242  17.413  17.364  1.00  0.00    -0.000 C 
BRANCH  17  18
ATOM     18  C   UNL     1     -36.669  17.480  17.937  1.00  0.00    -0.000 C 
BRANCH  18  19
ATOM     19  C   UNL     1     -37.612  16.358  17.463  1.00  0.00    -0.003 C 
ATOM     20  C   UNL     1     -38.498  15.809  18.580  1.00  0.00     0.004 C 
ENDBRANCH  18  19
ENDBRANCH  17  18
ENDBRANCH  16  17
ENDBRANCH  15  16
ENDBRANCH  14  15
ENDBRANCH  13  14
ENDBRANCH  12  13
ENDBRANCH   1  12
TORSDOF 16
ENDMDL
