MODEL 1
REMARK VINA RESULT:    -4.393      0.000      0.000
REMARK INTER + INTRA:         -10.401
REMARK INTER:                  -8.502
REMARK INTRA:                  -1.899
REMARK UNBOUND:                -1.899
REMARK SMILES CCCCCCCCCCCCCCCCCC(=O)[O-]
REMARK SMILES IDX 10 1 11 2 12 3 13 4 14 5 15 6 16 7 17 8 18 9 19 10 20 11
REMARK SMILES IDX 9 12 8 13 7 14 6 15 5 16 4 17 3 18 2 19 1 20
REMARK H PARENT
REMARK Flexibility Score: inf
ROOT
ATOM      1  C   UNL     1      34.597  -7.607  15.384  1.00  0.00     0.000 C 
ENDROOT
BRANCH   1   2
ATOM      2  C   UNL     1      35.726  -7.141  14.448  1.00  0.00     0.000 C 
BRANCH   2   3
ATOM      3  C   UNL     1      35.254  -6.961  12.996  1.00  0.00     0.000 C 
BRANCH   3   4
ATOM      4  C   UNL     1      36.253  -7.446  11.928  1.00  0.00     0.000 C 
BRANCH   4   5
ATOM      5  C   UNL     1      37.730  -7.347  12.367  1.00  0.00     0.000 C 
BRANCH   5   6
ATOM      6  C   UNL     1      38.606  -8.426  11.708  1.00  0.00     0.000 C 
BRANCH   6   7
ATOM      7  C   UNL     1      38.117  -8.815  10.301  1.00  0.00     0.006 C 
BRANCH   7   8
ATOM      8  C   UNL     1      39.076  -8.418   9.167  1.00  0.00     0.053 C 
BRANCH   8   9
ATOM      9  C   UNL     1      39.354  -6.946   9.160  1.00  0.00     0.041 C 
ATOM     10  O   UNL     1      38.486  -6.139   8.733  1.00  0.00    -0.550 OA
ATOM     11  O   UNL     1      40.558  -6.463   9.655  1.00  0.00    -0.550 OA
ENDBRANCH   8   9
ENDBRANCH   7   8
ENDBRANCH   6   7
ENDBRANCH   5   6
ENDBRANCH   4   5
ENDBRANCH   3   4
ENDBRANCH   2   3
ENDBRANCH   1   2
BRANCH   1  12
ATOM     12  C   UNL     1      33.469  -8.329  14.632  1.00  0.00     0.000 C 
BRANCH  12  13
ATOM     13  C   UNL     1      33.618  -9.860  14.677  1.00  0.00    -0.000 C 
BRANCH  13  14
ATOM     14  C   UNL     1      32.278 -10.589  14.486  1.00  0.00    -0.000 C 
BRANCH  14  15
ATOM     15  C   UNL     1      31.074  -9.744  14.940  1.00  0.00    -0.000 C 
BRANCH  15  16
ATOM     16  C   UNL     1      30.154 -10.501  15.910  1.00  0.00    -0.000 C 
BRANCH  16  17
ATOM     17  C   UNL     1      30.558 -10.307  17.380  1.00  0.00    -0.000 C 
BRANCH  17  18
ATOM     18  C   UNL     1      31.203  -8.929  17.593  1.00  0.00    -0.000 C 
BRANCH  18  19
ATOM     19  C   UNL     1      32.456  -8.995  18.480  1.00  0.00    -0.003 C 
ATOM     20  C   UNL     1      33.249 -10.288  18.289  1.00  0.00     0.004 C 
ENDBRANCH  18  19
ENDBRANCH  17  18
ENDBRANCH  16  17
ENDBRANCH  15  16
ENDBRANCH  14  15
ENDBRANCH  13  14
ENDBRANCH  12  13
ENDBRANCH   1  12
TORSDOF 16
ENDMDL
MODEL 2
REMARK VINA RESULT:    -4.267      4.248     11.093
REMARK INTER + INTRA:         -10.156
REMARK INTER:                  -9.006
REMARK INTRA:                  -1.151
REMARK UNBOUND:                -1.899
REMARK SMILES CCCCCCCCCCCCCCCCCC(=O)[O-]
REMARK SMILES IDX 10 1 11 2 12 3 13 4 14 5 15 6 16 7 17 8 18 9 19 10 20 11
REMARK SMILES IDX 9 12 8 13 7 14 6 15 5 16 4 17 3 18 2 19 1 20
REMARK H PARENT
REMARK Flexibility Score: inf
ROOT
ATOM      1  C   UNL     1      39.324  -6.214   9.137  1.00  0.00     0.000 C 
ENDROOT
BRANCH   1   2
ATOM      2  C   UNL     1      40.019  -7.108  10.179  1.00  0.00     0.000 C 
BRANCH   2   3
ATOM      3  C   UNL     1      39.034  -7.703  11.199  1.00  0.00     0.000 C 
BRANCH   3   4
ATOM      4  C   UNL     1      37.690  -8.164  10.604  1.00  0.00     0.000 C 
BRANCH   4   5
ATOM      5  C   UNL     1      37.052  -9.353  11.355  1.00  0.00     0.000 C 
BRANCH   5   6
ATOM      6  C   UNL     1      37.108  -9.174  12.882  1.00  0.00     0.000 C 
BRANCH   6   7
ATOM      7  C   UNL     1      35.712  -9.102  13.527  1.00  0.00     0.006 C 
BRANCH   7   8
ATOM      8  C   UNL     1      35.082  -7.699  13.512  1.00  0.00     0.053 C 
BRANCH   8   9
ATOM      9  C   UNL     1      35.902  -6.710  14.281  1.00  0.00     0.041 C 
ATOM     10  O   UNL     1      35.775  -6.617  15.531  1.00  0.00    -0.550 OA
ATOM     11  O   UNL     1      36.831  -5.915  13.623  1.00  0.00    -0.550 OA
ENDBRANCH   8   9
ENDBRANCH   7   8
ENDBRANCH   6   7
ENDBRANCH   5   6
ENDBRANCH   4   5
ENDBRANCH   3   4
ENDBRANCH   2   3
ENDBRANCH   1   2
BRANCH   1  12
ATOM     12  C   UNL     1      39.613  -6.659   7.694  1.00  0.00     0.000 C 
BRANCH  12  13
ATOM     13  C   UNL     1      40.827  -7.601   7.601  1.00  0.00    -0.000 C 
BRANCH  13  14
ATOM     14  C   UNL     1      41.539  -7.513   6.242  1.00  0.00    -0.000 C 
BRANCH  14  15
ATOM     15  C   UNL     1      40.849  -6.533   5.274  1.00  0.00    -0.000 C 
BRANCH  15  16
ATOM     16  C   UNL     1      41.040  -6.927   3.801  1.00  0.00    -0.000 C 
BRANCH  16  17
ATOM     17  C   UNL     1      40.687  -5.785   2.834  1.00  0.00    -0.000 C 
BRANCH  17  18
ATOM     18  C   UNL     1      41.273  -4.453   3.325  1.00  0.00    -0.000 C 
BRANCH  18  19
ATOM     19  C   UNL     1      40.264  -3.296   3.236  1.00  0.00    -0.003 C 
ATOM     20  C   UNL     1      39.087  -3.608   2.313  1.00  0.00     0.004 C 
ENDBRANCH  18  19
ENDBRANCH  17  18
ENDBRANCH  16  17
ENDBRANCH  15  16
ENDBRANCH  14  15
ENDBRANCH  13  14
ENDBRANCH  12  13
ENDBRANCH   1  12
TORSDOF 16
ENDMDL
MODEL 3
REMARK VINA RESULT:    -4.222      2.925      4.141
REMARK INTER + INTRA:         -10.069
REMARK INTER:                  -8.902
REMARK INTRA:                  -1.167
REMARK UNBOUND:                -1.899
REMARK SMILES CCCCCCCCCCCCCCCCCC(=O)[O-]
REMARK SMILES IDX 10 1 11 2 12 3 13 4 14 5 15 6 16 7 17 8 18 9 19 10 20 11
REMARK SMILES IDX 9 12 8 13 7 14 6 15 5 16 4 17 3 18 2 19 1 20
REMARK H PARENT
REMARK Flexibility Score: inf
ROOT
ATOM      1  C   UNL     1      36.639  -6.884  13.799  1.00  0.00     0.000 C 
ENDROOT
BRANCH   1   2
ATOM      2  C   UNL     1      35.758  -7.351  12.627  1.00  0.00     0.000 C 
BRANCH   2   3
ATOM      3  C   UNL     1      36.208  -8.703  12.049  1.00  0.00     0.000 C 
BRANCH   3   4
ATOM      4  C   UNL     1      37.382  -9.364  12.796  1.00  0.00     0.000 C 
BRANCH   4   5
ATOM      5  C   UNL     1      38.442  -9.989  11.862  1.00  0.00     0.000 C 
BRANCH   5   6
ATOM      6  C   UNL     1      38.838  -9.041  10.717  1.00  0.00     0.000 C 
BRANCH   6   7
ATOM      7  C   UNL     1      39.383  -7.692  11.220  1.00  0.00     0.006 C 
BRANCH   7   8
ATOM      8  C   UNL     1      40.260  -6.947  10.201  1.00  0.00     0.053 C 
BRANCH   8   9
ATOM      9  C   UNL     1      39.575  -6.795   8.879  1.00  0.00     0.041 C 
ATOM     10  O   UNL     1      38.441  -6.252   8.810  1.00  0.00    -0.550 OA
ATOM     11  O   UNL     1      40.204  -7.222   7.716  1.00  0.00    -0.550 OA
ENDBRANCH   8   9
ENDBRANCH   7   8
ENDBRANCH   6   7
ENDBRANCH   5   6
ENDBRANCH   4   5
ENDBRANCH   3   4
ENDBRANCH   2   3
ENDBRANCH   1   2
BRANCH   1  12
ATOM     12  C   UNL     1      35.822  -6.570  15.061  1.00  0.00     0.000 C 
BRANCH  12  13
ATOM     13  C   UNL     1      34.711  -7.604  15.315  1.00  0.00    -0.000 C 
BRANCH  13  14
ATOM     14  C   UNL     1      34.037  -7.421  16.685  1.00  0.00    -0.000 C 
BRANCH  14  15
ATOM     15  C   UNL     1      34.869  -6.550  17.643  1.00  0.00    -0.000 C 
BRANCH  15  16
ATOM     16  C   UNL     1      34.585  -6.861  19.121  1.00  0.00    -0.000 C 
BRANCH  16  17
ATOM     17  C   UNL     1      34.513  -5.595  19.988  1.00  0.00    -0.000 C 
BRANCH  17  18
ATOM     18  C   UNL     1      34.960  -4.360  19.191  1.00  0.00    -0.000 C 
BRANCH  18  19
ATOM     19  C   UNL     1      35.526  -3.250  20.091  1.00  0.00    -0.003 C 
ATOM     20  C   UNL     1      36.916  -3.580  20.634  1.00  0.00     0.004 C 
ENDBRANCH  18  19
ENDBRANCH  17  18
ENDBRANCH  16  17
ENDBRANCH  15  16
ENDBRANCH  14  15
ENDBRANCH  13  14
ENDBRANCH  12  13
ENDBRANCH   1  12
TORSDOF 16
ENDMDL
MODEL 4
REMARK VINA RESULT:    -4.220      4.464     11.263
REMARK INTER + INTRA:         -10.065
REMARK INTER:                  -8.402
REMARK INTRA:                  -1.663
REMARK UNBOUND:                -1.899
REMARK SMILES CCCCCCCCCCCCCCCCCC(=O)[O-]
REMARK SMILES IDX 10 1 11 2 12 3 13 4 14 5 15 6 16 7 17 8 18 9 19 10 20 11
REMARK SMILES IDX 9 12 8 13 7 14 6 15 5 16 4 17 3 18 2 19 1 20
REMARK H PARENT
REMARK Flexibility Score: inf
ROOT
ATOM      1  C   UNL     1      40.469  -7.115   7.882  1.00  0.00     0.000 C 
ENDROOT
BRANCH   1   2
ATOM      2  C   UNL     1      40.155  -6.634   9.310  1.00  0.00     0.000 C 
BRANCH   2   3
ATOM      3  C   UNL     1      38.649  -6.646   9.620  1.00  0.00     0.000 C 
BRANCH   3   4
ATOM      4  C   UNL     1      38.075  -8.031   9.976  1.00  0.00     0.000 C 
BRANCH   4   5
ATOM      5  C   UNL     1      36.999  -7.992  11.084  1.00  0.00     0.000 C 
BRANCH   5   6
ATOM      6  C   UNL     1      37.610  -7.788  12.481  1.00  0.00     0.000 C 
BRANCH   6   7
ATOM      7  C   UNL     1      36.986  -6.602  13.238  1.00  0.00     0.006 C 
BRANCH   7   8
ATOM      8  C   UNL     1      35.449  -6.603  13.255  1.00  0.00     0.053 C 
BRANCH   8   9
ATOM      9  C   UNL     1      34.903  -7.362  14.424  1.00  0.00     0.041 C 
ATOM     10  O   UNL     1      35.190  -7.010  15.599  1.00  0.00    -0.550 OA
ATOM     11  O   UNL     1      34.049  -8.438  14.218  1.00  0.00    -0.550 OA
ENDBRANCH   8   9
ENDBRANCH   7   8
ENDBRANCH   6   7
ENDBRANCH   5   6
ENDBRANCH   4   5
ENDBRANCH   3   4
ENDBRANCH   2   3
ENDBRANCH   1   2
BRANCH   1  12
ATOM     12  C   UNL     1      41.749  -7.962   7.815  1.00  0.00     0.000 C 
BRANCH  12  13
ATOM     13  C   UNL     1      41.519  -9.412   8.277  1.00  0.00    -0.000 C 
BRANCH  13  14
ATOM     14  C   UNL     1      42.827 -10.213   8.376  1.00  0.00    -0.000 C 
BRANCH  14  15
ATOM     15  C   UNL     1      44.059  -9.391   7.956  1.00  0.00    -0.000 C 
BRANCH  15  16
ATOM     16  C   UNL     1      45.127 -10.245   7.255  1.00  0.00    -0.000 C 
BRANCH  16  17
ATOM     17  C   UNL     1      45.125 -10.059   5.730  1.00  0.00    -0.000 C 
BRANCH  17  18
ATOM     18  C   UNL     1      44.377  -8.776   5.336  1.00  0.00    -0.000 C 
BRANCH  18  19
ATOM     19  C   UNL     1      43.306  -9.022   4.262  1.00  0.00    -0.003 C 
ATOM     20  C   UNL     1      42.297 -10.096   4.669  1.00  0.00     0.004 C 
ENDBRANCH  18  19
ENDBRANCH  17  18
ENDBRANCH  16  17
ENDBRANCH  15  16
ENDBRANCH  14  15
ENDBRANCH  13  14
ENDBRANCH  12  13
ENDBRANCH   1  12
TORSDOF 16
ENDMDL
MODEL 5
REMARK VINA RESULT:    -4.157      6.347      9.601
REMARK INTER + INTRA:          -9.943
REMARK INTER:                  -7.628
REMARK INTRA:                  -2.316
REMARK UNBOUND:                -1.899
REMARK SMILES CCCCCCCCCCCCCCCCCC(=O)[O-]
REMARK SMILES IDX 10 1 11 2 12 3 13 4 14 5 15 6 16 7 17 8 18 9 19 10 20 11
REMARK SMILES IDX 9 12 8 13 7 14 6 15 5 16 4 17 3 18 2 19 1 20
REMARK H PARENT
REMARK Flexibility Score: inf
ROOT
ATOM      1  C   UNL     1      41.997  -9.987   7.840  1.00  0.00     0.000 C 
ENDROOT
BRANCH   1   2
ATOM      2  C   UNL     1      42.897  -8.800   8.224  1.00  0.00     0.000 C 
BRANCH   2   3
ATOM      3  C   UNL     1      44.390  -9.091   8.000  1.00  0.00     0.000 C 
BRANCH   3   4
ATOM      4  C   UNL     1      44.711 -10.548   7.616  1.00  0.00     0.000 C 
BRANCH   4   5
ATOM      5  C   UNL     1      46.034 -10.709   6.835  1.00  0.00     0.000 C 
BRANCH   5   6
ATOM      6  C   UNL     1      45.831 -10.581   5.315  1.00  0.00     0.000 C 
BRANCH   6   7
ATOM      7  C   UNL     1      44.351 -10.421   4.922  1.00  0.00     0.006 C 
BRANCH   7   8
ATOM      8  C   UNL     1      44.017  -9.077   4.255  1.00  0.00     0.053 C 
BRANCH   8   9
ATOM      9  C   UNL     1      42.543  -8.813   4.235  1.00  0.00     0.041 C 
ATOM     10  O   UNL     1      41.781  -9.524   3.528  1.00  0.00    -0.550 OA
ATOM     11  O   UNL     1      42.007  -7.804   5.025  1.00  0.00    -0.550 OA
ENDBRANCH   8   9
ENDBRANCH   7   8
ENDBRANCH   6   7
ENDBRANCH   5   6
ENDBRANCH   4   5
ENDBRANCH   3   4
ENDBRANCH   2   3
ENDBRANCH   1   2
BRANCH   1  12
ATOM     12  C   UNL     1      40.969 -10.324   8.931  1.00  0.00     0.000 C 
BRANCH  12  13
ATOM     13  C   UNL     1      39.619 -10.777   8.347  1.00  0.00    -0.000 C 
BRANCH  13  14
ATOM     14  C   UNL     1      38.433 -10.413   9.255  1.00  0.00    -0.000 C 
BRANCH  14  15
ATOM     15  C   UNL     1      38.879  -9.891  10.633  1.00  0.00    -0.000 C 
BRANCH  15  16
ATOM     16  C   UNL     1      38.304  -8.502  10.952  1.00  0.00    -0.000 C 
BRANCH  16  17
ATOM     17  C   UNL     1      39.386  -7.497  11.375  1.00  0.00    -0.000 C 
BRANCH  17  18
ATOM     18  C   UNL     1      40.164  -6.985  10.154  1.00  0.00    -0.000 C 
BRANCH  18  19
ATOM     19  C   UNL     1      39.239  -6.480   9.034  1.00  0.00    -0.003 C 
ATOM     20  C   UNL     1      39.753  -6.832   7.639  1.00  0.00     0.004 C 
ENDBRANCH  18  19
ENDBRANCH  17  18
ENDBRANCH  16  17
ENDBRANCH  15  16
ENDBRANCH  14  15
ENDBRANCH  13  14
ENDBRANCH  12  13
ENDBRANCH   1  12
TORSDOF 16
ENDMDL
MODEL 6
REMARK VINA RESULT:    -4.154      4.719      9.192
REMARK INTER + INTRA:          -9.938
REMARK INTER:                  -8.482
REMARK INTRA:                  -1.456
REMARK UNBOUND:                -1.899
REMARK SMILES CCCCCCCCCCCCCCCCCC(=O)[O-]
REMARK SMILES IDX 10 1 11 2 12 3 13 4 14 5 15 6 16 7 17 8 18 9 19 10 20 11
REMARK SMILES IDX 9 12 8 13 7 14 6 15 5 16 4 17 3 18 2 19 1 20
REMARK H PARENT
REMARK Flexibility Score: inf
ROOT
ATOM      1  C   UNL     1      43.200  -7.766   7.610  1.00  0.00     0.000 C 
ENDROOT
BRANCH   1   2
ATOM      2  C   UNL     1      44.436  -8.527   8.121  1.00  0.00     0.000 C 
BRANCH   2   3
ATOM      3  C   UNL     1      44.346 -10.041   7.866  1.00  0.00     0.000 C 
BRANCH   3   4
ATOM      4  C   UNL     1      45.564 -10.646   7.143  1.00  0.00     0.000 C 
BRANCH   4   5
ATOM      5  C   UNL     1      45.625 -10.310   5.637  1.00  0.00     0.000 C 
BRANCH   5   6
ATOM      6  C   UNL     1      44.269 -10.518   4.940  1.00  0.00     0.000 C 
BRANCH   6   7
ATOM      7  C   UNL     1      43.681  -9.211   4.377  1.00  0.00     0.006 C 
BRANCH   7   8
ATOM      8  C   UNL     1      42.145  -9.166   4.361  1.00  0.00     0.053 C 
BRANCH   8   9
ATOM      9  C   UNL     1      41.629  -7.878   3.800  1.00  0.00     0.041 C 
ATOM     10  O   UNL     1      42.065  -7.445   2.701  1.00  0.00    -0.550 OA
ATOM     11  O   UNL     1      40.641  -7.172   4.474  1.00  0.00    -0.550 OA
ENDBRANCH   8   9
ENDBRANCH   7   8
ENDBRANCH   6   7
ENDBRANCH   5   6
ENDBRANCH   4   5
ENDBRANCH   3   4
ENDBRANCH   2   3
ENDBRANCH   1   2
BRANCH   1  12
ATOM     12  C   UNL     1      41.883  -8.377   8.115  1.00  0.00     0.000 C 
BRANCH  12  13
ATOM     13  C   UNL     1      40.694  -7.410   7.971  1.00  0.00    -0.000 C 
BRANCH  13  14
ATOM     14  C   UNL     1      40.270  -6.793   9.313  1.00  0.00    -0.000 C 
BRANCH  14  15
ATOM     15  C   UNL     1      38.754  -6.535   9.395  1.00  0.00    -0.000 C 
BRANCH  15  16
ATOM     16  C   UNL     1      38.024  -7.575  10.260  1.00  0.00    -0.000 C 
BRANCH  16  17
ATOM     17  C   UNL     1      38.660  -7.739  11.649  1.00  0.00    -0.000 C 
BRANCH  17  18
ATOM     18  C   UNL     1      37.580  -7.846  12.736  1.00  0.00    -0.000 C 
BRANCH  18  19
ATOM     19  C   UNL     1      36.888  -6.503  13.015  1.00  0.00    -0.003 C 
ATOM     20  C   UNL     1      36.457  -6.351  14.474  1.00  0.00     0.004 C 
ENDBRANCH  18  19
ENDBRANCH  17  18
ENDBRANCH  16  17
ENDBRANCH  15  16
ENDBRANCH  14  15
ENDBRANCH  13  14
ENDBRANCH  12  13
ENDBRANCH   1  12
TORSDOF 16
ENDMDL
MODEL 7
REMARK VINA RESULT:    -4.152      6.362     11.758
REMARK INTER + INTRA:          -9.934
REMARK INTER:                  -7.904
REMARK INTRA:                  -2.030
REMARK UNBOUND:                -1.899
REMARK SMILES CCCCCCCCCCCCCCCCCC(=O)[O-]
REMARK SMILES IDX 10 1 11 2 12 3 13 4 14 5 15 6 16 7 17 8 18 9 19 10 20 11
REMARK SMILES IDX 9 12 8 13 7 14 6 15 5 16 4 17 3 18 2 19 1 20
REMARK H PARENT
REMARK Flexibility Score: inf
ROOT
ATOM      1  C   UNL     1      43.616  -8.188   7.508  1.00  0.00     0.000 C 
ENDROOT
BRANCH   1   2
ATOM      2  C   UNL     1      42.180  -8.446   7.998  1.00  0.00     0.000 C 
BRANCH   2   3
ATOM      3  C   UNL     1      41.140  -7.584   7.263  1.00  0.00     0.000 C 
BRANCH   3   4
ATOM      4  C   UNL     1      40.022  -7.019   8.159  1.00  0.00     0.000 C 
BRANCH   4   5
ATOM      5  C   UNL     1      40.458  -6.778   9.621  1.00  0.00     0.000 C 
BRANCH   5   6
ATOM      6  C   UNL     1      39.438  -7.332  10.631  1.00  0.00     0.000 C 
BRANCH   6   7
ATOM      7  C   UNL     1      38.197  -7.940   9.953  1.00  0.00     0.006 C 
BRANCH   7   8
ATOM      8  C   UNL     1      37.899  -9.390  10.367  1.00  0.00     0.053 C 
BRANCH   8   9
ATOM      9  C   UNL     1      38.361 -10.373   9.336  1.00  0.00     0.041 C 
ATOM     10  O   UNL     1      37.532 -11.125   8.760  1.00  0.00    -0.550 OA
ATOM     11  O   UNL     1      39.704 -10.434   8.987  1.00  0.00    -0.550 OA
ENDBRANCH   8   9
ENDBRANCH   7   8
ENDBRANCH   6   7
ENDBRANCH   5   6
ENDBRANCH   4   5
ENDBRANCH   3   4
ENDBRANCH   2   3
ENDBRANCH   1   2
BRANCH   1  12
ATOM     12  C   UNL     1      44.610  -9.244   8.017  1.00  0.00     0.000 C 
BRANCH  12  13
ATOM     13  C   UNL     1      45.180 -10.110   6.880  1.00  0.00    -0.000 C 
BRANCH  13  14
ATOM     14  C   UNL     1      44.595  -9.742   5.508  1.00  0.00    -0.000 C 
BRANCH  14  15
ATOM     15  C   UNL     1      43.540 -10.754   5.023  1.00  0.00    -0.000 C 
BRANCH  15  16
ATOM     16  C   UNL     1      42.233 -10.077   4.579  1.00  0.00    -0.000 C 
BRANCH  16  17
ATOM     17  C   UNL     1      42.468  -8.689   3.961  1.00  0.00    -0.000 C 
BRANCH  17  18
ATOM     18  C   UNL     1      41.213  -8.200   3.222  1.00  0.00    -0.000 C 
BRANCH  18  19
ATOM     19  C   UNL     1      41.263  -6.697   2.905  1.00  0.00    -0.003 C 
ATOM     20  C   UNL     1      40.605  -5.843   3.988  1.00  0.00     0.004 C 
ENDBRANCH  18  19
ENDBRANCH  17  18
ENDBRANCH  16  17
ENDBRANCH  15  16
ENDBRANCH  14  15
ENDBRANCH  13  14
ENDBRANCH  12  13
ENDBRANCH   1  12
TORSDOF 16
ENDMDL
MODEL 8
REMARK VINA RESULT:    -4.143      3.612      8.497
REMARK INTER + INTRA:          -9.918
REMARK INTER:                  -7.708
REMARK INTRA:                  -2.210
REMARK UNBOUND:                -1.899
REMARK SMILES CCCCCCCCCCCCCCCCCC(=O)[O-]
REMARK SMILES IDX 10 1 11 2 12 3 13 4 14 5 15 6 16 7 17 8 18 9 19 10 20 11
REMARK SMILES IDX 9 12 8 13 7 14 6 15 5 16 4 17 3 18 2 19 1 20
REMARK H PARENT
REMARK Flexibility Score: inf
ROOT
ATOM      1  C   UNL     1      36.944  -6.497  13.608  1.00  0.00     0.000 C 
ENDROOT
BRANCH   1   2
ATOM      2  C   UNL     1      35.429  -6.764  13.630  1.00  0.00     0.000 C 
BRANCH   2   3
ATOM      3  C   UNL     1      35.033  -7.846  14.648  1.00  0.00     0.000 C 
BRANCH   3   4
ATOM      4  C   UNL     1      34.479  -9.143  14.028  1.00  0.00     0.000 C 
BRANCH   4   5
ATOM      5  C   UNL     1      34.704 -10.397  14.902  1.00  0.00     0.000 C 
BRANCH   5   6
ATOM      6  C   UNL     1      33.407 -10.874  15.578  1.00  0.00     0.000 C 
BRANCH   6   7
ATOM      7  C   UNL     1      32.143 -10.473  14.796  1.00  0.00     0.006 C 
BRANCH   7   8
ATOM      8  C   UNL     1      31.040  -9.842  15.660  1.00  0.00     0.053 C 
BRANCH   8   9
ATOM      9  C   UNL     1      31.565  -8.727  16.511  1.00  0.00     0.041 C 
ATOM     10  O   UNL     1      31.872  -7.622  15.991  1.00  0.00    -0.550 OA
ATOM     11  O   UNL     1      31.684  -8.898  17.884  1.00  0.00    -0.550 OA
ENDBRANCH   8   9
ENDBRANCH   7   8
ENDBRANCH   6   7
ENDBRANCH   5   6
ENDBRANCH   4   5
ENDBRANCH   3   4
ENDBRANCH   2   3
ENDBRANCH   1   2
BRANCH   1  12
ATOM     12  C   UNL     1      37.640  -7.159  12.408  1.00  0.00     0.000 C 
BRANCH  12  13
ATOM     13  C   UNL     1      36.640  -7.669  11.356  1.00  0.00    -0.000 C 
BRANCH  13  14
ATOM     14  C   UNL     1      36.842  -9.156  11.022  1.00  0.00    -0.000 C 
BRANCH  14  15
ATOM     15  C   UNL     1      38.010  -9.785  11.803  1.00  0.00    -0.000 C 
BRANCH  15  16
ATOM     16  C   UNL     1      39.236 -10.053  10.916  1.00  0.00    -0.000 C 
BRANCH  16  17
ATOM     17  C   UNL     1      38.931  -9.881   9.420  1.00  0.00    -0.000 C 
BRANCH  17  18
ATOM     18  C   UNL     1      39.842  -8.815   8.794  1.00  0.00    -0.000 C 
BRANCH  18  19
ATOM     19  C   UNL     1      40.243  -7.719   9.796  1.00  0.00    -0.003 C 
ATOM     20  C   UNL     1      39.760  -6.331   9.378  1.00  0.00     0.004 C 
ENDBRANCH  18  19
ENDBRANCH  17  18
ENDBRANCH  16  17
ENDBRANCH  15  16
ENDBRANCH  14  15
ENDBRANCH  13  14
ENDBRANCH  12  13
ENDBRANCH   1  12
TORSDOF 16
ENDMDL
MODEL 9
REMARK VINA RESULT:    -4.113      1.238      3.123
REMARK INTER + INTRA:          -9.858
REMARK INTER:                  -8.014
REMARK INTRA:                  -1.845
REMARK UNBOUND:                -1.899
REMARK SMILES CCCCCCCCCCCCCCCCCC(=O)[O-]
REMARK SMILES IDX 10 1 11 2 12 3 13 4 14 5 15 6 16 7 17 8 18 9 19 10 20 11
REMARK SMILES IDX 9 12 8 13 7 14 6 15 5 16 4 17 3 18 2 19 1 20
REMARK H PARENT
REMARK Flexibility Score: inf
ROOT
ATOM      1  C   UNL     1      36.600  -7.490  11.672  1.00  0.00     0.000 C 
ENDROOT
BRANCH   1   2
ATOM      2  C   UNL     1      37.639  -8.260  12.507  1.00  0.00     0.000 C 
BRANCH   2   3
ATOM      3  C   UNL     1      37.641  -9.768  12.204  1.00  0.00     0.000 C 
BRANCH   3   4
ATOM      4  C   UNL     1      36.934 -10.164  10.894  1.00  0.00     0.000 C 
BRANCH   4   5
ATOM      5  C   UNL     1      37.902 -10.571   9.762  1.00  0.00     0.000 C 
BRANCH   5   6
ATOM      6  C   UNL     1      39.375 -10.352  10.150  1.00  0.00     0.000 C 
BRANCH   6   7
ATOM      7  C   UNL     1      40.108  -9.392   9.195  1.00  0.00     0.006 C 
BRANCH   7   8
ATOM      8  C   UNL     1      39.283  -8.161   8.783  1.00  0.00     0.053 C 
BRANCH   8   9
ATOM      9  C   UNL     1      39.772  -6.912   9.449  1.00  0.00     0.041 C 
ATOM     10  O   UNL     1      39.580  -5.790   8.911  1.00  0.00    -0.550 OA
ATOM     11  O   UNL     1      40.410  -6.984  10.680  1.00  0.00    -0.550 OA
ENDBRANCH   8   9
ENDBRANCH   7   8
ENDBRANCH   6   7
ENDBRANCH   5   6
ENDBRANCH   4   5
ENDBRANCH   3   4
ENDBRANCH   2   3
ENDBRANCH   1   2
BRANCH   1  12
ATOM     12  C   UNL     1      35.396  -7.030  12.510  1.00  0.00     0.000 C 
BRANCH  12  13
ATOM     13  C   UNL     1      35.787  -6.680  13.956  1.00  0.00    -0.000 C 
BRANCH  13  14
ATOM     14  C   UNL     1      35.009  -7.506  14.993  1.00  0.00    -0.000 C 
BRANCH  14  15
ATOM     15  C   UNL     1      34.290  -8.716  14.369  1.00  0.00    -0.000 C 
BRANCH  15  16
ATOM     16  C   UNL     1      33.951  -9.800  15.404  1.00  0.00    -0.000 C 
BRANCH  16  17
ATOM     17  C   UNL     1      32.861  -9.353  16.391  1.00  0.00    -0.000 C 
BRANCH  17  18
ATOM     18  C   UNL     1      31.631  -8.820  15.642  1.00  0.00    -0.000 C 
BRANCH  18  19
ATOM     19  C   UNL     1      30.810  -9.940  14.983  1.00  0.00    -0.003 C 
ATOM     20  C   UNL     1      29.940 -10.702  15.981  1.00  0.00     0.004 C 
ENDBRANCH  18  19
ENDBRANCH  17  18
ENDBRANCH  16  17
ENDBRANCH  15  16
ENDBRANCH  14  15
ENDBRANCH  13  14
ENDBRANCH  12  13
ENDBRANCH   1  12
TORSDOF 16
ENDMDL
