MODEL 1
REMARK VINA RESULT:    -4.632      0.000      0.000
REMARK INTER + INTRA:         -13.629
REMARK INTER:                 -10.590
REMARK INTRA:                  -3.039
REMARK UNBOUND:                -3.039
REMARK SMILES CCCCCCCCCCCCCCCCCCCCCCCC(=O)[O-]
REMARK SMILES IDX 13 1 14 2 15 3 16 4 17 5 18 6 19 7 20 8 21 9 22 10 23 11
REMARK SMILES IDX 24 12 25 13 26 14 12 15 11 16 10 17 9 18 8 19 7 20 6 21 5 22
REMARK SMILES IDX 4 23 3 24 2 25 1 26
REMARK H PARENT
REMARK Flexibility Score: inf
ROOT
ATOM      1  C   UNL     1     -12.503  -1.672 -22.273  1.00  0.00     0.000 C 
ENDROOT
BRANCH   1   2
ATOM      2  C   UNL     1     -11.133  -2.044 -21.666  1.00  0.00     0.000 C 
BRANCH   2   3
ATOM      3  C   UNL     1      -9.896  -1.494 -22.407  1.00  0.00     0.000 C 
BRANCH   3   4
ATOM      4  C   UNL     1     -10.212  -0.480 -23.530  1.00  0.00     0.000 C 
BRANCH   4   5
ATOM      5  C   UNL     1      -9.608   0.920 -23.300  1.00  0.00     0.000 C 
BRANCH   5   6
ATOM      6  C   UNL     1      -9.316   1.268 -21.830  1.00  0.00     0.000 C 
BRANCH   6   7
ATOM      7  C   UNL     1     -10.396   2.122 -21.137  1.00  0.00     0.000 C 
BRANCH   7   8
ATOM      8  C   UNL     1     -11.802   1.963 -21.756  1.00  0.00     0.000 C 
BRANCH   8   9
ATOM      9  C   UNL     1     -12.917   2.002 -20.696  1.00  0.00     0.000 C 
BRANCH   9  10
ATOM     10  C   UNL     1     -14.075   2.938 -21.083  1.00  0.00     0.006 C 
BRANCH  10  11
ATOM     11  C   UNL     1     -14.386   2.969 -22.587  1.00  0.00     0.053 C 
BRANCH  11  12
ATOM     12  C   UNL     1     -14.354   4.361 -23.137  1.00  0.00     0.041 C 
ATOM     13  O   UNL     1     -13.945   5.315 -22.424  1.00  0.00    -0.550 OA
ATOM     14  O   UNL     1     -14.803   4.611 -24.428  1.00  0.00    -0.550 OA
ENDBRANCH  11  12
ENDBRANCH  10  11
ENDBRANCH   9  10
ENDBRANCH   8   9
ENDBRANCH   7   8
ENDBRANCH   6   7
ENDBRANCH   5   6
ENDBRANCH   4   5
ENDBRANCH   3   4
ENDBRANCH   2   3
ENDBRANCH   1   2
BRANCH   1  15
ATOM     15  C   UNL     1     -13.213  -2.803 -23.034  1.00  0.00     0.000 C 
BRANCH  15  16
ATOM     16  C   UNL     1     -12.739  -2.933 -24.490  1.00  0.00     0.000 C 
BRANCH  16  17
ATOM     17  C   UNL     1     -12.289  -4.367 -24.792  1.00  0.00     0.000 C 
BRANCH  17  18
ATOM     18  C   UNL     1     -12.522  -4.720 -26.270  1.00  0.00    -0.000 C 
BRANCH  18  19
ATOM     19  C   UNL     1     -12.880  -3.491 -27.121  1.00  0.00    -0.000 C 
BRANCH  19  20
ATOM     20  C   UNL     1     -12.581  -3.693 -28.614  1.00  0.00    -0.000 C 
BRANCH  20  21
ATOM     21  C   UNL     1     -11.435  -2.783 -29.071  1.00  0.00    -0.000 C 
BRANCH  21  22
ATOM     22  C   UNL     1     -10.077  -3.324 -28.596  1.00  0.00    -0.000 C 
BRANCH  22  23
ATOM     23  C   UNL     1      -9.225  -2.253 -27.897  1.00  0.00    -0.000 C 
BRANCH  23  24
ATOM     24  C   UNL     1      -9.376  -2.278 -26.369  1.00  0.00    -0.000 C 
BRANCH  24  25
ATOM     25  C   UNL     1      -8.848  -3.596 -25.788  1.00  0.00    -0.003 C 
ATOM     26  C   UNL     1      -7.345  -3.735 -26.013  1.00  0.00     0.004 C 
ENDBRANCH  24  25
ENDBRANCH  23  24
ENDBRANCH  22  23
ENDBRANCH  21  22
ENDBRANCH  20  21
ENDBRANCH  19  20
ENDBRANCH  18  19
ENDBRANCH  17  18
ENDBRANCH  16  17
ENDBRANCH  15  16
ENDBRANCH   1  15
TORSDOF 22
ENDMDL
MODEL 2
REMARK VINA RESULT:    -4.550      3.845      6.473
REMARK INTER + INTRA:         -13.440
REMARK INTER:                  -8.855
REMARK INTRA:                  -4.586
REMARK UNBOUND:                -3.039
REMARK SMILES CCCCCCCCCCCCCCCCCCCCCCCC(=O)[O-]
REMARK SMILES IDX 13 1 14 2 15 3 16 4 17 5 18 6 19 7 20 8 21 9 22 10 23 11
REMARK SMILES IDX 24 12 25 13 26 14 12 15 11 16 10 17 9 18 8 19 7 20 6 21 5 22
REMARK SMILES IDX 4 23 3 24 2 25 1 26
REMARK H PARENT
REMARK Flexibility Score: inf
ROOT
ATOM      1  C   UNL     1      -8.971  -2.545 -28.647  1.00  0.00     0.000 C 
ENDROOT
BRANCH   1   2
ATOM      2  C   UNL     1      -8.220  -3.515 -29.583  1.00  0.00     0.000 C 
BRANCH   2   3
ATOM      3  C   UNL     1      -7.141  -4.395 -28.918  1.00  0.00     0.000 C 
BRANCH   3   4
ATOM      4  C   UNL     1      -6.390  -3.723 -27.746  1.00  0.00     0.000 C 
BRANCH   4   5
ATOM      5  C   UNL     1      -6.667  -4.365 -26.372  1.00  0.00     0.000 C 
BRANCH   5   6
ATOM      6  C   UNL     1      -7.840  -5.361 -26.345  1.00  0.00     0.000 C 
BRANCH   6   7
ATOM      7  C   UNL     1      -9.096  -4.867 -25.600  1.00  0.00     0.000 C 
BRANCH   7   8
ATOM      8  C   UNL     1      -8.922  -3.477 -24.950  1.00  0.00     0.000 C 
BRANCH   8   9
ATOM      9  C   UNL     1     -10.269  -2.780 -24.691  1.00  0.00     0.000 C 
BRANCH   9  10
ATOM     10  C   UNL     1     -11.468  -3.739 -24.797  1.00  0.00     0.006 C 
BRANCH  10  11
ATOM     11  C   UNL     1     -12.822  -3.096 -24.460  1.00  0.00     0.053 C 
BRANCH  11  12
ATOM     12  C   UNL     1     -12.943  -2.774 -23.003  1.00  0.00     0.041 C 
ATOM     13  O   UNL     1     -12.936  -1.575 -22.617  1.00  0.00    -0.550 OA
ATOM     14  O   UNL     1     -13.034  -3.797 -22.068  1.00  0.00    -0.550 OA
ENDBRANCH  11  12
ENDBRANCH  10  11
ENDBRANCH   9  10
ENDBRANCH   8   9
ENDBRANCH   7   8
ENDBRANCH   6   7
ENDBRANCH   5   6
ENDBRANCH   4   5
ENDBRANCH   3   4
ENDBRANCH   2   3
ENDBRANCH   1   2
BRANCH   1  15
ATOM     15  C   UNL     1     -10.458  -2.866 -28.423  1.00  0.00     0.000 C 
BRANCH  15  16
ATOM     16  C   UNL     1     -10.802  -4.335 -28.712  1.00  0.00     0.000 C 
BRANCH  16  17
ATOM     17  C   UNL     1     -12.253  -4.643 -28.322  1.00  0.00     0.000 C 
BRANCH  17  18
ATOM     18  C   UNL     1     -13.067  -3.350 -28.158  1.00  0.00    -0.000 C 
BRANCH  18  19
ATOM     19  C   UNL     1     -13.980  -3.070 -29.363  1.00  0.00    -0.000 C 
BRANCH  19  20
ATOM     20  C   UNL     1     -14.013  -4.231 -30.367  1.00  0.00    -0.000 C 
BRANCH  20  21
ATOM     21  C   UNL     1     -13.556  -3.768 -31.756  1.00  0.00    -0.000 C 
BRANCH  21  22
ATOM     22  C   UNL     1     -12.806  -2.430 -31.672  1.00  0.00    -0.000 C 
BRANCH  22  23
ATOM     23  C   UNL     1     -11.319  -2.560 -32.038  1.00  0.00    -0.000 C 
BRANCH  23  24
ATOM     24  C   UNL     1     -10.914  -4.004 -32.371  1.00  0.00    -0.000 C 
BRANCH  24  25
ATOM     25  C   UNL     1      -9.553  -4.042 -33.075  1.00  0.00    -0.003 C 
ATOM     26  C   UNL     1      -9.027  -2.634 -33.339  1.00  0.00     0.004 C 
ENDBRANCH  24  25
ENDBRANCH  23  24
ENDBRANCH  22  23
ENDBRANCH  21  22
ENDBRANCH  20  21
ENDBRANCH  19  20
ENDBRANCH  18  19
ENDBRANCH  17  18
ENDBRANCH  16  17
ENDBRANCH  15  16
ENDBRANCH   1  15
TORSDOF 22
ENDMDL
MODEL 3
REMARK VINA RESULT:    -4.541     13.535     16.784
REMARK INTER + INTRA:         -13.421
REMARK INTER:                  -9.395
REMARK INTRA:                  -4.026
REMARK UNBOUND:                -3.039
REMARK SMILES CCCCCCCCCCCCCCCCCCCCCCCC(=O)[O-]
REMARK SMILES IDX 13 1 14 2 15 3 16 4 17 5 18 6 19 7 20 8 21 9 22 10 23 11
REMARK SMILES IDX 24 12 25 13 26 14 12 15 11 16 10 17 9 18 8 19 7 20 6 21 5 22
REMARK SMILES IDX 4 23 3 24 2 25 1 26
REMARK H PARENT
REMARK Flexibility Score: inf
ROOT
ATOM      1  C   UNL     1      -5.048   6.933 -36.086  1.00  0.00     0.000 C 
ENDROOT
BRANCH   1   2
ATOM      2  C   UNL     1      -5.948   7.504 -34.970  1.00  0.00     0.000 C 
BRANCH   2   3
ATOM      3  C   UNL     1      -5.693   6.956 -33.550  1.00  0.00     0.000 C 
BRANCH   3   4
ATOM      4  C   UNL     1      -6.969   6.647 -32.736  1.00  0.00     0.000 C 
BRANCH   4   5
ATOM      5  C   UNL     1      -8.004   5.790 -33.492  1.00  0.00     0.000 C 
BRANCH   5   6
ATOM      6  C   UNL     1      -7.682   4.286 -33.554  1.00  0.00     0.000 C 
BRANCH   6   7
ATOM      7  C   UNL     1      -7.675   3.681 -34.972  1.00  0.00     0.000 C 
BRANCH   7   8
ATOM      8  C   UNL     1      -8.041   4.693 -36.078  1.00  0.00     0.000 C 
BRANCH   8   9
ATOM      9  C   UNL     1      -7.239   4.463 -37.372  1.00  0.00     0.000 C 
BRANCH   9  10
ATOM     10  C   UNL     1      -6.349   3.209 -37.307  1.00  0.00     0.006 C 
BRANCH  10  11
ATOM     11  C   UNL     1      -4.855   3.482 -37.533  1.00  0.00     0.053 C 
BRANCH  11  12
ATOM     12  C   UNL     1      -4.239   2.491 -38.471  1.00  0.00     0.041 C 
ATOM     13  O   UNL     1      -3.112   2.720 -38.984  1.00  0.00    -0.550 OA
ATOM     14  O   UNL     1      -4.922   1.327 -38.802  1.00  0.00    -0.550 OA
ENDBRANCH  11  12
ENDBRANCH  10  11
ENDBRANCH   9  10
ENDBRANCH   8   9
ENDBRANCH   7   8
ENDBRANCH   6   7
ENDBRANCH   5   6
ENDBRANCH   4   5
ENDBRANCH   3   4
ENDBRANCH   2   3
ENDBRANCH   1   2
BRANCH   1  15
ATOM     15  C   UNL     1      -4.783   7.880 -37.267  1.00  0.00     0.000 C 
BRANCH  15  16
ATOM     16  C   UNL     1      -3.304   7.920 -37.682  1.00  0.00     0.000 C 
BRANCH  16  17
ATOM     17  C   UNL     1      -2.610   6.592 -37.356  1.00  0.00     0.000 C 
BRANCH  17  18
ATOM     18  C   UNL     1      -1.496   6.791 -36.317  1.00  0.00    -0.000 C 
BRANCH  18  19
ATOM     19  C   UNL     1      -1.512   8.197 -35.696  1.00  0.00    -0.000 C 
BRANCH  19  20
ATOM     20  C   UNL     1      -1.831   8.180 -34.194  1.00  0.00    -0.000 C 
BRANCH  20  21
ATOM     21  C   UNL     1      -2.515   9.484 -33.764  1.00  0.00    -0.000 C 
BRANCH  21  22
ATOM     22  C   UNL     1      -3.222  10.154 -34.953  1.00  0.00    -0.000 C 
BRANCH  22  23
ATOM     23  C   UNL     1      -4.460  10.960 -34.528  1.00  0.00    -0.000 C 
BRANCH  23  24
ATOM     24  C   UNL     1      -4.773  10.821 -33.030  1.00  0.00    -0.000 C 
BRANCH  24  25
ATOM     25  C   UNL     1      -6.242  10.437 -32.812  1.00  0.00    -0.003 C 
ATOM     26  C   UNL     1      -6.886  11.307 -31.736  1.00  0.00     0.004 C 
ENDBRANCH  24  25
ENDBRANCH  23  24
ENDBRANCH  22  23
ENDBRANCH  21  22
ENDBRANCH  20  21
ENDBRANCH  19  20
ENDBRANCH  18  19
ENDBRANCH  17  18
ENDBRANCH  16  17
ENDBRANCH  15  16
ENDBRANCH   1  15
TORSDOF 22
ENDMDL
MODEL 4
REMARK VINA RESULT:    -4.514      2.656      4.984
REMARK INTER + INTRA:         -13.358
REMARK INTER:                  -9.748
REMARK INTRA:                  -3.610
REMARK UNBOUND:                -3.039
REMARK SMILES CCCCCCCCCCCCCCCCCCCCCCCC(=O)[O-]
REMARK SMILES IDX 13 1 14 2 15 3 16 4 17 5 18 6 19 7 20 8 21 9 22 10 23 11
REMARK SMILES IDX 24 12 25 13 26 14 12 15 11 16 10 17 9 18 8 19 7 20 6 21 5 22
REMARK SMILES IDX 4 23 3 24 2 25 1 26
REMARK H PARENT
REMARK Flexibility Score: inf
ROOT
ATOM      1  C   UNL     1      -9.347  -2.198 -26.808  1.00  0.00     0.000 C 
ENDROOT
BRANCH   1   2
ATOM      2  C   UNL     1      -9.870  -2.223 -25.356  1.00  0.00     0.000 C 
BRANCH   2   3
ATOM      3  C   UNL     1     -10.053  -3.621 -24.728  1.00  0.00     0.000 C 
BRANCH   3   4
ATOM      4  C   UNL     1     -11.429  -3.858 -24.066  1.00  0.00     0.000 C 
BRANCH   4   5
ATOM      5  C   UNL     1     -12.382  -2.649 -24.148  1.00  0.00     0.000 C 
BRANCH   5   6
ATOM      6  C   UNL     1     -12.876  -2.119 -22.791  1.00  0.00     0.000 C 
BRANCH   6   7
ATOM      7  C   UNL     1     -11.826  -2.144 -21.662  1.00  0.00     0.000 C 
BRANCH   7   8
ATOM      8  C   UNL     1     -10.823  -0.972 -21.724  1.00  0.00     0.000 C 
BRANCH   8   9
ATOM      9  C   UNL     1     -11.500   0.360 -22.093  1.00  0.00     0.000 C 
BRANCH   9  10
ATOM     10  C   UNL     1     -10.654   1.586 -21.706  1.00  0.00     0.006 C 
BRANCH  10  11
ATOM     11  C   UNL     1      -9.144   1.313 -21.635  1.00  0.00     0.053 C 
BRANCH  11  12
ATOM     12  C   UNL     1      -8.528   1.885 -20.396  1.00  0.00     0.041 C 
ATOM     13  O   UNL     1      -9.214   2.606 -19.623  1.00  0.00    -0.550 OA
ATOM     14  O   UNL     1      -7.190   1.647 -20.108  1.00  0.00    -0.550 OA
ENDBRANCH  11  12
ENDBRANCH  10  11
ENDBRANCH   9  10
ENDBRANCH   8   9
ENDBRANCH   7   8
ENDBRANCH   6   7
ENDBRANCH   5   6
ENDBRANCH   4   5
ENDBRANCH   3   4
ENDBRANCH   2   3
ENDBRANCH   1   2
BRANCH   1  15
ATOM     15  C   UNL     1      -8.961  -3.568 -27.391  1.00  0.00     0.000 C 
BRANCH  15  16
ATOM     16  C   UNL     1      -9.256  -3.682 -28.894  1.00  0.00     0.000 C 
BRANCH  16  17
ATOM     17  C   UNL     1      -9.806  -5.071 -29.239  1.00  0.00     0.000 C 
BRANCH  17  18
ATOM     18  C   UNL     1     -10.616  -5.651 -28.069  1.00  0.00    -0.000 C 
BRANCH  18  19
ATOM     19  C   UNL     1     -12.133  -5.537 -28.288  1.00  0.00    -0.000 C 
BRANCH  19  20
ATOM     20  C   UNL     1     -12.842  -4.777 -27.157  1.00  0.00    -0.000 C 
BRANCH  20  21
ATOM     21  C   UNL     1     -13.242  -3.368 -27.610  1.00  0.00    -0.000 C 
BRANCH  21  22
ATOM     22  C   UNL     1     -13.458  -3.317 -29.131  1.00  0.00    -0.000 C 
BRANCH  22  23
ATOM     23  C   UNL     1     -12.586  -2.254 -29.818  1.00  0.00    -0.000 C 
BRANCH  23  24
ATOM     24  C   UNL     1     -12.703  -2.290 -31.349  1.00  0.00    -0.000 C 
BRANCH  24  25
ATOM     25  C   UNL     1     -11.818  -3.395 -31.939  1.00  0.00    -0.003 C 
ATOM     26  C   UNL     1     -10.433  -2.863 -32.295  1.00  0.00     0.004 C 
ENDBRANCH  24  25
ENDBRANCH  23  24
ENDBRANCH  22  23
ENDBRANCH  21  22
ENDBRANCH  20  21
ENDBRANCH  19  20
ENDBRANCH  18  19
ENDBRANCH  17  18
ENDBRANCH  16  17
ENDBRANCH  15  16
ENDBRANCH   1  15
TORSDOF 22
ENDMDL
MODEL 5
REMARK VINA RESULT:    -4.495     14.600     17.458
REMARK INTER + INTRA:         -13.314
REMARK INTER:                  -9.561
REMARK INTRA:                  -3.753
REMARK UNBOUND:                -3.039
REMARK SMILES CCCCCCCCCCCCCCCCCCCCCCCC(=O)[O-]
REMARK SMILES IDX 13 1 14 2 15 3 16 4 17 5 18 6 19 7 20 8 21 9 22 10 23 11
REMARK SMILES IDX 24 12 25 13 26 14 12 15 11 16 10 17 9 18 8 19 7 20 6 21 5 22
REMARK SMILES IDX 4 23 3 24 2 25 1 26
REMARK H PARENT
REMARK Flexibility Score: inf
ROOT
ATOM      1  C   UNL     1      -0.996   7.481 -34.854  1.00  0.00     0.000 C 
ENDROOT
BRANCH   1   2
ATOM      2  C   UNL     1      -2.034   8.128 -33.913  1.00  0.00     0.000 C 
BRANCH   2   3
ATOM      3  C   UNL     1      -2.741   9.389 -34.455  1.00  0.00     0.000 C 
BRANCH   3   4
ATOM      4  C   UNL     1      -4.260   9.228 -34.692  1.00  0.00     0.000 C 
BRANCH   4   5
ATOM      5  C   UNL     1      -4.752   7.768 -34.639  1.00  0.00     0.000 C 
BRANCH   5   6
ATOM      6  C   UNL     1      -5.827   7.406 -35.679  1.00  0.00     0.000 C 
BRANCH   6   7
ATOM      7  C   UNL     1      -5.519   6.153 -36.523  1.00  0.00     0.000 C 
BRANCH   7   8
ATOM      8  C   UNL     1      -6.777   5.477 -37.108  1.00  0.00     0.000 C 
BRANCH   8   9
ATOM      9  C   UNL     1      -6.819   3.966 -36.816  1.00  0.00     0.000 C 
BRANCH   9  10
ATOM     10  C   UNL     1      -7.914   3.584 -35.804  1.00  0.00     0.006 C 
BRANCH  10  11
ATOM     11  C   UNL     1      -7.498   3.749 -34.334  1.00  0.00     0.053 C 
BRANCH  11  12
ATOM     12  C   UNL     1      -8.045   5.007 -33.734  1.00  0.00     0.041 C 
ATOM     13  O   UNL     1      -7.469   5.542 -32.749  1.00  0.00    -0.550 OA
ATOM     14  O   UNL     1      -9.206   5.575 -34.243  1.00  0.00    -0.550 OA
ENDBRANCH  11  12
ENDBRANCH  10  11
ENDBRANCH   9  10
ENDBRANCH   8   9
ENDBRANCH   7   8
ENDBRANCH   6   7
ENDBRANCH   5   6
ENDBRANCH   4   5
ENDBRANCH   3   4
ENDBRANCH   2   3
ENDBRANCH   1   2
BRANCH   1  15
ATOM     15  C   UNL     1      -1.159   7.818 -36.345  1.00  0.00     0.000 C 
BRANCH  15  16
ATOM     16  C   UNL     1      -2.030   6.800 -37.096  1.00  0.00     0.000 C 
BRANCH  16  17
ATOM     17  C   UNL     1      -2.513   7.374 -38.433  1.00  0.00     0.000 C 
BRANCH  17  18
ATOM     18  C   UNL     1      -2.711   8.895 -38.342  1.00  0.00    -0.000 C 
BRANCH  18  19
ATOM     19  C   UNL     1      -4.188   9.306 -38.461  1.00  0.00    -0.000 C 
BRANCH  19  20
ATOM     20  C   UNL     1      -4.385  10.829 -38.442  1.00  0.00    -0.000 C 
BRANCH  20  21
ATOM     21  C   UNL     1      -3.373  11.501 -37.506  1.00  0.00    -0.000 C 
BRANCH  21  22
ATOM     22  C   UNL     1      -4.071  12.478 -36.548  1.00  0.00    -0.000 C 
BRANCH  22  23
ATOM     23  C   UNL     1      -3.078  13.260 -35.673  1.00  0.00    -0.000 C 
BRANCH  23  24
ATOM     24  C   UNL     1      -3.190  12.902 -34.183  1.00  0.00    -0.000 C 
BRANCH  24  25
ATOM     25  C   UNL     1      -1.992  13.449 -33.398  1.00  0.00    -0.003 C 
ATOM     26  C   UNL     1      -1.653  12.552 -32.210  1.00  0.00     0.004 C 
ENDBRANCH  24  25
ENDBRANCH  23  24
ENDBRANCH  22  23
ENDBRANCH  21  22
ENDBRANCH  20  21
ENDBRANCH  19  20
ENDBRANCH  18  19
ENDBRANCH  17  18
ENDBRANCH  16  17
ENDBRANCH  15  16
ENDBRANCH   1  15
TORSDOF 22
ENDMDL
MODEL 6
REMARK VINA RESULT:    -4.445      2.543      5.091
REMARK INTER + INTRA:         -13.201
REMARK INTER:                  -9.392
REMARK INTRA:                  -3.809
REMARK UNBOUND:                -3.039
REMARK SMILES CCCCCCCCCCCCCCCCCCCCCCCC(=O)[O-]
REMARK SMILES IDX 13 1 14 2 15 3 16 4 17 5 18 6 19 7 20 8 21 9 22 10 23 11
REMARK SMILES IDX 24 12 25 13 26 14 12 15 11 16 10 17 9 18 8 19 7 20 6 21 5 22
REMARK SMILES IDX 4 23 3 24 2 25 1 26
REMARK H PARENT
REMARK Flexibility Score: inf
ROOT
ATOM      1  C   UNL     1     -11.280  -2.922 -25.531  1.00  0.00     0.000 C 
ENDROOT
BRANCH   1   2
ATOM      2  C   UNL     1     -12.678  -3.204 -24.941  1.00  0.00     0.000 C 
BRANCH   2   3
ATOM      3  C   UNL     1     -13.013  -2.476 -23.622  1.00  0.00     0.000 C 
BRANCH   3   4
ATOM      4  C   UNL     1     -13.271  -3.406 -22.416  1.00  0.00     0.000 C 
BRANCH   4   5
ATOM      5  C   UNL     1     -12.851  -4.871 -22.652  1.00  0.00     0.000 C 
BRANCH   5   6
ATOM      6  C   UNL     1     -11.433  -5.226 -22.170  1.00  0.00     0.000 C 
BRANCH   6   7
ATOM      7  C   UNL     1     -10.777  -4.176 -21.251  1.00  0.00     0.000 C 
BRANCH   7   8
ATOM      8  C   UNL     1      -9.382  -3.721 -21.728  1.00  0.00     0.000 C 
BRANCH   8   9
ATOM      9  C   UNL     1      -9.446  -2.462 -22.612  1.00  0.00     0.000 C 
BRANCH   9  10
ATOM     10  C   UNL     1      -9.898  -1.212 -21.837  1.00  0.00     0.006 C 
BRANCH  10  11
ATOM     11  C   UNL     1     -10.280  -0.020 -22.728  1.00  0.00     0.053 C 
BRANCH  11  12
ATOM     12  C   UNL     1      -9.902   1.289 -22.107  1.00  0.00     0.041 C 
ATOM     13  O   UNL     1      -8.688   1.601 -21.979  1.00  0.00    -0.550 OA
ATOM     14  O   UNL     1     -10.887   2.151 -21.643  1.00  0.00    -0.550 OA
ENDBRANCH  11  12
ENDBRANCH  10  11
ENDBRANCH   9  10
ENDBRANCH   8   9
ENDBRANCH   7   8
ENDBRANCH   6   7
ENDBRANCH   5   6
ENDBRANCH   4   5
ENDBRANCH   3   4
ENDBRANCH   2   3
ENDBRANCH   1   2
BRANCH   1  15
ATOM     15  C   UNL     1     -10.430  -4.166 -25.834  1.00  0.00     0.000 C 
BRANCH  15  16
ATOM     16  C   UNL     1      -9.094  -3.827 -26.514  1.00  0.00     0.000 C 
BRANCH  16  17
ATOM     17  C   UNL     1      -9.103  -2.389 -27.047  1.00  0.00     0.000 C 
BRANCH  17  18
ATOM     18  C   UNL     1      -8.911  -2.363 -28.571  1.00  0.00    -0.000 C 
BRANCH  18  19
ATOM     19  C   UNL     1      -9.072  -3.752 -29.210  1.00  0.00    -0.000 C 
BRANCH  19  20
ATOM     20  C   UNL     1      -9.047  -3.708 -30.745  1.00  0.00    -0.000 C 
BRANCH  20  21
ATOM     21  C   UNL     1     -10.341  -3.097 -31.296  1.00  0.00    -0.000 C 
BRANCH  21  22
ATOM     22  C   UNL     1     -11.566  -3.612 -30.525  1.00  0.00    -0.000 C 
BRANCH  22  23
ATOM     23  C   UNL     1     -12.448  -2.473 -29.987  1.00  0.00    -0.000 C 
BRANCH  23  24
ATOM     24  C   UNL     1     -13.178  -2.851 -28.689  1.00  0.00    -0.000 C 
BRANCH  24  25
ATOM     25  C   UNL     1     -13.121  -4.365 -28.451  1.00  0.00    -0.003 C 
ATOM     26  C   UNL     1     -14.499  -5.002 -28.609  1.00  0.00     0.004 C 
ENDBRANCH  24  25
ENDBRANCH  23  24
ENDBRANCH  22  23
ENDBRANCH  21  22
ENDBRANCH  20  21
ENDBRANCH  19  20
ENDBRANCH  18  19
ENDBRANCH  17  18
ENDBRANCH  16  17
ENDBRANCH  15  16
ENDBRANCH   1  15
TORSDOF 22
ENDMDL
MODEL 7
REMARK VINA RESULT:    -4.424      2.771      5.282
REMARK INTER + INTRA:         -13.151
REMARK INTER:                 -10.013
REMARK INTRA:                  -3.138
REMARK UNBOUND:                -3.039
REMARK SMILES CCCCCCCCCCCCCCCCCCCCCCCC(=O)[O-]
REMARK SMILES IDX 13 1 14 2 15 3 16 4 17 5 18 6 19 7 20 8 21 9 22 10 23 11
REMARK SMILES IDX 24 12 25 13 26 14 12 15 11 16 10 17 9 18 8 19 7 20 6 21 5 22
REMARK SMILES IDX 4 23 3 24 2 25 1 26
REMARK H PARENT
REMARK Flexibility Score: inf
ROOT
ATOM      1  C   UNL     1      -9.115  -2.382 -27.415  1.00  0.00     0.000 C 
ENDROOT
BRANCH   1   2
ATOM      2  C   UNL     1      -9.539  -2.066 -25.965  1.00  0.00     0.000 C 
BRANCH   2   3
ATOM      3  C   UNL     1     -10.441  -3.115 -25.282  1.00  0.00     0.000 C 
BRANCH   3   4
ATOM      4  C   UNL     1     -11.943  -2.755 -25.250  1.00  0.00     0.000 C 
BRANCH   4   5
ATOM      5  C   UNL     1     -12.726  -3.428 -24.104  1.00  0.00     0.000 C 
BRANCH   5   6
ATOM      6  C   UNL     1     -12.948  -2.546 -22.863  1.00  0.00     0.000 C 
BRANCH   6   7
ATOM      7  C   UNL     1     -11.917  -2.743 -21.734  1.00  0.00     0.000 C 
BRANCH   7   8
ATOM      8  C   UNL     1     -11.255  -1.429 -21.265  1.00  0.00     0.000 C 
BRANCH   8   9
ATOM      9  C   UNL     1     -10.040  -1.045 -22.129  1.00  0.00     0.000 C 
BRANCH   9  10
ATOM     10  C   UNL     1     -10.254   0.263 -22.912  1.00  0.00     0.006 C 
BRANCH  10  11
ATOM     11  C   UNL     1      -9.244   1.370 -22.578  1.00  0.00     0.053 C 
BRANCH  11  12
ATOM     12  C   UNL     1      -9.184   1.651 -21.108  1.00  0.00     0.041 C 
ATOM     13  O   UNL     1     -10.195   2.107 -20.509  1.00  0.00    -0.550 OA
ATOM     14  O   UNL     1      -8.006   1.436 -20.404  1.00  0.00    -0.550 OA
ENDBRANCH  11  12
ENDBRANCH  10  11
ENDBRANCH   9  10
ENDBRANCH   8   9
ENDBRANCH   7   8
ENDBRANCH   6   7
ENDBRANCH   5   6
ENDBRANCH   4   5
ENDBRANCH   3   4
ENDBRANCH   2   3
ENDBRANCH   1   2
BRANCH   1  15
ATOM     15  C   UNL     1      -8.019  -3.450 -27.562  1.00  0.00     0.000 C 
BRANCH  15  16
ATOM     16  C   UNL     1      -7.772  -3.855 -29.024  1.00  0.00     0.000 C 
BRANCH  16  17
ATOM     17  C   UNL     1      -9.098  -4.062 -29.764  1.00  0.00     0.000 C 
BRANCH  17  18
ATOM     18  C   UNL     1      -9.209  -3.121 -30.974  1.00  0.00    -0.000 C 
BRANCH  18  19
ATOM     19  C   UNL     1      -9.684  -3.845 -32.244  1.00  0.00    -0.000 C 
BRANCH  19  20
ATOM     20  C   UNL     1     -11.189  -3.677 -32.498  1.00  0.00    -0.000 C 
BRANCH  20  21
ATOM     21  C   UNL     1     -11.719  -2.405 -31.825  1.00  0.00    -0.000 C 
BRANCH  21  22
ATOM     22  C   UNL     1     -12.961  -2.708 -30.973  1.00  0.00    -0.000 C 
BRANCH  22  23
ATOM     23  C   UNL     1     -12.758  -2.366 -29.488  1.00  0.00    -0.000 C 
BRANCH  23  24
ATOM     24  C   UNL     1     -13.357  -3.424 -28.549  1.00  0.00    -0.000 C 
BRANCH  24  25
ATOM     25  C   UNL     1     -12.477  -4.680 -28.508  1.00  0.00    -0.003 C 
ATOM     26  C   UNL     1     -12.873  -5.594 -27.351  1.00  0.00     0.004 C 
ENDBRANCH  24  25
ENDBRANCH  23  24
ENDBRANCH  22  23
ENDBRANCH  21  22
ENDBRANCH  20  21
ENDBRANCH  19  20
ENDBRANCH  18  19
ENDBRANCH  17  18
ENDBRANCH  16  17
ENDBRANCH  15  16
ENDBRANCH   1  15
TORSDOF 22
ENDMDL
MODEL 8
REMARK VINA RESULT:    -4.413      2.816      5.855
REMARK INTER + INTRA:         -13.128
REMARK INTER:                  -9.211
REMARK INTRA:                  -3.918
REMARK UNBOUND:                -3.039
REMARK SMILES CCCCCCCCCCCCCCCCCCCCCCCC(=O)[O-]
REMARK SMILES IDX 13 1 14 2 15 3 16 4 17 5 18 6 19 7 20 8 21 9 22 10 23 11
REMARK SMILES IDX 24 12 25 13 26 14 12 15 11 16 10 17 9 18 8 19 7 20 6 21 5 22
REMARK SMILES IDX 4 23 3 24 2 25 1 26
REMARK H PARENT
REMARK Flexibility Score: inf
ROOT
ATOM      1  C   UNL     1      -8.941  -3.097 -30.086  1.00  0.00     0.000 C 
ENDROOT
BRANCH   1   2
ATOM      2  C   UNL     1      -8.352  -2.728 -28.708  1.00  0.00     0.000 C 
BRANCH   2   3
ATOM      3  C   UNL     1      -9.377  -2.460 -27.586  1.00  0.00     0.000 C 
BRANCH   3   4
ATOM      4  C   UNL     1      -9.430  -3.545 -26.486  1.00  0.00     0.000 C 
BRANCH   4   5
ATOM      5  C   UNL     1     -10.016  -3.053 -25.147  1.00  0.00     0.000 C 
BRANCH   5   6
ATOM      6  C   UNL     1     -10.650  -4.149 -24.273  1.00  0.00     0.000 C 
BRANCH   6   7
ATOM      7  C   UNL     1     -12.191  -4.151 -24.250  1.00  0.00     0.000 C 
BRANCH   7   8
ATOM      8  C   UNL     1     -12.808  -2.755 -24.018  1.00  0.00     0.000 C 
BRANCH   8   9
ATOM      9  C   UNL     1     -12.866  -2.381 -22.526  1.00  0.00     0.000 C 
BRANCH   9  10
ATOM     10  C   UNL     1     -12.255  -0.999 -22.233  1.00  0.00     0.006 C 
BRANCH  10  11
ATOM     11  C   UNL     1     -10.723  -0.999 -22.115  1.00  0.00     0.053 C 
BRANCH  11  12
ATOM     12  C   UNL     1     -10.107   0.171 -22.817  1.00  0.00     0.041 C 
ATOM     13  O   UNL     1     -10.090   0.218 -24.076  1.00  0.00    -0.550 OA
ATOM     14  O   UNL     1      -9.524   1.197 -22.083  1.00  0.00    -0.550 OA
ENDBRANCH  11  12
ENDBRANCH  10  11
ENDBRANCH   9  10
ENDBRANCH   8   9
ENDBRANCH   7   8
ENDBRANCH   6   7
ENDBRANCH   5   6
ENDBRANCH   4   5
ENDBRANCH   3   4
ENDBRANCH   2   3
ENDBRANCH   1   2
BRANCH   1  15
ATOM     15  C   UNL     1      -8.869  -4.588 -30.454  1.00  0.00     0.000 C 
BRANCH  15  16
ATOM     16  C   UNL     1     -10.238  -5.284 -30.396  1.00  0.00     0.000 C 
BRANCH  16  17
ATOM     17  C   UNL     1     -10.448  -5.962 -29.037  1.00  0.00     0.000 C 
BRANCH  17  18
ATOM     18  C   UNL     1     -11.937  -5.994 -28.660  1.00  0.00    -0.000 C 
BRANCH  18  19
ATOM     19  C   UNL     1     -12.394  -4.711 -27.948  1.00  0.00    -0.000 C 
BRANCH  19  20
ATOM     20  C   UNL     1     -13.555  -4.011 -28.669  1.00  0.00    -0.000 C 
BRANCH  20  21
ATOM     21  C   UNL     1     -13.210  -2.547 -28.971  1.00  0.00    -0.000 C 
BRANCH  21  22
ATOM     22  C   UNL     1     -12.580  -2.405 -30.366  1.00  0.00    -0.000 C 
BRANCH  22  23
ATOM     23  C   UNL     1     -13.216  -3.346 -31.401  1.00  0.00    -0.000 C 
BRANCH  23  24
ATOM     24  C   UNL     1     -12.498  -3.307 -32.758  1.00  0.00    -0.000 C 
BRANCH  24  25
ATOM     25  C   UNL     1     -11.468  -2.171 -32.800  1.00  0.00    -0.003 C 
ATOM     26  C   UNL     1     -10.203  -2.599 -33.538  1.00  0.00     0.004 C 
ENDBRANCH  24  25
ENDBRANCH  23  24
ENDBRANCH  22  23
ENDBRANCH  21  22
ENDBRANCH  20  21
ENDBRANCH  19  20
ENDBRANCH  18  19
ENDBRANCH  17  18
ENDBRANCH  16  17
ENDBRANCH  15  16
ENDBRANCH   1  15
TORSDOF 22
ENDMDL
MODEL 9
REMARK VINA RESULT:    -4.406      3.551      6.685
REMARK INTER + INTRA:         -13.111
REMARK INTER:                  -9.192
REMARK INTRA:                  -3.919
REMARK UNBOUND:                -3.039
REMARK SMILES CCCCCCCCCCCCCCCCCCCCCCCC(=O)[O-]
REMARK SMILES IDX 13 1 14 2 15 3 16 4 17 5 18 6 19 7 20 8 21 9 22 10 23 11
REMARK SMILES IDX 24 12 25 13 26 14 12 15 11 16 10 17 9 18 8 19 7 20 6 21 5 22
REMARK SMILES IDX 4 23 3 24 2 25 1 26
REMARK H PARENT
REMARK Flexibility Score: inf
ROOT
ATOM      1  C   UNL     1     -10.799  -4.191 -28.410  1.00  0.00     0.000 C 
ENDROOT
BRANCH   1   2
ATOM      2  C   UNL     1     -10.129  -2.803 -28.478  1.00  0.00     0.000 C 
BRANCH   2   3
ATOM      3  C   UNL     1      -8.811  -2.728 -29.278  1.00  0.00     0.000 C 
BRANCH   3   4
ATOM      4  C   UNL     1      -8.046  -4.066 -29.389  1.00  0.00     0.000 C 
BRANCH   4   5
ATOM      5  C   UNL     1      -6.751  -4.121 -28.554  1.00  0.00     0.000 C 
BRANCH   5   6
ATOM      6  C   UNL     1      -6.742  -5.180 -27.438  1.00  0.00     0.000 C 
BRANCH   6   7
ATOM      7  C   UNL     1      -7.896  -5.065 -26.422  1.00  0.00     0.000 C 
BRANCH   7   8
ATOM      8  C   UNL     1      -7.882  -3.747 -25.618  1.00  0.00     0.000 C 
BRANCH   8   9
ATOM      9  C   UNL     1      -9.093  -3.623 -24.676  1.00  0.00     0.000 C 
BRANCH   9  10
ATOM     10  C   UNL     1      -9.893  -2.327 -24.901  1.00  0.00     0.006 C 
BRANCH  10  11
ATOM     11  C   UNL     1     -10.463  -1.707 -23.616  1.00  0.00     0.053 C 
BRANCH  11  12
ATOM     12  C   UNL     1     -11.883  -2.117 -23.378  1.00  0.00     0.041 C 
ATOM     13  O   UNL     1     -12.414  -3.009 -24.092  1.00  0.00    -0.550 OA
ATOM     14  O   UNL     1     -12.632  -1.495 -22.386  1.00  0.00    -0.550 OA
ENDBRANCH  11  12
ENDBRANCH  10  11
ENDBRANCH   9  10
ENDBRANCH   8   9
ENDBRANCH   7   8
ENDBRANCH   6   7
ENDBRANCH   5   6
ENDBRANCH   4   5
ENDBRANCH   3   4
ENDBRANCH   2   3
ENDBRANCH   1   2
BRANCH   1  15
ATOM     15  C   UNL     1     -11.776  -4.394 -27.240  1.00  0.00     0.000 C 
BRANCH  15  16
ATOM     16  C   UNL     1     -13.203  -3.925 -27.565  1.00  0.00     0.000 C 
BRANCH  16  17
ATOM     17  C   UNL     1     -13.805  -4.757 -28.703  1.00  0.00     0.000 C 
BRANCH  17  18
ATOM     18  C   UNL     1     -14.642  -3.880 -29.646  1.00  0.00    -0.000 C 
BRANCH  18  19
ATOM     19  C   UNL     1     -13.948  -3.635 -30.996  1.00  0.00    -0.000 C 
BRANCH  19  20
ATOM     20  C   UNL     1     -12.897  -2.517 -30.931  1.00  0.00    -0.000 C 
BRANCH  20  21
ATOM     21  C   UNL     1     -11.846  -2.689 -32.035  1.00  0.00    -0.000 C 
BRANCH  21  22
ATOM     22  C   UNL     1     -11.242  -4.101 -32.008  1.00  0.00    -0.000 C 
BRANCH  22  23
ATOM     23  C   UNL     1      -9.849  -4.162 -32.655  1.00  0.00    -0.000 C 
BRANCH  23  24
ATOM     24  C   UNL     1      -9.211  -2.775 -32.823  1.00  0.00    -0.000 C 
BRANCH  24  25
ATOM     25  C   UNL     1      -8.736  -2.562 -34.265  1.00  0.00    -0.003 C 
ATOM     26  C   UNL     1      -9.827  -2.930 -35.267  1.00  0.00     0.004 C 
ENDBRANCH  24  25
ENDBRANCH  23  24
ENDBRANCH  22  23
ENDBRANCH  21  22
ENDBRANCH  20  21
ENDBRANCH  19  20
ENDBRANCH  18  19
ENDBRANCH  17  18
ENDBRANCH  16  17
ENDBRANCH  15  16
ENDBRANCH   1  15
TORSDOF 22
ENDMDL
