MODEL 1
REMARK VINA RESULT:    -7.354      0.000      0.000
REMARK INTER + INTRA:          -7.759
REMARK INTER:                  -7.999
REMARK INTRA:                   0.240
REMARK UNBOUND:                 0.240
REMARK SMILES CC1(C)CC[C@@]2(C(=O)[O-])CC[C@]3(C)C(=CC[C@H]4[C@@]5(C)CC[C@@H](O)C(C)(C)[C@@H]5CC[C@]43C)[C@@H]2C1
REMARK SMILES IDX 6 1 5 2 10 3 32 4 4 5 11 6 14 7 33 8 2 9 12 10 15 11 1 12
REMARK SMILES IDX 3 13 13 14 30 15 16 16 17 17 29 18 31 19 18 20 28 21 27 22
REMARK SMILES IDX 20 23 19 24 24 25 21 26 22 27 25 28 26 29 7 30 8 31 9 32
REMARK SMILES IDX 23 33
REMARK H PARENT 23 34
REMARK Flexibility Score: inf
ROOT
ATOM      1  C   UNL     1      54.318 -42.840 -28.190  1.00  0.00     0.017 C 
ATOM      2  C   UNL     1      55.126 -43.727 -29.180  1.00  0.00     0.014 C 
ATOM      3  C   UNL     1      54.402 -43.469 -26.748  1.00  0.00     0.014 C 
ATOM      4  C   UNL     1      54.952 -41.410 -28.209  1.00  0.00     0.028 C 
ATOM      5  C   UNL     1      55.141 -43.152 -30.609  1.00  0.00     0.007 C 
ATOM      6  C   UNL     1      54.950 -42.513 -25.663  1.00  0.00     0.013 C 
ATOM      7  C   UNL     1      54.349 -40.534 -27.102  1.00  0.00    -0.064 C 
ATOM      8  C   UNL     1      54.988 -40.794 -29.636  1.00  0.00     0.015 C 
ATOM      9  C   UNL     1      55.696 -41.705 -30.681  1.00  0.00    -0.035 C 
ATOM     10  C   UNL     1      54.285 -41.088 -25.674  1.00  0.00    -0.006 C 
ATOM     11  C   UNL     1      53.943 -39.267 -27.318  1.00  0.00    -0.027 C 
ATOM     12  C   UNL     1      55.416 -41.142 -32.091  1.00  0.00     0.011 C 
ATOM     13  C   UNL     1      57.228 -41.700 -30.468  1.00  0.00     0.011 C 
ATOM     14  C   UNL     1      52.770 -41.334 -25.357  1.00  0.00     0.017 C 
ATOM     15  C   UNL     1      54.990 -40.039 -24.633  1.00  0.00    -0.020 C 
ATOM     16  C   UNL     1      53.752 -38.318 -26.166  1.00  0.00     0.032 C 
ATOM     17  C   UNL     1      54.906 -38.512 -25.146  1.00  0.00     0.006 C 
ATOM     18  C   UNL     1      54.361 -40.209 -23.209  1.00  0.00     0.008 C 
ATOM     19  C   UNL     1      56.507 -40.380 -24.498  1.00  0.00     0.012 C 
ATOM     20  C   UNL     1      55.062 -37.349 -24.032  1.00  0.00    -0.025 C 
ATOM     21  C   UNL     1      54.745 -39.131 -22.205  1.00  0.00     0.005 C 
ATOM     22  C   UNL     1      54.284 -37.750 -22.725  1.00  0.00     0.003 C 
ATOM     23  C   UNL     1      54.457 -35.994 -24.534  1.00  0.00     0.010 C 
ATOM     24  C   UNL     1      56.597 -37.105 -23.778  1.00  0.00     0.012 C 
ATOM     25  C   UNL     1      54.167 -36.636 -21.603  1.00  0.00    -0.006 C 
ATOM     26  C   UNL     1      54.415 -34.879 -23.474  1.00  0.00     0.033 C 
ATOM     27  C   UNL     1      53.626 -35.311 -22.229  1.00  0.00     0.120 C 
ATOM     28  C   UNL     1      53.150 -37.083 -20.511  1.00  0.00     0.014 C 
ATOM     29  C   UNL     1      55.504 -36.364 -20.865  1.00  0.00     0.014 C 
ENDROOT
BRANCH   1  30
ATOM     30  C   UNL     1      52.851 -42.831 -28.627  1.00  0.00     0.048 C 
ATOM     31  O   UNL     1      52.114 -43.820 -28.367  1.00  0.00    -0.550 OA
ATOM     32  O   UNL     1      52.288 -41.730 -29.263  1.00  0.00    -0.550 OA
ENDBRANCH   1  30
BRANCH  27  33
ATOM     33  O   UNL     1      52.268 -35.457 -22.575  1.00  0.00    -0.393 OA
ATOM     34  H   UNL     1      52.238 -35.930 -23.448  1.00  0.00     0.210 HD
ENDBRANCH  27  33
TORSDOF 2
ENDMDL
MODEL 2
REMARK VINA RESULT:    -7.274      1.338      1.687
REMARK INTER + INTRA:          -7.672
REMARK INTER:                  -7.915
REMARK INTRA:                   0.242
REMARK UNBOUND:                 0.240
REMARK SMILES CC1(C)CC[C@@]2(C(=O)[O-])CC[C@]3(C)C(=CC[C@H]4[C@@]5(C)CC[C@@H](O)C(C)(C)[C@@H]5CC[C@]43C)[C@@H]2C1
REMARK SMILES IDX 6 1 5 2 10 3 32 4 4 5 11 6 14 7 33 8 2 9 12 10 15 11 1 12
REMARK SMILES IDX 3 13 13 14 30 15 16 16 17 17 29 18 31 19 18 20 28 21 27 22
REMARK SMILES IDX 20 23 19 24 24 25 21 26 22 27 25 28 26 29 7 30 8 31 9 32
REMARK SMILES IDX 23 33
REMARK H PARENT 23 34
REMARK Flexibility Score: inf
ROOT
ATOM      1  C   UNL     1      55.632 -42.558 -26.747  1.00  0.00     0.017 C 
ATOM      2  C   UNL     1      56.615 -43.480 -27.523  1.00  0.00     0.014 C 
ATOM      3  C   UNL     1      55.898 -42.705 -25.201  1.00  0.00     0.014 C 
ATOM      4  C   UNL     1      55.892 -41.088 -27.216  1.00  0.00     0.028 C 
ATOM      5  C   UNL     1      56.459 -43.355 -29.050  1.00  0.00     0.007 C 
ATOM      6  C   UNL     1      56.214 -41.377 -24.475  1.00  0.00     0.013 C 
ATOM      7  C   UNL     1      55.113 -40.093 -26.343  1.00  0.00    -0.064 C 
ATOM      8  C   UNL     1      55.747 -40.919 -28.754  1.00  0.00     0.015 C 
ATOM      9  C   UNL     1      56.637 -41.904 -29.567  1.00  0.00    -0.035 C 
ATOM     10  C   UNL     1      55.216 -40.210 -24.818  1.00  0.00    -0.006 C 
ATOM     11  C   UNL     1      54.403 -39.073 -26.862  1.00  0.00    -0.027 C 
ATOM     12  C   UNL     1      56.199 -41.853 -31.046  1.00  0.00     0.011 C 
ATOM     13  C   UNL     1      58.125 -41.483 -29.502  1.00  0.00     0.011 C 
ATOM     14  C   UNL     1      53.816 -40.698 -24.311  1.00  0.00     0.017 C 
ATOM     15  C   UNL     1      55.661 -38.772 -24.173  1.00  0.00    -0.020 C 
ATOM     16  C   UNL     1      54.006 -37.903 -26.004  1.00  0.00     0.032 C 
ATOM     17  C   UNL     1      55.191 -37.521 -25.077  1.00  0.00     0.006 C 
ATOM     18  C   UNL     1      55.121 -38.664 -22.707  1.00  0.00     0.008 C 
ATOM     19  C   UNL     1      57.217 -38.699 -24.086  1.00  0.00     0.012 C 
ATOM     20  C   UNL     1      55.077 -36.083 -24.345  1.00  0.00    -0.025 C 
ATOM     21  C   UNL     1      55.247 -37.284 -22.077  1.00  0.00     0.005 C 
ATOM     22  C   UNL     1      54.449 -36.257 -22.913  1.00  0.00     0.003 C 
ATOM     23  C   UNL     1      54.146 -35.109 -25.144  1.00  0.00     0.010 C 
ATOM     24  C   UNL     1      56.509 -35.428 -24.307  1.00  0.00     0.012 C 
ATOM     25  C   UNL     1      54.082 -34.926 -22.135  1.00  0.00    -0.006 C 
ATOM     26  C   UNL     1      53.850 -33.777 -24.432  1.00  0.00     0.033 C 
ATOM     27  C   UNL     1      53.218 -34.001 -23.052  1.00  0.00     0.120 C 
ATOM     28  C   UNL     1      53.229 -35.261 -20.877  1.00  0.00     0.014 C 
ATOM     29  C   UNL     1      55.325 -34.151 -21.625  1.00  0.00     0.014 C 
ENDROOT
BRANCH   1  30
ATOM     30  C   UNL     1      54.201 -43.014 -27.035  1.00  0.00     0.048 C 
ATOM     31  O   UNL     1      53.758 -44.066 -26.500  1.00  0.00    -0.550 OA
ATOM     32  O   UNL     1      53.346 -42.268 -27.839  1.00  0.00    -0.550 OA
ENDBRANCH   1  30
BRANCH  27  33
ATOM     33  O   UNL     1      51.931 -34.551 -23.221  1.00  0.00    -0.393 OA
ATOM     34  H   UNL     1      52.036 -35.538 -23.238  1.00  0.00     0.210 HD
ENDBRANCH  27  33
TORSDOF 2
ENDMDL
MODEL 3
REMARK VINA RESULT:    -7.153      1.772      8.105
REMARK INTER + INTRA:          -7.540
REMARK INTER:                  -7.778
REMARK INTRA:                   0.238
REMARK UNBOUND:                 0.240
REMARK SMILES CC1(C)CC[C@@]2(C(=O)[O-])CC[C@]3(C)C(=CC[C@H]4[C@@]5(C)CC[C@@H](O)C(C)(C)[C@@H]5CC[C@]43C)[C@@H]2C1
REMARK SMILES IDX 6 1 5 2 10 3 32 4 4 5 11 6 14 7 33 8 2 9 12 10 15 11 1 12
REMARK SMILES IDX 3 13 13 14 30 15 16 16 17 17 29 18 31 19 18 20 28 21 27 22
REMARK SMILES IDX 20 23 19 24 24 25 21 26 22 27 25 28 26 29 7 30 8 31 9 32
REMARK SMILES IDX 23 33
REMARK H PARENT 23 34
REMARK Flexibility Score: inf
ROOT
ATOM      1  C   UNL     1      54.644 -37.453 -22.438  1.00  0.00     0.017 C 
ATOM      2  C   UNL     1      54.061 -37.343 -21.001  1.00  0.00     0.014 C 
ATOM      3  C   UNL     1      55.871 -38.441 -22.422  1.00  0.00     0.014 C 
ATOM      4  C   UNL     1      53.510 -37.995 -23.369  1.00  0.00     0.028 C 
ATOM      5  C   UNL     1      52.818 -36.435 -20.937  1.00  0.00     0.007 C 
ATOM      6  C   UNL     1      55.754 -39.627 -23.407  1.00  0.00     0.013 C 
ATOM      7  C   UNL     1      54.064 -38.336 -24.759  1.00  0.00    -0.064 C 
ATOM      8  C   UNL     1      52.234 -37.108 -23.332  1.00  0.00     0.015 C 
ATOM      9  C   UNL     1      51.683 -36.884 -21.894  1.00  0.00    -0.035 C 
ATOM     10  C   UNL     1      55.321 -39.208 -24.860  1.00  0.00    -0.006 C 
ATOM     11  C   UNL     1      53.448 -37.965 -25.899  1.00  0.00    -0.027 C 
ATOM     12  C   UNL     1      50.616 -35.769 -21.946  1.00  0.00     0.011 C 
ATOM     13  C   UNL     1      50.998 -38.166 -21.361  1.00  0.00     0.011 C 
ATOM     14  C   UNL     1      56.469 -38.279 -25.384  1.00  0.00     0.017 C 
ATOM     15  C   UNL     1      55.040 -40.487 -25.843  1.00  0.00    -0.020 C 
ATOM     16  C   UNL     1      53.771 -38.646 -27.201  1.00  0.00     0.032 C 
ATOM     17  C   UNL     1      53.918 -40.172 -26.958  1.00  0.00     0.006 C 
ATOM     18  C   UNL     1      56.386 -40.959 -26.490  1.00  0.00     0.008 C 
ATOM     19  C   UNL     1      54.503 -41.685 -24.998  1.00  0.00     0.012 C 
ATOM     20  C   UNL     1      53.914 -41.098 -28.285  1.00  0.00    -0.025 C 
ATOM     21  C   UNL     1      56.237 -41.976 -27.612  1.00  0.00     0.005 C 
ATOM     22  C   UNL     1      55.391 -41.368 -28.755  1.00  0.00     0.003 C 
ATOM     23  C   UNL     1      53.172 -40.393 -29.471  1.00  0.00     0.010 C 
ATOM     24  C   UNL     1      53.125 -42.423 -27.966  1.00  0.00     0.012 C 
ATOM     25  C   UNL     1      55.566 -42.094 -30.153  1.00  0.00    -0.006 C 
ATOM     26  C   UNL     1      53.266 -41.134 -30.816  1.00  0.00     0.033 C 
ATOM     27  C   UNL     1      54.725 -41.352 -31.241  1.00  0.00     0.120 C 
ATOM     28  C   UNL     1      57.056 -42.039 -30.600  1.00  0.00     0.014 C 
ATOM     29  C   UNL     1      55.177 -43.595 -30.119  1.00  0.00     0.014 C 
ENDROOT
BRANCH   1  30
ATOM     30  C   UNL     1      55.141 -36.073 -22.872  1.00  0.00     0.048 C 
ATOM     31  O   UNL     1      56.229 -35.627 -22.416  1.00  0.00    -0.550 OA
ATOM     32  O   UNL     1      54.448 -35.309 -23.805  1.00  0.00    -0.550 OA
ENDBRANCH   1  30
BRANCH  27  33
ATOM     33  O   UNL     1      55.308 -40.103 -31.536  1.00  0.00    -0.393 OA
ATOM     34  H   UNL     1      55.310 -40.008 -32.525  1.00  0.00     0.210 HD
ENDBRANCH  27  33
TORSDOF 2
ENDMDL
MODEL 4
REMARK VINA RESULT:    -7.012      1.929      8.024
REMARK INTER + INTRA:          -7.387
REMARK INTER:                  -7.692
REMARK INTRA:                   0.304
REMARK UNBOUND:                 0.240
REMARK SMILES CC1(C)CC[C@@]2(C(=O)[O-])CC[C@]3(C)C(=CC[C@H]4[C@@]5(C)CC[C@@H](O)C(C)(C)[C@@H]5CC[C@]43C)[C@@H]2C1
REMARK SMILES IDX 6 1 5 2 10 3 32 4 4 5 11 6 14 7 33 8 2 9 12 10 15 11 1 12
REMARK SMILES IDX 3 13 13 14 30 15 16 16 17 17 29 18 31 19 18 20 28 21 27 22
REMARK SMILES IDX 20 23 19 24 24 25 21 26 22 27 25 28 26 29 7 30 8 31 9 32
REMARK SMILES IDX 23 33
REMARK H PARENT 23 34
REMARK Flexibility Score: inf
ROOT
ATOM      1  C   UNL     1      54.100 -37.192 -22.321  1.00  0.00     0.017 C 
ATOM      2  C   UNL     1      53.043 -36.651 -21.317  1.00  0.00     0.014 C 
ATOM      3  C   UNL     1      54.662 -38.564 -21.790  1.00  0.00     0.014 C 
ATOM      4  C   UNL     1      53.388 -37.382 -23.701  1.00  0.00     0.028 C 
ATOM      5  C   UNL     1      52.401 -35.334 -21.789  1.00  0.00     0.007 C 
ATOM      6  C   UNL     1      54.518 -39.743 -22.779  1.00  0.00     0.013 C 
ATOM      7  C   UNL     1      54.307 -38.114 -24.690  1.00  0.00    -0.064 C 
ATOM      8  C   UNL     1      52.724 -36.074 -24.214  1.00  0.00     0.015 C 
ATOM      9  C   UNL     1      51.738 -35.443 -23.188  1.00  0.00    -0.035 C 
ATOM     10  C   UNL     1      54.992 -39.410 -24.242  1.00  0.00    -0.006 C 
ATOM     11  C   UNL     1      54.476 -37.706 -25.963  1.00  0.00    -0.027 C 
ATOM     12  C   UNL     1      51.372 -34.023 -23.670  1.00  0.00     0.011 C 
ATOM     13  C   UNL     1      50.428 -36.264 -23.106  1.00  0.00     0.011 C 
ATOM     14  C   UNL     1      56.521 -39.088 -24.120  1.00  0.00     0.017 C 
ATOM     15  C   UNL     1      54.678 -40.610 -25.310  1.00  0.00    -0.020 C 
ATOM     16  C   UNL     1      55.032 -38.644 -27.000  1.00  0.00     0.032 C 
ATOM     17  C   UNL     1      54.412 -40.054 -26.801  1.00  0.00     0.006 C 
ATOM     18  C   UNL     1      55.842 -41.657 -25.282  1.00  0.00     0.008 C 
ATOM     19  C   UNL     1      53.382 -41.366 -24.879  1.00  0.00     0.012 C 
ATOM     20  C   UNL     1      54.616 -41.091 -28.025  1.00  0.00    -0.025 C 
ATOM     21  C   UNL     1      55.802 -42.692 -26.398  1.00  0.00     0.005 C 
ATOM     22  C   UNL     1      55.888 -41.980 -27.767  1.00  0.00     0.003 C 
ATOM     23  C   UNL     1      54.843 -40.338 -29.379  1.00  0.00     0.010 C 
ATOM     24  C   UNL     1      53.300 -41.941 -28.183  1.00  0.00     0.012 C 
ATOM     25  C   UNL     1      56.350 -42.916 -28.961  1.00  0.00    -0.006 C 
ATOM     26  C   UNL     1      55.211 -41.247 -30.565  1.00  0.00     0.033 C 
ATOM     27  C   UNL     1      56.471 -42.075 -30.273  1.00  0.00     0.120 C 
ATOM     28  C   UNL     1      57.757 -43.511 -28.659  1.00  0.00     0.014 C 
ATOM     29  C   UNL     1      55.407 -44.125 -29.194  1.00  0.00     0.014 C 
ENDROOT
BRANCH   1  30
ATOM     30  C   UNL     1      55.258 -36.194 -22.398  1.00  0.00     0.048 C 
ATOM     31  O   UNL     1      55.858 -35.847 -21.345  1.00  0.00    -0.550 OA
ATOM     32  O   UNL     1      55.707 -35.691 -23.615  1.00  0.00    -0.550 OA
ENDBRANCH   1  30
BRANCH  27  33
ATOM     33  O   UNL     1      57.580 -41.210 -30.194  1.00  0.00    -0.393 OA
ATOM     34  H   UNL     1      57.766 -40.889 -31.115  1.00  0.00     0.210 HD
ENDBRANCH  27  33
TORSDOF 2
ENDMDL
MODEL 5
REMARK VINA RESULT:    -6.907      2.157      3.528
REMARK INTER + INTRA:          -7.272
REMARK INTER:                  -7.555
REMARK INTRA:                   0.282
REMARK UNBOUND:                 0.240
REMARK SMILES CC1(C)CC[C@@]2(C(=O)[O-])CC[C@]3(C)C(=CC[C@H]4[C@@]5(C)CC[C@@H](O)C(C)(C)[C@@H]5CC[C@]43C)[C@@H]2C1
REMARK SMILES IDX 6 1 5 2 10 3 32 4 4 5 11 6 14 7 33 8 2 9 12 10 15 11 1 12
REMARK SMILES IDX 3 13 13 14 30 15 16 16 17 17 29 18 31 19 18 20 28 21 27 22
REMARK SMILES IDX 20 23 19 24 24 25 21 26 22 27 25 28 26 29 7 30 8 31 9 32
REMARK SMILES IDX 23 33
REMARK H PARENT 23 34
REMARK Flexibility Score: inf
ROOT
ATOM      1  C   UNL     1      55.101 -41.798 -27.156  1.00  0.00     0.017 C 
ATOM      2  C   UNL     1      55.364 -41.866 -28.688  1.00  0.00     0.014 C 
ATOM      3  C   UNL     1      56.227 -40.929 -26.478  1.00  0.00     0.014 C 
ATOM      4  C   UNL     1      53.696 -41.144 -26.947  1.00  0.00     0.028 C 
ATOM      5  C   UNL     1      54.275 -42.654 -29.438  1.00  0.00     0.007 C 
ATOM      6  C   UNL     1      55.704 -39.728 -25.656  1.00  0.00     0.013 C 
ATOM      7  C   UNL     1      53.453 -40.843 -25.461  1.00  0.00    -0.064 C 
ATOM      8  C   UNL     1      52.566 -41.909 -27.691  1.00  0.00     0.015 C 
ATOM      9  C   UNL     1      52.847 -42.093 -29.211  1.00  0.00    -0.035 C 
ATOM     10  C   UNL     1      54.532 -40.092 -24.673  1.00  0.00    -0.006 C 
ATOM     11  C   UNL     1      52.296 -41.145 -24.838  1.00  0.00    -0.027 C 
ATOM     12  C   UNL     1      51.826 -43.103 -29.779  1.00  0.00     0.011 C 
ATOM     13  C   UNL     1      52.661 -40.758 -29.971  1.00  0.00     0.011 C 
ATOM     14  C   UNL     1      55.143 -41.119 -23.660  1.00  0.00     0.017 C 
ATOM     15  C   UNL     1      53.880 -38.783 -23.936  1.00  0.00    -0.020 C 
ATOM     16  C   UNL     1      51.934 -40.486 -23.535  1.00  0.00     0.032 C 
ATOM     17  C   UNL     1      52.315 -38.982 -23.599  1.00  0.00     0.006 C 
ATOM     18  C   UNL     1      54.709 -38.433 -22.655  1.00  0.00     0.008 C 
ATOM     19  C   UNL     1      53.977 -37.548 -24.885  1.00  0.00     0.012 C 
ATOM     20  C   UNL     1      51.684 -38.047 -22.439  1.00  0.00    -0.025 C 
ATOM     21  C   UNL     1      54.073 -37.396 -21.741  1.00  0.00     0.005 C 
ATOM     22  C   UNL     1      52.702 -37.912 -21.246  1.00  0.00     0.003 C 
ATOM     23  C   UNL     1      50.369 -38.669 -21.857  1.00  0.00     0.010 C 
ATOM     24  C   UNL     1      51.299 -36.658 -23.072  1.00  0.00     0.012 C 
ATOM     25  C   UNL     1      52.167 -37.193 -19.939  1.00  0.00    -0.006 C 
ATOM     26  C   UNL     1      49.795 -37.929 -20.636  1.00  0.00     0.033 C 
ATOM     27  C   UNL     1      50.817 -37.844 -19.494  1.00  0.00     0.120 C 
ATOM     28  C   UNL     1      53.180 -37.382 -18.773  1.00  0.00     0.014 C 
ATOM     29  C   UNL     1      51.983 -35.663 -20.111  1.00  0.00     0.014 C 
ENDROOT
BRANCH   1  30
ATOM     30  C   UNL     1      55.174 -43.214 -26.583  1.00  0.00     0.048 C 
ATOM     31  O   UNL     1      56.267 -43.653 -26.133  1.00  0.00    -0.550 OA
ATOM     32  O   UNL     1      54.046 -44.023 -26.495  1.00  0.00    -0.550 OA
ENDBRANCH   1  30
BRANCH  27  33
ATOM     33  O   UNL     1      51.047 -39.139 -18.988  1.00  0.00    -0.393 OA
ATOM     34  H   UNL     1      51.873 -39.095 -18.439  1.00  0.00     0.210 HD
ENDBRANCH  27  33
TORSDOF 2
ENDMDL
MODEL 6
REMARK VINA RESULT:    -6.666      3.172      5.153
REMARK INTER + INTRA:          -7.011
REMARK INTER:                  -7.400
REMARK INTRA:                   0.389
REMARK UNBOUND:                 0.240
REMARK SMILES CC1(C)CC[C@@]2(C(=O)[O-])CC[C@]3(C)C(=CC[C@H]4[C@@]5(C)CC[C@@H](O)C(C)(C)[C@@H]5CC[C@]43C)[C@@H]2C1
REMARK SMILES IDX 6 1 5 2 10 3 32 4 4 5 11 6 14 7 33 8 2 9 12 10 15 11 1 12
REMARK SMILES IDX 3 13 13 14 30 15 16 16 17 17 29 18 31 19 18 20 28 21 27 22
REMARK SMILES IDX 20 23 19 24 24 25 21 26 22 27 25 28 26 29 7 30 8 31 9 32
REMARK SMILES IDX 23 33
REMARK H PARENT 23 34
REMARK Flexibility Score: inf
ROOT
ATOM      1  C   UNL     1      55.315 -40.431 -24.607  1.00  0.00     0.017 C 
ATOM      2  C   UNL     1      55.499 -41.887 -25.121  1.00  0.00     0.014 C 
ATOM      3  C   UNL     1      56.632 -39.974 -23.873  1.00  0.00     0.014 C 
ATOM      4  C   UNL     1      55.029 -39.523 -25.848  1.00  0.00     0.028 C 
ATOM      5  C   UNL     1      54.273 -42.396 -25.902  1.00  0.00     0.007 C 
ATOM      6  C   UNL     1      57.264 -38.680 -24.436  1.00  0.00     0.013 C 
ATOM      7  C   UNL     1      55.049 -38.040 -25.453  1.00  0.00    -0.064 C 
ATOM      8  C   UNL     1      53.798 -40.004 -26.667  1.00  0.00     0.015 C 
ATOM      9  C   UNL     1      53.897 -41.494 -27.107  1.00  0.00    -0.035 C 
ATOM     10  C   UNL     1      56.237 -37.506 -24.644  1.00  0.00    -0.006 C 
ATOM     11  C   UNL     1      54.102 -37.168 -25.853  1.00  0.00    -0.027 C 
ATOM     12  C   UNL     1      52.519 -41.939 -27.642  1.00  0.00     0.011 C 
ATOM     13  C   UNL     1      54.924 -41.662 -28.252  1.00  0.00     0.011 C 
ATOM     14  C   UNL     1      55.691 -37.174 -23.213  1.00  0.00     0.017 C 
ATOM     15  C   UNL     1      56.889 -36.205 -25.395  1.00  0.00    -0.020 C 
ATOM     16  C   UNL     1      54.357 -35.686 -25.806  1.00  0.00     0.032 C 
ATOM     17  C   UNL     1      55.807 -35.400 -26.281  1.00  0.00     0.006 C 
ATOM     18  C   UNL     1      57.577 -35.278 -24.337  1.00  0.00     0.008 C 
ATOM     19  C   UNL     1      58.007 -36.675 -26.376  1.00  0.00     0.012 C 
ATOM     20  C   UNL     1      56.141 -33.857 -26.631  1.00  0.00    -0.025 C 
ATOM     21  C   UNL     1      58.005 -33.914 -24.860  1.00  0.00     0.005 C 
ATOM     22  C   UNL     1      56.767 -33.145 -25.376  1.00  0.00     0.003 C 
ATOM     23  C   UNL     1      54.844 -33.065 -27.014  1.00  0.00     0.010 C 
ATOM     24  C   UNL     1      57.090 -33.824 -27.887  1.00  0.00     0.012 C 
ATOM     25  C   UNL     1      56.971 -31.576 -25.481  1.00  0.00    -0.006 C 
ATOM     26  C   UNL     1      55.048 -31.552 -27.200  1.00  0.00     0.033 C 
ATOM     27  C   UNL     1      55.639 -30.901 -25.941  1.00  0.00     0.120 C 
ATOM     28  C   UNL     1      57.332 -30.990 -24.085  1.00  0.00     0.014 C 
ATOM     29  C   UNL     1      58.125 -31.170 -26.435  1.00  0.00     0.014 C 
ENDROOT
BRANCH   1  30
ATOM     30  C   UNL     1      54.168 -40.410 -23.596  1.00  0.00     0.048 C 
ATOM     31  O   UNL     1      54.418 -40.287 -22.366  1.00  0.00    -0.550 OA
ATOM     32  O   UNL     1      52.839 -40.471 -24.000  1.00  0.00    -0.550 OA
ENDBRANCH   1  30
BRANCH  27  33
ATOM     33  O   UNL     1      54.684 -30.957 -24.905  1.00  0.00    -0.393 OA
ATOM     34  H   UNL     1      54.420 -30.022 -24.702  1.00  0.00     0.210 HD
ENDBRANCH  27  33
TORSDOF 2
ENDMDL
MODEL 7
REMARK VINA RESULT:    -6.629      6.418      9.892
REMARK INTER + INTRA:          -6.970
REMARK INTER:                  -7.209
REMARK INTRA:                   0.238
REMARK UNBOUND:                 0.240
REMARK SMILES CC1(C)CC[C@@]2(C(=O)[O-])CC[C@]3(C)C(=CC[C@H]4[C@@]5(C)CC[C@@H](O)C(C)(C)[C@@H]5CC[C@]43C)[C@@H]2C1
REMARK SMILES IDX 6 1 5 2 10 3 32 4 4 5 11 6 14 7 33 8 2 9 12 10 15 11 1 12
REMARK SMILES IDX 3 13 13 14 30 15 16 16 17 17 29 18 31 19 18 20 28 21 27 22
REMARK SMILES IDX 20 23 19 24 24 25 21 26 22 27 25 28 26 29 7 30 8 31 9 32
REMARK SMILES IDX 23 33
REMARK H PARENT 23 34
REMARK Flexibility Score: inf
ROOT
ATOM      1  C   UNL     1      44.774 -41.244 -24.161  1.00  0.00     0.017 C 
ATOM      2  C   UNL     1      43.323 -41.703 -23.841  1.00  0.00     0.014 C 
ATOM      3  C   UNL     1      45.790 -42.182 -23.405  1.00  0.00     0.014 C 
ATOM      4  C   UNL     1      44.973 -41.346 -25.709  1.00  0.00     0.028 C 
ATOM      5  C   UNL     1      42.264 -40.871 -24.586  1.00  0.00     0.007 C 
ATOM      6  C   UNL     1      46.827 -42.874 -24.320  1.00  0.00     0.013 C 
ATOM      7  C   UNL     1      46.444 -41.116 -26.084  1.00  0.00    -0.064 C 
ATOM      8  C   UNL     1      43.920 -40.520 -26.500  1.00  0.00     0.015 C 
ATOM      9  C   UNL     1      42.452 -40.877 -26.126  1.00  0.00    -0.035 C 
ATOM     10  C   UNL     1      47.528 -41.901 -25.339  1.00  0.00    -0.006 C 
ATOM     11  C   UNL     1      46.817 -40.308 -27.096  1.00  0.00    -0.027 C 
ATOM     12  C   UNL     1      41.517 -39.811 -26.738  1.00  0.00     0.011 C 
ATOM     13  C   UNL     1      42.051 -42.250 -26.717  1.00  0.00     0.011 C 
ATOM     14  C   UNL     1      48.304 -40.865 -24.456  1.00  0.00     0.017 C 
ATOM     15  C   UNL     1      48.496 -42.677 -26.408  1.00  0.00    -0.020 C 
ATOM     16  C   UNL     1      48.192 -40.420 -27.697  1.00  0.00     0.032 C 
ATOM     17  C   UNL     1      48.573 -41.919 -27.830  1.00  0.00     0.006 C 
ATOM     18  C   UNL     1      49.917 -42.879 -25.781  1.00  0.00     0.008 C 
ATOM     19  C   UNL     1      47.923 -44.100 -26.692  1.00  0.00     0.012 C 
ATOM     20  C   UNL     1      49.850 -42.239 -28.770  1.00  0.00    -0.025 C 
ATOM     21  C   UNL     1      50.984 -43.361 -26.752  1.00  0.00     0.005 C 
ATOM     22  C   UNL     1      51.152 -42.330 -27.892  1.00  0.00     0.003 C 
ATOM     23  C   UNL     1      50.081 -41.104 -29.825  1.00  0.00     0.010 C 
ATOM     24  C   UNL     1      49.561 -43.564 -29.570  1.00  0.00     0.012 C 
ATOM     25  C   UNL     1      52.526 -42.442 -28.675  1.00  0.00    -0.006 C 
ATOM     26  C   UNL     1      51.372 -41.249 -30.649  1.00  0.00     0.033 C 
ATOM     27  C   UNL     1      52.614 -41.310 -29.749  1.00  0.00     0.120 C 
ATOM     28  C   UNL     1      53.718 -42.245 -27.693  1.00  0.00     0.014 C 
ATOM     29  C   UNL     1      52.740 -43.824 -29.347  1.00  0.00     0.014 C 
ENDROOT
BRANCH   1  30
ATOM     30  C   UNL     1      44.961 -39.816 -23.644  1.00  0.00     0.048 C 
ATOM     31  O   UNL     1      45.162 -39.615 -22.416  1.00  0.00    -0.550 OA
ATOM     32  O   UNL     1      44.966 -38.725 -24.506  1.00  0.00    -0.550 OA
ENDBRANCH   1  30
BRANCH  27  33
ATOM     33  O   UNL     1      52.788 -40.059 -29.122  1.00  0.00    -0.393 OA
ATOM     34  H   UNL     1      51.912 -39.806 -28.729  1.00  0.00     0.210 HD
ENDBRANCH  27  33
TORSDOF 2
ENDMDL
MODEL 8
REMARK VINA RESULT:    -6.562      1.439      8.236
REMARK INTER + INTRA:          -6.898
REMARK INTER:                  -7.139
REMARK INTRA:                   0.241
REMARK UNBOUND:                 0.240
REMARK SMILES CC1(C)CC[C@@]2(C(=O)[O-])CC[C@]3(C)C(=CC[C@H]4[C@@]5(C)CC[C@@H](O)C(C)(C)[C@@H]5CC[C@]43C)[C@@H]2C1
REMARK SMILES IDX 6 1 5 2 10 3 32 4 4 5 11 6 14 7 33 8 2 9 12 10 15 11 1 12
REMARK SMILES IDX 3 13 13 14 30 15 16 16 17 17 29 18 31 19 18 20 28 21 27 22
REMARK SMILES IDX 20 23 19 24 24 25 21 26 22 27 25 28 26 29 7 30 8 31 9 32
REMARK SMILES IDX 23 33
REMARK H PARENT 23 34
REMARK Flexibility Score: inf
ROOT
ATOM      1  C   UNL     1      54.108 -35.822 -23.013  1.00  0.00     0.017 C 
ATOM      2  C   UNL     1      54.291 -35.089 -21.653  1.00  0.00     0.014 C 
ATOM      3  C   UNL     1      55.401 -35.613 -23.889  1.00  0.00     0.014 C 
ATOM      4  C   UNL     1      53.886 -37.340 -22.706  1.00  0.00     0.028 C 
ATOM      5  C   UNL     1      53.091 -35.289 -20.710  1.00  0.00     0.007 C 
ATOM      6  C   UNL     1      56.074 -36.923 -24.361  1.00  0.00     0.013 C 
ATOM      7  C   UNL     1      53.912 -38.165 -24.001  1.00  0.00    -0.064 C 
ATOM      8  C   UNL     1      52.683 -37.586 -21.754  1.00  0.00     0.015 C 
ATOM      9  C   UNL     1      52.778 -36.781 -20.424  1.00  0.00    -0.035 C 
ATOM     10  C   UNL     1      55.074 -37.967 -24.981  1.00  0.00    -0.006 C 
ATOM     11  C   UNL     1      52.995 -39.114 -24.276  1.00  0.00    -0.027 C 
ATOM     12  C   UNL     1      51.416 -36.868 -19.701  1.00  0.00     0.011 C 
ATOM     13  C   UNL     1      53.848 -37.391 -19.487  1.00  0.00     0.011 C 
ATOM     14  C   UNL     1      54.475 -37.267 -26.248  1.00  0.00     0.017 C 
ATOM     15  C   UNL     1      55.775 -39.407 -25.320  1.00  0.00    -0.020 C 
ATOM     16  C   UNL     1      53.270 -40.164 -25.317  1.00  0.00     0.032 C 
ATOM     17  C   UNL     1      54.742 -40.640 -25.190  1.00  0.00     0.006 C 
ATOM     18  C   UNL     1      56.433 -39.350 -26.740  1.00  0.00     0.008 C 
ATOM     19  C   UNL     1      56.925 -39.680 -24.302  1.00  0.00     0.012 C 
ATOM     20  C   UNL     1      55.113 -42.001 -25.982  1.00  0.00    -0.025 C 
ATOM     21  C   UNL     1      56.902 -40.691 -27.285  1.00  0.00     0.005 C 
ATOM     22  C   UNL     1      55.698 -41.654 -27.400  1.00  0.00     0.003 C 
ATOM     23  C   UNL     1      53.844 -42.892 -26.209  1.00  0.00     0.010 C 
ATOM     24  C   UNL     1      56.113 -42.836 -25.098  1.00  0.00     0.012 C 
ATOM     25  C   UNL     1      55.929 -42.873 -28.387  1.00  0.00    -0.006 C 
ATOM     26  C   UNL     1      54.078 -44.125 -27.099  1.00  0.00     0.033 C 
ATOM     27  C   UNL     1      54.627 -43.732 -28.478  1.00  0.00     0.120 C 
ATOM     28  C   UNL     1      56.241 -42.349 -29.819  1.00  0.00     0.014 C 
ATOM     29  C   UNL     1      57.127 -43.772 -27.982  1.00  0.00     0.014 C 
ENDROOT
BRANCH   1  30
ATOM     30  C   UNL     1      52.921 -35.199 -23.749  1.00  0.00     0.048 C 
ATOM     31  O   UNL     1      53.045 -34.072 -24.299  1.00  0.00    -0.550 OA
ATOM     32  O   UNL     1      51.709 -35.870 -23.876  1.00  0.00    -0.550 OA
ENDBRANCH   1  30
BRANCH  27  33
ATOM     33  O   UNL     1      53.630 -43.028 -29.184  1.00  0.00    -0.393 OA
ATOM     34  H   UNL     1      52.761 -43.243 -28.754  1.00  0.00     0.210 HD
ENDBRANCH  27  33
TORSDOF 2
ENDMDL
MODEL 9
REMARK VINA RESULT:    -6.442      2.723      5.187
REMARK INTER + INTRA:          -6.767
REMARK INTER:                  -7.008
REMARK INTRA:                   0.241
REMARK UNBOUND:                 0.240
REMARK SMILES CC1(C)CC[C@@]2(C(=O)[O-])CC[C@]3(C)C(=CC[C@H]4[C@@]5(C)CC[C@@H](O)C(C)(C)[C@@H]5CC[C@]43C)[C@@H]2C1
REMARK SMILES IDX 6 1 5 2 10 3 32 4 4 5 11 6 14 7 33 8 2 9 12 10 15 11 1 12
REMARK SMILES IDX 3 13 13 14 30 15 16 16 17 17 29 18 31 19 18 20 28 21 27 22
REMARK SMILES IDX 20 23 19 24 24 25 21 26 22 27 25 28 26 29 7 30 8 31 9 32
REMARK SMILES IDX 23 33
REMARK H PARENT 23 34
REMARK Flexibility Score: inf
ROOT
ATOM      1  C   UNL     1      55.808 -38.506 -26.558  1.00  0.00     0.017 C 
ATOM      2  C   UNL     1      55.781 -39.086 -28.000  1.00  0.00     0.014 C 
ATOM      3  C   UNL     1      56.151 -36.970 -26.626  1.00  0.00     0.014 C 
ATOM      4  C   UNL     1      54.392 -38.729 -25.931  1.00  0.00     0.028 C 
ATOM      5  C   UNL     1      55.398 -40.577 -28.029  1.00  0.00     0.007 C 
ATOM      6  C   UNL     1      55.108 -36.048 -25.953  1.00  0.00     0.013 C 
ATOM      7  C   UNL     1      54.269 -37.994 -24.589  1.00  0.00    -0.064 C 
ATOM      8  C   UNL     1      53.965 -40.224 -25.942  1.00  0.00     0.015 C 
ATOM      9  C   UNL     1      54.031 -40.871 -27.357  1.00  0.00    -0.035 C 
ATOM     10  C   UNL     1      54.676 -36.518 -24.515  1.00  0.00    -0.006 C 
ATOM     11  C   UNL     1      53.746 -38.572 -23.489  1.00  0.00    -0.027 C 
ATOM     12  C   UNL     1      53.877 -42.400 -27.204  1.00  0.00     0.011 C 
ATOM     13  C   UNL     1      52.869 -40.368 -28.247  1.00  0.00     0.011 C 
ATOM     14  C   UNL     1      55.980 -36.457 -23.649  1.00  0.00     0.017 C 
ATOM     15  C   UNL     1      53.453 -35.629 -23.886  1.00  0.00    -0.020 C 
ATOM     16  C   UNL     1      53.265 -37.731 -22.339  1.00  0.00     0.032 C 
ATOM     17  C   UNL     1      52.517 -36.487 -22.890  1.00  0.00     0.006 C 
ATOM     18  C   UNL     1      54.035 -34.357 -23.184  1.00  0.00     0.008 C 
ATOM     19  C   UNL     1      52.530 -35.124 -25.039  1.00  0.00     0.012 C 
ATOM     20  C   UNL     1      51.634 -35.663 -21.814  1.00  0.00    -0.025 C 
ATOM     21  C   UNL     1      53.036 -33.573 -22.345  1.00  0.00     0.005 C 
ATOM     22  C   UNL     1      52.480 -34.477 -21.221  1.00  0.00     0.003 C 
ATOM     23  C   UNL     1      51.204 -36.572 -20.613  1.00  0.00     0.010 C 
ATOM     24  C   UNL     1      50.314 -35.176 -22.522  1.00  0.00     0.012 C 
ATOM     25  C   UNL     1      51.835 -33.687 -20.007  1.00  0.00    -0.006 C 
ATOM     26  C   UNL     1      50.502 -35.827 -19.464  1.00  0.00     0.033 C 
ATOM     27  C   UNL     1      51.377 -34.696 -18.905  1.00  0.00     0.120 C 
ATOM     28  C   UNL     1      52.892 -32.744 -19.362  1.00  0.00     0.014 C 
ATOM     29  C   UNL     1      50.644 -32.785 -20.424  1.00  0.00     0.014 C 
ENDROOT
BRANCH   1  30
ATOM     30  C   UNL     1      56.910 -39.211 -25.766  1.00  0.00     0.048 C 
ATOM     31  O   UNL     1      58.109 -38.844 -25.898  1.00  0.00    -0.550 OA
ATOM     32  O   UNL     1      56.621 -40.223 -24.857  1.00  0.00    -0.550 OA
ENDBRANCH   1  30
BRANCH  27  33
ATOM     33  O   UNL     1      52.500 -35.259 -18.266  1.00  0.00    -0.393 OA
ATOM     34  H   UNL     1      52.446 -35.008 -17.307  1.00  0.00     0.210 HD
ENDBRANCH  27  33
TORSDOF 2
ENDMDL
