MODEL 1
REMARK VINA RESULT:    -4.375      0.000      0.000
REMARK INTER + INTRA:          -5.278
REMARK INTER:                  -5.142
REMARK INTRA:                  -0.136
REMARK UNBOUND:                -0.136
REMARK SMILES O=C([O-])C=Cc1ccc(O)c(O)c1
REMARK SMILES IDX 6 1 13 2 7 3 11 4 8 5 9 6 5 7 4 8 2 9 1 10 3 11 12 12 10 14
REMARK H PARENT 12 13 10 15
REMARK Flexibility Score: inf
ROOT
ATOM      1  C   UNL     1      -7.300   1.756  -7.472  1.00  0.00    -0.022 A 
ATOM      2  C   UNL     1      -7.943   1.007  -6.472  1.00  0.00     0.058 A 
ATOM      3  C   UNL     1      -6.607   1.075  -8.492  1.00  0.00     0.012 A 
ATOM      4  C   UNL     1      -7.879  -0.391  -6.470  1.00  0.00     0.157 A 
ATOM      5  C   UNL     1      -6.542  -0.321  -8.491  1.00  0.00     0.051 A 
ATOM      6  C   UNL     1      -7.172  -1.060  -7.483  1.00  0.00     0.157 A 
ENDROOT
BRANCH   1   7
ATOM      7  C   UNL     1      -7.410   3.236  -7.432  1.00  0.00     0.010 C 
ATOM      8  C   UNL     1      -7.302   4.021  -8.513  1.00  0.00     0.025 C 
BRANCH   8   9
ATOM      9  C   UNL     1      -7.405   5.487  -8.433  1.00  0.00     0.064 C 
ATOM     10  O   UNL     1      -6.406   6.224  -8.646  1.00  0.00    -0.545 OA
ATOM     11  O   UNL     1      -8.625   6.069  -8.114  1.00  0.00    -0.545 OA
ENDBRANCH   8   9
ENDBRANCH   1   7
BRANCH   4  12
ATOM     12  O   UNL     1      -8.523  -1.097  -5.454  1.00  0.00    -0.504 OA
ATOM     13  H   UNL     1      -8.699  -0.690  -4.544  1.00  0.00     0.293 HD
ENDBRANCH   4  12
BRANCH   6  14
ATOM     14  O   UNL     1      -7.104  -2.452  -7.486  1.00  0.00    -0.504 OA
ATOM     15  H   UNL     1      -6.856  -2.969  -8.322  1.00  0.00     0.293 HD
ENDBRANCH   6  14
TORSDOF 4
ENDMDL
MODEL 2
REMARK VINA RESULT:    -4.358      2.189      6.194
REMARK INTER + INTRA:          -5.258
REMARK INTER:                  -5.126
REMARK INTRA:                  -0.133
REMARK UNBOUND:                -0.136
REMARK SMILES O=C([O-])C=Cc1ccc(O)c(O)c1
REMARK SMILES IDX 6 1 13 2 7 3 11 4 8 5 9 6 5 7 4 8 2 9 1 10 3 11 12 12 10 14
REMARK H PARENT 12 13 10 15
REMARK Flexibility Score: inf
ROOT
ATOM      1  C   UNL     1      -7.374  -0.006  -7.376  1.00  0.00    -0.022 A 
ATOM      2  C   UNL     1      -7.017   0.827  -8.450  1.00  0.00     0.058 A 
ATOM      3  C   UNL     1      -7.747   0.584  -6.153  1.00  0.00     0.012 A 
ATOM      4  C   UNL     1      -7.005   2.219  -8.304  1.00  0.00     0.157 A 
ATOM      5  C   UNL     1      -7.734   1.974  -6.006  1.00  0.00     0.051 A 
ATOM      6  C   UNL     1      -7.362   2.797  -7.075  1.00  0.00     0.157 A 
ENDROOT
BRANCH   1   7
ATOM      7  C   UNL     1      -7.380  -1.474  -7.589  1.00  0.00     0.010 C 
ATOM      8  C   UNL     1      -7.183  -2.056  -8.781  1.00  0.00     0.025 C 
BRANCH   8   9
ATOM      9  C   UNL     1      -7.208  -3.518  -8.956  1.00  0.00     0.064 C 
ATOM     10  O   UNL     1      -8.212  -4.100  -9.445  1.00  0.00    -0.545 OA
ATOM     11  O   UNL     1      -6.105  -4.269  -8.572  1.00  0.00    -0.545 OA
ENDBRANCH   8   9
ENDBRANCH   1   7
BRANCH   4  12
ATOM     12  O   UNL     1      -6.634   3.011  -9.392  1.00  0.00    -0.504 OA
ATOM     13  H   UNL     1      -6.144   3.890  -9.275  1.00  0.00     0.293 HD
ENDBRANCH   4  12
BRANCH   6  14
ATOM     14  O   UNL     1      -7.351   4.182  -6.924  1.00  0.00    -0.504 OA
ATOM     15  H   UNL     1      -6.661   4.648  -6.345  1.00  0.00     0.293 HD
ENDBRANCH   6  14
TORSDOF 4
ENDMDL
MODEL 3
REMARK VINA RESULT:    -4.238      0.755      1.857
REMARK INTER + INTRA:          -5.117
REMARK INTER:                  -4.987
REMARK INTRA:                  -0.130
REMARK UNBOUND:                -0.136
REMARK SMILES O=C([O-])C=Cc1ccc(O)c(O)c1
REMARK SMILES IDX 6 1 13 2 7 3 11 4 8 5 9 6 5 7 4 8 2 9 1 10 3 11 12 12 10 14
REMARK H PARENT 12 13 10 15
REMARK Flexibility Score: inf
ROOT
ATOM      1  C   UNL     1      -7.393   1.871  -7.265  1.00  0.00    -0.022 A 
ATOM      2  C   UNL     1      -6.682   1.124  -8.219  1.00  0.00     0.058 A 
ATOM      3  C   UNL     1      -8.059   1.190  -6.227  1.00  0.00     0.012 A 
ATOM      4  C   UNL     1      -6.653  -0.274  -8.159  1.00  0.00     0.157 A 
ATOM      5  C   UNL     1      -8.031  -0.206  -6.166  1.00  0.00     0.051 A 
ATOM      6  C   UNL     1      -7.333  -0.944  -7.129  1.00  0.00     0.157 A 
ENDROOT
BRANCH   1   7
ATOM      7  C   UNL     1      -7.381   3.351  -7.370  1.00  0.00     0.010 C 
ATOM      8  C   UNL     1      -7.291   4.016  -8.531  1.00  0.00     0.025 C 
BRANCH   8   9
ATOM      9  C   UNL     1      -7.271   5.486  -8.594  1.00  0.00     0.064 C 
ATOM     10  O   UNL     1      -6.225   6.112  -8.915  1.00  0.00    -0.545 OA
ATOM     11  O   UNL     1      -8.425   6.198  -8.294  1.00  0.00    -0.545 OA
ENDBRANCH   8   9
ENDBRANCH   1   7
BRANCH   4  12
ATOM     12  O   UNL     1      -5.944  -0.979  -9.132  1.00  0.00    -0.504 OA
ATOM     13  H   UNL     1      -5.414  -0.511  -9.857  1.00  0.00     0.293 HD
ENDBRANCH   4  12
BRANCH   6  14
ATOM     14  O   UNL     1      -7.309  -2.336  -7.065  1.00  0.00    -0.504 OA
ATOM     15  H   UNL     1      -6.439  -2.849  -6.980  1.00  0.00     0.293 HD
ENDBRANCH   6  14
TORSDOF 4
ENDMDL
MODEL 4
REMARK VINA RESULT:    -4.217      2.701      6.149
REMARK INTER + INTRA:          -5.092
REMARK INTER:                  -4.967
REMARK INTRA:                  -0.125
REMARK UNBOUND:                -0.136
REMARK SMILES O=C([O-])C=Cc1ccc(O)c(O)c1
REMARK SMILES IDX 6 1 13 2 7 3 11 4 8 5 9 6 5 7 4 8 2 9 1 10 3 11 12 12 10 14
REMARK H PARENT 12 13 10 15
REMARK Flexibility Score: inf
ROOT
ATOM      1  C   UNL     1      -8.081  -0.432  -7.037  1.00  0.00    -0.022 A 
ATOM      2  C   UNL     1      -7.045   0.462  -6.720  1.00  0.00     0.058 A 
ATOM      3  C   UNL     1      -9.408   0.038  -7.040  1.00  0.00     0.012 A 
ATOM      4  C   UNL     1      -7.323   1.792  -6.386  1.00  0.00     0.157 A 
ATOM      5  C   UNL     1      -9.688   1.366  -6.706  1.00  0.00     0.051 A 
ATOM      6  C   UNL     1      -8.651   2.248  -6.376  1.00  0.00     0.157 A 
ENDROOT
BRANCH   1   7
ATOM      7  C   UNL     1      -7.729  -1.829  -7.394  1.00  0.00     0.010 C 
ATOM      8  C   UNL     1      -7.564  -2.258  -8.653  1.00  0.00     0.025 C 
BRANCH   8   9
ATOM      9  C   UNL     1      -7.226  -3.656  -8.969  1.00  0.00     0.064 C 
ATOM     10  O   UNL     1      -7.987  -4.367  -9.678  1.00  0.00    -0.545 OA
ATOM     11  O   UNL     1      -6.048  -4.200  -8.476  1.00  0.00    -0.545 OA
ENDBRANCH   8   9
ENDBRANCH   1   7
BRANCH   4  12
ATOM     12  O   UNL     1      -6.267   2.646  -6.067  1.00  0.00    -0.504 OA
ATOM     13  H   UNL     1      -6.047   2.896  -5.110  1.00  0.00     0.293 HD
ENDBRANCH   4  12
BRANCH   6  14
ATOM     14  O   UNL     1      -8.935   3.571  -6.044  1.00  0.00    -0.504 OA
ATOM     15  H   UNL     1      -8.367   4.338  -6.385  1.00  0.00     0.293 HD
ENDBRANCH   6  14
TORSDOF 4
ENDMDL
MODEL 5
REMARK VINA RESULT:    -4.161     14.425     16.176
REMARK INTER + INTRA:          -5.027
REMARK INTER:                  -4.893
REMARK INTRA:                  -0.134
REMARK UNBOUND:                -0.136
REMARK SMILES O=C([O-])C=Cc1ccc(O)c(O)c1
REMARK SMILES IDX 6 1 13 2 7 3 11 4 8 5 9 6 5 7 4 8 2 9 1 10 3 11 12 12 10 14
REMARK H PARENT 12 13 10 15
REMARK Flexibility Score: inf
ROOT
ATOM      1  C   UNL     1       6.402  -6.558  -7.802  1.00  0.00    -0.022 A 
ATOM      2  C   UNL     1       5.572  -5.578  -7.233  1.00  0.00     0.058 A 
ATOM      3  C   UNL     1       6.069  -7.915  -7.627  1.00  0.00     0.012 A 
ATOM      4  C   UNL     1       4.447  -5.938  -6.482  1.00  0.00     0.157 A 
ATOM      5  C   UNL     1       4.946  -8.277  -6.878  1.00  0.00     0.051 A 
ATOM      6  C   UNL     1       4.132  -7.294  -6.301  1.00  0.00     0.157 A 
ENDROOT
BRANCH   1   7
ATOM      7  C   UNL     1       7.576  -6.120  -8.597  1.00  0.00     0.010 C 
ATOM      8  C   UNL     1       8.111  -4.893  -8.522  1.00  0.00     0.025 C 
BRANCH   8   9
ATOM      9  C   UNL     1       9.270  -4.490  -9.336  1.00  0.00     0.064 C 
ATOM     10  O   UNL     1      10.054  -5.347  -9.824  1.00  0.00    -0.545 OA
ATOM     11  O   UNL     1       9.504  -3.141  -9.569  1.00  0.00    -0.545 OA
ENDBRANCH   8   9
ENDBRANCH   1   7
BRANCH   4  12
ATOM     12  O   UNL     1       3.654  -4.934  -5.925  1.00  0.00    -0.504 OA
ATOM     13  H   UNL     1       2.677  -5.081  -5.702  1.00  0.00     0.293 HD
ENDBRANCH   4  12
BRANCH   6  14
ATOM     14  O   UNL     1       3.014  -7.660  -5.554  1.00  0.00    -0.504 OA
ATOM     15  H   UNL     1       2.489  -8.502  -5.762  1.00  0.00     0.293 HD
ENDBRANCH   6  14
TORSDOF 4
ENDMDL
MODEL 6
REMARK VINA RESULT:    -4.144      1.772      5.796
REMARK INTER + INTRA:          -5.006
REMARK INTER:                  -4.877
REMARK INTRA:                  -0.129
REMARK UNBOUND:                -0.136
REMARK SMILES O=C([O-])C=Cc1ccc(O)c(O)c1
REMARK SMILES IDX 6 1 13 2 7 3 11 4 8 5 9 6 5 7 4 8 2 9 1 10 3 11 12 12 10 14
REMARK H PARENT 12 13 10 15
REMARK Flexibility Score: inf
ROOT
ATOM      1  C   UNL     1      -7.248   0.713  -7.810  1.00  0.00    -0.022 A 
ATOM      2  C   UNL     1      -7.824   1.277  -6.660  1.00  0.00     0.058 A 
ATOM      3  C   UNL     1      -6.751   1.569  -8.812  1.00  0.00     0.012 A 
ATOM      4  C   UNL     1      -7.927   2.665  -6.517  1.00  0.00     0.157 A 
ATOM      5  C   UNL     1      -6.854   2.956  -8.671  1.00  0.00     0.051 A 
ATOM      6  C   UNL     1      -7.443   3.511  -7.529  1.00  0.00     0.157 A 
ENDROOT
BRANCH   1   7
ATOM      7  C   UNL     1      -7.154  -0.765  -7.905  1.00  0.00     0.010 C 
ATOM      8  C   UNL     1      -7.977  -1.519  -8.649  1.00  0.00     0.025 C 
BRANCH   8   9
ATOM      9  C   UNL     1      -7.860  -2.985  -8.709  1.00  0.00     0.064 C 
ATOM     10  O   UNL     1      -8.827  -3.702  -9.082  1.00  0.00    -0.545 OA
ATOM     11  O   UNL     1      -6.663  -3.589  -8.348  1.00  0.00    -0.545 OA
ENDBRANCH   8   9
ENDBRANCH   1   7
BRANCH   4  12
ATOM     12  O   UNL     1      -8.515   3.186  -5.364  1.00  0.00    -0.504 OA
ATOM     13  H   UNL     1      -8.588   2.649  -4.508  1.00  0.00     0.293 HD
ENDBRANCH   4  12
BRANCH   6  14
ATOM     14  O   UNL     1      -7.543   4.894  -7.393  1.00  0.00    -0.504 OA
ATOM     15  H   UNL     1      -6.908   5.417  -6.802  1.00  0.00     0.293 HD
ENDBRANCH   6  14
TORSDOF 4
ENDMDL
MODEL 7
REMARK VINA RESULT:    -3.998     14.713     15.419
REMARK INTER + INTRA:          -4.835
REMARK INTER:                  -4.700
REMARK INTRA:                  -0.135
REMARK UNBOUND:                -0.136
REMARK SMILES O=C([O-])C=Cc1ccc(O)c(O)c1
REMARK SMILES IDX 6 1 13 2 7 3 11 4 8 5 9 6 5 7 4 8 2 9 1 10 3 11 12 12 10 14
REMARK H PARENT 12 13 10 15
REMARK Flexibility Score: inf
ROOT
ATOM      1  C   UNL     1      -9.069   5.113   6.850  1.00  0.00    -0.022 A 
ATOM      2  C   UNL     1      -8.193   5.134   7.948  1.00  0.00     0.058 A 
ATOM      3  C   UNL     1      -9.652   3.889   6.469  1.00  0.00     0.012 A 
ATOM      4  C   UNL     1      -7.882   3.957   8.639  1.00  0.00     0.157 A 
ATOM      5  C   UNL     1      -9.342   2.713   7.158  1.00  0.00     0.051 A 
ATOM      6  C   UNL     1      -8.456   2.739   8.241  1.00  0.00     0.157 A 
ENDROOT
BRANCH   1   7
ATOM      7  C   UNL     1      -9.372   6.391   6.160  1.00  0.00     0.010 C 
ATOM      8  C   UNL     1      -8.927   7.586   6.574  1.00  0.00     0.025 C 
BRANCH   8   9
ATOM      9  C   UNL     1      -9.259   8.836   5.869  1.00  0.00     0.064 C 
ATOM     10  O   UNL     1     -10.125   8.859   4.955  1.00  0.00    -0.545 OA
ATOM     11  O   UNL     1      -8.604  10.009   6.218  1.00  0.00    -0.545 OA
ENDBRANCH   8   9
ENDBRANCH   1   7
BRANCH   4  12
ATOM     12  O   UNL     1      -6.999   4.018   9.718  1.00  0.00    -0.504 OA
ATOM     13  H   UNL     1      -6.555   4.883  10.002  1.00  0.00     0.293 HD
ENDBRANCH   4  12
BRANCH   6  14
ATOM     14  O   UNL     1      -8.150   1.564   8.925  1.00  0.00    -0.504 OA
ATOM     15  H   UNL     1      -7.194   1.316   9.152  1.00  0.00     0.293 HD
ENDBRANCH   6  14
TORSDOF 4
ENDMDL
MODEL 8
REMARK VINA RESULT:    -3.972     21.428     22.113
REMARK INTER + INTRA:          -4.804
REMARK INTER:                  -4.668
REMARK INTRA:                  -0.136
REMARK UNBOUND:                -0.136
REMARK SMILES O=C([O-])C=Cc1ccc(O)c(O)c1
REMARK SMILES IDX 6 1 13 2 7 3 11 4 8 5 9 6 5 7 4 8 2 9 1 10 3 11 12 12 10 14
REMARK H PARENT 12 13 10 15
REMARK Flexibility Score: inf
ROOT
ATOM      1  C   UNL     1       8.664  -1.685   7.034  1.00  0.00    -0.022 A 
ATOM      2  C   UNL     1       8.791  -1.778   5.638  1.00  0.00     0.058 A 
ATOM      3  C   UNL     1       8.519  -2.869   7.784  1.00  0.00     0.012 A 
ATOM      4  C   UNL     1       8.749  -3.021   4.996  1.00  0.00     0.157 A 
ATOM      5  C   UNL     1       8.476  -4.110   7.144  1.00  0.00     0.051 A 
ATOM      6  C   UNL     1       8.587  -4.194   5.750  1.00  0.00     0.157 A 
ENDROOT
BRANCH   1   7
ATOM      7  C   UNL     1       8.726  -0.343   7.665  1.00  0.00     0.010 C 
ATOM      8  C   UNL     1       8.068  -0.015   8.787  1.00  0.00     0.025 C 
BRANCH   8   9
ATOM      9  C   UNL     1       8.145   1.331   9.377  1.00  0.00     0.064 C 
ATOM     10  O   UNL     1       9.210   1.755   9.900  1.00  0.00    -0.545 OA
ATOM     11  O   UNL     1       7.022   2.148   9.360  1.00  0.00    -0.545 OA
ENDBRANCH   8   9
ENDBRANCH   1   7
BRANCH   4  12
ATOM     12  O   UNL     1       8.868  -3.069   3.606  1.00  0.00    -0.504 OA
ATOM     13  H   UNL     1       9.696  -3.432   3.149  1.00  0.00     0.293 HD
ENDBRANCH   4  12
BRANCH   6  14
ATOM     14  O   UNL     1       8.544  -5.434   5.116  1.00  0.00    -0.504 OA
ATOM     15  H   UNL     1       7.758  -6.063   5.234  1.00  0.00     0.293 HD
ENDBRANCH   6  14
TORSDOF 4
ENDMDL
MODEL 9
REMARK VINA RESULT:    -3.849     14.891     15.733
REMARK INTER + INTRA:          -4.660
REMARK INTER:                  -4.521
REMARK INTRA:                  -0.139
REMARK UNBOUND:                -0.136
REMARK SMILES O=C([O-])C=Cc1ccc(O)c(O)c1
REMARK SMILES IDX 6 1 13 2 7 3 11 4 8 5 9 6 5 7 4 8 2 9 1 10 3 11 12 12 10 14
REMARK H PARENT 12 13 10 15
REMARK Flexibility Score: inf
ROOT
ATOM      1  C   UNL     1      -8.727   4.468   7.662  1.00  0.00    -0.022 A 
ATOM      2  C   UNL     1      -9.318   3.226   7.375  1.00  0.00     0.058 A 
ATOM      3  C   UNL     1      -7.870   4.572   8.775  1.00  0.00     0.012 A 
ATOM      4  C   UNL     1      -9.082   2.114   8.191  1.00  0.00     0.157 A 
ATOM      5  C   UNL     1      -7.634   3.462   9.592  1.00  0.00     0.051 A 
ATOM      6  C   UNL     1      -8.239   2.231   9.308  1.00  0.00     0.157 A 
ENDROOT
BRANCH   1   7
ATOM      7  C   UNL     1      -9.003   5.611   6.757  1.00  0.00     0.010 C 
ATOM      8  C   UNL     1      -8.793   6.893   7.090  1.00  0.00     0.025 C 
BRANCH   8   9
ATOM      9  C   UNL     1      -9.089   8.002   6.169  1.00  0.00     0.064 C 
ATOM     10  O   UNL     1      -8.641   9.161   6.377  1.00  0.00    -0.545 OA
ATOM     11  O   UNL     1      -9.879   7.768   5.051  1.00  0.00    -0.545 OA
ENDBRANCH   8   9
ENDBRANCH   1   7
BRANCH   4  12
ATOM     12  O   UNL     1      -9.696   0.901   7.878  1.00  0.00    -0.504 OA
ATOM     13  H   UNL     1      -9.381   0.320   7.109  1.00  0.00     0.293 HD
ENDBRANCH   4  12
BRANCH   6  14
ATOM     14  O   UNL     1      -8.001   1.128  10.125  1.00  0.00    -0.504 OA
ATOM     15  H   UNL     1      -8.754   0.527  10.438  1.00  0.00     0.293 HD
ENDBRANCH   6  14
TORSDOF 4
ENDMDL
