MODEL 1
REMARK VINA RESULT:    -4.466      0.000      0.000
REMARK INTER + INTRA:          -8.848
REMARK INTER:                  -7.598
REMARK INTRA:                  -1.250
REMARK UNBOUND:                -1.250
REMARK SMILES CCCCCCCCCCCCCC(=O)[O-]
REMARK SMILES IDX 8 1 9 2 10 3 11 4 12 5 13 6 14 7 15 8 16 9 7 10 6 11 5 12
REMARK SMILES IDX 4 13 3 14 2 15 1 16
REMARK H PARENT
REMARK Flexibility Score: inf
ROOT
ATOM      1  C   UNL     1     126.166 143.278 139.323  1.00  0.00     0.000 C 
ENDROOT
BRANCH   1   2
ATOM      2  C   UNL     1     126.755 142.806 137.984  1.00  0.00     0.000 C 
BRANCH   2   3
ATOM      3  C   UNL     1     125.985 143.354 136.771  1.00  0.00     0.000 C 
BRANCH   3   4
ATOM      4  C   UNL     1     125.408 142.237 135.884  1.00  0.00     0.000 C 
BRANCH   4   5
ATOM      5  C   UNL     1     125.507 140.847 136.546  1.00  0.00     0.006 C 
BRANCH   5   6
ATOM      6  C   UNL     1     124.806 139.733 135.751  1.00  0.00     0.053 C 
BRANCH   6   7
ATOM      7  C   UNL     1     125.503 138.415 135.876  1.00  0.00     0.041 C 
ATOM      8  O   UNL     1     125.996 137.860 134.857  1.00  0.00    -0.550 OA
ATOM      9  O   UNL     1     125.629 137.810 137.121  1.00  0.00    -0.550 OA
ENDBRANCH   6   7
ENDBRANCH   5   6
ENDBRANCH   4   5
ENDBRANCH   3   4
ENDBRANCH   2   3
ENDBRANCH   1   2
BRANCH   1  10
ATOM     10  C   UNL     1     127.281 143.599 140.329  1.00  0.00     0.000 C 
BRANCH  10  11
ATOM     11  C   UNL     1     127.887 142.340 140.974  1.00  0.00    -0.000 C 
BRANCH  11  12
ATOM     12  C   UNL     1     129.375 142.459 141.363  1.00  0.00    -0.000 C 
BRANCH  12  13
ATOM     13  C   UNL     1     130.334 141.561 140.556  1.00  0.00    -0.000 C 
BRANCH  13  14
ATOM     14  C   UNL     1     130.090 141.548 139.034  1.00  0.00    -0.000 C 
BRANCH  14  15
ATOM     15  C   UNL     1     130.070 140.149 138.393  1.00  0.00    -0.003 C 
ATOM     16  C   UNL     1     128.655 139.623 138.154  1.00  0.00     0.004 C 
ENDBRANCH  14  15
ENDBRANCH  13  14
ENDBRANCH  12  13
ENDBRANCH  11  12
ENDBRANCH  10  11
ENDBRANCH   1  10
TORSDOF 12
ENDMDL
MODEL 2
REMARK VINA RESULT:    -4.457      9.498     12.414
REMARK INTER + INTRA:          -8.834
REMARK INTER:                  -7.387
REMARK INTRA:                  -1.447
REMARK UNBOUND:                -1.250
REMARK SMILES CCCCCCCCCCCCCC(=O)[O-]
REMARK SMILES IDX 8 1 9 2 10 3 11 4 12 5 13 6 14 7 15 8 16 9 7 10 6 11 5 12
REMARK SMILES IDX 4 13 3 14 2 15 1 16
REMARK H PARENT
REMARK Flexibility Score: inf
ROOT
ATOM      1  C   UNL     1     137.814 136.869 139.198  1.00  0.00     0.000 C 
ENDROOT
BRANCH   1   2
ATOM      2  C   UNL     1     136.967 136.443 140.408  1.00  0.00     0.000 C 
BRANCH   2   3
ATOM      3  C   UNL     1     135.942 137.513 140.819  1.00  0.00     0.000 C 
BRANCH   3   4
ATOM      4  C   UNL     1     136.572 138.647 141.647  1.00  0.00     0.000 C 
BRANCH   4   5
ATOM      5  C   UNL     1     136.559 139.999 140.902  1.00  0.00     0.006 C 
BRANCH   5   6
ATOM      6  C   UNL     1     136.215 141.196 141.803  1.00  0.00     0.053 C 
BRANCH   6   7
ATOM      7  C   UNL     1     134.799 141.650 141.637  1.00  0.00     0.041 C 
ATOM      8  O   UNL     1     133.881 140.805 141.454  1.00  0.00    -0.550 OA
ATOM      9  O   UNL     1     134.489 143.002 141.709  1.00  0.00    -0.550 OA
ENDBRANCH   6   7
ENDBRANCH   5   6
ENDBRANCH   4   5
ENDBRANCH   3   4
ENDBRANCH   2   3
ENDBRANCH   1   2
BRANCH   1  10
ATOM     10  C   UNL     1     139.287 137.046 139.595  1.00  0.00     0.000 C 
BRANCH  10  11
ATOM     11  C   UNL     1     139.687 136.192 140.812  1.00  0.00    -0.000 C 
BRANCH  11  12
ATOM     12  C   UNL     1     140.946 135.323 140.613  1.00  0.00    -0.000 C 
BRANCH  12  13
ATOM     13  C   UNL     1     140.783 134.157 139.618  1.00  0.00    -0.000 C 
BRANCH  13  14
ATOM     14  C   UNL     1     139.494 133.329 139.790  1.00  0.00    -0.000 C 
BRANCH  14  15
ATOM     15  C   UNL     1     138.571 133.304 138.558  1.00  0.00    -0.003 C 
ATOM     16  C   UNL     1     139.235 133.869 137.303  1.00  0.00     0.004 C 
ENDBRANCH  14  15
ENDBRANCH  13  14
ENDBRANCH  12  13
ENDBRANCH  11  12
ENDBRANCH  10  11
ENDBRANCH   1  10
TORSDOF 12
ENDMDL
MODEL 3
REMARK VINA RESULT:    -4.437      3.246      5.426
REMARK INTER + INTRA:          -8.799
REMARK INTER:                  -7.305
REMARK INTRA:                  -1.494
REMARK UNBOUND:                -1.250
REMARK SMILES CCCCCCCCCCCCCC(=O)[O-]
REMARK SMILES IDX 8 1 9 2 10 3 11 4 12 5 13 6 14 7 15 8 16 9 7 10 6 11 5 12
REMARK SMILES IDX 4 13 3 14 2 15 1 16
REMARK H PARENT
REMARK Flexibility Score: inf
ROOT
ATOM      1  C   UNL     1     131.157 140.746 141.316  1.00  0.00     0.000 C 
ENDROOT
BRANCH   1   2
ATOM      2  C   UNL     1     129.686 140.949 141.714  1.00  0.00     0.000 C 
BRANCH   2   3
ATOM      3  C   UNL     1     129.181 142.370 141.415  1.00  0.00     0.000 C 
BRANCH   3   4
ATOM      4  C   UNL     1     127.753 142.380 140.840  1.00  0.00     0.000 C 
BRANCH   4   5
ATOM      5  C   UNL     1     127.690 142.988 139.423  1.00  0.00     0.006 C 
BRANCH   5   6
ATOM      6  C   UNL     1     126.293 143.494 139.030  1.00  0.00     0.053 C 
BRANCH   6   7
ATOM      7  C   UNL     1     126.153 144.974 139.192  1.00  0.00     0.041 C 
ATOM      8  O   UNL     1     126.367 145.512 140.312  1.00  0.00    -0.550 OA
ATOM      9  O   UNL     1     125.811 145.765 138.101  1.00  0.00    -0.550 OA
ENDBRANCH   6   7
ENDBRANCH   5   6
ENDBRANCH   4   5
ENDBRANCH   3   4
ENDBRANCH   2   3
ENDBRANCH   1   2
BRANCH   1  10
ATOM     10  C   UNL     1     131.519 141.610 140.100  1.00  0.00     0.000 C 
BRANCH  10  11
ATOM     11  C   UNL     1     131.257 140.899 138.760  1.00  0.00    -0.000 C 
BRANCH  11  12
ATOM     12  C   UNL     1     131.116 139.366 138.853  1.00  0.00    -0.000 C 
BRANCH  12  13
ATOM     13  C   UNL     1     129.869 138.782 138.161  1.00  0.00    -0.000 C 
BRANCH  13  14
ATOM     14  C   UNL     1     128.647 139.721 138.119  1.00  0.00    -0.000 C 
BRANCH  14  15
ATOM     15  C   UNL     1     127.368 139.095 137.533  1.00  0.00    -0.003 C 
ATOM     16  C   UNL     1     126.384 140.136 137.002  1.00  0.00     0.004 C 
ENDBRANCH  14  15
ENDBRANCH  13  14
ENDBRANCH  12  13
ENDBRANCH  11  12
ENDBRANCH  10  11
ENDBRANCH   1  10
TORSDOF 12
ENDMDL
MODEL 4
REMARK VINA RESULT:    -4.351      1.793      2.873
REMARK INTER + INTRA:          -8.653
REMARK INTER:                  -7.448
REMARK INTRA:                  -1.205
REMARK UNBOUND:                -1.250
REMARK SMILES CCCCCCCCCCCCCC(=O)[O-]
REMARK SMILES IDX 8 1 9 2 10 3 11 4 12 5 13 6 14 7 15 8 16 9 7 10 6 11 5 12
REMARK SMILES IDX 4 13 3 14 2 15 1 16
REMARK H PARENT
REMARK Flexibility Score: inf
ROOT
ATOM      1  C   UNL     1     128.635 142.409 140.468  1.00  0.00     0.000 C 
ENDROOT
BRANCH   1   2
ATOM      2  C   UNL     1     127.194 142.775 140.858  1.00  0.00     0.000 C 
BRANCH   2   3
ATOM      3  C   UNL     1     126.364 143.272 139.662  1.00  0.00     0.000 C 
BRANCH   3   4
ATOM      4  C   UNL     1     127.105 143.111 138.323  1.00  0.00     0.000 C 
BRANCH   4   5
ATOM      5  C   UNL     1     126.145 143.107 137.114  1.00  0.00     0.006 C 
BRANCH   5   6
ATOM      6  C   UNL     1     125.746 141.697 136.649  1.00  0.00     0.053 C 
BRANCH   6   7
ATOM      7  C   UNL     1     124.714 141.722 135.565  1.00  0.00     0.041 C 
ATOM      8  O   UNL     1     124.295 142.822 135.116  1.00  0.00    -0.550 OA
ATOM      9  O   UNL     1     124.233 140.531 135.035  1.00  0.00    -0.550 OA
ENDBRANCH   6   7
ENDBRANCH   5   6
ENDBRANCH   4   5
ENDBRANCH   3   4
ENDBRANCH   2   3
ENDBRANCH   1   2
BRANCH   1  10
ATOM     10  C   UNL     1     129.508 142.214 141.716  1.00  0.00     0.000 C 
BRANCH  10  11
ATOM     11  C   UNL     1     130.529 141.073 141.561  1.00  0.00    -0.000 C 
BRANCH  11  12
ATOM     12  C   UNL     1     131.726 141.391 140.641  1.00  0.00    -0.000 C 
BRANCH  12  13
ATOM     13  C   UNL     1     131.929 140.408 139.471  1.00  0.00    -0.000 C 
BRANCH  13  14
ATOM     14  C   UNL     1     130.874 140.501 138.351  1.00  0.00    -0.000 C 
BRANCH  14  15
ATOM     15  C   UNL     1     129.966 139.265 138.211  1.00  0.00    -0.003 C 
ATOM     16  C   UNL     1     128.483 139.622 138.124  1.00  0.00     0.004 C 
ENDBRANCH  14  15
ENDBRANCH  13  14
ENDBRANCH  12  13
ENDBRANCH  11  12
ENDBRANCH  10  11
ENDBRANCH   1  10
TORSDOF 12
ENDMDL
MODEL 5
REMARK VINA RESULT:    -4.348      3.150      5.268
REMARK INTER + INTRA:          -8.648
REMARK INTER:                  -6.868
REMARK INTRA:                  -1.780
REMARK UNBOUND:                -1.250
REMARK SMILES CCCCCCCCCCCCCC(=O)[O-]
REMARK SMILES IDX 8 1 9 2 10 3 11 4 12 5 13 6 14 7 15 8 16 9 7 10 6 11 5 12
REMARK SMILES IDX 4 13 3 14 2 15 1 16
REMARK H PARENT
REMARK Flexibility Score: inf
ROOT
ATOM      1  C   UNL     1     130.420 140.616 141.927  1.00  0.00     0.000 C 
ENDROOT
BRANCH   1   2
ATOM      2  C   UNL     1     128.957 140.185 142.123  1.00  0.00     0.000 C 
BRANCH   2   3
ATOM      3  C   UNL     1     127.963 141.332 141.875  1.00  0.00     0.000 C 
BRANCH   3   4
ATOM      4  C   UNL     1     128.574 142.472 141.040  1.00  0.00     0.000 C 
BRANCH   4   5
ATOM      5  C   UNL     1     127.756 142.775 139.767  1.00  0.00     0.006 C 
BRANCH   5   6
ATOM      6  C   UNL     1     126.565 143.718 140.008  1.00  0.00     0.053 C 
BRANCH   6   7
ATOM      7  C   UNL     1     126.179 144.478 138.778  1.00  0.00     0.041 C 
ATOM      8  O   UNL     1     125.989 145.723 138.837  1.00  0.00    -0.550 OA
ATOM      9  O   UNL     1     126.053 143.816 137.563  1.00  0.00    -0.550 OA
ENDBRANCH   6   7
ENDBRANCH   5   6
ENDBRANCH   4   5
ENDBRANCH   3   4
ENDBRANCH   2   3
ENDBRANCH   1   2
BRANCH   1  10
ATOM     10  C   UNL     1     131.176 139.607 141.051  1.00  0.00     0.000 C 
BRANCH  10  11
ATOM     11  C   UNL     1     131.821 140.253 139.812  1.00  0.00    -0.000 C 
BRANCH  11  12
ATOM     12  C   UNL     1     130.836 140.625 138.684  1.00  0.00    -0.000 C 
BRANCH  12  13
ATOM     13  C   UNL     1     130.566 139.506 137.659  1.00  0.00    -0.000 C 
BRANCH  13  14
ATOM     14  C   UNL     1     129.078 139.264 137.335  1.00  0.00    -0.000 C 
BRANCH  14  15
ATOM     15  C   UNL     1     128.150 139.201 138.562  1.00  0.00    -0.003 C 
ATOM     16  C   UNL     1     128.266 137.886 139.331  1.00  0.00     0.004 C 
ENDBRANCH  14  15
ENDBRANCH  13  14
ENDBRANCH  12  13
ENDBRANCH  11  12
ENDBRANCH  10  11
ENDBRANCH   1  10
TORSDOF 12
ENDMDL
MODEL 6
REMARK VINA RESULT:    -4.240      9.591     12.112
REMARK INTER + INTRA:          -8.464
REMARK INTER:                  -6.873
REMARK INTRA:                  -1.591
REMARK UNBOUND:                -1.250
REMARK SMILES CCCCCCCCCCCCCC(=O)[O-]
REMARK SMILES IDX 8 1 9 2 10 3 11 4 12 5 13 6 14 7 15 8 16 9 7 10 6 11 5 12
REMARK SMILES IDX 4 13 3 14 2 15 1 16
REMARK H PARENT
REMARK Flexibility Score: inf
ROOT
ATOM      1  C   UNL     1     137.824 136.330 139.533  1.00  0.00     0.000 C 
ENDROOT
BRANCH   1   2
ATOM      2  C   UNL     1     136.812 135.983 140.638  1.00  0.00     0.000 C 
BRANCH   2   3
ATOM      3  C   UNL     1     135.790 134.923 140.194  1.00  0.00     0.000 C 
BRANCH   3   4
ATOM      4  C   UNL     1     134.416 135.532 139.861  1.00  0.00     0.000 C 
BRANCH   4   5
ATOM      5  C   UNL     1     134.351 137.043 140.164  1.00  0.00     0.006 C 
BRANCH   5   6
ATOM      6  C   UNL     1     134.211 137.919 138.908  1.00  0.00     0.053 C 
BRANCH   6   7
ATOM      7  C   UNL     1     135.413 138.779 138.674  1.00  0.00     0.041 C 
ATOM      8  O   UNL     1     135.993 138.766 137.555  1.00  0.00    -0.550 OA
ATOM      9  O   UNL     1     135.877 139.616 139.682  1.00  0.00    -0.550 OA
ENDBRANCH   6   7
ENDBRANCH   5   6
ENDBRANCH   4   5
ENDBRANCH   3   4
ENDBRANCH   2   3
ENDBRANCH   1   2
BRANCH   1  10
ATOM     10  C   UNL     1     139.089 136.965 140.128  1.00  0.00     0.000 C 
BRANCH  10  11
ATOM     11  C   UNL     1     139.588 136.238 141.390  1.00  0.00    -0.000 C 
BRANCH  11  12
ATOM     12  C   UNL     1     140.425 134.970 141.123  1.00  0.00    -0.000 C 
BRANCH  12  13
ATOM     13  C   UNL     1     139.643 133.644 141.200  1.00  0.00    -0.000 C 
BRANCH  13  14
ATOM     14  C   UNL     1     139.357 132.976 139.840  1.00  0.00    -0.000 C 
BRANCH  14  15
ATOM     15  C   UNL     1     140.313 133.385 138.704  1.00  0.00    -0.003 C 
ATOM     16  C   UNL     1     139.581 133.761 137.416  1.00  0.00     0.004 C 
ENDBRANCH  14  15
ENDBRANCH  13  14
ENDBRANCH  12  13
ENDBRANCH  11  12
ENDBRANCH  10  11
ENDBRANCH   1  10
TORSDOF 12
ENDMDL
MODEL 7
REMARK VINA RESULT:    -4.232      1.130      4.312
REMARK INTER + INTRA:          -8.451
REMARK INTER:                  -7.197
REMARK INTRA:                  -1.254
REMARK UNBOUND:                -1.250
REMARK SMILES CCCCCCCCCCCCCC(=O)[O-]
REMARK SMILES IDX 8 1 9 2 10 3 11 4 12 5 13 6 14 7 15 8 16 9 7 10 6 11 5 12
REMARK SMILES IDX 4 13 3 14 2 15 1 16
REMARK H PARENT
REMARK Flexibility Score: inf
ROOT
ATOM      1  C   UNL     1     129.093 142.749 141.369  1.00  0.00     0.000 C 
ENDROOT
BRANCH   1   2
ATOM      2  C   UNL     1     130.209 141.765 140.984  1.00  0.00     0.000 C 
BRANCH   2   3
ATOM      3  C   UNL     1     129.687 140.558 140.188  1.00  0.00     0.000 C 
BRANCH   3   4
ATOM      4  C   UNL     1     130.249 140.508 138.756  1.00  0.00     0.000 C 
BRANCH   4   5
ATOM      5  C   UNL     1     129.545 139.449 137.882  1.00  0.00     0.006 C 
BRANCH   5   6
ATOM      6  C   UNL     1     128.095 139.163 138.306  1.00  0.00     0.053 C 
BRANCH   6   7
ATOM      7  C   UNL     1     127.544 137.927 137.668  1.00  0.00     0.041 C 
ATOM      8  O   UNL     1     126.574 138.006 136.868  1.00  0.00    -0.550 OA
ATOM      9  O   UNL     1     128.120 136.691 137.936  1.00  0.00    -0.550 OA
ENDBRANCH   6   7
ENDBRANCH   5   6
ENDBRANCH   4   5
ENDBRANCH   3   4
ENDBRANCH   2   3
ENDBRANCH   1   2
BRANCH   1  10
ATOM     10  C   UNL     1     127.739 142.289 140.810  1.00  0.00     0.000 C 
BRANCH  10  11
ATOM     11  C   UNL     1     127.169 143.251 139.752  1.00  0.00    -0.000 C 
BRANCH  11  12
ATOM     12  C   UNL     1     126.905 142.618 138.370  1.00  0.00    -0.000 C 
BRANCH  12  13
ATOM     13  C   UNL     1     126.187 143.534 137.360  1.00  0.00    -0.000 C 
BRANCH  13  14
ATOM     14  C   UNL     1     125.625 142.817 136.116  1.00  0.00    -0.000 C 
BRANCH  14  15
ATOM     15  C   UNL     1     125.411 141.301 136.283  1.00  0.00    -0.003 C 
ATOM     16  C   UNL     1     124.338 140.744 135.348  1.00  0.00     0.004 C 
ENDBRANCH  14  15
ENDBRANCH  13  14
ENDBRANCH  12  13
ENDBRANCH  11  12
ENDBRANCH  10  11
ENDBRANCH   1  10
TORSDOF 12
ENDMDL
MODEL 8
REMARK VINA RESULT:    -4.211      9.628     12.597
REMARK INTER + INTRA:          -8.414
REMARK INTER:                  -7.130
REMARK INTRA:                  -1.285
REMARK UNBOUND:                -1.250
REMARK SMILES CCCCCCCCCCCCCC(=O)[O-]
REMARK SMILES IDX 8 1 9 2 10 3 11 4 12 5 13 6 14 7 15 8 16 9 7 10 6 11 5 12
REMARK SMILES IDX 4 13 3 14 2 15 1 16
REMARK H PARENT
REMARK Flexibility Score: inf
ROOT
ATOM      1  C   UNL     1     137.796 137.054 139.231  1.00  0.00     0.000 C 
ENDROOT
BRANCH   1   2
ATOM      2  C   UNL     1     139.020 137.107 140.160  1.00  0.00     0.000 C 
BRANCH   2   3
ATOM      3  C   UNL     1     140.226 136.336 139.597  1.00  0.00     0.000 C 
BRANCH   3   4
ATOM      4  C   UNL     1     140.662 135.176 140.510  1.00  0.00     0.000 C 
BRANCH   4   5
ATOM      5  C   UNL     1     139.589 134.072 140.614  1.00  0.00     0.006 C 
BRANCH   5   6
ATOM      6  C   UNL     1     139.661 133.032 139.483  1.00  0.00     0.053 C 
BRANCH   6   7
ATOM      7  C   UNL     1     138.698 133.324 138.376  1.00  0.00     0.041 C 
ATOM      8  O   UNL     1     137.485 133.001 138.491  1.00  0.00    -0.550 OA
ATOM      9  O   UNL     1     139.134 133.973 137.227  1.00  0.00    -0.550 OA
ENDBRANCH   6   7
ENDBRANCH   5   6
ENDBRANCH   4   5
ENDBRANCH   3   4
ENDBRANCH   2   3
ENDBRANCH   1   2
BRANCH   1  10
ATOM     10  C   UNL     1     136.579 136.469 139.961  1.00  0.00     0.000 C 
BRANCH  10  11
ATOM     11  C   UNL     1     136.544 136.835 141.456  1.00  0.00    -0.000 C 
BRANCH  11  12
ATOM     12  C   UNL     1     135.266 137.564 141.919  1.00  0.00    -0.000 C 
BRANCH  12  13
ATOM     13  C   UNL     1     135.241 139.079 141.637  1.00  0.00    -0.000 C 
BRANCH  13  14
ATOM     14  C   UNL     1     136.626 139.753 141.577  1.00  0.00    -0.000 C 
BRANCH  14  15
ATOM     15  C   UNL     1     136.597 141.272 141.326  1.00  0.00    -0.003 C 
ATOM     16  C   UNL     1     135.305 141.931 141.805  1.00  0.00     0.004 C 
ENDBRANCH  14  15
ENDBRANCH  13  14
ENDBRANCH  12  13
ENDBRANCH  11  12
ENDBRANCH  10  11
ENDBRANCH   1  10
TORSDOF 12
ENDMDL
MODEL 9
REMARK VINA RESULT:    -4.204     10.043     12.863
REMARK INTER + INTRA:          -8.402
REMARK INTER:                  -7.041
REMARK INTRA:                  -1.361
REMARK UNBOUND:                -1.250
REMARK SMILES CCCCCCCCCCCCCC(=O)[O-]
REMARK SMILES IDX 8 1 9 2 10 3 11 4 12 5 13 6 14 7 15 8 16 9 7 10 6 11 5 12
REMARK SMILES IDX 4 13 3 14 2 15 1 16
REMARK H PARENT
REMARK Flexibility Score: inf
ROOT
ATOM      1  C   UNL     1     136.938 134.525 140.595  1.00  0.00     0.000 C 
ENDROOT
BRANCH   1   2
ATOM      2  C   UNL     1     137.221 135.961 140.127  1.00  0.00     0.000 C 
BRANCH   2   3
ATOM      3  C   UNL     1     137.465 136.929 141.297  1.00  0.00     0.000 C 
BRANCH   3   4
ATOM      4  C   UNL     1     136.265 137.859 141.552  1.00  0.00     0.000 C 
BRANCH   4   5
ATOM      5  C   UNL     1     136.558 139.322 141.161  1.00  0.00     0.006 C 
BRANCH   5   6
ATOM      6  C   UNL     1     135.358 140.264 141.349  1.00  0.00     0.053 C 
BRANCH   6   7
ATOM      7  C   UNL     1     135.774 141.673 141.631  1.00  0.00     0.041 C 
ATOM      8  O   UNL     1     136.997 141.968 141.715  1.00  0.00    -0.550 OA
ATOM      9  O   UNL     1     134.813 142.667 141.776  1.00  0.00    -0.550 OA
ENDBRANCH   6   7
ENDBRANCH   5   6
ENDBRANCH   4   5
ENDBRANCH   3   4
ENDBRANCH   2   3
ENDBRANCH   1   2
BRANCH   1  10
ATOM     10  C   UNL     1     137.692 134.213 141.896  1.00  0.00     0.000 C 
BRANCH  10  11
ATOM     11  C   UNL     1     139.071 133.573 141.651  1.00  0.00    -0.000 C 
BRANCH  11  12
ATOM     12  C   UNL     1     140.265 134.545 141.741  1.00  0.00    -0.000 C 
BRANCH  12  13
ATOM     13  C   UNL     1     140.937 134.879 140.394  1.00  0.00    -0.000 C 
BRANCH  13  14
ATOM     14  C   UNL     1     140.647 133.880 139.256  1.00  0.00    -0.000 C 
BRANCH  14  15
ATOM     15  C   UNL     1     139.878 134.467 138.059  1.00  0.00    -0.003 C 
ATOM     16  C   UNL     1     138.726 133.577 137.595  1.00  0.00     0.004 C 
ENDBRANCH  14  15
ENDBRANCH  13  14
ENDBRANCH  12  13
ENDBRANCH  11  12
ENDBRANCH  10  11
ENDBRANCH   1  10
TORSDOF 12
ENDMDL
