MODEL 1
REMARK VINA RESULT:    -3.647      0.000      0.000
REMARK INTER + INTRA:         -11.157
REMARK INTER:                  -7.911
REMARK INTRA:                  -3.246
REMARK UNBOUND:                -3.246
REMARK SMILES CCCCCCCCCCCCCCCCCCCCCC(=O)[O-]
REMARK SMILES IDX 12 1 11 2 10 3 9 4 8 5 7 6 6 7 5 8 4 9 3 10 2 11 1 12 13 13
REMARK SMILES IDX 14 14 15 15 16 16 17 17 18 18 19 19 20 20 21 21 22 22 23 23
REMARK SMILES IDX 24 24
REMARK H PARENT
REMARK Flexibility Score: inf
ROOT
ATOM      1  C   UNL     1      32.516  13.463 -16.126  1.00  0.00     0.000 C 
ENDROOT
BRANCH   1   2
ATOM      2  C   UNL     1      33.725  14.373 -16.402  1.00  0.00     0.000 C 
BRANCH   2   3
ATOM      3  C   UNL     1      34.572  13.882 -17.596  1.00  0.00     0.000 C 
BRANCH   3   4
ATOM      4  C   UNL     1      34.007  14.277 -18.972  1.00  0.00    -0.000 C 
BRANCH   4   5
ATOM      5  C   UNL     1      34.958  15.178 -19.772  1.00  0.00    -0.000 C 
BRANCH   5   6
ATOM      6  C   UNL     1      34.480  16.639 -19.848  1.00  0.00    -0.000 C 
BRANCH   6   7
ATOM      7  C   UNL     1      34.382  17.334 -18.472  1.00  0.00    -0.000 C 
BRANCH   7   8
ATOM      8  C   UNL     1      33.208  18.323 -18.403  1.00  0.00    -0.000 C 
BRANCH   8   9
ATOM      9  C   UNL     1      31.944  17.811 -19.123  1.00  0.00    -0.000 C 
BRANCH   9  10
ATOM     10  C   UNL     1      31.305  16.555 -18.505  1.00  0.00    -0.000 C 
BRANCH  10  11
ATOM     11  C   UNL     1      30.434  15.773 -19.499  1.00  0.00    -0.003 C 
ATOM     12  C   UNL     1      30.389  14.288 -19.147  1.00  0.00     0.004 C 
ENDBRANCH  10  11
ENDBRANCH   9  10
ENDBRANCH   8   9
ENDBRANCH   7   8
ENDBRANCH   6   7
ENDBRANCH   5   6
ENDBRANCH   4   5
ENDBRANCH   3   4
ENDBRANCH   2   3
ENDBRANCH   1   2
BRANCH   1  13
ATOM     13  C   UNL     1      31.292  14.237 -15.603  1.00  0.00     0.000 C 
BRANCH  13  14
ATOM     14  C   UNL     1      30.162  13.364 -15.015  1.00  0.00     0.000 C 
BRANCH  14  15
ATOM     15  C   UNL     1      29.035  12.989 -15.997  1.00  0.00     0.000 C 
BRANCH  15  16
ATOM     16  C   UNL     1      27.745  13.795 -15.771  1.00  0.00     0.000 C 
BRANCH  16  17
ATOM     17  C   UNL     1      27.643  15.022 -16.697  1.00  0.00     0.000 C 
BRANCH  17  18
ATOM     18  C   UNL     1      28.343  16.293 -16.175  1.00  0.00     0.000 C 
BRANCH  18  19
ATOM     19  C   UNL     1      28.158  17.547 -17.053  1.00  0.00     0.000 C 
BRANCH  19  20
ATOM     20  C   UNL     1      27.287  17.342 -18.306  1.00  0.00     0.006 C 
BRANCH  20  21
ATOM     21  C   UNL     1      26.068  18.273 -18.346  1.00  0.00     0.053 C 
BRANCH  21  22
ATOM     22  C   UNL     1      26.445  19.659 -17.927  1.00  0.00     0.041 C 
ATOM     23  O   UNL     1      27.077  20.407 -18.720  1.00  0.00    -0.550 OA
ATOM     24  O   UNL     1      26.084  20.134 -16.672  1.00  0.00    -0.550 OA
ENDBRANCH  21  22
ENDBRANCH  20  21
ENDBRANCH  19  20
ENDBRANCH  18  19
ENDBRANCH  17  18
ENDBRANCH  16  17
ENDBRANCH  15  16
ENDBRANCH  14  15
ENDBRANCH  13  14
ENDBRANCH   1  13
TORSDOF 20
ENDMDL
MODEL 2
REMARK VINA RESULT:    -3.585      1.681      4.159
REMARK INTER + INTRA:         -11.023
REMARK INTER:                  -8.237
REMARK INTRA:                  -2.786
REMARK UNBOUND:                -3.246
REMARK SMILES CCCCCCCCCCCCCCCCCCCCCC(=O)[O-]
REMARK SMILES IDX 12 1 11 2 10 3 9 4 8 5 7 6 6 7 5 8 4 9 3 10 2 11 1 12 13 13
REMARK SMILES IDX 14 14 15 15 16 16 17 17 18 18 19 19 20 20 21 21 22 22 23 23
REMARK SMILES IDX 24 24
REMARK H PARENT
REMARK Flexibility Score: inf
ROOT
ATOM      1  C   UNL     1      32.834  18.066 -18.647  1.00  0.00     0.000 C 
ENDROOT
BRANCH   1   2
ATOM      2  C   UNL     1      34.211  17.495 -18.267  1.00  0.00     0.000 C 
BRANCH   2   3
ATOM      3  C   UNL     1      34.584  16.251 -19.102  1.00  0.00     0.000 C 
BRANCH   3   4
ATOM      4  C   UNL     1      34.521  14.927 -18.320  1.00  0.00    -0.000 C 
BRANCH   4   5
ATOM      5  C   UNL     1      34.467  15.133 -16.800  1.00  0.00    -0.000 C 
BRANCH   5   6
ATOM      6  C   UNL     1      33.672  14.034 -16.073  1.00  0.00    -0.000 C 
BRANCH   6   7
ATOM      7  C   UNL     1      32.278  13.769 -16.680  1.00  0.00    -0.000 C 
BRANCH   7   8
ATOM      8  C   UNL     1      31.143  14.257 -15.765  1.00  0.00    -0.000 C 
BRANCH   8   9
ATOM      9  C   UNL     1      30.089  15.102 -16.507  1.00  0.00    -0.000 C 
BRANCH   9  10
ATOM     10  C   UNL     1      28.891  15.552 -15.651  1.00  0.00    -0.000 C 
BRANCH  10  11
ATOM     11  C   UNL     1      27.556  14.966 -16.133  1.00  0.00    -0.003 C 
ATOM     12  C   UNL     1      27.605  14.623 -17.619  1.00  0.00     0.004 C 
ENDBRANCH  10  11
ENDBRANCH   9  10
ENDBRANCH   8   9
ENDBRANCH   7   8
ENDBRANCH   6   7
ENDBRANCH   5   6
ENDBRANCH   4   5
ENDBRANCH   3   4
ENDBRANCH   2   3
ENDBRANCH   1   2
BRANCH   1  13
ATOM     13  C   UNL     1      31.811  16.971 -19.005  1.00  0.00     0.000 C 
BRANCH  13  14
ATOM     14  C   UNL     1      30.684  17.411 -19.964  1.00  0.00     0.000 C 
BRANCH  14  15
ATOM     15  C   UNL     1      29.262  17.382 -19.373  1.00  0.00     0.000 C 
BRANCH  15  16
ATOM     16  C   UNL     1      29.097  18.302 -18.152  1.00  0.00     0.000 C 
BRANCH  16  17
ATOM     17  C   UNL     1      27.621  18.517 -17.768  1.00  0.00     0.000 C 
BRANCH  17  18
ATOM     18  C   UNL     1      26.954  19.751 -18.408  1.00  0.00     0.000 C 
BRANCH  18  19
ATOM     19  C   UNL     1      26.256  19.490 -19.758  1.00  0.00     0.000 C 
BRANCH  19  20
ATOM     20  C   UNL     1      25.789  18.039 -19.979  1.00  0.00     0.006 C 
BRANCH  20  21
ATOM     21  C   UNL     1      24.295  17.842 -19.688  1.00  0.00     0.053 C 
BRANCH  21  22
ATOM     22  C   UNL     1      24.084  17.391 -18.278  1.00  0.00     0.041 C 
ATOM     23  O   UNL     1      24.432  16.231 -17.928  1.00  0.00    -0.550 OA
ATOM     24  O   UNL     1      23.523  18.253 -17.344  1.00  0.00    -0.550 OA
ENDBRANCH  21  22
ENDBRANCH  20  21
ENDBRANCH  19  20
ENDBRANCH  18  19
ENDBRANCH  17  18
ENDBRANCH  16  17
ENDBRANCH  15  16
ENDBRANCH  14  15
ENDBRANCH  13  14
ENDBRANCH   1  13
TORSDOF 20
ENDMDL
MODEL 3
REMARK VINA RESULT:    -3.516      2.155      5.825
REMARK INTER + INTRA:         -10.873
REMARK INTER:                  -8.018
REMARK INTRA:                  -2.855
REMARK UNBOUND:                -3.246
REMARK SMILES CCCCCCCCCCCCCCCCCCCCCC(=O)[O-]
REMARK SMILES IDX 12 1 11 2 10 3 9 4 8 5 7 6 6 7 5 8 4 9 3 10 2 11 1 12 13 13
REMARK SMILES IDX 14 14 15 15 16 16 17 17 18 18 19 19 20 20 21 21 22 22 23 23
REMARK SMILES IDX 24 24
REMARK H PARENT
REMARK Flexibility Score: inf
ROOT
ATOM      1  C   UNL     1      33.798  18.307 -18.724  1.00  0.00     0.000 C 
ENDROOT
BRANCH   1   2
ATOM      2  C   UNL     1      32.320  18.402 -18.309  1.00  0.00     0.000 C 
BRANCH   2   3
ATOM      3  C   UNL     1      31.465  17.265 -18.910  1.00  0.00     0.000 C 
BRANCH   3   4
ATOM      4  C   UNL     1      30.000  17.656 -19.179  1.00  0.00    -0.000 C 
BRANCH   4   5
ATOM      5  C   UNL     1      28.996  16.684 -18.546  1.00  0.00    -0.000 C 
BRANCH   5   6
ATOM      6  C   UNL     1      28.267  17.279 -17.329  1.00  0.00    -0.000 C 
BRANCH   6   7
ATOM      7  C   UNL     1      28.279  18.823 -17.292  1.00  0.00    -0.000 C 
BRANCH   7   8
ATOM      8  C   UNL     1      26.915  19.424 -17.671  1.00  0.00    -0.000 C 
BRANCH   8   9
ATOM      9  C   UNL     1      26.731  19.590 -19.192  1.00  0.00    -0.000 C 
BRANCH   9  10
ATOM     10  C   UNL     1      25.681  18.660 -19.828  1.00  0.00    -0.000 C 
BRANCH  10  11
ATOM     11  C   UNL     1      24.916  17.823 -18.793  1.00  0.00    -0.003 C 
ATOM     12  C   UNL     1      25.103  16.329 -19.041  1.00  0.00     0.004 C 
ENDBRANCH  10  11
ENDBRANCH   9  10
ENDBRANCH   8   9
ENDBRANCH   7   8
ENDBRANCH   6   7
ENDBRANCH   5   6
ENDBRANCH   4   5
ENDBRANCH   3   4
ENDBRANCH   2   3
ENDBRANCH   1   2
BRANCH   1  13
ATOM     13  C   UNL     1      34.530  17.124 -18.063  1.00  0.00     0.000 C 
BRANCH  13  14
ATOM     14  C   UNL     1      34.596  15.834 -18.909  1.00  0.00     0.000 C 
BRANCH  14  15
ATOM     15  C   UNL     1      34.433  14.518 -18.124  1.00  0.00     0.000 C 
BRANCH  15  16
ATOM     16  C   UNL     1      34.004  14.737 -16.663  1.00  0.00     0.000 C 
BRANCH  16  17
ATOM     17  C   UNL     1      33.469  13.451 -16.005  1.00  0.00     0.000 C 
BRANCH  17  18
ATOM     18  C   UNL     1      31.978  13.157 -16.266  1.00  0.00     0.000 C 
BRANCH  18  19
ATOM     19  C   UNL     1      31.094  14.403 -16.482  1.00  0.00     0.000 C 
BRANCH  19  20
ATOM     20  C   UNL     1      30.015  14.629 -15.406  1.00  0.00     0.006 C 
BRANCH  20  21
ATOM     21  C   UNL     1      28.997  13.483 -15.332  1.00  0.00     0.053 C 
BRANCH  21  22
ATOM     22  C   UNL     1      27.752  13.830 -16.084  1.00  0.00     0.041 C 
ATOM     23  O   UNL     1      27.671  13.581 -17.317  1.00  0.00    -0.550 OA
ATOM     24  O   UNL     1      26.674  14.408 -15.426  1.00  0.00    -0.550 OA
ENDBRANCH  21  22
ENDBRANCH  20  21
ENDBRANCH  19  20
ENDBRANCH  18  19
ENDBRANCH  17  18
ENDBRANCH  16  17
ENDBRANCH  15  16
ENDBRANCH  14  15
ENDBRANCH  13  14
ENDBRANCH   1  13
TORSDOF 20
ENDMDL
MODEL 4
REMARK VINA RESULT:    -3.500      1.746      4.371
REMARK INTER + INTRA:         -10.839
REMARK INTER:                  -7.726
REMARK INTRA:                  -3.113
REMARK UNBOUND:                -3.246
REMARK SMILES CCCCCCCCCCCCCCCCCCCCCC(=O)[O-]
REMARK SMILES IDX 12 1 11 2 10 3 9 4 8 5 7 6 6 7 5 8 4 9 3 10 2 11 1 12 13 13
REMARK SMILES IDX 14 14 15 15 16 16 17 17 18 18 19 19 20 20 21 21 22 22 23 23
REMARK SMILES IDX 24 24
REMARK H PARENT
REMARK Flexibility Score: inf
ROOT
ATOM      1  C   UNL     1      27.644  14.822 -17.342  1.00  0.00     0.000 C 
ENDROOT
BRANCH   1   2
ATOM      2  C   UNL     1      28.444  13.756 -16.574  1.00  0.00     0.000 C 
BRANCH   2   3
ATOM      3  C   UNL     1      29.135  14.329 -15.317  1.00  0.00     0.000 C 
BRANCH   3   4
ATOM      4  C   UNL     1      30.658  14.112 -15.284  1.00  0.00    -0.000 C 
BRANCH   4   5
ATOM      5  C   UNL     1      31.125  12.999 -16.232  1.00  0.00    -0.000 C 
BRANCH   5   6
ATOM      6  C   UNL     1      32.502  13.279 -16.857  1.00  0.00    -0.000 C 
BRANCH   6   7
ATOM      7  C   UNL     1      33.449  14.086 -15.940  1.00  0.00    -0.000 C 
BRANCH   7   8
ATOM      8  C   UNL     1      34.625  14.701 -16.717  1.00  0.00    -0.000 C 
BRANCH   8   9
ATOM      9  C   UNL     1      34.174  15.552 -17.920  1.00  0.00    -0.000 C 
BRANCH   9  10
ATOM     10  C   UNL     1      34.655  17.014 -17.903  1.00  0.00    -0.000 C 
BRANCH  10  11
ATOM     11  C   UNL     1      33.980  17.881 -18.975  1.00  0.00    -0.003 C 
ATOM     12  C   UNL     1      33.182  19.020 -18.345  1.00  0.00     0.004 C 
ENDBRANCH  10  11
ENDBRANCH   9  10
ENDBRANCH   8   9
ENDBRANCH   7   8
ENDBRANCH   6   7
ENDBRANCH   5   6
ENDBRANCH   4   5
ENDBRANCH   3   4
ENDBRANCH   2   3
ENDBRANCH   1   2
BRANCH   1  13
ATOM     13  C   UNL     1      28.178  15.060 -18.766  1.00  0.00     0.000 C 
BRANCH  13  14
ATOM     14  C   UNL     1      29.712  15.183 -18.883  1.00  0.00     0.000 C 
BRANCH  14  15
ATOM     15  C   UNL     1      30.326  16.446 -18.249  1.00  0.00     0.000 C 
BRANCH  15  16
ATOM     16  C   UNL     1      29.641  17.744 -18.706  1.00  0.00     0.000 C 
BRANCH  16  17
ATOM     17  C   UNL     1      28.804  18.396 -17.589  1.00  0.00     0.000 C 
BRANCH  17  18
ATOM     18  C   UNL     1      27.422  18.918 -18.030  1.00  0.00     0.000 C 
BRANCH  18  19
ATOM     19  C   UNL     1      27.146  18.837 -19.545  1.00  0.00     0.000 C 
BRANCH  19  20
ATOM     20  C   UNL     1      25.781  18.232 -19.926  1.00  0.00     0.006 C 
BRANCH  20  21
ATOM     21  C   UNL     1      25.150  17.420 -18.787  1.00  0.00     0.053 C 
BRANCH  21  22
ATOM     22  C   UNL     1      23.767  17.907 -18.490  1.00  0.00     0.041 C 
ATOM     23  O   UNL     1      23.387  18.038 -17.296  1.00  0.00    -0.550 OA
ATOM     24  O   UNL     1      22.904  18.237 -19.528  1.00  0.00    -0.550 OA
ENDBRANCH  21  22
ENDBRANCH  20  21
ENDBRANCH  19  20
ENDBRANCH  18  19
ENDBRANCH  17  18
ENDBRANCH  16  17
ENDBRANCH  15  16
ENDBRANCH  14  15
ENDBRANCH  13  14
ENDBRANCH   1  13
TORSDOF 20
ENDMDL
MODEL 5
REMARK VINA RESULT:    -3.493      1.596      3.330
REMARK INTER + INTRA:         -10.824
REMARK INTER:                  -7.208
REMARK INTRA:                  -3.616
REMARK UNBOUND:                -3.246
REMARK SMILES CCCCCCCCCCCCCCCCCCCCCC(=O)[O-]
REMARK SMILES IDX 12 1 11 2 10 3 9 4 8 5 7 6 6 7 5 8 4 9 3 10 2 11 1 12 13 13
REMARK SMILES IDX 14 14 15 15 16 16 17 17 18 18 19 19 20 20 21 21 22 22 23 23
REMARK SMILES IDX 24 24
REMARK H PARENT
REMARK Flexibility Score: inf
ROOT
ATOM      1  C   UNL     1      31.298  15.117 -17.336  1.00  0.00     0.000 C 
ENDROOT
BRANCH   1   2
ATOM      2  C   UNL     1      30.736  15.020 -18.764  1.00  0.00     0.000 C 
BRANCH   2   3
ATOM      3  C   UNL     1      30.878  16.345 -19.545  1.00  0.00     0.000 C 
BRANCH   3   4
ATOM      4  C   UNL     1      31.474  17.500 -18.720  1.00  0.00    -0.000 C 
BRANCH   4   5
ATOM      5  C   UNL     1      32.768  18.061 -19.325  1.00  0.00    -0.000 C 
BRANCH   5   6
ATOM      6  C   UNL     1      33.941  18.075 -18.330  1.00  0.00    -0.000 C 
BRANCH   6   7
ATOM      7  C   UNL     1      34.617  16.698 -18.147  1.00  0.00    -0.000 C 
BRANCH   7   8
ATOM      8  C   UNL     1      34.801  15.959 -19.482  1.00  0.00    -0.000 C 
BRANCH   8   9
ATOM      9  C   UNL     1      34.294  14.504 -19.442  1.00  0.00    -0.000 C 
BRANCH   9  10
ATOM     10  C   UNL     1      35.089  13.562 -18.520  1.00  0.00    -0.000 C 
BRANCH  10  11
ATOM     11  C   UNL     1      34.229  12.940 -17.410  1.00  0.00    -0.003 C 
ATOM     12  C   UNL     1      34.486  13.617 -16.066  1.00  0.00     0.004 C 
ENDBRANCH  10  11
ENDBRANCH   9  10
ENDBRANCH   8   9
ENDBRANCH   7   8
ENDBRANCH   6   7
ENDBRANCH   5   6
ENDBRANCH   4   5
ENDBRANCH   3   4
ENDBRANCH   2   3
ENDBRANCH   1   2
BRANCH   1  13
ATOM     13  C   UNL     1      30.487  14.298 -16.316  1.00  0.00     0.000 C 
BRANCH  13  14
ATOM     14  C   UNL     1      29.390  15.081 -15.563  1.00  0.00     0.000 C 
BRANCH  14  15
ATOM     15  C   UNL     1      27.986  15.028 -16.195  1.00  0.00     0.000 C 
BRANCH  15  16
ATOM     16  C   UNL     1      27.696  16.221 -17.122  1.00  0.00     0.000 C 
BRANCH  16  17
ATOM     17  C   UNL     1      28.392  17.514 -16.658  1.00  0.00     0.000 C 
BRANCH  17  18
ATOM     18  C   UNL     1      28.227  18.719 -17.606  1.00  0.00     0.000 C 
BRANCH  18  19
ATOM     19  C   UNL     1      27.768  18.368 -19.035  1.00  0.00     0.000 C 
BRANCH  19  20
ATOM     20  C   UNL     1      26.359  18.868 -19.407  1.00  0.00     0.006 C 
BRANCH  20  21
ATOM     21  C   UNL     1      25.391  18.865 -18.216  1.00  0.00     0.053 C 
BRANCH  21  22
ATOM     22  C   UNL     1      24.410  17.742 -18.332  1.00  0.00     0.041 C 
ATOM     23  O   UNL     1      24.518  16.905 -19.268  1.00  0.00    -0.550 OA
ATOM     24  O   UNL     1      23.390  17.604 -17.398  1.00  0.00    -0.550 OA
ENDBRANCH  21  22
ENDBRANCH  20  21
ENDBRANCH  19  20
ENDBRANCH  18  19
ENDBRANCH  17  18
ENDBRANCH  16  17
ENDBRANCH  15  16
ENDBRANCH  14  15
ENDBRANCH  13  14
ENDBRANCH   1  13
TORSDOF 20
ENDMDL
MODEL 6
REMARK VINA RESULT:    -3.454      2.512      5.552
REMARK INTER + INTRA:         -10.739
REMARK INTER:                  -7.462
REMARK INTRA:                  -3.277
REMARK UNBOUND:                -3.246
REMARK SMILES CCCCCCCCCCCCCCCCCCCCCC(=O)[O-]
REMARK SMILES IDX 12 1 11 2 10 3 9 4 8 5 7 6 6 7 5 8 4 9 3 10 2 11 1 12 13 13
REMARK SMILES IDX 14 14 15 15 16 16 17 17 18 18 19 19 20 20 21 21 22 22 23 23
REMARK SMILES IDX 24 24
REMARK H PARENT
REMARK Flexibility Score: inf
ROOT
ATOM      1  C   UNL     1      29.632  17.758 -18.636  1.00  0.00     0.000 C 
ENDROOT
BRANCH   1   2
ATOM      2  C   UNL     1      29.262  16.407 -18.002  1.00  0.00     0.000 C 
BRANCH   2   3
ATOM      3  C   UNL     1      28.621  16.565 -16.606  1.00  0.00     0.000 C 
BRANCH   3   4
ATOM      4  C   UNL     1      28.985  15.444 -15.617  1.00  0.00    -0.000 C 
BRANCH   4   5
ATOM      5  C   UNL     1      29.873  14.359 -16.242  1.00  0.00    -0.000 C 
BRANCH   5   6
ATOM      6  C   UNL     1      31.102  14.018 -15.381  1.00  0.00    -0.000 C 
BRANCH   6   7
ATOM      7  C   UNL     1      32.446  14.180 -16.123  1.00  0.00    -0.000 C 
BRANCH   7   8
ATOM      8  C   UNL     1      32.252  14.505 -17.613  1.00  0.00    -0.000 C 
BRANCH   8   9
ATOM      9  C   UNL     1      33.520  15.078 -18.276  1.00  0.00    -0.000 C 
BRANCH   9  10
ATOM     10  C   UNL     1      34.291  16.107 -17.429  1.00  0.00    -0.000 C 
BRANCH  10  11
ATOM     11  C   UNL     1      34.629  17.389 -18.204  1.00  0.00    -0.003 C 
ATOM     12  C   UNL     1      33.373  18.207 -18.496  1.00  0.00     0.004 C 
ENDBRANCH  10  11
ENDBRANCH   9  10
ENDBRANCH   8   9
ENDBRANCH   7   8
ENDBRANCH   6   7
ENDBRANCH   5   6
ENDBRANCH   4   5
ENDBRANCH   3   4
ENDBRANCH   2   3
ENDBRANCH   1   2
BRANCH   1  13
ATOM     13  C   UNL     1      28.932  17.998 -19.987  1.00  0.00     0.000 C 
BRANCH  13  14
ATOM     14  C   UNL     1      27.735  18.971 -19.946  1.00  0.00     0.000 C 
BRANCH  14  15
ATOM     15  C   UNL     1      27.467  19.635 -18.582  1.00  0.00     0.000 C 
BRANCH  15  16
ATOM     16  C   UNL     1      26.182  19.129 -17.906  1.00  0.00     0.000 C 
BRANCH  16  17
ATOM     17  C   UNL     1      25.385  18.161 -18.800  1.00  0.00     0.000 C 
BRANCH  17  18
ATOM     18  C   UNL     1      25.194  16.745 -18.220  1.00  0.00     0.000 C 
BRANCH  18  19
ATOM     19  C   UNL     1      25.899  15.618 -19.002  1.00  0.00     0.000 C 
BRANCH  19  20
ATOM     20  C   UNL     1      25.510  14.189 -18.576  1.00  0.00     0.006 C 
BRANCH  20  21
ATOM     21  C   UNL     1      26.443  13.612 -17.503  1.00  0.00     0.053 C 
BRANCH  21  22
ATOM     22  C   UNL     1      25.758  13.564 -16.174  1.00  0.00     0.041 C 
ATOM     23  O   UNL     1      26.368  13.117 -15.166  1.00  0.00    -0.550 OA
ATOM     24  O   UNL     1      24.456  14.030 -16.040  1.00  0.00    -0.550 OA
ENDBRANCH  21  22
ENDBRANCH  20  21
ENDBRANCH  19  20
ENDBRANCH  18  19
ENDBRANCH  17  18
ENDBRANCH  16  17
ENDBRANCH  15  16
ENDBRANCH  14  15
ENDBRANCH  13  14
ENDBRANCH   1  13
TORSDOF 20
ENDMDL
MODEL 7
REMARK VINA RESULT:    -3.362      1.655      4.389
REMARK INTER + INTRA:         -10.539
REMARK INTER:                  -7.720
REMARK INTRA:                  -2.819
REMARK UNBOUND:                -3.246
REMARK SMILES CCCCCCCCCCCCCCCCCCCCCC(=O)[O-]
REMARK SMILES IDX 12 1 11 2 10 3 9 4 8 5 7 6 6 7 5 8 4 9 3 10 2 11 1 12 13 13
REMARK SMILES IDX 14 14 15 15 16 16 17 17 18 18 19 19 20 20 21 21 22 22 23 23
REMARK SMILES IDX 24 24
REMARK H PARENT
REMARK Flexibility Score: inf
ROOT
ATOM      1  C   UNL     1      34.620  16.192 -19.093  1.00  0.00     0.000 C 
ENDROOT
BRANCH   1   2
ATOM      2  C   UNL     1      34.052  14.989 -18.322  1.00  0.00     0.000 C 
BRANCH   2   3
ATOM      3  C   UNL     1      34.456  15.000 -16.831  1.00  0.00     0.000 C 
BRANCH   3   4
ATOM      4  C   UNL     1      33.767  13.913 -15.986  1.00  0.00    -0.000 C 
BRANCH   4   5
ATOM      5  C   UNL     1      32.639  13.195 -16.738  1.00  0.00    -0.000 C 
BRANCH   5   6
ATOM      6  C   UNL     1      31.259  13.398 -16.090  1.00  0.00    -0.000 C 
BRANCH   6   7
ATOM      7  C   UNL     1      30.560  14.708 -16.514  1.00  0.00    -0.000 C 
BRANCH   7   8
ATOM      8  C   UNL     1      29.509  15.163 -15.488  1.00  0.00    -0.000 C 
BRANCH   8   9
ATOM      9  C   UNL     1      28.116  15.386 -16.109  1.00  0.00    -0.000 C 
BRANCH   9  10
ATOM     10  C   UNL     1      27.199  14.150 -16.118  1.00  0.00    -0.000 C 
BRANCH  10  11
ATOM     11  C   UNL     1      27.270  13.359 -17.433  1.00  0.00    -0.003 C 
ATOM     12  C   UNL     1      27.444  14.289 -18.630  1.00  0.00     0.004 C 
ENDBRANCH  10  11
ENDBRANCH   9  10
ENDBRANCH   8   9
ENDBRANCH   7   8
ENDBRANCH   6   7
ENDBRANCH   5   6
ENDBRANCH   4   5
ENDBRANCH   3   4
ENDBRANCH   2   3
ENDBRANCH   1   2
BRANCH   1  13
ATOM     13  C   UNL     1      34.248  17.543 -18.453  1.00  0.00     0.000 C 
BRANCH  13  14
ATOM     14  C   UNL     1      33.006  18.236 -19.054  1.00  0.00     0.000 C 
BRANCH  14  15
ATOM     15  C   UNL     1      31.647  17.663 -18.609  1.00  0.00     0.000 C 
BRANCH  15  16
ATOM     16  C   UNL     1      30.795  17.152 -19.782  1.00  0.00     0.000 C 
BRANCH  16  17
ATOM     17  C   UNL     1      29.353  17.694 -19.748  1.00  0.00     0.000 C 
BRANCH  17  18
ATOM     18  C   UNL     1      28.889  18.223 -18.376  1.00  0.00     0.000 C 
BRANCH  18  19
ATOM     19  C   UNL     1      27.362  18.229 -18.160  1.00  0.00     0.000 C 
BRANCH  19  20
ATOM     20  C   UNL     1      26.532  17.770 -19.374  1.00  0.00     0.006 C 
BRANCH  20  21
ATOM     21  C   UNL     1      25.070  18.231 -19.306  1.00  0.00     0.053 C 
BRANCH  21  22
ATOM     22  C   UNL     1      24.364  17.589 -18.154  1.00  0.00     0.041 C 
ATOM     23  O   UNL     1      23.608  18.277 -17.416  1.00  0.00    -0.550 OA
ATOM     24  O   UNL     1      24.521  16.231 -17.905  1.00  0.00    -0.550 OA
ENDBRANCH  21  22
ENDBRANCH  20  21
ENDBRANCH  19  20
ENDBRANCH  18  19
ENDBRANCH  17  18
ENDBRANCH  16  17
ENDBRANCH  15  16
ENDBRANCH  14  15
ENDBRANCH  13  14
ENDBRANCH   1  13
TORSDOF 20
ENDMDL
MODEL 8
REMARK VINA RESULT:    -3.309      2.267      4.461
REMARK INTER + INTRA:         -10.425
REMARK INTER:                  -7.000
REMARK INTRA:                  -3.424
REMARK UNBOUND:                -3.246
REMARK SMILES CCCCCCCCCCCCCCCCCCCCCC(=O)[O-]
REMARK SMILES IDX 12 1 11 2 10 3 9 4 8 5 7 6 6 7 5 8 4 9 3 10 2 11 1 12 13 13
REMARK SMILES IDX 14 14 15 15 16 16 17 17 18 18 19 19 20 20 21 21 22 22 23 23
REMARK SMILES IDX 24 24
REMARK H PARENT
REMARK Flexibility Score: inf
ROOT
ATOM      1  C   UNL     1      28.673  16.168 -15.587  1.00  0.00     0.000 C 
ENDROOT
BRANCH   1   2
ATOM      2  C   UNL     1      28.049  16.545 -16.941  1.00  0.00     0.000 C 
BRANCH   2   3
ATOM      3  C   UNL     1      28.614  17.868 -17.502  1.00  0.00     0.000 C 
BRANCH   3   4
ATOM      4  C   UNL     1      28.577  17.966 -19.038  1.00  0.00    -0.000 C 
BRANCH   4   5
ATOM      5  C   UNL     1      29.921  17.621 -19.692  1.00  0.00    -0.000 C 
BRANCH   5   6
ATOM      6  C   UNL     1      31.093  17.620 -18.695  1.00  0.00    -0.000 C 
BRANCH   6   7
ATOM      7  C   UNL     1      32.483  17.635 -19.368  1.00  0.00    -0.000 C 
BRANCH   7   8
ATOM      8  C   UNL     1      33.551  18.295 -18.481  1.00  0.00    -0.000 C 
BRANCH   8   9
ATOM      9  C   UNL     1      34.651  17.314 -18.030  1.00  0.00    -0.000 C 
BRANCH   9  10
ATOM     10  C   UNL     1      34.226  15.836 -17.977  1.00  0.00    -0.000 C 
BRANCH  10  11
ATOM     11  C   UNL     1      34.557  15.163 -16.637  1.00  0.00    -0.003 C 
ATOM     12  C   UNL     1      34.288  13.662 -16.688  1.00  0.00     0.004 C 
ENDBRANCH  10  11
ENDBRANCH   9  10
ENDBRANCH   8   9
ENDBRANCH   7   8
ENDBRANCH   6   7
ENDBRANCH   5   6
ENDBRANCH   4   5
ENDBRANCH   3   4
ENDBRANCH   2   3
ENDBRANCH   1   2
BRANCH   1  13
ATOM     13  C   UNL     1      29.448  14.838 -15.635  1.00  0.00     0.000 C 
BRANCH  13  14
ATOM     14  C   UNL     1      30.645  14.808 -16.610  1.00  0.00     0.000 C 
BRANCH  14  15
ATOM     15  C   UNL     1      30.697  13.594 -17.557  1.00  0.00     0.000 C 
BRANCH  15  16
ATOM     16  C   UNL     1      31.034  13.975 -19.008  1.00  0.00     0.000 C 
BRANCH  16  17
ATOM     17  C   UNL     1      29.880  13.672 -19.983  1.00  0.00     0.000 C 
BRANCH  17  18
ATOM     18  C   UNL     1      28.503  14.217 -19.552  1.00  0.00     0.000 C 
BRANCH  18  19
ATOM     19  C   UNL     1      27.531  13.162 -18.986  1.00  0.00     0.000 C 
BRANCH  19  20
ATOM     20  C   UNL     1      26.039  13.450 -19.240  1.00  0.00     0.006 C 
BRANCH  20  21
ATOM     21  C   UNL     1      25.681  14.933 -19.077  1.00  0.00     0.053 C 
BRANCH  21  22
ATOM     22  C   UNL     1      24.859  15.147 -17.846  1.00  0.00     0.041 C 
ATOM     23  O   UNL     1      23.939  16.010 -17.844  1.00  0.00    -0.550 OA
ATOM     24  O   UNL     1      25.089  14.384 -16.708  1.00  0.00    -0.550 OA
ENDBRANCH  21  22
ENDBRANCH  20  21
ENDBRANCH  19  20
ENDBRANCH  18  19
ENDBRANCH  17  18
ENDBRANCH  16  17
ENDBRANCH  15  16
ENDBRANCH  14  15
ENDBRANCH  13  14
ENDBRANCH   1  13
TORSDOF 20
ENDMDL
MODEL 9
REMARK VINA RESULT:    -3.274      1.404      2.487
REMARK INTER + INTRA:         -10.348
REMARK INTER:                  -7.240
REMARK INTRA:                  -3.107
REMARK UNBOUND:                -3.246
REMARK SMILES CCCCCCCCCCCCCCCCCCCCCC(=O)[O-]
REMARK SMILES IDX 12 1 11 2 10 3 9 4 8 5 7 6 6 7 5 8 4 9 3 10 2 11 1 12 13 13
REMARK SMILES IDX 14 14 15 15 16 16 17 17 18 18 19 19 20 20 21 21 22 22 23 23
REMARK SMILES IDX 24 24
REMARK H PARENT
REMARK Flexibility Score: inf
ROOT
ATOM      1  C   UNL     1      29.817  14.087 -15.282  1.00  0.00     0.000 C 
ENDROOT
BRANCH   1   2
ATOM      2  C   UNL     1      31.304  13.963 -15.654  1.00  0.00     0.000 C 
BRANCH   2   3
ATOM      3  C   UNL     1      31.510  13.554 -17.129  1.00  0.00     0.000 C 
BRANCH   3   4
ATOM      4  C   UNL     1      32.937  13.796 -17.654  1.00  0.00    -0.000 C 
BRANCH   4   5
ATOM      5  C   UNL     1      33.929  14.165 -16.543  1.00  0.00    -0.000 C 
BRANCH   5   6
ATOM      6  C   UNL     1      34.657  15.495 -16.805  1.00  0.00    -0.000 C 
BRANCH   6   7
ATOM      7  C   UNL     1      34.448  16.049 -18.231  1.00  0.00    -0.000 C 
BRANCH   7   8
ATOM      8  C   UNL     1      34.460  17.586 -18.266  1.00  0.00    -0.000 C 
BRANCH   8   9
ATOM      9  C   UNL     1      33.074  18.194 -18.554  1.00  0.00    -0.000 C 
BRANCH   9  10
ATOM     10  C   UNL     1      32.111  17.283 -19.338  1.00  0.00    -0.000 C 
BRANCH  10  11
ATOM     11  C   UNL     1      30.784  17.040 -18.605  1.00  0.00    -0.003 C 
ATOM     12  C   UNL     1      29.983  15.921 -19.266  1.00  0.00     0.004 C 
ENDBRANCH  10  11
ENDBRANCH   9  10
ENDBRANCH   8   9
ENDBRANCH   7   8
ENDBRANCH   6   7
ENDBRANCH   5   6
ENDBRANCH   4   5
ENDBRANCH   3   4
ENDBRANCH   2   3
ENDBRANCH   1   2
BRANCH   1  13
ATOM     13  C   UNL     1      29.242  15.487 -15.571  1.00  0.00     0.000 C 
BRANCH  13  14
ATOM     14  C   UNL     1      27.841  15.504 -16.219  1.00  0.00     0.000 C 
BRANCH  14  15
ATOM     15  C   UNL     1      27.223  14.120 -16.496  1.00  0.00     0.000 C 
BRANCH  15  16
ATOM     16  C   UNL     1      26.848  13.912 -17.973  1.00  0.00     0.000 C 
BRANCH  16  17
ATOM     17  C   UNL     1      25.815  14.940 -18.472  1.00  0.00     0.000 C 
BRANCH  17  18
ATOM     18  C   UNL     1      26.281  15.807 -19.660  1.00  0.00     0.000 C 
BRANCH  18  19
ATOM     19  C   UNL     1      25.320  16.949 -20.050  1.00  0.00     0.000 C 
BRANCH  19  20
ATOM     20  C   UNL     1      25.930  18.362 -19.985  1.00  0.00     0.006 C 
BRANCH  20  21
ATOM     21  C   UNL     1      27.354  18.372 -19.411  1.00  0.00     0.053 C 
BRANCH  21  22
ATOM     22  C   UNL     1      27.430  19.244 -18.198  1.00  0.00     0.041 C 
ATOM     23  O   UNL     1      26.767  20.315 -18.148  1.00  0.00    -0.550 OA
ATOM     24  O   UNL     1      28.214  18.868 -17.114  1.00  0.00    -0.550 OA
ENDBRANCH  21  22
ENDBRANCH  20  21
ENDBRANCH  19  20
ENDBRANCH  18  19
ENDBRANCH  17  18
ENDBRANCH  16  17
ENDBRANCH  15  16
ENDBRANCH  14  15
ENDBRANCH  13  14
ENDBRANCH   1  13
TORSDOF 20
ENDMDL
