MODEL 1
REMARK VINA RESULT:    15.643      0.000      0.000
REMARK INTER + INTRA:          18.236
REMARK INTER:                  18.387
REMARK INTRA:                  -0.150
REMARK UNBOUND:                -0.150
REMARK SMILES O=C([O-])C=Cc1ccc(O)c(O)c1
REMARK SMILES IDX 6 1 13 2 7 3 11 4 8 5 9 6 5 7 4 8 2 9 1 10 3 11 12 12 10 14
REMARK H PARENT 12 13 10 15
REMARK Flexibility Score: inf
ROOT
ATOM      1  C   UNL     1      30.886  10.352  -0.962  1.00  0.00    -0.022 A 
ATOM      2  C   UNL     1      32.058  10.171  -1.722  1.00  0.00     0.058 A 
ATOM      3  C   UNL     1      30.420  11.657  -0.740  1.00  0.00     0.012 A 
ATOM      4  C   UNL     1      32.736  11.265  -2.274  1.00  0.00     0.157 A 
ATOM      5  C   UNL     1      31.088  12.752  -1.289  1.00  0.00     0.051 A 
ATOM      6  C   UNL     1      32.242  12.573  -2.060  1.00  0.00     0.157 A 
ENDROOT
BRANCH   1   7
ATOM      7  C   UNL     1      30.147   9.220  -0.350  1.00  0.00     0.010 C 
ATOM      8  C   UNL     1      28.929   9.336   0.198  1.00  0.00     0.025 C 
BRANCH   8   9
ATOM      9  C   UNL     1      28.230   8.193   0.808  1.00  0.00     0.064 C 
ATOM     10  O   UNL     1      27.875   7.200   0.117  1.00  0.00    -0.545 OA
ATOM     11  O   UNL     1      27.955   8.209   2.169  1.00  0.00    -0.545 OA
ENDBRANCH   8   9
ENDBRANCH   1   7
BRANCH   4  12
ATOM     12  O   UNL     1      33.890  11.010  -3.017  1.00  0.00    -0.504 OA
ATOM     13  H   UNL     1      34.184  10.089  -3.308  1.00  0.00     0.293 HD
ENDBRANCH   4  12
BRANCH   6  14
ATOM     14  O   UNL     1      32.859  13.710  -2.585  1.00  0.00    -0.504 OA
ATOM     15  H   UNL     1      32.358  14.514  -2.933  1.00  0.00     0.293 HD
ENDBRANCH   6  14
TORSDOF 4
ENDMDL
MODEL 2
REMARK VINA RESULT:    16.219      1.243      1.849
REMARK INTER + INTRA:          18.913
REMARK INTER:                  19.038
REMARK INTRA:                  -0.125
REMARK UNBOUND:                -0.150
REMARK SMILES O=C([O-])C=Cc1ccc(O)c(O)c1
REMARK SMILES IDX 6 1 13 2 7 3 11 4 8 5 9 6 5 7 4 8 2 9 1 10 3 11 12 12 10 14
REMARK H PARENT 12 13 10 15
REMARK Flexibility Score: inf
ROOT
ATOM      1  C   UNL     1      31.097  10.434  -0.997  1.00  0.00    -0.022 A 
ATOM      2  C   UNL     1      31.465  11.365  -0.006  1.00  0.00     0.058 A 
ATOM      3  C   UNL     1      31.647  10.563  -2.281  1.00  0.00     0.012 A 
ATOM      4  C   UNL     1      32.382  12.387  -0.281  1.00  0.00     0.157 A 
ATOM      5  C   UNL     1      32.564  11.576  -2.563  1.00  0.00     0.051 A 
ATOM      6  C   UNL     1      32.944  12.491  -1.575  1.00  0.00     0.157 A 
ENDROOT
BRANCH   1   7
ATOM      7  C   UNL     1      30.120   9.346  -0.749  1.00  0.00     0.010 C 
ATOM      8  C   UNL     1      29.254   9.342   0.275  1.00  0.00     0.025 C 
BRANCH   8   9
ATOM      9  C   UNL     1      28.307   8.238   0.499  1.00  0.00     0.064 C 
ATOM     10  O   UNL     1      27.877   7.542  -0.460  1.00  0.00    -0.545 OA
ATOM     11  O   UNL     1      27.875   7.960   1.789  1.00  0.00    -0.545 OA
ENDBRANCH   8   9
ENDBRANCH   1   7
BRANCH   4  12
ATOM     12  O   UNL     1      32.700  13.273   0.750  1.00  0.00    -0.504 OA
ATOM     13  H   UNL     1      32.625  14.278   0.676  1.00  0.00     0.293 HD
ENDBRANCH   4  12
BRANCH   6  14
ATOM     14  O   UNL     1      33.870  13.477  -1.920  1.00  0.00    -0.504 OA
ATOM     15  H   UNL     1      34.867  13.382  -1.800  1.00  0.00     0.293 HD
ENDBRANCH   6  14
TORSDOF 4
ENDMDL
MODEL 3
REMARK VINA RESULT:    17.392      1.904      5.855
REMARK INTER + INTRA:          20.291
REMARK INTER:                  20.434
REMARK INTRA:                  -0.143
REMARK UNBOUND:                -0.150
REMARK SMILES O=C([O-])C=Cc1ccc(O)c(O)c1
REMARK SMILES IDX 6 1 13 2 7 3 11 4 8 5 9 6 5 7 4 8 2 9 1 10 3 11 12 12 10 14
REMARK H PARENT 12 13 10 15
REMARK Flexibility Score: inf
ROOT
ATOM      1  C   UNL     1      31.339  11.640  -1.387  1.00  0.00    -0.022 A 
ATOM      2  C   UNL     1      31.954  10.376  -1.300  1.00  0.00     0.058 A 
ATOM      3  C   UNL     1      30.026  11.785  -0.915  1.00  0.00     0.012 A 
ATOM      4  C   UNL     1      31.285   9.286  -0.729  1.00  0.00     0.157 A 
ATOM      5  C   UNL     1      29.353  10.706  -0.342  1.00  0.00     0.051 A 
ATOM      6  C   UNL     1      29.969   9.453  -0.239  1.00  0.00     0.157 A 
ENDROOT
BRANCH   1   7
ATOM      7  C   UNL     1      32.010  12.815  -1.996  1.00  0.00     0.010 C 
ATOM      8  C   UNL     1      31.437  13.606  -2.914  1.00  0.00     0.025 C 
BRANCH   8   9
ATOM      9  C   UNL     1      32.138  14.757  -3.506  1.00  0.00     0.064 C 
ATOM     10  O   UNL     1      33.390  14.874  -3.420  1.00  0.00    -0.545 OA
ATOM     11  O   UNL     1      31.407  15.733  -4.170  1.00  0.00    -0.545 OA
ENDBRANCH   8   9
ENDBRANCH   1   7
BRANCH   4  12
ATOM     12  O   UNL     1      31.957   8.062  -0.676  1.00  0.00    -0.504 OA
ATOM     13  H   UNL     1      32.961   7.971  -0.618  1.00  0.00     0.293 HD
ENDBRANCH   4  12
BRANCH   6  14
ATOM     14  O   UNL     1      29.243   8.416   0.349  1.00  0.00    -0.504 OA
ATOM     15  H   UNL     1      29.445   7.436   0.211  1.00  0.00     0.293 HD
ENDBRANCH   6  14
TORSDOF 4
ENDMDL
