MODEL 1
REMARK VINA RESULT:    -0.737      0.000      0.000
REMARK INTER + INTRA:          -4.272
REMARK INTER:                  -1.340
REMARK INTRA:                  -2.932
REMARK UNBOUND:                -2.932
REMARK SMILES CCCCCCCCCCCCCCCC(=O)[O-]
REMARK SMILES IDX 9 1 10 2 11 3 12 4 13 5 14 6 15 7 16 8 17 9 18 10 8 11 7 12
REMARK SMILES IDX 6 13 5 14 4 15 3 16 2 17 1 18
REMARK H PARENT
REMARK Flexibility Score: inf
ROOT
ATOM      1  C   UNL     1     -17.582 -24.882  82.619  1.00  0.00     0.000 C 
ENDROOT
BRANCH   1   2
ATOM      2  C   UNL     1     -16.855 -23.780  81.820  1.00  0.00     0.000 C 
BRANCH   2   3
ATOM      3  C   UNL     1     -17.012 -22.393  82.470  1.00  0.00     0.000 C 
BRANCH   3   4
ATOM      4  C   UNL     1     -18.482 -22.022  82.725  1.00  0.00     0.000 C 
BRANCH   4   5
ATOM      5  C   UNL     1     -18.762 -21.699  84.202  1.00  0.00     0.000 C 
BRANCH   5   6
ATOM      6  C   UNL     1     -19.981 -22.460  84.756  1.00  0.00     0.006 C 
BRANCH   6   7
ATOM      7  C   UNL     1     -20.754 -23.265  83.700  1.00  0.00     0.053 C 
BRANCH   7   8
ATOM      8  C   UNL     1     -21.292 -24.548  84.254  1.00  0.00     0.041 C 
ATOM      9  O   UNL     1     -20.831 -25.651  83.859  1.00  0.00    -0.550 OA
ATOM     10  O   UNL     1     -22.279 -24.525  85.232  1.00  0.00    -0.550 OA
ENDBRANCH   7   8
ENDBRANCH   6   7
ENDBRANCH   5   6
ENDBRANCH   4   5
ENDBRANCH   3   4
ENDBRANCH   2   3
ENDBRANCH   1   2
BRANCH   1  11
ATOM     11  C   UNL     1     -16.794 -25.376  83.845  1.00  0.00     0.000 C 
BRANCH  11  12
ATOM     12  C   UNL     1     -17.571 -25.206  85.161  1.00  0.00    -0.000 C 
BRANCH  12  13
ATOM     13  C   UNL     1     -16.892 -24.216  86.122  1.00  0.00    -0.000 C 
BRANCH  13  14
ATOM     14  C   UNL     1     -15.421 -23.955  85.756  1.00  0.00    -0.000 C 
BRANCH  14  15
ATOM     15  C   UNL     1     -15.089 -22.456  85.671  1.00  0.00    -0.000 C 
BRANCH  15  16
ATOM     16  C   UNL     1     -13.991 -22.150  84.637  1.00  0.00    -0.000 C 
BRANCH  16  17
ATOM     17  C   UNL     1     -13.602 -23.385  83.810  1.00  0.00    -0.003 C 
ATOM     18  C   UNL     1     -13.219 -23.039  82.371  1.00  0.00     0.004 C 
ENDBRANCH  16  17
ENDBRANCH  15  16
ENDBRANCH  14  15
ENDBRANCH  13  14
ENDBRANCH  12  13
ENDBRANCH  11  12
ENDBRANCH   1  11
TORSDOF 14
ENDMDL
MODEL 2
REMARK VINA RESULT:    -0.715      3.135      4.790
REMARK INTER + INTRA:          -4.232
REMARK INTER:                  -1.776
REMARK INTRA:                  -2.456
REMARK UNBOUND:                -2.932
REMARK SMILES CCCCCCCCCCCCCCCC(=O)[O-]
REMARK SMILES IDX 9 1 10 2 11 3 12 4 13 5 14 6 15 7 16 8 17 9 18 10 8 11 7 12
REMARK SMILES IDX 6 13 5 14 4 15 3 16 2 17 1 18
REMARK H PARENT
REMARK Flexibility Score: inf
ROOT
ATOM      1  C   UNL     1     -13.637 -22.418  81.817  1.00  0.00     0.000 C 
ENDROOT
BRANCH   1   2
ATOM      2  C   UNL     1     -13.948 -20.910  81.732  1.00  0.00     0.000 C 
BRANCH   2   3
ATOM      3  C   UNL     1     -15.265 -20.630  80.984  1.00  0.00     0.000 C 
BRANCH   3   4
ATOM      4  C   UNL     1     -15.501 -21.604  79.819  1.00  0.00     0.000 C 
BRANCH   4   5
ATOM      5  C   UNL     1     -16.956 -21.588  79.321  1.00  0.00     0.000 C 
BRANCH   5   6
ATOM      6  C   UNL     1     -17.669 -20.254  79.614  1.00  0.00     0.006 C 
BRANCH   6   7
ATOM      7  C   UNL     1     -18.903 -20.386  80.520  1.00  0.00     0.053 C 
BRANCH   7   8
ATOM      8  C   UNL     1     -18.904 -19.368  81.619  1.00  0.00     0.041 C 
ATOM      9  O   UNL     1     -19.679 -19.500  82.603  1.00  0.00    -0.550 OA
ATOM     10  O   UNL     1     -18.026 -18.293  81.573  1.00  0.00    -0.550 OA
ENDBRANCH   7   8
ENDBRANCH   6   7
ENDBRANCH   5   6
ENDBRANCH   4   5
ENDBRANCH   3   4
ENDBRANCH   2   3
ENDBRANCH   1   2
BRANCH   1  11
ATOM     11  C   UNL     1     -13.157 -22.872  83.207  1.00  0.00     0.000 C 
BRANCH  11  12
ATOM     12  C   UNL     1     -13.485 -21.855  84.312  1.00  0.00    -0.000 C 
BRANCH  12  13
ATOM     13  C   UNL     1     -14.511 -22.395  85.324  1.00  0.00    -0.000 C 
BRANCH  13  14
ATOM     14  C   UNL     1     -14.743 -23.909  85.176  1.00  0.00    -0.000 C 
BRANCH  14  15
ATOM     15  C   UNL     1     -16.207 -24.254  84.856  1.00  0.00    -0.000 C 
BRANCH  15  16
ATOM     16  C   UNL     1     -16.397 -24.752  83.412  1.00  0.00    -0.000 C 
BRANCH  16  17
ATOM     17  C   UNL     1     -17.015 -23.682  82.499  1.00  0.00    -0.003 C 
ATOM     18  C   UNL     1     -17.612 -22.511  83.277  1.00  0.00     0.004 C 
ENDBRANCH  16  17
ENDBRANCH  15  16
ENDBRANCH  14  15
ENDBRANCH  13  14
ENDBRANCH  12  13
ENDBRANCH  11  12
ENDBRANCH   1  11
TORSDOF 14
ENDMDL
MODEL 3
REMARK VINA RESULT:    -0.702      2.738      4.806
REMARK INTER + INTRA:          -4.210
REMARK INTER:                  -1.578
REMARK INTRA:                  -2.631
REMARK UNBOUND:                -2.932
REMARK SMILES CCCCCCCCCCCCCCCC(=O)[O-]
REMARK SMILES IDX 9 1 10 2 11 3 12 4 13 5 14 6 15 7 16 8 17 9 18 10 8 11 7 12
REMARK SMILES IDX 6 13 5 14 4 15 3 16 2 17 1 18
REMARK H PARENT
REMARK Flexibility Score: inf
ROOT
ATOM      1  C   UNL     1     -13.299 -21.434  83.688  1.00  0.00     0.000 C 
ENDROOT
BRANCH   1   2
ATOM      2  C   UNL     1     -13.665 -22.181  82.389  1.00  0.00     0.000 C 
BRANCH   2   3
ATOM      3  C   UNL     1     -14.897 -21.569  81.696  1.00  0.00     0.000 C 
BRANCH   3   4
ATOM      4  C   UNL     1     -16.219 -22.162  82.209  1.00  0.00     0.000 C 
BRANCH   4   5
ATOM      5  C   UNL     1     -17.111 -22.689  81.072  1.00  0.00     0.000 C 
BRANCH   5   6
ATOM      6  C   UNL     1     -17.400 -24.197  81.194  1.00  0.00     0.006 C 
BRANCH   6   7
ATOM      7  C   UNL     1     -16.463 -24.941  82.158  1.00  0.00     0.053 C 
BRANCH   7   8
ATOM      8  C   UNL     1     -15.426 -25.740  81.430  1.00  0.00     0.041 C 
ATOM      9  O   UNL     1     -14.593 -25.164  80.682  1.00  0.00    -0.550 OA
ATOM     10  O   UNL     1     -15.359 -27.117  81.603  1.00  0.00    -0.550 OA
ENDBRANCH   7   8
ENDBRANCH   6   7
ENDBRANCH   5   6
ENDBRANCH   4   5
ENDBRANCH   3   4
ENDBRANCH   2   3
ENDBRANCH   1   2
BRANCH   1  11
ATOM     11  C   UNL     1     -13.289 -22.335  84.936  1.00  0.00     0.000 C 
BRANCH  11  12
ATOM     12  C   UNL     1     -13.973 -23.691  84.697  1.00  0.00    -0.000 C 
BRANCH  12  13
ATOM     13  C   UNL     1     -15.283 -23.837  85.491  1.00  0.00    -0.000 C 
BRANCH  13  14
ATOM     14  C   UNL     1     -15.752 -22.505  86.103  1.00  0.00    -0.000 C 
BRANCH  14  15
ATOM     15  C   UNL     1     -17.252 -22.250  85.887  1.00  0.00    -0.000 C 
BRANCH  15  16
ATOM     16  C   UNL     1     -17.977 -23.462  85.274  1.00  0.00    -0.000 C 
BRANCH  16  17
ATOM     17  C   UNL     1     -19.130 -23.049  84.347  1.00  0.00    -0.003 C 
ATOM     18  C   UNL     1     -19.287 -21.533  84.234  1.00  0.00     0.004 C 
ENDBRANCH  16  17
ENDBRANCH  15  16
ENDBRANCH  14  15
ENDBRANCH  13  14
ENDBRANCH  12  13
ENDBRANCH  11  12
ENDBRANCH   1  11
TORSDOF 14
ENDMDL
MODEL 4
REMARK VINA RESULT:    -0.679      3.600      4.851
REMARK INTER + INTRA:          -4.167
REMARK INTER:                  -1.614
REMARK INTRA:                  -2.553
REMARK UNBOUND:                -2.932
REMARK SMILES CCCCCCCCCCCCCCCC(=O)[O-]
REMARK SMILES IDX 9 1 10 2 11 3 12 4 13 5 14 6 15 7 16 8 17 9 18 10 8 11 7 12
REMARK SMILES IDX 6 13 5 14 4 15 3 16 2 17 1 18
REMARK H PARENT
REMARK Flexibility Score: inf
ROOT
ATOM      1  C   UNL     1     -16.957 -24.813  84.374  1.00  0.00     0.000 C 
ENDROOT
BRANCH   1   2
ATOM      2  C   UNL     1     -17.722 -23.545  83.940  1.00  0.00     0.000 C 
BRANCH   2   3
ATOM      3  C   UNL     1     -17.782 -23.401  82.408  1.00  0.00     0.000 C 
BRANCH   3   4
ATOM      4  C   UNL     1     -17.488 -21.968  81.937  1.00  0.00     0.000 C 
BRANCH   4   5
ATOM      5  C   UNL     1     -17.254 -21.881  80.419  1.00  0.00     0.000 C 
BRANCH   5   6
ATOM      6  C   UNL     1     -15.830 -21.416  80.062  1.00  0.00     0.006 C 
BRANCH   6   7
ATOM      7  C   UNL     1     -15.495 -19.993  80.537  1.00  0.00     0.053 C 
BRANCH   7   8
ATOM      8  C   UNL     1     -16.414 -18.971  79.944  1.00  0.00     0.041 C 
ATOM      9  O   UNL     1     -16.380 -18.731  78.708  1.00  0.00    -0.550 OA
ATOM     10  O   UNL     1     -17.333 -18.309  80.749  1.00  0.00    -0.550 OA
ENDBRANCH   7   8
ENDBRANCH   6   7
ENDBRANCH   5   6
ENDBRANCH   4   5
ENDBRANCH   3   4
ENDBRANCH   2   3
ENDBRANCH   1   2
BRANCH   1  11
ATOM     11  C   UNL     1     -16.028 -24.590  85.580  1.00  0.00     0.000 C 
BRANCH  11  12
ATOM     12  C   UNL     1     -15.546 -23.135  85.700  1.00  0.00    -0.000 C 
BRANCH  12  13
ATOM     13  C   UNL     1     -14.012 -23.021  85.701  1.00  0.00    -0.000 C 
BRANCH  13  14
ATOM     14  C   UNL     1     -13.496 -22.006  84.667  1.00  0.00    -0.000 C 
BRANCH  14  15
ATOM     15  C   UNL     1     -14.162 -22.172  83.291  1.00  0.00    -0.000 C 
BRANCH  15  16
ATOM     16  C   UNL     1     -13.363 -23.094  82.353  1.00  0.00    -0.000 C 
BRANCH  16  17
ATOM     17  C   UNL     1     -13.903 -24.532  82.344  1.00  0.00    -0.003 C 
ATOM     18  C   UNL     1     -14.708 -24.856  81.086  1.00  0.00     0.004 C 
ENDBRANCH  16  17
ENDBRANCH  15  16
ENDBRANCH  14  15
ENDBRANCH  13  14
ENDBRANCH  12  13
ENDBRANCH  11  12
ENDBRANCH   1  11
TORSDOF 14
ENDMDL
MODEL 5
REMARK VINA RESULT:    -0.654      3.612      5.403
REMARK INTER + INTRA:          -4.121
REMARK INTER:                  -1.626
REMARK INTRA:                  -2.495
REMARK UNBOUND:                -2.932
REMARK SMILES CCCCCCCCCCCCCCCC(=O)[O-]
REMARK SMILES IDX 9 1 10 2 11 3 12 4 13 5 14 6 15 7 16 8 17 9 18 10 8 11 7 12
REMARK SMILES IDX 6 13 5 14 4 15 3 16 2 17 1 18
REMARK H PARENT
REMARK Flexibility Score: inf
ROOT
ATOM      1  C   UNL     1     -15.489 -21.609  81.585  1.00  0.00     0.000 C 
ENDROOT
BRANCH   1   2
ATOM      2  C   UNL     1     -16.836 -22.218  82.028  1.00  0.00     0.000 C 
BRANCH   2   3
ATOM      3  C   UNL     1     -16.873 -23.746  81.834  1.00  0.00     0.000 C 
BRANCH   3   4
ATOM      4  C   UNL     1     -17.993 -24.193  80.881  1.00  0.00     0.000 C 
BRANCH   4   5
ATOM      5  C   UNL     1     -17.451 -24.860  79.605  1.00  0.00     0.000 C 
BRANCH   5   6
ATOM      6  C   UNL     1     -16.872 -23.844  78.603  1.00  0.00     0.006 C 
BRANCH   6   7
ATOM      7  C   UNL     1     -17.783 -22.636  78.334  1.00  0.00     0.053 C 
BRANCH   7   8
ATOM      8  C   UNL     1     -17.005 -21.361  78.219  1.00  0.00     0.041 C 
ATOM      9  O   UNL     1     -17.353 -20.346  78.879  1.00  0.00    -0.550 OA
ATOM     10  O   UNL     1     -15.877 -21.303  77.410  1.00  0.00    -0.550 OA
ENDBRANCH   7   8
ENDBRANCH   6   7
ENDBRANCH   5   6
ENDBRANCH   4   5
ENDBRANCH   3   4
ENDBRANCH   2   3
ENDBRANCH   1   2
BRANCH   1  11
ATOM     11  C   UNL     1     -14.452 -22.657  81.147  1.00  0.00     0.000 C 
BRANCH  11  12
ATOM     12  C   UNL     1     -13.176 -22.627  82.003  1.00  0.00    -0.000 C 
BRANCH  12  13
ATOM     13  C   UNL     1     -12.880 -21.228  82.570  1.00  0.00    -0.000 C 
BRANCH  13  14
ATOM     14  C   UNL     1     -12.875 -21.204  84.109  1.00  0.00    -0.000 C 
BRANCH  14  15
ATOM     15  C   UNL     1     -13.390 -22.517  84.722  1.00  0.00    -0.000 C 
BRANCH  15  16
ATOM     16  C   UNL     1     -14.765 -22.357  85.393  1.00  0.00    -0.000 C 
BRANCH  16  17
ATOM     17  C   UNL     1     -15.579 -23.661  85.381  1.00  0.00    -0.003 C 
ATOM     18  C   UNL     1     -14.828 -24.823  84.735  1.00  0.00     0.004 C 
ENDBRANCH  16  17
ENDBRANCH  15  16
ENDBRANCH  14  15
ENDBRANCH  13  14
ENDBRANCH  12  13
ENDBRANCH  11  12
ENDBRANCH   1  11
TORSDOF 14
ENDMDL
MODEL 6
REMARK VINA RESULT:    -0.652      1.767      4.721
REMARK INTER + INTRA:          -4.119
REMARK INTER:                  -1.537
REMARK INTRA:                  -2.582
REMARK UNBOUND:                -2.932
REMARK SMILES CCCCCCCCCCCCCCCC(=O)[O-]
REMARK SMILES IDX 9 1 10 2 11 3 12 4 13 5 14 6 15 7 16 8 17 9 18 10 8 11 7 12
REMARK SMILES IDX 6 13 5 14 4 15 3 16 2 17 1 18
REMARK H PARENT
REMARK Flexibility Score: inf
ROOT
ATOM      1  C   UNL     1     -13.447 -21.741  84.255  1.00  0.00     0.000 C 
ENDROOT
BRANCH   1   2
ATOM      2  C   UNL     1     -13.355 -22.897  85.273  1.00  0.00     0.000 C 
BRANCH   2   3
ATOM      3  C   UNL     1     -14.678 -23.107  86.033  1.00  0.00     0.000 C 
BRANCH   3   4
ATOM      4  C   UNL     1     -15.347 -24.449  85.694  1.00  0.00     0.000 C 
BRANCH   4   5
ATOM      5  C   UNL     1     -16.613 -24.277  84.838  1.00  0.00     0.000 C 
BRANCH   5   6
ATOM      6  C   UNL     1     -17.008 -22.801  84.650  1.00  0.00     0.006 C 
BRANCH   6   7
ATOM      7  C   UNL     1     -17.849 -22.528  83.392  1.00  0.00     0.053 C 
BRANCH   7   8
ATOM      8  C   UNL     1     -19.308 -22.409  83.707  1.00  0.00     0.041 C 
ATOM      9  O   UNL     1     -19.825 -21.276  83.894  1.00  0.00    -0.550 OA
ATOM     10  O   UNL     1     -20.104 -23.547  83.759  1.00  0.00    -0.550 OA
ENDBRANCH   7   8
ENDBRANCH   6   7
ENDBRANCH   5   6
ENDBRANCH   4   5
ENDBRANCH   3   4
ENDBRANCH   2   3
ENDBRANCH   1   2
BRANCH   1  11
ATOM     11  C   UNL     1     -13.724 -22.207  82.816  1.00  0.00     0.000 C 
BRANCH  11  12
ATOM     12  C   UNL     1     -13.196 -23.624  82.536  1.00  0.00    -0.000 C 
BRANCH  12  13
ATOM     13  C   UNL     1     -14.286 -24.561  81.989  1.00  0.00    -0.000 C 
BRANCH  13  14
ATOM     14  C   UNL     1     -14.919 -24.033  80.690  1.00  0.00    -0.000 C 
BRANCH  14  15
ATOM     15  C   UNL     1     -16.419 -24.353  80.590  1.00  0.00    -0.000 C 
BRANCH  15  16
ATOM     16  C   UNL     1     -16.799 -25.649  81.327  1.00  0.00    -0.000 C 
BRANCH  16  17
ATOM     17  C   UNL     1     -18.314 -25.772  81.557  1.00  0.00    -0.003 C 
ATOM     18  C   UNL     1     -18.661 -26.638  82.767  1.00  0.00     0.004 C 
ENDBRANCH  16  17
ENDBRANCH  15  16
ENDBRANCH  14  15
ENDBRANCH  13  14
ENDBRANCH  12  13
ENDBRANCH  11  12
ENDBRANCH   1  11
TORSDOF 14
ENDMDL
MODEL 7
REMARK VINA RESULT:    -0.609     10.700     12.047
REMARK INTER + INTRA:          -4.040
REMARK INTER:                  -1.359
REMARK INTRA:                  -2.681
REMARK UNBOUND:                -2.932
REMARK SMILES CCCCCCCCCCCCCCCC(=O)[O-]
REMARK SMILES IDX 9 1 10 2 11 3 12 4 13 5 14 6 15 7 16 8 17 9 18 10 8 11 7 12
REMARK SMILES IDX 6 13 5 14 4 15 3 16 2 17 1 18
REMARK H PARENT
REMARK Flexibility Score: inf
ROOT
ATOM      1  C   UNL     1     -17.297 -15.050  83.971  1.00  0.00     0.000 C 
ENDROOT
BRANCH   1   2
ATOM      2  C   UNL     1     -17.583 -14.186  82.725  1.00  0.00     0.000 C 
BRANCH   2   3
ATOM      3  C   UNL     1     -18.361 -12.904  83.075  1.00  0.00     0.000 C 
BRANCH   3   4
ATOM      4  C   UNL     1     -17.618 -11.628  82.649  1.00  0.00     0.000 C 
BRANCH   4   5
ATOM      5  C   UNL     1     -16.562 -11.893  81.563  1.00  0.00     0.000 C 
BRANCH   5   6
ATOM      6  C   UNL     1     -15.578 -10.721  81.392  1.00  0.00     0.006 C 
BRANCH   6   7
ATOM      7  C   UNL     1     -14.894 -10.277  82.694  1.00  0.00     0.053 C 
BRANCH   7   8
ATOM      8  C   UNL     1     -15.182  -8.844  83.019  1.00  0.00     0.041 C 
ATOM      9  O   UNL     1     -15.875  -8.144  82.235  1.00  0.00    -0.550 OA
ATOM     10  O   UNL     1     -14.713  -8.291  84.204  1.00  0.00    -0.550 OA
ENDBRANCH   7   8
ENDBRANCH   6   7
ENDBRANCH   5   6
ENDBRANCH   4   5
ENDBRANCH   3   4
ENDBRANCH   2   3
ENDBRANCH   1   2
BRANCH   1  11
ATOM     11  C   UNL     1     -17.616 -14.343  85.299  1.00  0.00     0.000 C 
BRANCH  11  12
ATOM     12  C   UNL     1     -16.356 -14.018  86.119  1.00  0.00    -0.000 C 
BRANCH  12  13
ATOM     13  C   UNL     1     -15.725 -12.673  85.720  1.00  0.00    -0.000 C 
BRANCH  13  14
ATOM     14  C   UNL     1     -14.277 -12.826  85.222  1.00  0.00    -0.000 C 
BRANCH  14  15
ATOM     15  C   UNL     1     -13.784 -14.281  85.274  1.00  0.00    -0.000 C 
BRANCH  15  16
ATOM     16  C   UNL     1     -13.268 -14.781  83.914  1.00  0.00    -0.000 C 
BRANCH  16  17
ATOM     17  C   UNL     1     -13.749 -13.908  82.745  1.00  0.00    -0.003 C 
ATOM     18  C   UNL     1     -14.138 -14.726  81.515  1.00  0.00     0.004 C 
ENDBRANCH  16  17
ENDBRANCH  15  16
ENDBRANCH  14  15
ENDBRANCH  13  14
ENDBRANCH  12  13
ENDBRANCH  11  12
ENDBRANCH   1  11
TORSDOF 14
ENDMDL
MODEL 8
REMARK VINA RESULT:    -0.603      3.339      6.125
REMARK INTER + INTRA:          -4.029
REMARK INTER:                  -1.742
REMARK INTRA:                  -2.287
REMARK UNBOUND:                -2.932
REMARK SMILES CCCCCCCCCCCCCCCC(=O)[O-]
REMARK SMILES IDX 9 1 10 2 11 3 12 4 13 5 14 6 15 7 16 8 17 9 18 10 8 11 7 12
REMARK SMILES IDX 6 13 5 14 4 15 3 16 2 17 1 18
REMARK H PARENT
REMARK Flexibility Score: inf
ROOT
ATOM      1  C   UNL     1     -16.712 -21.428  81.629  1.00  0.00     0.000 C 
ENDROOT
BRANCH   1   2
ATOM      2  C   UNL     1     -15.604 -21.677  80.584  1.00  0.00     0.000 C 
BRANCH   2   3
ATOM      3  C   UNL     1     -14.552 -20.552  80.576  1.00  0.00     0.000 C 
BRANCH   3   4
ATOM      4  C   UNL     1     -13.572 -20.652  81.755  1.00  0.00     0.000 C 
BRANCH   4   5
ATOM      5  C   UNL     1     -12.875 -22.021  81.830  1.00  0.00     0.000 C 
BRANCH   5   6
ATOM      6  C   UNL     1     -12.916 -22.633  83.243  1.00  0.00     0.006 C 
BRANCH   6   7
ATOM      7  C   UNL     1     -13.607 -21.748  84.292  1.00  0.00     0.053 C 
BRANCH   7   8
ATOM      8  C   UNL     1     -14.256 -22.560  85.371  1.00  0.00     0.041 C 
ATOM      9  O   UNL     1     -13.611 -23.472  85.952  1.00  0.00    -0.550 OA
ATOM     10  O   UNL     1     -15.562 -22.285  85.758  1.00  0.00    -0.550 OA
ENDBRANCH   7   8
ENDBRANCH   6   7
ENDBRANCH   5   6
ENDBRANCH   4   5
ENDBRANCH   3   4
ENDBRANCH   2   3
ENDBRANCH   1   2
BRANCH   1  11
ATOM     11  C   UNL     1     -17.008 -22.649  82.516  1.00  0.00     0.000 C 
BRANCH  11  12
ATOM     12  C   UNL     1     -16.165 -23.879  82.139  1.00  0.00    -0.000 C 
BRANCH  12  13
ATOM     13  C   UNL     1     -17.027 -25.055  81.649  1.00  0.00    -0.000 C 
BRANCH  13  14
ATOM     14  C   UNL     1     -17.318 -24.984  80.140  1.00  0.00    -0.000 C 
BRANCH  14  15
ATOM     15  C   UNL     1     -18.820 -24.878  79.831  1.00  0.00    -0.000 C 
BRANCH  15  16
ATOM     16  C   UNL     1     -19.297 -23.421  79.698  1.00  0.00    -0.000 C 
BRANCH  16  17
ATOM     17  C   UNL     1     -18.580 -22.669  78.566  1.00  0.00    -0.003 C 
ATOM     18  C   UNL     1     -19.103 -23.045  77.180  1.00  0.00     0.004 C 
ENDBRANCH  16  17
ENDBRANCH  15  16
ENDBRANCH  14  15
ENDBRANCH  13  14
ENDBRANCH  12  13
ENDBRANCH  11  12
ENDBRANCH   1  11
TORSDOF 14
ENDMDL
