MODEL 1
REMARK VINA RESULT:    -7.952      0.000      0.000
REMARK INTER + INTRA:          -9.363
REMARK INTER:                  -9.579
REMARK INTRA:                   0.215
REMARK UNBOUND:                 0.215
REMARK SMILES O=c1c(O)c(-c2ccc(O)c(O)c2)oc2cc(O)cc(O)c12
REMARK SMILES IDX 5 1 3 2 2 3 1 4 22 5 20 6 19 7 17 8 16 9 15 10 14 11 6 12
REMARK SMILES IDX 7 13 8 14 9 15 13 16 11 17 10 18 12 20 4 22 21 24 18 26
REMARK H PARENT 10 19 12 21 4 23 21 25 18 27
REMARK Flexibility Score: inf
ROOT
ATOM      1  C   UNL     1     -32.228  14.921   3.047  1.00  0.00     0.180 A 
ATOM      2  C   UNL     1     -32.587  15.051   1.693  1.00  0.00     0.208 A 
ATOM      3  C   UNL     1     -31.575  15.223   0.735  1.00  0.00     0.238 A 
ATOM      4  O   UNL     1     -31.886  15.353  -0.480  1.00  0.00    -0.285 OA
ATOM      5  C   UNL     1     -30.226  15.241   1.144  1.00  0.00     0.111 A 
ATOM      6  C   UNL     1     -29.146  15.405   0.242  1.00  0.00     0.134 A 
ATOM      7  C   UNL     1     -27.830  15.401   0.726  1.00  0.00     0.093 A 
ATOM      8  C   UNL     1     -27.571  15.238   2.088  1.00  0.00     0.123 A 
ATOM      9  C   UNL     1     -28.634  15.076   2.983  1.00  0.00     0.094 A 
ATOM     10  C   UNL     1     -29.953  15.077   2.522  1.00  0.00     0.146 A 
ATOM     11  O   UNL     1     -30.944  14.927   3.393  1.00  0.00    -0.452 OA
ENDROOT
BRANCH   1  12
ATOM     12  C   UNL     1     -33.238  14.755   4.117  1.00  0.00     0.025 A 
ATOM     13  C   UNL     1     -34.509  15.343   4.020  1.00  0.00     0.016 A 
ATOM     14  C   UNL     1     -35.436  15.192   5.053  1.00  0.00     0.051 A 
ATOM     15  C   UNL     1     -35.112  14.468   6.204  1.00  0.00     0.157 A 
ATOM     16  C   UNL     1     -32.902  14.047   5.282  1.00  0.00     0.062 A 
ATOM     17  C   UNL     1     -33.826  13.891   6.323  1.00  0.00     0.158 A 
BRANCH  15  18
ATOM     18  O   UNL     1     -36.087  14.352   7.198  1.00  0.00    -0.504 OA
ATOM     19  H   UNL     1     -36.539  15.140   7.640  1.00  0.00     0.293 HD
ENDBRANCH  15  18
BRANCH  17  20
ATOM     20  O   UNL     1     -33.426  13.163   7.446  1.00  0.00    -0.504 OA
ATOM     21  H   UNL     1     -33.799  13.306   8.373  1.00  0.00     0.293 HD
ENDBRANCH  17  20
ENDBRANCH   1  12
BRANCH   2  22
ATOM     22  O   UNL     1     -33.929  14.982   1.308  1.00  0.00    -0.502 OA
ATOM     23  H   UNL     1     -34.591  15.722   1.512  1.00  0.00     0.293 HD
ENDBRANCH   2  22
BRANCH   6  24
ATOM     24  O   UNL     1     -29.371  15.570  -1.125  1.00  0.00    -0.507 OA
ATOM     25  H   UNL     1     -30.155  16.110  -1.475  1.00  0.00     0.293 HD
ENDBRANCH   6  24
BRANCH   8  26
ATOM     26  O   UNL     1     -26.254  15.237   2.543  1.00  0.00    -0.508 OA
ATOM     27  H   UNL     1     -25.475  15.384   1.913  1.00  0.00     0.293 HD
ENDBRANCH   8  26
TORSDOF 6
ENDMDL
MODEL 2
REMARK VINA RESULT:    -7.922      5.762     11.725
REMARK INTER + INTRA:          -9.327
REMARK INTER:                  -9.118
REMARK INTRA:                  -0.209
REMARK UNBOUND:                 0.215
REMARK SMILES O=c1c(O)c(-c2ccc(O)c(O)c2)oc2cc(O)cc(O)c12
REMARK SMILES IDX 5 1 3 2 2 3 1 4 22 5 20 6 19 7 17 8 16 9 15 10 14 11 6 12
REMARK SMILES IDX 7 13 8 14 9 15 13 16 11 17 10 18 12 20 4 22 21 24 18 26
REMARK H PARENT 10 19 12 21 4 23 21 25 18 27
REMARK Flexibility Score: inf
ROOT
ATOM      1  C   UNL     1     -38.101  12.126   8.666  1.00  0.00     0.180 A 
ATOM      2  C   UNL     1     -38.373  10.845   9.182  1.00  0.00     0.208 A 
ATOM      3  C   UNL     1     -39.412  10.695  10.113  1.00  0.00     0.238 A 
ATOM      4  O   UNL     1     -39.657   9.554  10.592  1.00  0.00    -0.285 OA
ATOM      5  C   UNL     1     -40.171  11.820  10.497  1.00  0.00     0.111 A 
ATOM      6  C   UNL     1     -41.238  11.753  11.426  1.00  0.00     0.134 A 
ATOM      7  C   UNL     1     -41.952  12.917  11.748  1.00  0.00     0.093 A 
ATOM      8  C   UNL     1     -41.624  14.141  11.162  1.00  0.00     0.123 A 
ATOM      9  C   UNL     1     -40.571  14.212  10.243  1.00  0.00     0.094 A 
ATOM     10  C   UNL     1     -39.846  13.065   9.909  1.00  0.00     0.146 A 
ATOM     11  O   UNL     1     -38.848  13.160   9.038  1.00  0.00    -0.452 OA
ENDROOT
BRANCH   1  12
ATOM     12  C   UNL     1     -37.010  12.367   7.694  1.00  0.00     0.025 A 
ATOM     13  C   UNL     1     -35.872  13.112   8.041  1.00  0.00     0.016 A 
ATOM     14  C   UNL     1     -34.868  13.346   7.099  1.00  0.00     0.051 A 
ATOM     15  C   UNL     1     -34.984  12.857   5.794  1.00  0.00     0.157 A 
ATOM     16  C   UNL     1     -37.140  11.893   6.378  1.00  0.00     0.062 A 
ATOM     17  C   UNL     1     -36.137  12.123   5.427  1.00  0.00     0.158 A 
BRANCH  15  18
ATOM     18  O   UNL     1     -33.943  13.123   4.903  1.00  0.00    -0.504 OA
ATOM     19  H   UNL     1     -33.927  12.807   3.943  1.00  0.00     0.293 HD
ENDBRANCH  15  18
BRANCH  17  20
ATOM     20  O   UNL     1     -36.328  11.612   4.141  1.00  0.00    -0.504 OA
ATOM     21  H   UNL     1     -36.675  12.154   3.364  1.00  0.00     0.293 HD
ENDBRANCH  17  20
ENDBRANCH   1  12
BRANCH   2  22
ATOM     22  O   UNL     1     -37.637   9.738   8.749  1.00  0.00    -0.502 OA
ATOM     23  H   UNL     1     -37.122   9.736   7.877  1.00  0.00     0.293 HD
ENDBRANCH   2  22
BRANCH   6  24
ATOM     24  O   UNL     1     -41.591  10.546  12.029  1.00  0.00    -0.507 OA
ATOM     25  H   UNL     1     -41.000   9.724  11.962  1.00  0.00     0.293 HD
ENDBRANCH   6  24
BRANCH   8  26
ATOM     26  O   UNL     1     -42.350  15.281  11.498  1.00  0.00    -0.508 OA
ATOM     27  H   UNL     1     -41.933  16.204  11.463  1.00  0.00     0.293 HD
ENDBRANCH   8  26
TORSDOF 6
ENDMDL
MODEL 3
REMARK VINA RESULT:    -7.695      5.878      9.083
REMARK INTER + INTRA:          -9.054
REMARK INTER:                  -9.003
REMARK INTRA:                  -0.051
REMARK UNBOUND:                 0.215
REMARK SMILES O=c1c(O)c(-c2ccc(O)c(O)c2)oc2cc(O)cc(O)c12
REMARK SMILES IDX 5 1 3 2 2 3 1 4 22 5 20 6 19 7 17 8 16 9 15 10 14 11 6 12
REMARK SMILES IDX 7 13 8 14 9 15 13 16 11 17 10 18 12 20 4 22 21 24 18 26
REMARK H PARENT 10 19 12 21 4 23 21 25 18 27
REMARK Flexibility Score: inf
ROOT
ATOM      1  C   UNL     1     -38.199  11.499   8.179  1.00  0.00     0.180 A 
ATOM      2  C   UNL     1     -36.982  12.064   8.606  1.00  0.00     0.208 A 
ATOM      3  C   UNL     1     -35.975  12.302   7.659  1.00  0.00     0.238 A 
ATOM      4  O   UNL     1     -34.877  12.797   8.032  1.00  0.00    -0.285 OA
ATOM      5  C   UNL     1     -36.206  11.990   6.303  1.00  0.00     0.111 A 
ATOM      6  C   UNL     1     -35.244  12.203   5.285  1.00  0.00     0.134 A 
ATOM      7  C   UNL     1     -35.555  11.876   3.957  1.00  0.00     0.093 A 
ATOM      8  C   UNL     1     -36.802  11.343   3.627  1.00  0.00     0.123 A 
ATOM      9  C   UNL     1     -37.755  11.131   4.628  1.00  0.00     0.094 A 
ATOM     10  C   UNL     1     -37.466  11.448   5.958  1.00  0.00     0.146 A 
ATOM     11  O   UNL     1     -38.387  11.233   6.890  1.00  0.00    -0.452 OA
ENDROOT
BRANCH   1  12
ATOM     12  C   UNL     1     -39.302  11.202   9.121  1.00  0.00     0.025 A 
ATOM     13  C   UNL     1     -40.577  11.767   8.956  1.00  0.00     0.016 A 
ATOM     14  C   UNL     1     -41.594  11.491   9.872  1.00  0.00     0.051 A 
ATOM     15  C   UNL     1     -41.359  10.662  10.973  1.00  0.00     0.157 A 
ATOM     16  C   UNL     1     -39.057  10.388  10.239  1.00  0.00     0.062 A 
ATOM     17  C   UNL     1     -40.071  10.105  11.162  1.00  0.00     0.158 A 
BRANCH  15  18
ATOM     18  O   UNL     1     -42.420  10.423  11.849  1.00  0.00    -0.504 OA
ATOM     19  H   UNL     1     -43.352  10.169  11.551  1.00  0.00     0.293 HD
ENDBRANCH  15  18
BRANCH  17  20
ATOM     20  O   UNL     1     -39.759   9.277  12.242  1.00  0.00    -0.504 OA
ATOM     21  H   UNL     1     -39.322   9.600  13.093  1.00  0.00     0.293 HD
ENDBRANCH  17  20
ENDBRANCH   1  12
BRANCH   2  22
ATOM     22  O   UNL     1     -36.796  12.408   9.949  1.00  0.00    -0.502 OA
ATOM     23  H   UNL     1     -36.361  13.279  10.230  1.00  0.00     0.293 HD
ENDBRANCH   2  22
BRANCH   6  24
ATOM     24  O   UNL     1     -33.989  12.734   5.583  1.00  0.00    -0.507 OA
ATOM     25  H   UNL     1     -33.592  13.498   5.046  1.00  0.00     0.293 HD
ENDBRANCH   6  24
BRANCH   8  26
ATOM     26  O   UNL     1     -37.085  11.027   2.300  1.00  0.00    -0.508 OA
ATOM     27  H   UNL     1     -37.260  10.073   2.007  1.00  0.00     0.293 HD
ENDBRANCH   8  26
TORSDOF 6
ENDMDL
MODEL 4
REMARK VINA RESULT:    -7.626      2.645      7.027
REMARK INTER + INTRA:          -8.970
REMARK INTER:                  -8.710
REMARK INTRA:                  -0.261
REMARK UNBOUND:                 0.215
REMARK SMILES O=c1c(O)c(-c2ccc(O)c(O)c2)oc2cc(O)cc(O)c12
REMARK SMILES IDX 5 1 3 2 2 3 1 4 22 5 20 6 19 7 17 8 16 9 15 10 14 11 6 12
REMARK SMILES IDX 7 13 8 14 9 15 13 16 11 17 10 18 12 20 4 22 21 24 18 26
REMARK H PARENT 10 19 12 21 4 23 21 25 18 27
REMARK Flexibility Score: inf
ROOT
ATOM      1  C   UNL     1     -32.272  14.391   1.669  1.00  0.00     0.180 A 
ATOM      2  C   UNL     1     -32.960  15.196   2.595  1.00  0.00     0.208 A 
ATOM      3  C   UNL     1     -34.102  14.679   3.227  1.00  0.00     0.238 A 
ATOM      4  O   UNL     1     -34.734  15.396   4.050  1.00  0.00    -0.285 OA
ATOM      5  C   UNL     1     -34.522  13.364   2.939  1.00  0.00     0.111 A 
ATOM      6  C   UNL     1     -35.659  12.767   3.536  1.00  0.00     0.134 A 
ATOM      7  C   UNL     1     -36.006  11.449   3.204  1.00  0.00     0.093 A 
ATOM      8  C   UNL     1     -35.243  10.719   2.291  1.00  0.00     0.123 A 
ATOM      9  C   UNL     1     -34.120  11.304   1.698  1.00  0.00     0.094 A 
ATOM     10  C   UNL     1     -33.757  12.616   2.014  1.00  0.00     0.146 A 
ATOM     11  O   UNL     1     -32.688  13.150   1.434  1.00  0.00    -0.452 OA
ENDROOT
BRANCH   1  12
ATOM     12  C   UNL     1     -31.071  14.872   0.948  1.00  0.00     0.025 A 
ATOM     13  C   UNL     1     -31.120  15.209  -0.413  1.00  0.00     0.016 A 
ATOM     14  C   UNL     1     -29.969  15.637  -1.077  1.00  0.00     0.051 A 
ATOM     15  C   UNL     1     -28.747  15.724  -0.403  1.00  0.00     0.157 A 
ATOM     16  C   UNL     1     -29.840  14.936   1.622  1.00  0.00     0.062 A 
ATOM     17  C   UNL     1     -28.680  15.365   0.964  1.00  0.00     0.158 A 
BRANCH  15  18
ATOM     18  O   UNL     1     -27.634  16.163  -1.123  1.00  0.00    -0.504 OA
ATOM     19  H   UNL     1     -26.855  16.658  -0.713  1.00  0.00     0.293 HD
ENDBRANCH  15  18
BRANCH  17  20
ATOM     20  O   UNL     1     -27.494  15.416   1.701  1.00  0.00    -0.504 OA
ATOM     21  H   UNL     1     -26.906  14.616   1.880  1.00  0.00     0.293 HD
ENDBRANCH  17  20
ENDBRANCH   1  12
BRANCH   2  22
ATOM     22  O   UNL     1     -32.495  16.479   2.899  1.00  0.00    -0.502 OA
ATOM     23  H   UNL     1     -31.672  16.637   3.467  1.00  0.00     0.293 HD
ENDBRANCH   2  22
BRANCH   6  24
ATOM     24  O   UNL     1     -36.442  13.470   4.452  1.00  0.00    -0.507 OA
ATOM     25  H   UNL     1     -37.431  13.276   4.568  1.00  0.00     0.293 HD
ENDBRANCH   6  24
BRANCH   8  26
ATOM     26  O   UNL     1     -35.609   9.411   1.979  1.00  0.00    -0.508 OA
ATOM     27  H   UNL     1     -35.584   8.673   2.673  1.00  0.00     0.293 HD
ENDBRANCH   8  26
TORSDOF 6
ENDMDL
MODEL 5
REMARK VINA RESULT:    -7.574      2.150      6.871
REMARK INTER + INTRA:          -8.909
REMARK INTER:                  -8.801
REMARK INTRA:                  -0.108
REMARK UNBOUND:                 0.215
REMARK SMILES O=c1c(O)c(-c2ccc(O)c(O)c2)oc2cc(O)cc(O)c12
REMARK SMILES IDX 5 1 3 2 2 3 1 4 22 5 20 6 19 7 17 8 16 9 15 10 14 11 6 12
REMARK SMILES IDX 7 13 8 14 9 15 13 16 11 17 10 18 12 20 4 22 21 24 18 26
REMARK H PARENT 10 19 12 21 4 23 21 25 18 27
REMARK Flexibility Score: inf
ROOT
ATOM      1  C   UNL     1     -31.404  14.091   1.125  1.00  0.00     0.180 A 
ATOM      2  C   UNL     1     -31.947  12.935   0.533  1.00  0.00     0.208 A 
ATOM      3  C   UNL     1     -33.134  12.399   1.054  1.00  0.00     0.238 A 
ATOM      4  O   UNL     1     -33.623  11.356   0.539  1.00  0.00    -0.285 OA
ATOM      5  C   UNL     1     -33.768  13.036   2.140  1.00  0.00     0.111 A 
ATOM      6  C   UNL     1     -34.970  12.562   2.721  1.00  0.00     0.134 A 
ATOM      7  C   UNL     1     -35.544  13.259   3.795  1.00  0.00     0.093 A 
ATOM      8  C   UNL     1     -34.945  14.415   4.297  1.00  0.00     0.123 A 
ATOM      9  C   UNL     1     -33.758  14.887   3.727  1.00  0.00     0.094 A 
ATOM     10  C   UNL     1     -33.168  14.207   2.658  1.00  0.00     0.146 A 
ATOM     11  O   UNL     1     -32.038  14.673   2.138  1.00  0.00    -0.452 OA
ENDROOT
BRANCH   1  12
ATOM     12  C   UNL     1     -30.146  14.704   0.644  1.00  0.00     0.025 A 
ATOM     13  C   UNL     1     -30.013  15.163  -0.676  1.00  0.00     0.016 A 
ATOM     14  C   UNL     1     -28.808  15.716  -1.114  1.00  0.00     0.051 A 
ATOM     15  C   UNL     1     -27.711  15.810  -0.252  1.00  0.00     0.157 A 
ATOM     16  C   UNL     1     -29.038  14.776   1.505  1.00  0.00     0.062 A 
ATOM     17  C   UNL     1     -27.826  15.330   1.075  1.00  0.00     0.158 A 
BRANCH  15  18
ATOM     18  O   UNL     1     -26.536  16.377  -0.751  1.00  0.00    -0.504 OA
ATOM     19  H   UNL     1     -25.756  15.840  -1.104  1.00  0.00     0.293 HD
ENDBRANCH  15  18
BRANCH  17  20
ATOM     20  O   UNL     1     -26.771  15.381   1.989  1.00  0.00    -0.504 OA
ATOM     21  H   UNL     1     -25.938  14.816   1.921  1.00  0.00     0.293 HD
ENDBRANCH  17  20
ENDBRANCH   1  12
BRANCH   2  22
ATOM     22  O   UNL     1     -31.324  12.350  -0.574  1.00  0.00    -0.502 OA
ATOM     23  H   UNL     1     -30.899  12.900  -1.311  1.00  0.00     0.293 HD
ENDBRANCH   2  22
BRANCH   6  24
ATOM     24  O   UNL     1     -35.594  11.410   2.241  1.00  0.00    -0.507 OA
ATOM     25  H   UNL     1     -36.070  11.395   1.346  1.00  0.00     0.293 HD
ENDBRANCH   6  24
BRANCH   8  26
ATOM     26  O   UNL     1     -35.536  15.089   5.364  1.00  0.00    -0.508 OA
ATOM     27  H   UNL     1     -36.468  14.857   5.687  1.00  0.00     0.293 HD
ENDBRANCH   8  26
TORSDOF 6
ENDMDL
MODEL 6
REMARK VINA RESULT:    -7.485      1.529      1.995
REMARK INTER + INTRA:          -8.801
REMARK INTER:                  -8.490
REMARK INTRA:                  -0.311
REMARK UNBOUND:                 0.215
REMARK SMILES O=c1c(O)c(-c2ccc(O)c(O)c2)oc2cc(O)cc(O)c12
REMARK SMILES IDX 5 1 3 2 2 3 1 4 22 5 20 6 19 7 17 8 16 9 15 10 14 11 6 12
REMARK SMILES IDX 7 13 8 14 9 15 13 16 11 17 10 18 12 20 4 22 21 24 18 26
REMARK H PARENT 10 19 12 21 4 23 21 25 18 27
REMARK Flexibility Score: inf
ROOT
ATOM      1  C   UNL     1     -33.825  14.275   3.412  1.00  0.00     0.180 A 
ATOM      2  C   UNL     1     -34.316  14.134   2.100  1.00  0.00     0.208 A 
ATOM      3  C   UNL     1     -33.443  14.349   1.022  1.00  0.00     0.238 A 
ATOM      4  O   UNL     1     -33.875  14.237  -0.157  1.00  0.00    -0.285 OA
ATOM      5  C   UNL     1     -32.096  14.679   1.272  1.00  0.00     0.111 A 
ATOM      6  C   UNL     1     -31.151  14.907   0.242  1.00  0.00     0.134 A 
ATOM      7  C   UNL     1     -29.825  15.223   0.573  1.00  0.00     0.093 A 
ATOM      8  C   UNL     1     -29.425  15.314   1.908  1.00  0.00     0.123 A 
ATOM      9  C   UNL     1     -30.354  15.090   2.929  1.00  0.00     0.094 A 
ATOM     10  C   UNL     1     -31.681  14.776   2.621  1.00  0.00     0.146 A 
ATOM     11  O   UNL     1     -32.544  14.573   3.609  1.00  0.00    -0.452 OA
ENDROOT
BRANCH   1  12
ATOM     12  C   UNL     1     -34.688  14.083   4.600  1.00  0.00     0.025 A 
ATOM     13  C   UNL     1     -35.262  15.175   5.271  1.00  0.00     0.016 A 
ATOM     14  C   UNL     1     -36.053  14.969   6.404  1.00  0.00     0.051 A 
ATOM     15  C   UNL     1     -36.275  13.679   6.896  1.00  0.00     0.157 A 
ATOM     16  C   UNL     1     -34.890  12.789   5.105  1.00  0.00     0.062 A 
ATOM     17  C   UNL     1     -35.682  12.574   6.241  1.00  0.00     0.158 A 
BRANCH  15  18
ATOM     18  O   UNL     1     -37.078  13.543   8.030  1.00  0.00    -0.504 OA
ATOM     19  H   UNL     1     -36.718  13.441   8.968  1.00  0.00     0.293 HD
ENDBRANCH  15  18
BRANCH  17  20
ATOM     20  O   UNL     1     -35.850  11.259   6.679  1.00  0.00    -0.504 OA
ATOM     21  H   UNL     1     -35.282  10.484   6.370  1.00  0.00     0.293 HD
ENDBRANCH  17  20
ENDBRANCH   1  12
BRANCH   2  22
ATOM     22  O   UNL     1     -35.645  13.759   1.880  1.00  0.00    -0.502 OA
ATOM     23  H   UNL     1     -36.420  14.203   2.357  1.00  0.00     0.293 HD
ENDBRANCH   2  22
BRANCH   6  24
ATOM     24  O   UNL     1     -31.518  14.823  -1.101  1.00  0.00    -0.507 OA
ATOM     25  H   UNL     1     -31.015  14.235  -1.756  1.00  0.00     0.293 HD
ENDBRANCH   6  24
BRANCH   8  26
ATOM     26  O   UNL     1     -28.102  15.628   2.210  1.00  0.00    -0.508 OA
ATOM     27  H   UNL     1     -27.366  15.545   1.518  1.00  0.00     0.293 HD
ENDBRANCH   8  26
TORSDOF 6
ENDMDL
MODEL 7
REMARK VINA RESULT:    -7.476      5.354      8.550
REMARK INTER + INTRA:          -8.790
REMARK INTER:                  -8.463
REMARK INTRA:                  -0.327
REMARK UNBOUND:                 0.215
REMARK SMILES O=c1c(O)c(-c2ccc(O)c(O)c2)oc2cc(O)cc(O)c12
REMARK SMILES IDX 5 1 3 2 2 3 1 4 22 5 20 6 19 7 17 8 16 9 15 10 14 11 6 12
REMARK SMILES IDX 7 13 8 14 9 15 13 16 11 17 10 18 12 20 4 22 21 24 18 26
REMARK H PARENT 10 19 12 21 4 23 21 25 18 27
REMARK Flexibility Score: inf
ROOT
ATOM      1  C   UNL     1     -38.421  11.599   7.879  1.00  0.00     0.180 A 
ATOM      2  C   UNL     1     -38.705  10.938   6.669  1.00  0.00     0.208 A 
ATOM      3  C   UNL     1     -37.821  11.087   5.590  1.00  0.00     0.238 A 
ATOM      4  O   UNL     1     -38.072  10.510   4.498  1.00  0.00    -0.285 OA
ATOM      5  C   UNL     1     -36.661  11.875   5.744  1.00  0.00     0.111 A 
ATOM      6  C   UNL     1     -35.717  12.072   4.707  1.00  0.00     0.134 A 
ATOM      7  C   UNL     1     -34.582  12.863   4.942  1.00  0.00     0.093 A 
ATOM      8  C   UNL     1     -34.372  13.457   6.188  1.00  0.00     0.123 A 
ATOM      9  C   UNL     1     -35.302  13.266   7.215  1.00  0.00     0.094 A 
ATOM     10  C   UNL     1     -36.440  12.483   7.002  1.00  0.00     0.146 A 
ATOM     11  O   UNL     1     -37.310  12.321   7.992  1.00  0.00    -0.452 OA
ENDROOT
BRANCH   1  12
ATOM     12  C   UNL     1     -39.315  11.506   9.056  1.00  0.00     0.025 A 
ATOM     13  C   UNL     1     -40.314  12.463   9.294  1.00  0.00     0.016 A 
ATOM     14  C   UNL     1     -41.128  12.366  10.424  1.00  0.00     0.051 A 
ATOM     15  C   UNL     1     -40.955  11.326  11.342  1.00  0.00     0.157 A 
ATOM     16  C   UNL     1     -39.123  10.474   9.988  1.00  0.00     0.062 A 
ATOM     17  C   UNL     1     -39.936  10.369  11.124  1.00  0.00     0.158 A 
BRANCH  15  18
ATOM     18  O   UNL     1     -41.806  11.285  12.449  1.00  0.00    -0.504 OA
ATOM     19  H   UNL     1     -42.799  11.466  12.405  1.00  0.00     0.293 HD
ENDBRANCH  15  18
BRANCH  17  20
ATOM     20  O   UNL     1     -39.697   9.309  12.002  1.00  0.00    -0.504 OA
ATOM     21  H   UNL     1     -39.338   9.422  12.939  1.00  0.00     0.293 HD
ENDBRANCH  17  20
ENDBRANCH   1  12
BRANCH   2  22
ATOM     22  O   UNL     1     -39.837  10.125   6.558  1.00  0.00    -0.502 OA
ATOM     23  H   UNL     1     -40.081   9.436   7.260  1.00  0.00     0.293 HD
ENDBRANCH   2  22
BRANCH   6  24
ATOM     24  O   UNL     1     -35.897  11.492   3.451  1.00  0.00    -0.507 OA
ATOM     25  H   UNL     1     -35.282  11.703   2.673  1.00  0.00     0.293 HD
ENDBRANCH   6  24
BRANCH   8  26
ATOM     26  O   UNL     1     -33.237  14.237   6.395  1.00  0.00    -0.508 OA
ATOM     27  H   UNL     1     -32.304  13.855   6.288  1.00  0.00     0.293 HD
ENDBRANCH   8  26
TORSDOF 6
ENDMDL
MODEL 8
REMARK VINA RESULT:    -7.378      2.497      4.159
REMARK INTER + INTRA:          -8.672
REMARK INTER:                  -8.392
REMARK INTRA:                  -0.280
REMARK UNBOUND:                 0.215
REMARK SMILES O=c1c(O)c(-c2ccc(O)c(O)c2)oc2cc(O)cc(O)c12
REMARK SMILES IDX 5 1 3 2 2 3 1 4 22 5 20 6 19 7 17 8 16 9 15 10 14 11 6 12
REMARK SMILES IDX 7 13 8 14 9 15 13 16 11 17 10 18 12 20 4 22 21 24 18 26
REMARK H PARENT 10 19 12 21 4 23 21 25 18 27
REMARK Flexibility Score: inf
ROOT
ATOM      1  C   UNL     1     -35.148  13.494   5.272  1.00  0.00     0.180 A 
ATOM      2  C   UNL     1     -35.807  13.407   4.031  1.00  0.00     0.208 A 
ATOM      3  C   UNL     1     -35.149  13.868   2.880  1.00  0.00     0.238 A 
ATOM      4  O   UNL     1     -35.733  13.806   1.764  1.00  0.00    -0.285 OA
ATOM      5  C   UNL     1     -33.842  14.388   2.985  1.00  0.00     0.111 A 
ATOM      6  C   UNL     1     -33.109  14.869   1.874  1.00  0.00     0.134 A 
ATOM      7  C   UNL     1     -31.809  15.362   2.060  1.00  0.00     0.093 A 
ATOM      8  C   UNL     1     -31.229  15.383   3.330  1.00  0.00     0.123 A 
ATOM      9  C   UNL     1     -31.949  14.909   4.431  1.00  0.00     0.094 A 
ATOM     10  C   UNL     1     -33.246  14.415   4.268  1.00  0.00     0.146 A 
ATOM     11  O   UNL     1     -33.910  13.975   5.331  1.00  0.00    -0.452 OA
ENDROOT
BRANCH   1  12
ATOM     12  C   UNL     1     -35.783  13.045   6.532  1.00  0.00     0.025 A 
ATOM     13  C   UNL     1     -36.292  13.965   7.463  1.00  0.00     0.016 A 
ATOM     14  C   UNL     1     -36.864  13.518   8.656  1.00  0.00     0.051 A 
ATOM     15  C   UNL     1     -36.928  12.152   8.949  1.00  0.00     0.157 A 
ATOM     16  C   UNL     1     -35.826  11.675   6.835  1.00  0.00     0.062 A 
ATOM     17  C   UNL     1     -36.399  11.217   8.029  1.00  0.00     0.158 A 
BRANCH  15  18
ATOM     18  O   UNL     1     -37.517  11.772  10.157  1.00  0.00    -0.504 OA
ATOM     19  H   UNL     1     -38.132  12.364  10.697  1.00  0.00     0.293 HD
ENDBRANCH  15  18
BRANCH  17  20
ATOM     20  O   UNL     1     -36.417   9.840   8.257  1.00  0.00    -0.504 OA
ATOM     21  H   UNL     1     -36.744   9.414   9.112  1.00  0.00     0.293 HD
ENDBRANCH  17  20
ENDBRANCH   1  12
BRANCH   2  22
ATOM     22  O   UNL     1     -37.083  12.843   3.946  1.00  0.00    -0.502 OA
ATOM     23  H   UNL     1     -37.835  13.279   3.426  1.00  0.00     0.293 HD
ENDBRANCH   2  22
BRANCH   6  24
ATOM     24  O   UNL     1     -33.659  14.861   0.592  1.00  0.00    -0.507 OA
ATOM     25  H   UNL     1     -34.133  15.673   0.210  1.00  0.00     0.293 HD
ENDBRANCH   6  24
BRANCH   8  26
ATOM     26  O   UNL     1     -29.936  15.877   3.488  1.00  0.00    -0.508 OA
ATOM     27  H   UNL     1     -29.681  16.806   3.175  1.00  0.00     0.293 HD
ENDBRANCH   8  26
TORSDOF 6
ENDMDL
MODEL 9
REMARK VINA RESULT:    -7.244      2.314      7.009
REMARK INTER + INTRA:          -8.510
REMARK INTER:                  -8.186
REMARK INTRA:                  -0.324
REMARK UNBOUND:                 0.215
REMARK SMILES O=c1c(O)c(-c2ccc(O)c(O)c2)oc2cc(O)cc(O)c12
REMARK SMILES IDX 5 1 3 2 2 3 1 4 22 5 20 6 19 7 17 8 16 9 15 10 14 11 6 12
REMARK SMILES IDX 7 13 8 14 9 15 13 16 11 17 10 18 12 20 4 22 21 24 18 26
REMARK H PARENT 10 19 12 21 4 23 21 25 18 27
REMARK Flexibility Score: inf
ROOT
ATOM      1  C   UNL     1     -32.800  13.679   1.905  1.00  0.00     0.180 A 
ATOM      2  C   UNL     1     -33.405  12.465   1.529  1.00  0.00     0.208 A 
ATOM      3  C   UNL     1     -34.443  11.950   2.321  1.00  0.00     0.238 A 
ATOM      4  O   UNL     1     -34.984  10.857   2.000  1.00  0.00    -0.285 OA
ATOM      5  C   UNL     1     -34.871  12.665   3.459  1.00  0.00     0.111 A 
ATOM      6  C   UNL     1     -35.913  12.217   4.307  1.00  0.00     0.134 A 
ATOM      7  C   UNL     1     -36.287  12.991   5.415  1.00  0.00     0.093 A 
ATOM      8  C   UNL     1     -35.644  14.199   5.692  1.00  0.00     0.123 A 
ATOM      9  C   UNL     1     -34.614  14.645   4.858  1.00  0.00     0.094 A 
ATOM     10  C   UNL     1     -34.224  13.889   3.749  1.00  0.00     0.146 A 
ATOM     11  O   UNL     1     -33.240  14.333   2.976  1.00  0.00    -0.452 OA
ENDROOT
BRANCH   1  12
ATOM     12  C   UNL     1     -31.688  14.276   1.131  1.00  0.00     0.025 A 
ATOM     13  C   UNL     1     -31.928  15.165   0.072  1.00  0.00     0.016 A 
ATOM     14  C   UNL     1     -30.863  15.696  -0.659  1.00  0.00     0.051 A 
ATOM     15  C   UNL     1     -29.544  15.343  -0.358  1.00  0.00     0.157 A 
ATOM     16  C   UNL     1     -30.365  13.901   1.420  1.00  0.00     0.062 A 
ATOM     17  C   UNL     1     -29.291  14.430   0.693  1.00  0.00     0.158 A 
BRANCH  15  18
ATOM     18  O   UNL     1     -28.525  15.913  -1.125  1.00  0.00    -0.504 OA
ATOM     19  H   UNL     1     -28.056  15.438  -1.883  1.00  0.00     0.293 HD
ENDBRANCH  15  18
BRANCH  17  20
ATOM     20  O   UNL     1     -28.002  14.022   1.044  1.00  0.00    -0.504 OA
ATOM     21  H   UNL     1     -27.797  13.171   1.546  1.00  0.00     0.293 HD
ENDBRANCH  17  20
ENDBRANCH   1  12
BRANCH   2  22
ATOM     22  O   UNL     1     -32.995  11.800   0.369  1.00  0.00    -0.502 OA
ATOM     23  H   UNL     1     -32.138  12.037  -0.117  1.00  0.00     0.293 HD
ENDBRANCH   2  22
BRANCH   6  24
ATOM     24  O   UNL     1     -36.576  11.015   4.057  1.00  0.00    -0.507 OA
ATOM     25  H   UNL     1     -37.449  10.985   3.541  1.00  0.00     0.293 HD
ENDBRANCH   6  24
BRANCH   8  26
ATOM     26  O   UNL     1     -36.035  14.949   6.799  1.00  0.00    -0.508 OA
ATOM     27  H   UNL     1     -35.864  15.946   6.851  1.00  0.00     0.293 HD
ENDBRANCH   8  26
TORSDOF 6
ENDMDL
