MODEL 1
REMARK VINA RESULT:    -8.291      0.000      0.000
REMARK INTER + INTRA:         -12.736
REMARK INTER:                 -11.441
REMARK INTRA:                  -1.295
REMARK UNBOUND:                -1.295
REMARK SMILES CC[C@@H](CC[C@H](C)[C@H]1CC[C@H]2[C@@H]3CC=C4C[C@H](O)CC[C@@]4(C)[C@H]3CC[C@@]12C)C(C)C
REMARK SMILES IDX 5 1 4 2 3 3 2 4 1 5 28 6 29 7 30 8 6 9 7 10 8 11 9 12 26 13
REMARK SMILES IDX 10 14 11 15 25 16 27 17 12 18 24 19 23 20 13 21 21 22 14 23
REMARK SMILES IDX 15 24 20 25 22 26 16 27 19 28 17 29 18 30
REMARK H PARENT 18 31
REMARK Flexibility Score: inf
ROOT
ATOM      1  C   UNL     1      -1.449  20.189  47.512  1.00  0.00     0.004 C 
ENDROOT
BRANCH   1   2
ATOM      2  C   UNL     1      -2.484  19.619  46.512  1.00  0.00     0.004 C 
BRANCH   2   3
ATOM      3  C   UNL     1      -2.623  18.061  46.475  1.00  0.00    -0.009 C 
BRANCH   3   4
ATOM      4  C   UNL     1      -3.181  17.503  45.138  1.00  0.00     0.000 C 
ATOM      5  C   UNL     1      -2.185  16.593  44.416  1.00  0.00     0.004 C 
ENDBRANCH   3   4
BRANCH   3   6
ATOM      6  C   UNL     1      -3.364  17.435  47.704  1.00  0.00    -0.014 C 
ATOM      7  C   UNL     1      -4.346  18.385  48.403  1.00  0.00     0.007 C 
ATOM      8  C   UNL     1      -2.390  16.831  48.729  1.00  0.00     0.007 C 
ENDBRANCH   3   6
ENDBRANCH   2   3
ENDBRANCH   1   2
BRANCH   1   9
ATOM      9  C   UNL     1      -1.630  21.707  47.770  1.00  0.00    -0.011 C 
ATOM     10  C   UNL     1      -0.351  22.255  48.442  1.00  0.00     0.008 C 
BRANCH   9  11
ATOM     11  C   UNL     1      -2.901  22.012  48.654  1.00  0.00    -0.002 C 
ATOM     12  C   UNL     1      -2.544  22.827  49.893  1.00  0.00     0.005 C 
ATOM     13  C   UNL     1      -4.108  22.798  48.009  1.00  0.00    -0.026 C 
ATOM     14  C   UNL     1      -3.849  23.374  50.418  1.00  0.00     0.005 C 
ATOM     15  C   UNL     1      -4.746  23.607  49.196  1.00  0.00    -0.001 C 
ATOM     16  C   UNL     1      -3.639  23.768  46.889  1.00  0.00     0.007 C 
ATOM     17  C   UNL     1      -5.186  21.820  47.451  1.00  0.00     0.012 C 
ATOM     18  C   UNL     1      -4.958  25.135  48.930  1.00  0.00     0.000 C 
ATOM     19  C   UNL     1      -4.781  24.650  46.380  1.00  0.00     0.005 C 
ATOM     20  C   UNL     1      -5.515  25.433  47.511  1.00  0.00     0.003 C 
ATOM     21  C   UNL     1      -5.951  25.710  49.957  1.00  0.00     0.031 C 
ATOM     22  C   UNL     1      -5.652  26.990  47.244  1.00  0.00    -0.008 C 
ATOM     23  C   UNL     1      -6.238  27.157  49.706  1.00  0.00    -0.027 C 
ATOM     24  C   UNL     1      -6.194  27.725  48.482  1.00  0.00    -0.065 C 
ATOM     25  C   UNL     1      -4.279  27.660  46.891  1.00  0.00     0.014 C 
ATOM     26  C   UNL     1      -6.639  27.172  46.061  1.00  0.00     0.016 C 
ATOM     27  C   UNL     1      -6.314  29.230  48.403  1.00  0.00     0.063 C 
ATOM     28  C   UNL     1      -4.334  29.204  46.829  1.00  0.00     0.033 C 
ATOM     29  C   UNL     1      -4.922  29.811  48.115  1.00  0.00     0.118 C 
BRANCH  29  30
ATOM     30  O   UNL     1      -4.973  31.213  48.021  1.00  0.00    -0.393 OA
ATOM     31  H   UNL     1      -4.947  31.452  47.057  1.00  0.00     0.210 HD
ENDBRANCH  29  30
ENDBRANCH   9  11
ENDBRANCH   1   9
TORSDOF 7
ENDMDL
MODEL 2
REMARK VINA RESULT:    -7.588      1.894      2.617
REMARK INTER + INTRA:         -11.767
REMARK INTER:                  -9.932
REMARK INTRA:                  -1.835
REMARK UNBOUND:                -1.295
REMARK SMILES CC[C@@H](CC[C@H](C)[C@H]1CC[C@H]2[C@@H]3CC=C4C[C@H](O)CC[C@@]4(C)[C@H]3CC[C@@]12C)C(C)C
REMARK SMILES IDX 5 1 4 2 3 3 2 4 1 5 28 6 29 7 30 8 6 9 7 10 8 11 9 12 26 13
REMARK SMILES IDX 10 14 11 15 25 16 27 17 12 18 24 19 23 20 13 21 21 22 14 23
REMARK SMILES IDX 15 24 20 25 22 26 16 27 19 28 17 29 18 30
REMARK H PARENT 18 31
REMARK Flexibility Score: inf
ROOT
ATOM      1  C   UNL     1      -2.714  20.298  45.124  1.00  0.00     0.004 C 
ENDROOT
BRANCH   1   2
ATOM      2  C   UNL     1      -3.265  19.125  45.972  1.00  0.00     0.004 C 
BRANCH   2   3
ATOM      3  C   UNL     1      -2.200  18.166  46.599  1.00  0.00    -0.009 C 
BRANCH   3   4
ATOM      4  C   UNL     1      -1.814  16.965  45.694  1.00  0.00     0.000 C 
ATOM      5  C   UNL     1      -2.904  16.616  44.678  1.00  0.00     0.004 C 
ENDBRANCH   3   4
BRANCH   3   6
ATOM      6  C   UNL     1      -2.513  17.698  48.060  1.00  0.00    -0.014 C 
ATOM      7  C   UNL     1      -2.293  16.200  48.306  1.00  0.00     0.007 C 
ATOM      8  C   UNL     1      -3.924  18.109  48.516  1.00  0.00     0.007 C 
ENDBRANCH   3   6
ENDBRANCH   2   3
ENDBRANCH   1   2
BRANCH   1   9
ATOM      9  C   UNL     1      -2.491  21.590  45.951  1.00  0.00    -0.011 C 
ATOM     10  C   UNL     1      -0.994  21.965  45.899  1.00  0.00     0.008 C 
BRANCH   9  11
ATOM     11  C   UNL     1      -2.976  21.430  47.444  1.00  0.00    -0.002 C 
ATOM     12  C   UNL     1      -1.818  21.550  48.430  1.00  0.00     0.005 C 
ATOM     13  C   UNL     1      -4.064  22.427  48.005  1.00  0.00    -0.026 C 
ATOM     14  C   UNL     1      -2.447  21.774  49.782  1.00  0.00     0.005 C 
ATOM     15  C   UNL     1      -3.738  22.564  49.536  1.00  0.00    -0.001 C 
ATOM     16  C   UNL     1      -3.991  23.816  47.313  1.00  0.00     0.007 C 
ATOM     17  C   UNL     1      -5.499  21.835  47.863  1.00  0.00     0.012 C 
ATOM     18  C   UNL     1      -3.617  24.031  50.068  1.00  0.00     0.000 C 
ATOM     19  C   UNL     1      -4.929  24.832  47.969  1.00  0.00     0.005 C 
ATOM     20  C   UNL     1      -4.718  24.973  49.508  1.00  0.00     0.003 C 
ATOM     21  C   UNL     1      -3.727  24.040  51.604  1.00  0.00     0.031 C 
ATOM     22  C   UNL     1      -4.528  26.466  50.005  1.00  0.00    -0.008 C 
ATOM     23  C   UNL     1      -3.682  25.428  52.159  1.00  0.00    -0.027 C 
ATOM     24  C   UNL     1      -4.119  26.515  51.487  1.00  0.00    -0.065 C 
ATOM     25  C   UNL     1      -3.412  27.227  49.208  1.00  0.00     0.014 C 
ATOM     26  C   UNL     1      -5.887  27.192  49.820  1.00  0.00     0.016 C 
ATOM     27  C   UNL     1      -3.834  27.873  52.089  1.00  0.00     0.063 C 
ATOM     28  C   UNL     1      -3.054  28.610  49.798  1.00  0.00     0.033 C 
ATOM     29  C   UNL     1      -2.694  28.524  51.292  1.00  0.00     0.118 C 
BRANCH  29  30
ATOM     30  O   UNL     1      -2.389  29.797  51.802  1.00  0.00    -0.393 OA
ATOM     31  H   UNL     1      -2.103  30.367  51.039  1.00  0.00     0.210 HD
ENDBRANCH  29  30
ENDBRANCH   9  11
ENDBRANCH   1   9
TORSDOF 7
ENDMDL
MODEL 3
REMARK VINA RESULT:    -7.431      2.902      4.904
REMARK INTER + INTRA:         -11.551
REMARK INTER:                  -9.979
REMARK INTRA:                  -1.571
REMARK UNBOUND:                -1.295
REMARK SMILES CC[C@@H](CC[C@H](C)[C@H]1CC[C@H]2[C@@H]3CC=C4C[C@H](O)CC[C@@]4(C)[C@H]3CC[C@@]12C)C(C)C
REMARK SMILES IDX 5 1 4 2 3 3 2 4 1 5 28 6 29 7 30 8 6 9 7 10 8 11 9 12 26 13
REMARK SMILES IDX 10 14 11 15 25 16 27 17 12 18 24 19 23 20 13 21 21 22 14 23
REMARK SMILES IDX 15 24 20 25 22 26 16 27 19 28 17 29 18 30
REMARK H PARENT 18 31
REMARK Flexibility Score: inf
ROOT
ATOM      1  C   UNL     1      -0.255  18.500  46.929  1.00  0.00     0.004 C 
ENDROOT
BRANCH   1   2
ATOM      2  C   UNL     1       0.991  19.266  47.437  1.00  0.00     0.004 C 
BRANCH   2   3
ATOM      3  C   UNL     1       1.965  19.806  46.338  1.00  0.00    -0.009 C 
BRANCH   3   4
ATOM      4  C   UNL     1       3.211  18.911  46.096  1.00  0.00     0.000 C 
ATOM      5  C   UNL     1       3.203  18.246  44.718  1.00  0.00     0.004 C 
ENDBRANCH   3   4
BRANCH   3   6
ATOM      6  C   UNL     1       2.369  21.310  46.496  1.00  0.00    -0.014 C 
ATOM      7  C   UNL     1       2.280  21.843  47.932  1.00  0.00     0.007 C 
ATOM      8  C   UNL     1       1.589  22.229  45.540  1.00  0.00     0.007 C 
ENDBRANCH   3   6
ENDBRANCH   2   3
ENDBRANCH   1   2
BRANCH   1   9
ATOM      9  C   UNL     1      -1.431  18.522  47.938  1.00  0.00    -0.011 C 
ATOM     10  C   UNL     1      -1.909  17.072  48.180  1.00  0.00     0.008 C 
BRANCH   9  11
ATOM     11  C   UNL     1      -2.624  19.428  47.441  1.00  0.00    -0.002 C 
ATOM     12  C   UNL     1      -3.862  19.261  48.315  1.00  0.00     0.005 C 
ATOM     13  C   UNL     1      -2.414  20.990  47.364  1.00  0.00    -0.026 C 
ATOM     14  C   UNL     1      -4.757  20.432  47.992  1.00  0.00     0.005 C 
ATOM     15  C   UNL     1      -3.832  21.605  47.648  1.00  0.00    -0.001 C 
ATOM     16  C   UNL     1      -1.390  21.492  48.419  1.00  0.00     0.007 C 
ATOM     17  C   UNL     1      -1.968  21.431  45.937  1.00  0.00     0.012 C 
ATOM     18  C   UNL     1      -3.876  22.708  48.758  1.00  0.00     0.000 C 
ATOM     19  C   UNL     1      -1.311  23.020  48.458  1.00  0.00     0.005 C 
ATOM     20  C   UNL     1      -2.694  23.711  48.665  1.00  0.00     0.003 C 
ATOM     21  C   UNL     1      -5.185  23.511  48.644  1.00  0.00     0.031 C 
ATOM     22  C   UNL     1      -2.724  24.772  49.842  1.00  0.00    -0.008 C 
ATOM     23  C   UNL     1      -5.248  24.622  49.643  1.00  0.00    -0.027 C 
ATOM     24  C   UNL     1      -4.157  25.256  50.123  1.00  0.00    -0.065 C 
ATOM     25  C   UNL     1      -2.176  24.187  51.190  1.00  0.00     0.014 C 
ATOM     26  C   UNL     1      -1.849  25.975  49.403  1.00  0.00     0.016 C 
ATOM     27  C   UNL     1      -4.355  26.222  51.269  1.00  0.00     0.063 C 
ATOM     28  C   UNL     1      -2.383  25.119  52.406  1.00  0.00     0.033 C 
ATOM     29  C   UNL     1      -3.852  25.554  52.557  1.00  0.00     0.118 C 
BRANCH  29  30
ATOM     30  O   UNL     1      -4.003  26.412  53.660  1.00  0.00    -0.393 OA
ATOM     31  H   UNL     1      -4.354  27.278  53.322  1.00  0.00     0.210 HD
ENDBRANCH  29  30
ENDBRANCH   9  11
ENDBRANCH   1   9
TORSDOF 7
ENDMDL
MODEL 4
REMARK VINA RESULT:    -7.341      1.970      4.224
REMARK INTER + INTRA:         -11.425
REMARK INTER:                 -10.151
REMARK INTRA:                  -1.274
REMARK UNBOUND:                -1.295
REMARK SMILES CC[C@@H](CC[C@H](C)[C@H]1CC[C@H]2[C@@H]3CC=C4C[C@H](O)CC[C@@]4(C)[C@H]3CC[C@@]12C)C(C)C
REMARK SMILES IDX 5 1 4 2 3 3 2 4 1 5 28 6 29 7 30 8 6 9 7 10 8 11 9 12 26 13
REMARK SMILES IDX 10 14 11 15 25 16 27 17 12 18 24 19 23 20 13 21 21 22 14 23
REMARK SMILES IDX 15 24 20 25 22 26 16 27 19 28 17 29 18 30
REMARK H PARENT 18 31
REMARK Flexibility Score: inf
ROOT
ATOM      1  C   UNL     1      -4.108  22.411  49.480  1.00  0.00     0.004 C 
ENDROOT
BRANCH   1   2
ATOM      2  C   UNL     1      -4.757  22.141  48.100  1.00  0.00     0.004 C 
BRANCH   2   3
ATOM      3  C   UNL     1      -4.389  20.782  47.417  1.00  0.00    -0.009 C 
BRANCH   3   4
ATOM      4  C   UNL     1      -3.792  19.724  48.385  1.00  0.00     0.000 C 
ATOM      5  C   UNL     1      -4.613  18.433  48.428  1.00  0.00     0.004 C 
ENDBRANCH   3   4
BRANCH   3   6
ATOM      6  C   UNL     1      -3.529  20.909  46.116  1.00  0.00    -0.014 C 
ATOM      7  C   UNL     1      -2.723  19.653  45.763  1.00  0.00     0.007 C 
ATOM      8  C   UNL     1      -2.608  22.141  46.141  1.00  0.00     0.007 C 
ENDBRANCH   3   6
ENDBRANCH   2   3
ENDBRANCH   1   2
BRANCH   1   9
ATOM      9  C   UNL     1      -4.078  23.916  49.850  1.00  0.00    -0.011 C 
ATOM     10  C   UNL     1      -4.433  24.068  51.346  1.00  0.00     0.008 C 
BRANCH   9  11
ATOM     11  C   UNL     1      -5.057  24.767  48.953  1.00  0.00    -0.002 C 
ATOM     12  C   UNL     1      -6.248  25.287  49.753  1.00  0.00     0.005 C 
ATOM     13  C   UNL     1      -4.500  26.048  48.218  1.00  0.00    -0.026 C 
ATOM     14  C   UNL     1      -6.868  26.375  48.912  1.00  0.00     0.005 C 
ATOM     15  C   UNL     1      -5.720  27.035  48.139  1.00  0.00    -0.001 C 
ATOM     16  C   UNL     1      -3.328  26.703  48.999  1.00  0.00     0.007 C 
ATOM     17  C   UNL     1      -4.049  25.712  46.763  1.00  0.00     0.012 C 
ATOM     18  C   UNL     1      -5.444  28.486  48.658  1.00  0.00     0.000 C 
ATOM     19  C   UNL     1      -2.898  28.033  48.376  1.00  0.00     0.005 C 
ATOM     20  C   UNL     1      -4.071  29.045  48.197  1.00  0.00     0.003 C 
ATOM     21  C   UNL     1      -6.538  29.440  48.145  1.00  0.00     0.031 C 
ATOM     22  C   UNL     1      -3.787  30.485  48.796  1.00  0.00    -0.008 C 
ATOM     23  C   UNL     1      -6.286  30.855  48.560  1.00  0.00    -0.027 C 
ATOM     24  C   UNL     1      -5.052  31.362  48.770  1.00  0.00    -0.065 C 
ATOM     25  C   UNL     1      -3.311  30.431  50.288  1.00  0.00     0.014 C 
ATOM     26  C   UNL     1      -2.687  31.142  47.921  1.00  0.00     0.016 C 
ATOM     27  C   UNL     1      -4.955  32.744  49.374  1.00  0.00     0.063 C 
ATOM     28  C   UNL     1      -3.226  31.816  50.970  1.00  0.00     0.033 C 
ATOM     29  C   UNL     1      -4.544  32.601  50.847  1.00  0.00     0.118 C 
BRANCH  29  30
ATOM     30  O   UNL     1      -4.430  33.860  51.460  1.00  0.00    -0.393 OA
ATOM     31  H   UNL     1      -3.852  34.426  50.883  1.00  0.00     0.210 HD
ENDBRANCH  29  30
ENDBRANCH   9  11
ENDBRANCH   1   9
TORSDOF 7
ENDMDL
MODEL 5
REMARK VINA RESULT:    -7.318      1.769      3.352
REMARK INTER + INTRA:         -11.395
REMARK INTER:                  -9.526
REMARK INTRA:                  -1.868
REMARK UNBOUND:                -1.295
REMARK SMILES CC[C@@H](CC[C@H](C)[C@H]1CC[C@H]2[C@@H]3CC=C4C[C@H](O)CC[C@@]4(C)[C@H]3CC[C@@]12C)C(C)C
REMARK SMILES IDX 5 1 4 2 3 3 2 4 1 5 28 6 29 7 30 8 6 9 7 10 8 11 9 12 26 13
REMARK SMILES IDX 10 14 11 15 25 16 27 17 12 18 24 19 23 20 13 21 21 22 14 23
REMARK SMILES IDX 15 24 20 25 22 26 16 27 19 28 17 29 18 30
REMARK H PARENT 18 31
REMARK Flexibility Score: inf
ROOT
ATOM      1  C   UNL     1      -2.357  22.650  50.204  1.00  0.00     0.004 C 
ENDROOT
BRANCH   1   2
ATOM      2  C   UNL     1      -1.851  22.286  48.786  1.00  0.00     0.004 C 
BRANCH   2   3
ATOM      3  C   UNL     1      -2.329  20.910  48.215  1.00  0.00    -0.009 C 
BRANCH   3   4
ATOM      4  C   UNL     1      -2.121  20.750  46.684  1.00  0.00     0.000 C 
ATOM      5  C   UNL     1      -1.247  21.856  46.087  1.00  0.00     0.004 C 
ENDBRANCH   3   4
BRANCH   3   6
ATOM      6  C   UNL     1      -3.775  20.486  48.639  1.00  0.00    -0.014 C 
ATOM      7  C   UNL     1      -3.990  18.970  48.731  1.00  0.00     0.007 C 
ATOM      8  C   UNL     1      -4.856  21.122  47.748  1.00  0.00     0.007 C 
ENDBRANCH   3   6
ENDBRANCH   2   3
ENDBRANCH   1   2
BRANCH   1   9
ATOM      9  C   UNL     1      -2.980  24.068  50.278  1.00  0.00    -0.011 C 
ATOM     10  C   UNL     1      -3.299  24.397  51.753  1.00  0.00     0.008 C 
BRANCH   9  11
ATOM     11  C   UNL     1      -4.275  24.194  49.385  1.00  0.00    -0.002 C 
ATOM     12  C   UNL     1      -5.502  24.551  50.217  1.00  0.00     0.005 C 
ATOM     13  C   UNL     1      -4.290  25.244  48.206  1.00  0.00    -0.026 C 
ATOM     14  C   UNL     1      -6.546  25.021  49.234  1.00  0.00     0.005 C 
ATOM     15  C   UNL     1      -5.790  25.699  48.086  1.00  0.00    -0.001 C 
ATOM     16  C   UNL     1      -3.380  26.468  48.506  1.00  0.00     0.007 C 
ATOM     17  C   UNL     1      -3.870  24.586  46.857  1.00  0.00     0.012 C 
ATOM     18  C   UNL     1      -6.024  27.246  48.085  1.00  0.00     0.000 C 
ATOM     19  C   UNL     1      -3.523  27.561  47.445  1.00  0.00     0.005 C 
ATOM     20  C   UNL     1      -4.996  28.017  47.213  1.00  0.00     0.003 C 
ATOM     21  C   UNL     1      -7.431  27.560  47.544  1.00  0.00     0.031 C 
ATOM     22  C   UNL     1      -5.213  29.585  47.289  1.00  0.00    -0.008 C 
ATOM     23  C   UNL     1      -7.683  29.033  47.462  1.00  0.00    -0.027 C 
ATOM     24  C   UNL     1      -6.709  29.946  47.260  1.00  0.00    -0.065 C 
ATOM     25  C   UNL     1      -4.628  30.209  48.603  1.00  0.00     0.014 C 
ATOM     26  C   UNL     1      -4.507  30.210  46.057  1.00  0.00     0.016 C 
ATOM     27  C   UNL     1      -7.078  31.406  47.395  1.00  0.00     0.063 C 
ATOM     28  C   UNL     1      -5.002  31.694  48.812  1.00  0.00     0.033 C 
ATOM     29  C   UNL     1      -6.522  31.923  48.730  1.00  0.00     0.118 C 
BRANCH  29  30
ATOM     30  O   UNL     1      -6.827  33.283  48.907  1.00  0.00    -0.393 OA
ATOM     31  H   UNL     1      -5.994  33.746  49.190  1.00  0.00     0.210 HD
ENDBRANCH  29  30
ENDBRANCH   9  11
ENDBRANCH   1   9
TORSDOF 7
ENDMDL
MODEL 6
REMARK VINA RESULT:    -7.290      1.593      2.601
REMARK INTER + INTRA:         -11.356
REMARK INTER:                  -9.372
REMARK INTRA:                  -1.984
REMARK UNBOUND:                -1.295
REMARK SMILES CC[C@@H](CC[C@H](C)[C@H]1CC[C@H]2[C@@H]3CC=C4C[C@H](O)CC[C@@]4(C)[C@H]3CC[C@@]12C)C(C)C
REMARK SMILES IDX 5 1 4 2 3 3 2 4 1 5 28 6 29 7 30 8 6 9 7 10 8 11 9 12 26 13
REMARK SMILES IDX 10 14 11 15 25 16 27 17 12 18 24 19 23 20 13 21 21 22 14 23
REMARK SMILES IDX 15 24 20 25 22 26 16 27 19 28 17 29 18 30
REMARK H PARENT 18 31
REMARK Flexibility Score: inf
ROOT
ATOM      1  C   UNL     1      -0.726  22.120  49.187  1.00  0.00     0.004 C 
ENDROOT
BRANCH   1   2
ATOM      2  C   UNL     1      -0.322  22.457  47.730  1.00  0.00     0.004 C 
BRANCH   2   3
ATOM      3  C   UNL     1      -0.786  21.443  46.633  1.00  0.00    -0.009 C 
BRANCH   3   4
ATOM      4  C   UNL     1      -1.833  22.015  45.639  1.00  0.00     0.000 C 
ATOM      5  C   UNL     1      -1.362  23.305  44.963  1.00  0.00     0.004 C 
ENDBRANCH   3   4
BRANCH   3   6
ATOM      6  C   UNL     1      -1.226  20.041  47.174  1.00  0.00    -0.014 C 
ATOM      7  C   UNL     1      -0.107  18.991  47.195  1.00  0.00     0.007 C 
ATOM      8  C   UNL     1      -2.458  19.489  46.437  1.00  0.00     0.007 C 
ENDBRANCH   3   6
ENDBRANCH   2   3
ENDBRANCH   1   2
BRANCH   1   9
ATOM      9  C   UNL     1      -1.248  23.352  49.970  1.00  0.00    -0.011 C 
ATOM     10  C   UNL     1      -0.457  23.476  51.290  1.00  0.00     0.008 C 
BRANCH   9  11
ATOM     11  C   UNL     1      -2.798  23.261  50.252  1.00  0.00    -0.002 C 
ATOM     12  C   UNL     1      -3.227  24.220  51.358  1.00  0.00     0.005 C 
ATOM     13  C   UNL     1      -3.807  23.555  49.075  1.00  0.00    -0.026 C 
ATOM     14  C   UNL     1      -4.729  24.323  51.256  1.00  0.00     0.005 C 
ATOM     15  C   UNL     1      -5.076  24.169  49.770  1.00  0.00    -0.001 C 
ATOM     16  C   UNL     1      -3.221  24.558  48.043  1.00  0.00     0.007 C 
ATOM     17  C   UNL     1      -4.234  22.240  48.355  1.00  0.00     0.012 C 
ATOM     18  C   UNL     1      -5.588  25.517  49.162  1.00  0.00     0.000 C 
ATOM     19  C   UNL     1      -4.256  24.972  46.995  1.00  0.00     0.005 C 
ATOM     20  C   UNL     1      -5.579  25.526  47.609  1.00  0.00     0.003 C 
ATOM     21  C   UNL     1      -7.032  25.783  49.626  1.00  0.00     0.031 C 
ATOM     22  C   UNL     1      -6.033  26.927  47.023  1.00  0.00    -0.008 C 
ATOM     23  C   UNL     1      -7.593  27.030  49.020  1.00  0.00    -0.027 C 
ATOM     24  C   UNL     1      -7.218  27.508  47.813  1.00  0.00    -0.065 C 
ATOM     25  C   UNL     1      -4.890  27.999  47.077  1.00  0.00     0.014 C 
ATOM     26  C   UNL     1      -6.460  26.695  45.549  1.00  0.00     0.016 C 
ATOM     27  C   UNL     1      -7.720  28.876  47.414  1.00  0.00     0.063 C 
ATOM     28  C   UNL     1      -5.354  29.427  46.711  1.00  0.00     0.033 C 
ATOM     29  C   UNL     1      -6.562  29.875  47.552  1.00  0.00     0.118 C 
BRANCH  29  30
ATOM     30  O   UNL     1      -6.969  31.169  47.184  1.00  0.00    -0.393 OA
ATOM     31  H   UNL     1      -7.420  31.579  47.970  1.00  0.00     0.210 HD
ENDBRANCH  29  30
ENDBRANCH   9  11
ENDBRANCH   1   9
TORSDOF 7
ENDMDL
MODEL 7
REMARK VINA RESULT:    -7.193      3.121      9.326
REMARK INTER + INTRA:         -11.221
REMARK INTER:                  -9.618
REMARK INTRA:                  -1.603
REMARK UNBOUND:                -1.295
REMARK SMILES CC[C@@H](CC[C@H](C)[C@H]1CC[C@H]2[C@@H]3CC=C4C[C@H](O)CC[C@@]4(C)[C@H]3CC[C@@]12C)C(C)C
REMARK SMILES IDX 5 1 4 2 3 3 2 4 1 5 28 6 29 7 30 8 6 9 7 10 8 11 9 12 26 13
REMARK SMILES IDX 10 14 11 15 25 16 27 17 12 18 24 19 23 20 13 21 21 22 14 23
REMARK SMILES IDX 15 24 20 25 22 26 16 27 19 28 17 29 18 30
REMARK H PARENT 18 31
REMARK Flexibility Score: inf
ROOT
ATOM      1  C   UNL     1      -8.066  29.540  45.925  1.00  0.00     0.004 C 
ENDROOT
BRANCH   1   2
ATOM      2  C   UNL     1      -8.061  30.758  46.882  1.00  0.00     0.004 C 
BRANCH   2   3
ATOM      3  C   UNL     1      -6.999  31.867  46.583  1.00  0.00    -0.009 C 
BRANCH   3   4
ATOM      4  C   UNL     1      -5.883  31.430  45.595  1.00  0.00     0.000 C 
ATOM      5  C   UNL     1      -6.110  31.957  44.176  1.00  0.00     0.004 C 
ENDBRANCH   3   4
BRANCH   3   6
ATOM      6  C   UNL     1      -6.396  32.562  47.850  1.00  0.00    -0.014 C 
ATOM      7  C   UNL     1      -5.951  31.593  48.952  1.00  0.00     0.007 C 
ATOM      8  C   UNL     1      -7.335  33.633  48.432  1.00  0.00     0.007 C 
ENDBRANCH   3   6
ENDBRANCH   2   3
ENDBRANCH   1   2
BRANCH   1   9
ATOM      9  C   UNL     1      -8.284  28.193  46.660  1.00  0.00    -0.011 C 
ATOM     10  C   UNL     1      -9.775  28.070  47.045  1.00  0.00     0.008 C 
BRANCH   9  11
ATOM     11  C   UNL     1      -7.364  28.058  47.936  1.00  0.00    -0.002 C 
ATOM     12  C   UNL     1      -8.022  27.208  49.018  1.00  0.00     0.005 C 
ATOM     13  C   UNL     1      -5.925  27.430  47.775  1.00  0.00    -0.026 C 
ATOM     14  C   UNL     1      -6.920  26.836  49.978  1.00  0.00     0.005 C 
ATOM     15  C   UNL     1      -5.639  26.715  49.145  1.00  0.00    -0.001 C 
ATOM     16  C   UNL     1      -5.864  26.405  46.610  1.00  0.00     0.007 C 
ATOM     17  C   UNL     1      -4.846  28.537  47.568  1.00  0.00     0.012 C 
ATOM     18  C   UNL     1      -5.167  25.226  49.038  1.00  0.00     0.000 C 
ATOM     19  C   UNL     1      -4.520  25.675  46.559  1.00  0.00     0.005 C 
ATOM     20  C   UNL     1      -4.128  24.996  47.908  1.00  0.00     0.003 C 
ATOM     21  C   UNL     1      -4.524  24.787  50.367  1.00  0.00     0.031 C 
ATOM     22  C   UNL     1      -3.724  23.469  47.776  1.00  0.00    -0.008 C 
ATOM     23  C   UNL     1      -3.997  23.388  50.297  1.00  0.00    -0.027 C 
ATOM     24  C   UNL     1      -3.553  22.814  49.158  1.00  0.00    -0.065 C 
ATOM     25  C   UNL     1      -4.803  22.627  47.012  1.00  0.00     0.014 C 
ATOM     26  C   UNL     1      -2.377  23.411  47.008  1.00  0.00     0.016 C 
ATOM     27  C   UNL     1      -3.234  21.337  49.196  1.00  0.00     0.063 C 
ATOM     28  C   UNL     1      -4.546  21.103  47.046  1.00  0.00     0.033 C 
ATOM     29  C   UNL     1      -4.364  20.581  48.482  1.00  0.00     0.118 C 
BRANCH  29  30
ATOM     30  O   UNL     1      -4.117  19.197  48.478  1.00  0.00    -0.393 OA
ATOM     31  H   UNL     1      -3.808  18.948  47.566  1.00  0.00     0.210 HD
ENDBRANCH  29  30
ENDBRANCH   9  11
ENDBRANCH   1   9
TORSDOF 7
ENDMDL
MODEL 8
REMARK VINA RESULT:    -7.111      4.568      7.466
REMARK INTER + INTRA:         -11.109
REMARK INTER:                  -9.049
REMARK INTRA:                  -2.059
REMARK UNBOUND:                -1.295
REMARK SMILES CC[C@@H](CC[C@H](C)[C@H]1CC[C@H]2[C@@H]3CC=C4C[C@H](O)CC[C@@]4(C)[C@H]3CC[C@@]12C)C(C)C
REMARK SMILES IDX 5 1 4 2 3 3 2 4 1 5 28 6 29 7 30 8 6 9 7 10 8 11 9 12 26 13
REMARK SMILES IDX 10 14 11 15 25 16 27 17 12 18 24 19 23 20 13 21 21 22 14 23
REMARK SMILES IDX 15 24 20 25 22 26 16 27 19 28 17 29 18 30
REMARK H PARENT 18 31
REMARK Flexibility Score: inf
ROOT
ATOM      1  C   UNL     1       2.612  26.028  54.112  1.00  0.00     0.004 C 
ENDROOT
BRANCH   1   2
ATOM      2  C   UNL     1       3.729  24.958  54.037  1.00  0.00     0.004 C 
BRANCH   2   3
ATOM      3  C   UNL     1       3.428  23.707  53.146  1.00  0.00    -0.009 C 
BRANCH   3   4
ATOM      4  C   UNL     1       3.426  22.361  53.920  1.00  0.00     0.000 C 
ATOM      5  C   UNL     1       4.759  21.616  53.814  1.00  0.00     0.004 C 
ENDBRANCH   3   4
BRANCH   3   6
ATOM      6  C   UNL     1       4.282  23.609  51.838  1.00  0.00    -0.014 C 
ATOM      7  C   UNL     1       5.360  24.692  51.701  1.00  0.00     0.007 C 
ATOM      8  C   UNL     1       3.410  23.565  50.572  1.00  0.00     0.007 C 
ENDBRANCH   3   6
ENDBRANCH   2   3
ENDBRANCH   1   2
BRANCH   1   9
ATOM      9  C   UNL     1       1.609  25.939  52.933  1.00  0.00    -0.011 C 
ATOM     10  C   UNL     1       1.584  27.296  52.195  1.00  0.00     0.008 C 
BRANCH   9  11
ATOM     11  C   UNL     1       0.161  25.538  53.415  1.00  0.00    -0.002 C 
ATOM     12  C   UNL     1      -0.838  26.671  53.205  1.00  0.00     0.005 C 
ATOM     13  C   UNL     1      -0.540  24.282  52.764  1.00  0.00    -0.026 C 
ATOM     14  C   UNL     1      -2.206  26.045  53.325  1.00  0.00     0.005 C 
ATOM     15  C   UNL     1      -2.076  24.612  52.795  1.00  0.00    -0.001 C 
ATOM     16  C   UNL     1      -0.070  24.046  51.302  1.00  0.00     0.007 C 
ATOM     17  C   UNL     1      -0.300  22.997  53.614  1.00  0.00     0.012 C 
ATOM     18  C   UNL     1      -2.827  24.440  51.432  1.00  0.00     0.000 C 
ATOM     19  C   UNL     1      -0.868  22.935  50.616  1.00  0.00     0.005 C 
ATOM     20  C   UNL     1      -2.411  23.154  50.668  1.00  0.00     0.003 C 
ATOM     21  C   UNL     1      -4.345  24.372  51.679  1.00  0.00     0.031 C 
ATOM     22  C   UNL     1      -3.133  23.042  49.261  1.00  0.00    -0.008 C 
ATOM     23  C   UNL     1      -5.107  24.142  50.412  1.00  0.00    -0.027 C 
ATOM     24  C   UNL     1      -4.608  23.471  49.352  1.00  0.00    -0.065 C 
ATOM     25  C   UNL     1      -2.468  23.954  48.172  1.00  0.00     0.014 C 
ATOM     26  C   UNL     1      -3.053  21.558  48.816  1.00  0.00     0.016 C 
ATOM     27  C   UNL     1      -5.411  23.484  48.071  1.00  0.00     0.063 C 
ATOM     28  C   UNL     1      -3.265  24.033  46.850  1.00  0.00     0.033 C 
ATOM     29  C   UNL     1      -4.731  24.443  47.084  1.00  0.00     0.118 C 
BRANCH  29  30
ATOM     30  O   UNL     1      -5.431  24.489  45.866  1.00  0.00    -0.393 OA
ATOM     31  H   UNL     1      -5.268  23.632  45.391  1.00  0.00     0.210 HD
ENDBRANCH  29  30
ENDBRANCH   9  11
ENDBRANCH   1   9
TORSDOF 7
ENDMDL
MODEL 9
REMARK VINA RESULT:    -7.074      1.595      3.272
REMARK INTER + INTRA:         -11.058
REMARK INTER:                  -9.825
REMARK INTRA:                  -1.233
REMARK UNBOUND:                -1.295
REMARK SMILES CC[C@@H](CC[C@H](C)[C@H]1CC[C@H]2[C@@H]3CC=C4C[C@H](O)CC[C@@]4(C)[C@H]3CC[C@@]12C)C(C)C
REMARK SMILES IDX 5 1 4 2 3 3 2 4 1 5 28 6 29 7 30 8 6 9 7 10 8 11 9 12 26 13
REMARK SMILES IDX 10 14 11 15 25 16 27 17 12 18 24 19 23 20 13 21 21 22 14 23
REMARK SMILES IDX 15 24 20 25 22 26 16 27 19 28 17 29 18 30
REMARK H PARENT 18 31
REMARK Flexibility Score: inf
ROOT
ATOM      1  C   UNL     1      -2.791  19.769  48.851  1.00  0.00     0.004 C 
ENDROOT
BRANCH   1   2
ATOM      2  C   UNL     1      -3.654  18.485  48.785  1.00  0.00     0.004 C 
BRANCH   2   3
ATOM      3  C   UNL     1      -3.110  17.333  47.877  1.00  0.00    -0.009 C 
BRANCH   3   4
ATOM      4  C   UNL     1      -2.499  16.139  48.661  1.00  0.00     0.000 C 
ATOM      5  C   UNL     1      -2.126  16.506  50.099  1.00  0.00     0.004 C 
ENDBRANCH   3   4
BRANCH   3   6
ATOM      6  C   UNL     1      -2.163  17.796  46.720  1.00  0.00    -0.014 C 
ATOM      7  C   UNL     1      -2.884  18.440  45.529  1.00  0.00     0.007 C 
ATOM      8  C   UNL     1      -1.238  16.668  46.234  1.00  0.00     0.007 C 
ENDBRANCH   3   6
ENDBRANCH   2   3
ENDBRANCH   1   2
BRANCH   1   9
ATOM      9  C   UNL     1      -3.616  21.064  48.635  1.00  0.00    -0.011 C 
ATOM     10  C   UNL     1      -4.875  20.722  47.808  1.00  0.00     0.008 C 
BRANCH   9  11
ATOM     11  C   UNL     1      -2.772  22.193  47.927  1.00  0.00    -0.002 C 
ATOM     12  C   UNL     1      -3.148  22.341  46.456  1.00  0.00     0.005 C 
ATOM     13  C   UNL     1      -2.841  23.666  48.492  1.00  0.00    -0.026 C 
ATOM     14  C   UNL     1      -2.582  23.669  46.016  1.00  0.00     0.005 C 
ATOM     15  C   UNL     1      -2.636  24.592  47.239  1.00  0.00    -0.001 C 
ATOM     16  C   UNL     1      -4.209  23.966  49.164  1.00  0.00     0.007 C 
ATOM     17  C   UNL     1      -1.682  23.941  49.497  1.00  0.00     0.012 C 
ATOM     18  C   UNL     1      -3.707  25.719  47.055  1.00  0.00     0.000 C 
ATOM     19  C   UNL     1      -4.340  25.438  49.563  1.00  0.00     0.005 C 
ATOM     20  C   UNL     1      -4.078  26.428  48.386  1.00  0.00     0.003 C 
ATOM     21  C   UNL     1      -3.176  26.789  46.083  1.00  0.00     0.031 C 
ATOM     22  C   UNL     1      -5.215  27.513  48.181  1.00  0.00    -0.008 C 
ATOM     23  C   UNL     1      -4.137  27.924  45.922  1.00  0.00    -0.027 C 
ATOM     24  C   UNL     1      -4.997  28.316  46.887  1.00  0.00    -0.065 C 
ATOM     25  C   UNL     1      -6.643  26.873  48.075  1.00  0.00     0.014 C 
ATOM     26  C   UNL     1      -5.164  28.473  49.399  1.00  0.00     0.016 C 
ATOM     27  C   UNL     1      -6.041  29.345  46.519  1.00  0.00     0.063 C 
ATOM     28  C   UNL     1      -7.748  27.874  47.667  1.00  0.00     0.033 C 
ATOM     29  C   UNL     1      -7.393  28.631  46.375  1.00  0.00     0.118 C 
BRANCH  29  30
ATOM     30  O   UNL     1      -8.409  29.543  46.041  1.00  0.00    -0.393 OA
ATOM     31  H   UNL     1      -8.095  30.073  45.261  1.00  0.00     0.210 HD
ENDBRANCH  29  30
ENDBRANCH   9  11
ENDBRANCH   1   9
TORSDOF 7
ENDMDL
