MODEL 1
REMARK VINA RESULT:    -5.363      0.000      0.000
REMARK INTER + INTRA:          -6.355
REMARK INTER:                  -6.304
REMARK INTRA:                  -0.051
REMARK UNBOUND:                -0.051
REMARK SMILES O=c1c(O)c(-c2ccc(O)cc2)oc2cc(O)cc(O)c12
REMARK SMILES IDX 5 1 3 2 2 3 1 4 21 5 19 6 18 7 16 8 15 9 14 10 13 11 6 12
REMARK SMILES IDX 7 13 8 14 9 15 12 16 11 17 10 18 4 20 20 22 17 24
REMARK H PARENT 10 19 4 21 20 23 17 25
REMARK Flexibility Score: inf
ROOT
ATOM      1  C   UNL     1      46.267  16.081  -3.902  1.00  0.00     0.180 A 
ATOM      2  C   UNL     1      46.026  14.734  -3.580  1.00  0.00     0.208 A 
ATOM      3  C   UNL     1      47.103  13.833  -3.572  1.00  0.00     0.238 A 
ATOM      4  O   UNL     1      46.874  12.618  -3.336  1.00  0.00    -0.285 OA
ATOM      5  C   UNL     1      48.409  14.294  -3.868  1.00  0.00     0.111 A 
ATOM      6  C   UNL     1      49.580  13.477  -3.850  1.00  0.00     0.134 A 
ATOM      7  C   UNL     1      50.798  14.008  -4.288  1.00  0.00     0.093 A 
ATOM      8  C   UNL     1      50.904  15.342  -4.681  1.00  0.00     0.123 A 
ATOM      9  C   UNL     1      49.777  16.166  -4.647  1.00  0.00     0.094 A 
ATOM     10  C   UNL     1      48.539  15.655  -4.249  1.00  0.00     0.146 A 
ATOM     11  O   UNL     1      47.491  16.468  -4.240  1.00  0.00    -0.452 OA
ENDROOT
BRANCH   1  12
ATOM     12  C   UNL     1      45.186  17.094  -3.907  1.00  0.00     0.021 A 
ATOM     13  C   UNL     1      45.008  17.909  -5.038  1.00  0.00     0.016 A 
ATOM     14  C   UNL     1      44.008  18.887  -5.056  1.00  0.00     0.047 A 
ATOM     15  C   UNL     1      43.186  19.073  -3.938  1.00  0.00     0.115 A 
ATOM     16  C   UNL     1      44.369  17.302  -2.780  1.00  0.00     0.016 A 
ATOM     17  C   UNL     1      43.372  18.280  -2.801  1.00  0.00     0.047 A 
BRANCH  15  18
ATOM     18  O   UNL     1      42.187  20.044  -3.944  1.00  0.00    -0.508 OA
ATOM     19  H   UNL     1      41.631  20.237  -3.119  1.00  0.00     0.293 HD
ENDBRANCH  15  18
ENDBRANCH   1  12
BRANCH   2  20
ATOM     20  O   UNL     1      44.726  14.296  -3.311  1.00  0.00    -0.502 OA
ATOM     21  H   UNL     1      43.907  14.844  -3.545  1.00  0.00     0.293 HD
ENDBRANCH   2  20
BRANCH   6  22
ATOM     22  O   UNL     1      49.604  12.158  -3.389  1.00  0.00    -0.507 OA
ATOM     23  H   UNL     1      50.353  11.504  -3.555  1.00  0.00     0.293 HD
ENDBRANCH   6  22
BRANCH   8  24
ATOM     24  O   UNL     1      52.136  15.842  -5.097  1.00  0.00    -0.508 OA
ATOM     25  H   UNL     1      52.236  16.791  -5.438  1.00  0.00     0.293 HD
ENDBRANCH   8  24
TORSDOF 5
ENDMDL
MODEL 2
REMARK VINA RESULT:    -5.228      1.725      7.135
REMARK INTER + INTRA:          -6.197
REMARK INTER:                  -6.431
REMARK INTRA:                   0.234
REMARK UNBOUND:                -0.051
REMARK SMILES O=c1c(O)c(-c2ccc(O)cc2)oc2cc(O)cc(O)c12
REMARK SMILES IDX 5 1 3 2 2 3 1 4 21 5 19 6 18 7 16 8 15 9 14 10 13 11 6 12
REMARK SMILES IDX 7 13 8 14 9 15 12 16 11 17 10 18 4 20 20 22 17 24
REMARK H PARENT 10 19 4 21 20 23 17 25
REMARK Flexibility Score: inf
ROOT
ATOM      1  C   UNL     1      46.433  16.511  -4.223  1.00  0.00     0.180 A 
ATOM      2  C   UNL     1      46.087  17.549  -5.105  1.00  0.00     0.208 A 
ATOM      3  C   UNL     1      44.834  18.169  -4.970  1.00  0.00     0.238 A 
ATOM      4  O   UNL     1      44.508  19.061  -5.796  1.00  0.00    -0.285 OA
ATOM      5  C   UNL     1      43.952  17.754  -3.943  1.00  0.00     0.111 A 
ATOM      6  C   UNL     1      42.674  18.339  -3.688  1.00  0.00     0.134 A 
ATOM      7  C   UNL     1      41.830  17.763  -2.732  1.00  0.00     0.093 A 
ATOM      8  C   UNL     1      42.240  16.665  -1.976  1.00  0.00     0.123 A 
ATOM      9  C   UNL     1      43.511  16.122  -2.176  1.00  0.00     0.094 A 
ATOM     10  C   UNL     1      44.362  16.652  -3.149  1.00  0.00     0.146 A 
ATOM     11  O   UNL     1      45.557  16.100  -3.314  1.00  0.00    -0.452 OA
ENDROOT
BRANCH   1  12
ATOM     12  C   UNL     1      47.746  15.827  -4.289  1.00  0.00     0.021 A 
ATOM     13  C   UNL     1      47.844  14.481  -3.894  1.00  0.00     0.016 A 
ATOM     14  C   UNL     1      49.077  13.822  -3.926  1.00  0.00     0.047 A 
ATOM     15  C   UNL     1      50.229  14.505  -4.338  1.00  0.00     0.115 A 
ATOM     16  C   UNL     1      48.911  16.510  -4.683  1.00  0.00     0.016 A 
ATOM     17  C   UNL     1      50.141  15.849  -4.713  1.00  0.00     0.047 A 
BRANCH  15  18
ATOM     18  O   UNL     1      51.463  13.859  -4.375  1.00  0.00    -0.508 OA
ATOM     19  H   UNL     1      52.085  13.859  -3.575  1.00  0.00     0.293 HD
ENDBRANCH  15  18
ENDBRANCH   1  12
BRANCH   2  20
ATOM     20  O   UNL     1      46.966  17.929  -6.125  1.00  0.00    -0.502 OA
ATOM     21  H   UNL     1      46.643  18.299  -7.011  1.00  0.00     0.293 HD
ENDBRANCH   2  20
BRANCH   6  22
ATOM     22  O   UNL     1      42.204  19.492  -4.322  1.00  0.00    -0.507 OA
ATOM     23  H   UNL     1      41.242  19.796  -4.324  1.00  0.00     0.293 HD
ENDBRANCH   6  22
BRANCH   8  24
ATOM     24  O   UNL     1      41.380  16.127  -1.022  1.00  0.00    -0.508 OA
ATOM     25  H   UNL     1      40.978  16.698  -0.288  1.00  0.00     0.293 HD
ENDBRANCH   8  24
TORSDOF 5
ENDMDL
MODEL 3
REMARK VINA RESULT:    -5.184      1.240      1.496
REMARK INTER + INTRA:          -6.145
REMARK INTER:                  -6.085
REMARK INTRA:                  -0.060
REMARK UNBOUND:                -0.051
REMARK SMILES O=c1c(O)c(-c2ccc(O)cc2)oc2cc(O)cc(O)c12
REMARK SMILES IDX 5 1 3 2 2 3 1 4 21 5 19 6 18 7 16 8 15 9 14 10 13 11 6 12
REMARK SMILES IDX 7 13 8 14 9 15 12 16 11 17 10 18 4 20 20 22 17 24
REMARK H PARENT 10 19 4 21 20 23 17 25
REMARK Flexibility Score: inf
ROOT
ATOM      1  C   UNL     1      45.503  15.974  -3.594  1.00  0.00     0.180 A 
ATOM      2  C   UNL     1      44.853  14.793  -3.194  1.00  0.00     0.208 A 
ATOM      3  C   UNL     1      45.611  13.625  -3.017  1.00  0.00     0.238 A 
ATOM      4  O   UNL     1      45.017  12.558  -2.712  1.00  0.00    -0.285 OA
ATOM      5  C   UNL     1      47.012  13.656  -3.224  1.00  0.00     0.111 A 
ATOM      6  C   UNL     1      47.884  12.542  -3.034  1.00  0.00     0.134 A 
ATOM      7  C   UNL     1      49.232  12.652  -3.395  1.00  0.00     0.093 A 
ATOM      8  C   UNL     1      49.754  13.851  -3.877  1.00  0.00     0.123 A 
ATOM      9  C   UNL     1      48.922  14.965  -4.012  1.00  0.00     0.094 A 
ATOM     10  C   UNL     1      47.565  14.876  -3.694  1.00  0.00     0.146 A 
ATOM     11  O   UNL     1      46.807  15.954  -3.845  1.00  0.00    -0.452 OA
ENDROOT
BRANCH   1  12
ATOM     12  C   UNL     1      44.774  17.250  -3.778  1.00  0.00     0.021 A 
ATOM     13  C   UNL     1      44.906  17.954  -4.988  1.00  0.00     0.016 A 
ATOM     14  C   UNL     1      44.245  19.172  -5.174  1.00  0.00     0.047 A 
ATOM     15  C   UNL     1      43.457  19.709  -4.148  1.00  0.00     0.115 A 
ATOM     16  C   UNL     1      43.996  17.807  -2.746  1.00  0.00     0.016 A 
ATOM     17  C   UNL     1      43.338  19.024  -2.935  1.00  0.00     0.047 A 
BRANCH  15  18
ATOM     18  O   UNL     1      42.794  20.921  -4.323  1.00  0.00    -0.508 OA
ATOM     19  H   UNL     1      42.171  21.076  -5.107  1.00  0.00     0.293 HD
ENDBRANCH  15  18
ENDBRANCH   1  12
BRANCH   2  20
ATOM     20  O   UNL     1      43.466  14.779  -3.016  1.00  0.00    -0.502 OA
ATOM     21  H   UNL     1      42.964  15.552  -2.596  1.00  0.00     0.293 HD
ENDBRANCH   2  20
BRANCH   6  22
ATOM     22  O   UNL     1      47.485  11.326  -2.473  1.00  0.00    -0.507 OA
ATOM     23  H   UNL     1      47.401  11.149  -1.483  1.00  0.00     0.293 HD
ENDBRANCH   6  22
BRANCH   8  24
ATOM     24  O   UNL     1      51.104  13.929  -4.213  1.00  0.00    -0.508 OA
ATOM     25  H   UNL     1      51.644  13.099  -4.431  1.00  0.00     0.293 HD
ENDBRANCH   8  24
TORSDOF 5
ENDMDL
MODEL 4
REMARK VINA RESULT:    -5.032      1.318      3.286
REMARK INTER + INTRA:          -5.966
REMARK INTER:                  -6.008
REMARK INTRA:                   0.043
REMARK UNBOUND:                -0.051
REMARK SMILES O=c1c(O)c(-c2ccc(O)cc2)oc2cc(O)cc(O)c12
REMARK SMILES IDX 5 1 3 2 2 3 1 4 21 5 19 6 18 7 16 8 15 9 14 10 13 11 6 12
REMARK SMILES IDX 7 13 8 14 9 15 12 16 11 17 10 18 4 20 20 22 17 24
REMARK H PARENT 10 19 4 21 20 23 17 25
REMARK Flexibility Score: inf
ROOT
ATOM      1  C   UNL     1      46.287  16.218  -3.881  1.00  0.00     0.180 A 
ATOM      2  C   UNL     1      47.588  16.427  -4.372  1.00  0.00     0.208 A 
ATOM      3  C   UNL     1      48.556  15.427  -4.186  1.00  0.00     0.238 A 
ATOM      4  O   UNL     1      49.731  15.642  -4.580  1.00  0.00    -0.285 OA
ATOM      5  C   UNL     1      48.206  14.223  -3.527  1.00  0.00     0.111 A 
ATOM      6  C   UNL     1      49.095  13.125  -3.320  1.00  0.00     0.134 A 
ATOM      7  C   UNL     1      48.680  12.039  -2.541  1.00  0.00     0.093 A 
ATOM      8  C   UNL     1      47.389  11.979  -2.017  1.00  0.00     0.123 A 
ATOM      9  C   UNL     1      46.492  13.020  -2.264  1.00  0.00     0.094 A 
ATOM     10  C   UNL     1      46.888  14.134  -3.007  1.00  0.00     0.146 A 
ATOM     11  O   UNL     1      46.009  15.107  -3.210  1.00  0.00    -0.452 OA
ENDROOT
BRANCH   1  12
ATOM     12  C   UNL     1      45.208  17.216  -4.061  1.00  0.00     0.021 A 
ATOM     13  C   UNL     1      44.372  17.533  -2.977  1.00  0.00     0.016 A 
ATOM     14  C   UNL     1      43.332  18.456  -3.130  1.00  0.00     0.047 A 
ATOM     15  C   UNL     1      43.106  19.060  -4.373  1.00  0.00     0.115 A 
ATOM     16  C   UNL     1      44.961  17.813  -5.311  1.00  0.00     0.016 A 
ATOM     17  C   UNL     1      43.921  18.734  -5.461  1.00  0.00     0.047 A 
BRANCH  15  18
ATOM     18  O   UNL     1      42.074  19.981  -4.537  1.00  0.00    -0.508 OA
ATOM     19  H   UNL     1      41.875  20.685  -3.836  1.00  0.00     0.293 HD
ENDBRANCH  15  18
ENDBRANCH   1  12
BRANCH   2  20
ATOM     20  O   UNL     1      47.917  17.632  -5.001  1.00  0.00    -0.502 OA
ATOM     21  H   UNL     1      47.216  18.288  -5.322  1.00  0.00     0.293 HD
ENDBRANCH   2  20
BRANCH   6  22
ATOM     22  O   UNL     1      50.375  13.042  -3.876  1.00  0.00    -0.507 OA
ATOM     23  H   UNL     1      50.792  13.746  -4.465  1.00  0.00     0.293 HD
ENDBRANCH   6  22
BRANCH   8  24
ATOM     24  O   UNL     1      47.005  10.875  -1.259  1.00  0.00    -0.508 OA
ATOM     25  H   UNL     1      46.201  10.909  -0.642  1.00  0.00     0.293 HD
ENDBRANCH   8  24
TORSDOF 5
ENDMDL
MODEL 5
REMARK VINA RESULT:    -4.995      2.342      3.168
REMARK INTER + INTRA:          -5.922
REMARK INTER:                  -5.715
REMARK INTRA:                  -0.207
REMARK UNBOUND:                -0.051
REMARK SMILES O=c1c(O)c(-c2ccc(O)cc2)oc2cc(O)cc(O)c12
REMARK SMILES IDX 5 1 3 2 2 3 1 4 21 5 19 6 18 7 16 8 15 9 14 10 13 11 6 12
REMARK SMILES IDX 7 13 8 14 9 15 12 16 11 17 10 18 4 20 20 22 17 24
REMARK H PARENT 10 19 4 21 20 23 17 25
REMARK Flexibility Score: inf
ROOT
ATOM      1  C   UNL     1      45.631  14.931  -3.376  1.00  0.00     0.180 A 
ATOM      2  C   UNL     1      46.087  14.768  -4.695  1.00  0.00     0.208 A 
ATOM      3  C   UNL     1      47.120  13.852  -4.951  1.00  0.00     0.238 A 
ATOM      4  O   UNL     1      47.561  13.749  -6.125  1.00  0.00    -0.285 OA
ATOM      5  C   UNL     1      47.671  13.097  -3.886  1.00  0.00     0.111 A 
ATOM      6  C   UNL     1      48.692  12.111  -4.036  1.00  0.00     0.134 A 
ATOM      7  C   UNL     1      49.254  11.521  -2.898  1.00  0.00     0.093 A 
ATOM      8  C   UNL     1      48.787  11.831  -1.621  1.00  0.00     0.123 A 
ATOM      9  C   UNL     1      47.748  12.750  -1.467  1.00  0.00     0.094 A 
ATOM     10  C   UNL     1      47.192  13.383  -2.581  1.00  0.00     0.146 A 
ATOM     11  O   UNL     1      46.213  14.258  -2.390  1.00  0.00    -0.452 OA
ENDROOT
BRANCH   1  12
ATOM     12  C   UNL     1      44.529  15.860  -3.033  1.00  0.00     0.021 A 
ATOM     13  C   UNL     1      43.255  15.343  -2.743  1.00  0.00     0.016 A 
ATOM     14  C   UNL     1      42.194  16.203  -2.438  1.00  0.00     0.047 A 
ATOM     15  C   UNL     1      42.392  17.589  -2.436  1.00  0.00     0.115 A 
ATOM     16  C   UNL     1      44.714  17.255  -3.047  1.00  0.00     0.016 A 
ATOM     17  C   UNL     1      43.652  18.111  -2.743  1.00  0.00     0.047 A 
BRANCH  15  18
ATOM     18  O   UNL     1      41.343  18.456  -2.134  1.00  0.00    -0.508 OA
ATOM     19  H   UNL     1      41.446  19.460  -2.216  1.00  0.00     0.293 HD
ENDBRANCH  15  18
ENDBRANCH   1  12
BRANCH   2  20
ATOM     20  O   UNL     1      45.544  15.539  -5.728  1.00  0.00    -0.502 OA
ATOM     21  H   UNL     1      44.830  15.184  -6.353  1.00  0.00     0.293 HD
ENDBRANCH   2  20
BRANCH   6  22
ATOM     22  O   UNL     1      49.167  11.661  -5.272  1.00  0.00    -0.507 OA
ATOM     23  H   UNL     1      49.725  12.209  -5.908  1.00  0.00     0.293 HD
ENDBRANCH   6  22
BRANCH   8  24
ATOM     24  O   UNL     1      49.359  11.212  -0.511  1.00  0.00    -0.508 OA
ATOM     25  H   UNL     1      49.090  11.463   0.433  1.00  0.00     0.293 HD
ENDBRANCH   8  24
TORSDOF 5
ENDMDL
MODEL 6
REMARK VINA RESULT:    -4.943      1.470      6.594
REMARK INTER + INTRA:          -5.861
REMARK INTER:                  -5.966
REMARK INTRA:                   0.105
REMARK UNBOUND:                -0.051
REMARK SMILES O=c1c(O)c(-c2ccc(O)cc2)oc2cc(O)cc(O)c12
REMARK SMILES IDX 5 1 3 2 2 3 1 4 21 5 19 6 18 7 16 8 15 9 14 10 13 11 6 12
REMARK SMILES IDX 7 13 8 14 9 15 12 16 11 17 10 18 4 20 20 22 17 24
REMARK H PARENT 10 19 4 21 20 23 17 25
REMARK Flexibility Score: inf
ROOT
ATOM      1  C   UNL     1      49.098  14.935  -4.346  1.00  0.00     0.180 A 
ATOM      2  C   UNL     1      48.547  13.952  -3.506  1.00  0.00     0.208 A 
ATOM      3  C   UNL     1      47.193  14.046  -3.144  1.00  0.00     0.238 A 
ATOM      4  O   UNL     1      46.719  13.194  -2.348  1.00  0.00    -0.285 OA
ATOM      5  C   UNL     1      46.404  15.112  -3.641  1.00  0.00     0.111 A 
ATOM      6  C   UNL     1      45.013  15.284  -3.372  1.00  0.00     0.134 A 
ATOM      7  C   UNL     1      44.364  16.445  -3.807  1.00  0.00     0.093 A 
ATOM      8  C   UNL     1      45.037  17.409  -4.557  1.00  0.00     0.123 A 
ATOM      9  C   UNL     1      46.384  17.223  -4.876  1.00  0.00     0.094 A 
ATOM     10  C   UNL     1      47.068  16.092  -4.425  1.00  0.00     0.146 A 
ATOM     11  O   UNL     1      48.349  15.958  -4.741  1.00  0.00    -0.452 OA
ENDROOT
BRANCH   1  12
ATOM     12  C   UNL     1      50.511  14.889  -4.790  1.00  0.00     0.021 A 
ATOM     13  C   UNL     1      51.253  16.081  -4.856  1.00  0.00     0.016 A 
ATOM     14  C   UNL     1      52.581  16.064  -5.294  1.00  0.00     0.047 A 
ATOM     15  C   UNL     1      53.177  14.858  -5.686  1.00  0.00     0.115 A 
ATOM     16  C   UNL     1      51.111  13.686  -5.206  1.00  0.00     0.016 A 
ATOM     17  C   UNL     1      52.437  13.673  -5.643  1.00  0.00     0.047 A 
BRANCH  15  18
ATOM     18  O   UNL     1      54.499  14.829  -6.124  1.00  0.00    -0.508 OA
ATOM     19  H   UNL     1      54.868  15.542  -6.743  1.00  0.00     0.293 HD
ENDBRANCH  15  18
ENDBRANCH   1  12
BRANCH   2  20
ATOM     20  O   UNL     1      49.349  12.920  -3.009  1.00  0.00    -0.502 OA
ATOM     21  H   UNL     1      49.269  11.964  -3.335  1.00  0.00     0.293 HD
ENDBRANCH   2  20
BRANCH   6  22
ATOM     22  O   UNL     1      44.224  14.338  -2.711  1.00  0.00    -0.507 OA
ATOM     23  H   UNL     1      44.476  13.370  -2.578  1.00  0.00     0.293 HD
ENDBRANCH   6  22
BRANCH   8  24
ATOM     24  O   UNL     1      44.356  18.545  -4.987  1.00  0.00    -0.508 OA
ATOM     25  H   UNL     1      44.225  19.347  -4.380  1.00  0.00     0.293 HD
ENDBRANCH   8  24
TORSDOF 5
ENDMDL
MODEL 7
REMARK VINA RESULT:    -4.807      2.934      6.618
REMARK INTER + INTRA:          -5.701
REMARK INTER:                  -5.550
REMARK INTRA:                  -0.151
REMARK UNBOUND:                -0.051
REMARK SMILES O=c1c(O)c(-c2ccc(O)cc2)oc2cc(O)cc(O)c12
REMARK SMILES IDX 5 1 3 2 2 3 1 4 21 5 19 6 18 7 16 8 15 9 14 10 13 11 6 12
REMARK SMILES IDX 7 13 8 14 9 15 12 16 11 17 10 18 4 20 20 22 17 24
REMARK H PARENT 10 19 4 21 20 23 17 25
REMARK Flexibility Score: inf
ROOT
ATOM      1  C   UNL     1      48.485  13.387  -3.899  1.00  0.00     0.180 A 
ATOM      2  C   UNL     1      48.424  12.393  -2.907  1.00  0.00     0.208 A 
ATOM      3  C   UNL     1      47.167  11.924  -2.489  1.00  0.00     0.238 A 
ATOM      4  O   UNL     1      47.116  11.074  -1.563  1.00  0.00    -0.285 OA
ATOM      5  C   UNL     1      45.990  12.443  -3.082  1.00  0.00     0.111 A 
ATOM      6  C   UNL     1      44.666  12.012  -2.765  1.00  0.00     0.134 A 
ATOM      7  C   UNL     1      43.571  12.685  -3.317  1.00  0.00     0.093 A 
ATOM      8  C   UNL     1      43.749  13.730  -4.223  1.00  0.00     0.123 A 
ATOM      9  C   UNL     1      45.040  14.121  -4.586  1.00  0.00     0.094 A 
ATOM     10  C   UNL     1      46.153  13.492  -4.024  1.00  0.00     0.146 A 
ATOM     11  O   UNL     1      47.362  13.900  -4.387  1.00  0.00    -0.452 OA
ENDROOT
BRANCH   1  12
ATOM     12  C   UNL     1      49.774  13.913  -4.407  1.00  0.00     0.021 A 
ATOM     13  C   UNL     1      50.068  15.279  -4.262  1.00  0.00     0.016 A 
ATOM     14  C   UNL     1      51.268  15.802  -4.754  1.00  0.00     0.047 A 
ATOM     15  C   UNL     1      52.181  14.967  -5.412  1.00  0.00     0.115 A 
ATOM     16  C   UNL     1      50.687  13.086  -5.087  1.00  0.00     0.016 A 
ATOM     17  C   UNL     1      51.885  13.611  -5.578  1.00  0.00     0.047 A 
BRANCH  15  18
ATOM     18  O   UNL     1      53.380  15.476  -5.906  1.00  0.00    -0.508 OA
ATOM     19  H   UNL     1      54.118  14.866  -6.237  1.00  0.00     0.293 HD
ENDBRANCH  15  18
ENDBRANCH   1  12
BRANCH   2  20
ATOM     20  O   UNL     1      49.597  11.910  -2.320  1.00  0.00    -0.502 OA
ATOM     21  H   UNL     1      50.517  12.123  -2.687  1.00  0.00     0.293 HD
ENDBRANCH   2  20
BRANCH   6  22
ATOM     22  O   UNL     1      44.378  10.919  -1.943  1.00  0.00    -0.507 OA
ATOM     23  H   UNL     1      43.955  10.983  -1.029  1.00  0.00     0.293 HD
ENDBRANCH   6  22
BRANCH   8  24
ATOM     24  O   UNL     1      42.635  14.369  -4.765  1.00  0.00    -0.508 OA
ATOM     25  H   UNL     1      41.700  14.188  -4.419  1.00  0.00     0.293 HD
ENDBRANCH   8  24
TORSDOF 5
ENDMDL
MODEL 8
REMARK VINA RESULT:    -4.783      3.026      7.759
REMARK INTER + INTRA:          -5.673
REMARK INTER:                  -5.428
REMARK INTRA:                  -0.244
REMARK UNBOUND:                -0.051
REMARK SMILES O=c1c(O)c(-c2ccc(O)cc2)oc2cc(O)cc(O)c12
REMARK SMILES IDX 5 1 3 2 2 3 1 4 21 5 19 6 18 7 16 8 15 9 14 10 13 11 6 12
REMARK SMILES IDX 7 13 8 14 9 15 12 16 11 17 10 18 4 20 20 22 17 24
REMARK H PARENT 10 19 4 21 20 23 17 25
REMARK Flexibility Score: inf
ROOT
ATOM      1  C   UNL     1      44.005  16.521  -3.083  1.00  0.00     0.180 A 
ATOM      2  C   UNL     1      44.256  17.396  -4.154  1.00  0.00     0.208 A 
ATOM      3  C   UNL     1      43.683  18.678  -4.136  1.00  0.00     0.238 A 
ATOM      4  O   UNL     1      43.867  19.437  -5.123  1.00  0.00    -0.285 OA
ATOM      5  C   UNL     1      42.882  19.075  -3.038  1.00  0.00     0.111 A 
ATOM      6  C   UNL     1      42.286  20.365  -2.895  1.00  0.00     0.134 A 
ATOM      7  C   UNL     1      41.406  20.604  -1.833  1.00  0.00     0.093 A 
ATOM      8  C   UNL     1      41.152  19.625  -0.873  1.00  0.00     0.123 A 
ATOM      9  C   UNL     1      41.776  18.380  -0.970  1.00  0.00     0.094 A 
ATOM     10  C   UNL     1      42.630  18.099  -2.039  1.00  0.00     0.146 A 
ATOM     11  O   UNL     1      43.195  16.900  -2.100  1.00  0.00    -0.452 OA
ENDROOT
BRANCH   1  12
ATOM     12  C   UNL     1      44.593  15.163  -3.020  1.00  0.00     0.021 A 
ATOM     13  C   UNL     1      43.768  14.043  -3.221  1.00  0.00     0.016 A 
ATOM     14  C   UNL     1      44.298  12.751  -3.144  1.00  0.00     0.047 A 
ATOM     15  C   UNL     1      45.654  12.563  -2.851  1.00  0.00     0.115 A 
ATOM     16  C   UNL     1      45.950  14.965  -2.706  1.00  0.00     0.016 A 
ATOM     17  C   UNL     1      46.476  13.673  -2.630  1.00  0.00     0.047 A 
BRANCH  15  18
ATOM     18  O   UNL     1      46.193  11.281  -2.772  1.00  0.00    -0.508 OA
ATOM     19  H   UNL     1      47.166  11.101  -2.991  1.00  0.00     0.293 HD
ENDBRANCH  15  18
ENDBRANCH   1  12
BRANCH   2  20
ATOM     20  O   UNL     1      45.032  16.976  -5.239  1.00  0.00    -0.502 OA
ATOM     21  H   UNL     1      45.867  16.414  -5.125  1.00  0.00     0.293 HD
ENDBRANCH   2  20
BRANCH   6  22
ATOM     22  O   UNL     1      42.545  21.443  -3.746  1.00  0.00    -0.507 OA
ATOM     23  H   UNL     1      43.437  21.634  -4.177  1.00  0.00     0.293 HD
ENDBRANCH   6  22
BRANCH   8  24
ATOM     24  O   UNL     1      40.282  19.903   0.179  1.00  0.00    -0.508 OA
ATOM     25  H   UNL     1      40.490  20.621   0.864  1.00  0.00     0.293 HD
ENDBRANCH   8  24
TORSDOF 5
ENDMDL
MODEL 9
REMARK VINA RESULT:    -4.303      1.727      6.401
REMARK INTER + INTRA:          -5.109
REMARK INTER:                  -5.169
REMARK INTRA:                   0.060
REMARK UNBOUND:                -0.051
REMARK SMILES O=c1c(O)c(-c2ccc(O)cc2)oc2cc(O)cc(O)c12
REMARK SMILES IDX 5 1 3 2 2 3 1 4 21 5 19 6 18 7 16 8 15 9 14 10 13 11 6 12
REMARK SMILES IDX 7 13 8 14 9 15 12 16 11 17 10 18 4 20 20 22 17 24
REMARK H PARENT 10 19 4 21 20 23 17 25
REMARK Flexibility Score: inf
ROOT
ATOM      1  C   UNL     1      46.150  16.072  -3.984  1.00  0.00     0.180 A 
ATOM      2  C   UNL     1      45.626  14.779  -3.809  1.00  0.00     0.208 A 
ATOM      3  C   UNL     1      44.336  14.634  -3.273  1.00  0.00     0.238 A 
ATOM      4  O   UNL     1      43.893  13.474  -3.068  1.00  0.00    -0.285 OA
ATOM      5  C   UNL     1      43.581  15.784  -2.935  1.00  0.00     0.111 A 
ATOM      6  C   UNL     1      42.249  15.756  -2.422  1.00  0.00     0.134 A 
ATOM      7  C   UNL     1      41.647  16.946  -2.000  1.00  0.00     0.093 A 
ATOM      8  C   UNL     1      42.301  18.171  -2.130  1.00  0.00     0.123 A 
ATOM      9  C   UNL     1      43.582  18.216  -2.685  1.00  0.00     0.094 A 
ATOM     10  C   UNL     1      44.223  17.041  -3.083  1.00  0.00     0.146 A 
ATOM     11  O   UNL     1      45.443  17.127  -3.595  1.00  0.00    -0.452 OA
ENDROOT
BRANCH   1  12
ATOM     12  C   UNL     1      47.492  16.305  -4.566  1.00  0.00     0.021 A 
ATOM     13  C   UNL     1      48.604  15.632  -4.030  1.00  0.00     0.016 A 
ATOM     14  C   UNL     1      49.884  15.854  -4.549  1.00  0.00     0.047 A 
ATOM     15  C   UNL     1      50.069  16.762  -5.599  1.00  0.00     0.115 A 
ATOM     16  C   UNL     1      47.690  17.230  -5.608  1.00  0.00     0.016 A 
ATOM     17  C   UNL     1      48.970  17.449  -6.124  1.00  0.00     0.047 A 
BRANCH  15  18
ATOM     18  O   UNL     1      51.339  16.990  -6.125  1.00  0.00    -0.508 OA
ATOM     19  H   UNL     1      51.492  17.665  -6.865  1.00  0.00     0.293 HD
ENDBRANCH  15  18
ENDBRANCH   1  12
BRANCH   2  20
ATOM     20  O   UNL     1      46.397  13.658  -4.129  1.00  0.00    -0.502 OA
ATOM     21  H   UNL     1      47.203  13.378  -3.584  1.00  0.00     0.293 HD
ENDBRANCH   2  20
BRANCH   6  22
ATOM     22  O   UNL     1      41.471  14.598  -2.335  1.00  0.00    -0.507 OA
ATOM     23  H   UNL     1      41.638  13.752  -2.859  1.00  0.00     0.293 HD
ENDBRANCH   6  22
BRANCH   8  24
ATOM     24  O   UNL     1      41.666  19.338  -1.713  1.00  0.00    -0.508 OA
ATOM     25  H   UNL     1      41.653  20.171  -2.291  1.00  0.00     0.293 HD
ENDBRANCH   8  24
TORSDOF 5
ENDMDL
