MODEL 1
REMARK VINA RESULT:    -8.293      0.000      0.000
REMARK INTER + INTRA:          -9.866
REMARK INTER:                  -9.990
REMARK INTRA:                   0.124
REMARK UNBOUND:                 0.124
REMARK SMILES O=c1c(O)c(-c2ccc(O)c(O)c2)oc2cc(O)cc(O)c12
REMARK SMILES IDX 5 1 3 2 2 3 1 4 22 5 20 6 19 7 17 8 16 9 15 10 14 11 6 12
REMARK SMILES IDX 7 13 8 14 9 15 13 16 11 17 10 18 12 20 4 22 21 24 18 26
REMARK H PARENT 10 19 12 21 4 23 21 25 18 27
REMARK Flexibility Score: inf
ROOT
ATOM      1  C   UNL     1      36.720   1.021  -2.734  1.00  0.00     0.180 A 
ATOM      2  C   UNL     1      37.479   0.932  -1.554  1.00  0.00     0.208 A 
ATOM      3  C   UNL     1      37.732   2.100  -0.818  1.00  0.00     0.238 A 
ATOM      4  O   UNL     1      38.365   2.006   0.266  1.00  0.00    -0.285 OA
ATOM      5  C   UNL     1      37.240   3.345  -1.280  1.00  0.00     0.111 A 
ATOM      6  C   UNL     1      37.471   4.597  -0.636  1.00  0.00     0.134 A 
ATOM      7  C   UNL     1      36.826   5.746  -1.109  1.00  0.00     0.093 A 
ATOM      8  C   UNL     1      36.011   5.700  -2.243  1.00  0.00     0.123 A 
ATOM      9  C   UNL     1      35.827   4.494  -2.913  1.00  0.00     0.094 A 
ATOM     10  C   UNL     1      36.427   3.323  -2.444  1.00  0.00     0.146 A 
ATOM     11  O   UNL     1      36.217   2.192  -3.107  1.00  0.00    -0.452 OA
ENDROOT
BRANCH   1  12
ATOM     12  C   UNL     1      36.433  -0.163  -3.577  1.00  0.00     0.025 A 
ATOM     13  C   UNL     1      37.451  -1.094  -3.828  1.00  0.00     0.016 A 
ATOM     14  C   UNL     1      37.197  -2.229  -4.603  1.00  0.00     0.051 A 
ATOM     15  C   UNL     1      35.920  -2.458  -5.125  1.00  0.00     0.157 A 
ATOM     16  C   UNL     1      35.143  -0.405  -4.085  1.00  0.00     0.062 A 
ATOM     17  C   UNL     1      34.886  -1.545  -4.861  1.00  0.00     0.158 A 
BRANCH  15  18
ATOM     18  O   UNL     1      35.697  -3.599  -5.896  1.00  0.00    -0.504 OA
ATOM     19  H   UNL     1      35.892  -3.623  -6.890  1.00  0.00     0.293 HD
ENDBRANCH  15  18
BRANCH  17  20
ATOM     20  O   UNL     1      33.607  -1.775  -5.366  1.00  0.00    -0.504 OA
ATOM     21  H   UNL     1      32.803  -1.862  -4.754  1.00  0.00     0.293 HD
ENDBRANCH  17  20
ENDBRANCH   1  12
BRANCH   2  22
ATOM     22  O   UNL     1      37.937  -0.310  -1.105  1.00  0.00    -0.502 OA
ATOM     23  H   UNL     1      37.475  -0.825  -0.367  1.00  0.00     0.293 HD
ENDBRANCH   2  22
BRANCH   6  24
ATOM     24  O   UNL     1      38.339   4.770   0.447  1.00  0.00    -0.507 OA
ATOM     25  H   UNL     1      38.047   4.987   1.388  1.00  0.00     0.293 HD
ENDBRANCH   6  24
BRANCH   8  26
ATOM     26  O   UNL     1      35.386   6.851  -2.717  1.00  0.00    -0.508 OA
ATOM     27  H   UNL     1      35.911   7.695  -2.916  1.00  0.00     0.293 HD
ENDBRANCH   8  26
TORSDOF 6
ENDMDL
MODEL 2
REMARK VINA RESULT:    -8.019      5.030      7.825
REMARK INTER + INTRA:          -9.536
REMARK INTER:                  -9.206
REMARK INTRA:                  -0.330
REMARK UNBOUND:                 0.124
REMARK SMILES O=c1c(O)c(-c2ccc(O)c(O)c2)oc2cc(O)cc(O)c12
REMARK SMILES IDX 5 1 3 2 2 3 1 4 22 5 20 6 19 7 17 8 16 9 15 10 14 11 6 12
REMARK SMILES IDX 7 13 8 14 9 15 13 16 11 17 10 18 12 20 4 22 21 24 18 26
REMARK H PARENT 10 19 12 21 4 23 21 25 18 27
REMARK Flexibility Score: inf
ROOT
ATOM      1  C   UNL     1      41.078   5.209   0.073  1.00  0.00     0.180 A 
ATOM      2  C   UNL     1      42.132   6.084  -0.242  1.00  0.00     0.208 A 
ATOM      3  C   UNL     1      43.085   6.384   0.744  1.00  0.00     0.238 A 
ATOM      4  O   UNL     1      44.057   7.125   0.441  1.00  0.00    -0.285 OA
ATOM      5  C   UNL     1      42.962   5.820   2.038  1.00  0.00     0.111 A 
ATOM      6  C   UNL     1      43.848   6.088   3.125  1.00  0.00     0.134 A 
ATOM      7  C   UNL     1      43.707   5.373   4.321  1.00  0.00     0.093 A 
ATOM      8  C   UNL     1      42.673   4.449   4.491  1.00  0.00     0.123 A 
ATOM      9  C   UNL     1      41.769   4.225   3.456  1.00  0.00     0.094 A 
ATOM     10  C   UNL     1      41.905   4.896   2.238  1.00  0.00     0.146 A 
ATOM     11  O   UNL     1      41.027   4.645   1.273  1.00  0.00    -0.452 OA
ENDROOT
BRANCH   1  12
ATOM     12  C   UNL     1      40.022   4.864  -0.907  1.00  0.00     0.025 A 
ATOM     13  C   UNL     1      40.181   3.734  -1.723  1.00  0.00     0.016 A 
ATOM     14  C   UNL     1      39.188   3.378  -2.640  1.00  0.00     0.051 A 
ATOM     15  C   UNL     1      38.016   4.135  -2.743  1.00  0.00     0.157 A 
ATOM     16  C   UNL     1      38.834   5.612  -0.997  1.00  0.00     0.062 A 
ATOM     17  C   UNL     1      37.835   5.254  -1.915  1.00  0.00     0.158 A 
BRANCH  15  18
ATOM     18  O   UNL     1      37.044   3.756  -3.668  1.00  0.00    -0.504 OA
ATOM     19  H   UNL     1      36.570   2.862  -3.616  1.00  0.00     0.293 HD
ENDBRANCH  15  18
BRANCH  17  20
ATOM     20  O   UNL     1      36.664   6.005  -2.002  1.00  0.00    -0.504 OA
ATOM     21  H   UNL     1      35.939   5.783  -2.676  1.00  0.00     0.293 HD
ENDBRANCH  17  20
ENDBRANCH   1  12
BRANCH   2  22
ATOM     22  O   UNL     1      42.247   6.612  -1.531  1.00  0.00    -0.502 OA
ATOM     23  H   UNL     1      43.029   6.401  -2.138  1.00  0.00     0.293 HD
ENDBRANCH   2  22
BRANCH   6  24
ATOM     24  O   UNL     1      44.855   7.056   3.092  1.00  0.00    -0.507 OA
ATOM     25  H   UNL     1      45.761   6.957   3.525  1.00  0.00     0.293 HD
ENDBRANCH   6  24
BRANCH   8  26
ATOM     26  O   UNL     1      42.530   3.755   5.690  1.00  0.00    -0.508 OA
ATOM     27  H   UNL     1      42.228   2.787   5.710  1.00  0.00     0.293 HD
ENDBRANCH   8  26
TORSDOF 6
ENDMDL
MODEL 3
REMARK VINA RESULT:    -7.837      2.891      7.714
REMARK INTER + INTRA:          -9.317
REMARK INTER:                  -8.983
REMARK INTRA:                  -0.334
REMARK UNBOUND:                 0.124
REMARK SMILES O=c1c(O)c(-c2ccc(O)c(O)c2)oc2cc(O)cc(O)c12
REMARK SMILES IDX 5 1 3 2 2 3 1 4 22 5 20 6 19 7 17 8 16 9 15 10 14 11 6 12
REMARK SMILES IDX 7 13 8 14 9 15 13 16 11 17 10 18 12 20 4 22 21 24 18 26
REMARK H PARENT 10 19 12 21 4 23 21 25 18 27
REMARK Flexibility Score: inf
ROOT
ATOM      1  C   UNL     1      38.727   4.353  -1.463  1.00  0.00     0.180 A 
ATOM      2  C   UNL     1      37.554   5.006  -1.878  1.00  0.00     0.208 A 
ATOM      3  C   UNL     1      36.566   4.269  -2.549  1.00  0.00     0.238 A 
ATOM      4  O   UNL     1      35.494   4.846  -2.871  1.00  0.00    -0.285 OA
ATOM      5  C   UNL     1      36.771   2.892  -2.814  1.00  0.00     0.111 A 
ATOM      6  C   UNL     1      35.855   2.058  -3.522  1.00  0.00     0.134 A 
ATOM      7  C   UNL     1      36.101   0.682  -3.610  1.00  0.00     0.093 A 
ATOM      8  C   UNL     1      37.262   0.122  -3.072  1.00  0.00     0.123 A 
ATOM      9  C   UNL     1      38.190   0.938  -2.430  1.00  0.00     0.094 A 
ATOM     10  C   UNL     1      37.956   2.308  -2.295  1.00  0.00     0.146 A 
ATOM     11  O   UNL     1      38.862   3.049  -1.667  1.00  0.00    -0.452 OA
ENDROOT
BRANCH   1  12
ATOM     12  C   UNL     1      39.824   5.070  -0.772  1.00  0.00     0.025 A 
ATOM     13  C   UNL     1      39.874   5.067   0.630  1.00  0.00     0.016 A 
ATOM     14  C   UNL     1      40.911   5.719   1.303  1.00  0.00     0.051 A 
ATOM     15  C   UNL     1      41.921   6.368   0.586  1.00  0.00     0.157 A 
ATOM     16  C   UNL     1      40.853   5.705  -1.492  1.00  0.00     0.062 A 
ATOM     17  C   UNL     1      41.895   6.358  -0.818  1.00  0.00     0.158 A 
BRANCH  15  18
ATOM     18  O   UNL     1      42.943   7.012   1.285  1.00  0.00    -0.504 OA
ATOM     19  H   UNL     1      43.189   7.978   1.108  1.00  0.00     0.293 HD
ENDBRANCH  15  18
BRANCH  17  20
ATOM     20  O   UNL     1      42.907   6.991  -1.539  1.00  0.00    -0.504 OA
ATOM     21  H   UNL     1      43.855   7.051  -1.184  1.00  0.00     0.293 HD
ENDBRANCH  17  20
ENDBRANCH   1  12
BRANCH   2  22
ATOM     22  O   UNL     1      37.362   6.360  -1.589  1.00  0.00    -0.502 OA
ATOM     23  H   UNL     1      36.873   6.986  -2.216  1.00  0.00     0.293 HD
ENDBRANCH   2  22
BRANCH   6  24
ATOM     24  O   UNL     1      34.713   2.531  -4.175  1.00  0.00    -0.507 OA
ATOM     25  H   UNL     1      34.393   2.211  -5.077  1.00  0.00     0.293 HD
ENDBRANCH   6  24
BRANCH   8  26
ATOM     26  O   UNL     1      37.508  -1.245  -3.179  1.00  0.00    -0.508 OA
ATOM     27  H   UNL     1      36.882  -1.930  -2.769  1.00  0.00     0.293 HD
ENDBRANCH   8  26
TORSDOF 6
ENDMDL
MODEL 4
REMARK VINA RESULT:    -7.744      3.015      7.207
REMARK INTER + INTRA:          -9.205
REMARK INTER:                  -8.885
REMARK INTRA:                  -0.320
REMARK UNBOUND:                 0.124
REMARK SMILES O=c1c(O)c(-c2ccc(O)c(O)c2)oc2cc(O)cc(O)c12
REMARK SMILES IDX 5 1 3 2 2 3 1 4 22 5 20 6 19 7 17 8 16 9 15 10 14 11 6 12
REMARK SMILES IDX 7 13 8 14 9 15 13 16 11 17 10 18 12 20 4 22 21 24 18 26
REMARK H PARENT 10 19 12 21 4 23 21 25 18 27
REMARK Flexibility Score: inf
ROOT
ATOM      1  C   UNL     1      39.082   4.060  -1.389  1.00  0.00     0.180 A 
ATOM      2  C   UNL     1      39.300   2.704  -1.685  1.00  0.00     0.208 A 
ATOM      3  C   UNL     1      38.318   1.995  -2.394  1.00  0.00     0.238 A 
ATOM      4  O   UNL     1      38.542   0.795  -2.703  1.00  0.00    -0.285 OA
ATOM      5  C   UNL     1      37.121   2.645  -2.781  1.00  0.00     0.111 A 
ATOM      6  C   UNL     1      36.041   2.013  -3.467  1.00  0.00     0.134 A 
ATOM      7  C   UNL     1      34.962   2.785  -3.917  1.00  0.00     0.093 A 
ATOM      8  C   UNL     1      34.895   4.155  -3.648  1.00  0.00     0.123 A 
ATOM      9  C   UNL     1      35.916   4.769  -2.928  1.00  0.00     0.094 A 
ATOM     10  C   UNL     1      37.023   4.032  -2.497  1.00  0.00     0.146 A 
ATOM     11  O   UNL     1      37.980   4.659  -1.823  1.00  0.00    -0.452 OA
ENDROOT
BRANCH   1  12
ATOM     12  C   UNL     1      40.061   4.867  -0.624  1.00  0.00     0.025 A 
ATOM     13  C   UNL     1      40.026   4.846   0.778  1.00  0.00     0.016 A 
ATOM     14  C   UNL     1      40.953   5.583   1.520  1.00  0.00     0.051 A 
ATOM     15  C   UNL     1      41.936   6.338   0.874  1.00  0.00     0.157 A 
ATOM     16  C   UNL     1      41.064   5.610  -1.273  1.00  0.00     0.062 A 
ATOM     17  C   UNL     1      41.996   6.349  -0.529  1.00  0.00     0.158 A 
BRANCH  15  18
ATOM     18  O   UNL     1      42.847   7.065   1.641  1.00  0.00    -0.504 OA
ATOM     19  H   UNL     1      43.104   6.784   2.580  1.00  0.00     0.293 HD
ENDBRANCH  15  18
BRANCH  17  20
ATOM     20  O   UNL     1      42.983   7.087  -1.180  1.00  0.00    -0.504 OA
ATOM     21  H   UNL     1      42.857   8.070  -1.394  1.00  0.00     0.293 HD
ENDBRANCH  17  20
ENDBRANCH   1  12
BRANCH   2  22
ATOM     22  O   UNL     1      40.498   2.086  -1.312  1.00  0.00    -0.502 OA
ATOM     23  H   UNL     1      41.306   2.056  -1.919  1.00  0.00     0.293 HD
ENDBRANCH   2  22
BRANCH   6  24
ATOM     24  O   UNL     1      35.965   0.638  -3.705  1.00  0.00    -0.507 OA
ATOM     25  H   UNL     1      35.110   0.101  -3.709  1.00  0.00     0.293 HD
ENDBRANCH   6  24
BRANCH   8  26
ATOM     26  O   UNL     1      33.811   4.912  -4.084  1.00  0.00    -0.508 OA
ATOM     27  H   UNL     1      33.492   5.727  -3.571  1.00  0.00     0.293 HD
ENDBRANCH   8  26
TORSDOF 6
ENDMDL
MODEL 5
REMARK VINA RESULT:    -7.613      1.932      6.925
REMARK INTER + INTRA:          -9.046
REMARK INTER:                  -8.799
REMARK INTRA:                  -0.248
REMARK UNBOUND:                 0.124
REMARK SMILES O=c1c(O)c(-c2ccc(O)c(O)c2)oc2cc(O)cc(O)c12
REMARK SMILES IDX 5 1 3 2 2 3 1 4 22 5 20 6 19 7 17 8 16 9 15 10 14 11 6 12
REMARK SMILES IDX 7 13 8 14 9 15 13 16 11 17 10 18 12 20 4 22 21 24 18 26
REMARK H PARENT 10 19 12 21 4 23 21 25 18 27
REMARK Flexibility Score: inf
ROOT
ATOM      1  C   UNL     1      36.167   1.515  -3.547  1.00  0.00     0.180 A 
ATOM      2  C   UNL     1      35.184   0.676  -4.099  1.00  0.00     0.208 A 
ATOM      3  C   UNL     1      35.467  -0.690  -4.259  1.00  0.00     0.238 A 
ATOM      4  O   UNL     1      34.564  -1.446  -4.704  1.00  0.00    -0.285 OA
ATOM      5  C   UNL     1      36.735  -1.196  -3.882  1.00  0.00     0.111 A 
ATOM      6  C   UNL     1      37.143  -2.554  -4.037  1.00  0.00     0.134 A 
ATOM      7  C   UNL     1      38.372  -2.970  -3.509  1.00  0.00     0.093 A 
ATOM      8  C   UNL     1      39.234  -2.062  -2.890  1.00  0.00     0.123 A 
ATOM      9  C   UNL     1      38.869  -0.723  -2.786  1.00  0.00     0.094 A 
ATOM     10  C   UNL     1      37.635  -0.284  -3.271  1.00  0.00     0.146 A 
ATOM     11  O   UNL     1      37.322   1.000  -3.143  1.00  0.00    -0.452 OA
ENDROOT
BRANCH   1  12
ATOM     12  C   UNL     1      35.952   2.970  -3.370  1.00  0.00     0.025 A 
ATOM     13  C   UNL     1      35.855   3.501  -2.075  1.00  0.00     0.016 A 
ATOM     14  C   UNL     1      35.673   4.873  -1.884  1.00  0.00     0.051 A 
ATOM     15  C   UNL     1      35.600   5.736  -2.982  1.00  0.00     0.157 A 
ATOM     16  C   UNL     1      35.899   3.843  -4.473  1.00  0.00     0.062 A 
ATOM     17  C   UNL     1      35.718   5.220  -4.283  1.00  0.00     0.158 A 
BRANCH  15  18
ATOM     18  O   UNL     1      35.415   7.101  -2.760  1.00  0.00    -0.504 OA
ATOM     19  H   UNL     1      36.175   7.707  -2.475  1.00  0.00     0.293 HD
ENDBRANCH  15  18
BRANCH  17  20
ATOM     20  O   UNL     1      35.660   6.077  -5.381  1.00  0.00    -0.504 OA
ATOM     21  H   UNL     1      35.843   7.070  -5.290  1.00  0.00     0.293 HD
ENDBRANCH  17  20
ENDBRANCH   1  12
BRANCH   2  22
ATOM     22  O   UNL     1      33.932   1.192  -4.445  1.00  0.00    -0.502 OA
ATOM     23  H   UNL     1      33.345   0.767  -5.151  1.00  0.00     0.293 HD
ENDBRANCH   2  22
BRANCH   6  24
ATOM     24  O   UNL     1      36.399  -3.521  -4.721  1.00  0.00    -0.507 OA
ATOM     25  H   UNL     1      35.391  -3.564  -4.737  1.00  0.00     0.293 HD
ENDBRANCH   6  24
BRANCH   8  26
ATOM     26  O   UNL     1      40.462  -2.481  -2.381  1.00  0.00    -0.508 OA
ATOM     27  H   UNL     1      41.302  -1.927  -2.501  1.00  0.00     0.293 HD
ENDBRANCH   8  26
TORSDOF 6
ENDMDL
MODEL 6
REMARK VINA RESULT:    -7.573      1.701      7.211
REMARK INTER + INTRA:          -8.999
REMARK INTER:                  -8.858
REMARK INTRA:                  -0.141
REMARK UNBOUND:                 0.124
REMARK SMILES O=c1c(O)c(-c2ccc(O)c(O)c2)oc2cc(O)cc(O)c12
REMARK SMILES IDX 5 1 3 2 2 3 1 4 22 5 20 6 19 7 17 8 16 9 15 10 14 11 6 12
REMARK SMILES IDX 7 13 8 14 9 15 13 16 11 17 10 18 12 20 4 22 21 24 18 26
REMARK H PARENT 10 19 12 21 4 23 21 25 18 27
REMARK Flexibility Score: inf
ROOT
ATOM      1  C   UNL     1      36.817   1.921  -2.953  1.00  0.00     0.180 A 
ATOM      2  C   UNL     1      35.665   1.900  -3.758  1.00  0.00     0.208 A 
ATOM      3  C   UNL     1      35.315   0.709  -4.413  1.00  0.00     0.238 A 
ATOM      4  O   UNL     1      34.252   0.680  -5.089  1.00  0.00    -0.285 OA
ATOM      5  C   UNL     1      36.131  -0.440  -4.272  1.00  0.00     0.111 A 
ATOM      6  C   UNL     1      35.894  -1.687  -4.923  1.00  0.00     0.134 A 
ATOM      7  C   UNL     1      36.692  -2.794  -4.607  1.00  0.00     0.093 A 
ATOM      8  C   UNL     1      37.759  -2.680  -3.713  1.00  0.00     0.123 A 
ATOM      9  C   UNL     1      38.034  -1.452  -3.117  1.00  0.00     0.094 A 
ATOM     10  C   UNL     1      37.234  -0.339  -3.385  1.00  0.00     0.146 A 
ATOM     11  O   UNL     1      37.525   0.811  -2.788  1.00  0.00    -0.452 OA
ENDROOT
BRANCH   1  12
ATOM     12  C   UNL     1      37.264   3.146  -2.250  1.00  0.00     0.025 A 
ATOM     13  C   UNL     1      38.472   3.754  -2.624  1.00  0.00     0.016 A 
ATOM     14  C   UNL     1      38.903   4.922  -1.988  1.00  0.00     0.051 A 
ATOM     15  C   UNL     1      38.127   5.508  -0.983  1.00  0.00     0.157 A 
ATOM     16  C   UNL     1      36.474   3.748  -1.253  1.00  0.00     0.062 A 
ATOM     17  C   UNL     1      36.905   4.921  -0.616  1.00  0.00     0.158 A 
BRANCH  15  18
ATOM     18  O   UNL     1      38.584   6.672  -0.366  1.00  0.00    -0.504 OA
ATOM     19  H   UNL     1      38.870   7.486  -0.897  1.00  0.00     0.293 HD
ENDBRANCH  15  18
BRANCH  17  20
ATOM     20  O   UNL     1      36.119   5.508   0.376  1.00  0.00    -0.504 OA
ATOM     21  H   UNL     1      35.476   6.264   0.166  1.00  0.00     0.293 HD
ENDBRANCH  17  20
ENDBRANCH   1  12
BRANCH   2  22
ATOM     22  O   UNL     1      34.862   3.039  -3.867  1.00  0.00    -0.502 OA
ATOM     23  H   UNL     1      34.295   3.380  -3.101  1.00  0.00     0.293 HD
ENDBRANCH   2  22
BRANCH   6  24
ATOM     24  O   UNL     1      34.913  -1.884  -5.900  1.00  0.00    -0.507 OA
ATOM     25  H   UNL     1      33.920  -1.892  -5.724  1.00  0.00     0.293 HD
ENDBRANCH   6  24
BRANCH   8  26
ATOM     26  O   UNL     1      38.558  -3.781  -3.416  1.00  0.00    -0.508 OA
ATOM     27  H   UNL     1      38.347  -4.396  -2.638  1.00  0.00     0.293 HD
ENDBRANCH   8  26
TORSDOF 6
ENDMDL
MODEL 7
REMARK VINA RESULT:    -7.491      1.275      6.678
REMARK INTER + INTRA:          -8.900
REMARK INTER:                  -8.951
REMARK INTRA:                   0.051
REMARK UNBOUND:                 0.124
REMARK SMILES O=c1c(O)c(-c2ccc(O)c(O)c2)oc2cc(O)cc(O)c12
REMARK SMILES IDX 5 1 3 2 2 3 1 4 22 5 20 6 19 7 17 8 16 9 15 10 14 11 6 12
REMARK SMILES IDX 7 13 8 14 9 15 13 16 11 17 10 18 12 20 4 22 21 24 18 26
REMARK H PARENT 10 19 12 21 4 23 21 25 18 27
REMARK Flexibility Score: inf
ROOT
ATOM      1  C   UNL     1      37.080   1.451  -2.469  1.00  0.00     0.180 A 
ATOM      2  C   UNL     1      38.069   0.458  -2.574  1.00  0.00     0.208 A 
ATOM      3  C   UNL     1      37.774  -0.726  -3.268  1.00  0.00     0.238 A 
ATOM      4  O   UNL     1      38.680  -1.589  -3.406  1.00  0.00    -0.285 OA
ATOM      5  C   UNL     1      36.488  -0.910  -3.833  1.00  0.00     0.111 A 
ATOM      6  C   UNL     1      36.067  -2.086  -4.523  1.00  0.00     0.134 A 
ATOM      7  C   UNL     1      34.817  -2.106  -5.154  1.00  0.00     0.093 A 
ATOM      8  C   UNL     1      33.947  -1.016  -5.065  1.00  0.00     0.123 A 
ATOM      9  C   UNL     1      34.326   0.114  -4.345  1.00  0.00     0.094 A 
ATOM     10  C   UNL     1      35.581   0.177  -3.734  1.00  0.00     0.146 A 
ATOM     11  O   UNL     1      35.907   1.277  -3.065  1.00  0.00    -0.452 OA
ENDROOT
BRANCH   1  12
ATOM     12  C   UNL     1      37.309   2.715  -1.732  1.00  0.00     0.025 A 
ATOM     13  C   UNL     1      37.874   2.673  -0.449  1.00  0.00     0.016 A 
ATOM     14  C   UNL     1      38.118   3.854   0.257  1.00  0.00     0.051 A 
ATOM     15  C   UNL     1      37.816   5.094  -0.314  1.00  0.00     0.157 A 
ATOM     16  C   UNL     1      37.024   3.965  -2.313  1.00  0.00     0.062 A 
ATOM     17  C   UNL     1      37.271   5.151  -1.607  1.00  0.00     0.158 A 
BRANCH  15  18
ATOM     18  O   UNL     1      38.069   6.256   0.416  1.00  0.00    -0.504 OA
ATOM     19  H   UNL     1      38.081   6.264   1.428  1.00  0.00     0.293 HD
ENDBRANCH  15  18
BRANCH  17  20
ATOM     20  O   UNL     1      36.980   6.385  -2.188  1.00  0.00    -0.504 OA
ATOM     21  H   UNL     1      37.673   7.123  -2.241  1.00  0.00     0.293 HD
ENDBRANCH  17  20
ENDBRANCH   1  12
BRANCH   2  22
ATOM     22  O   UNL     1      39.338   0.668  -2.027  1.00  0.00    -0.502 OA
ATOM     23  H   UNL     1      39.482   1.184  -1.168  1.00  0.00     0.293 HD
ENDBRANCH   2  22
BRANCH   6  24
ATOM     24  O   UNL     1      36.820  -3.262  -4.593  1.00  0.00    -0.507 OA
ATOM     25  H   UNL     1      37.785  -3.344  -4.309  1.00  0.00     0.293 HD
ENDBRANCH   6  24
BRANCH   8  26
ATOM     26  O   UNL     1      32.699  -1.050  -5.682  1.00  0.00    -0.508 OA
ATOM     27  H   UNL     1      31.886  -1.434  -5.213  1.00  0.00     0.293 HD
ENDBRANCH   8  26
TORSDOF 6
ENDMDL
MODEL 8
REMARK VINA RESULT:    -7.388      1.240      2.887
REMARK INTER + INTRA:          -8.776
REMARK INTER:                  -8.946
REMARK INTRA:                   0.171
REMARK UNBOUND:                 0.124
REMARK SMILES O=c1c(O)c(-c2ccc(O)c(O)c2)oc2cc(O)cc(O)c12
REMARK SMILES IDX 5 1 3 2 2 3 1 4 22 5 20 6 19 7 17 8 16 9 15 10 14 11 6 12
REMARK SMILES IDX 7 13 8 14 9 15 13 16 11 17 10 18 12 20 4 22 21 24 18 26
REMARK H PARENT 10 19 12 21 4 23 21 25 18 27
REMARK Flexibility Score: inf
ROOT
ATOM      1  C   UNL     1      36.418   1.484  -3.357  1.00  0.00     0.180 A 
ATOM      2  C   UNL     1      35.824   2.647  -3.877  1.00  0.00     0.208 A 
ATOM      3  C   UNL     1      36.132   3.886  -3.295  1.00  0.00     0.238 A 
ATOM      4  O   UNL     1      35.640   4.930  -3.798  1.00  0.00    -0.285 OA
ATOM      5  C   UNL     1      37.015   3.946  -2.188  1.00  0.00     0.111 A 
ATOM      6  C   UNL     1      37.365   5.143  -1.495  1.00  0.00     0.134 A 
ATOM      7  C   UNL     1      38.349   5.101  -0.499  1.00  0.00     0.093 A 
ATOM      8  C   UNL     1      38.947   3.895  -0.128  1.00  0.00     0.123 A 
ATOM      9  C   UNL     1      38.569   2.712  -0.759  1.00  0.00     0.094 A 
ATOM     10  C   UNL     1      37.616   2.727  -1.781  1.00  0.00     0.146 A 
ATOM     11  O   UNL     1      37.292   1.579  -2.363  1.00  0.00    -0.452 OA
ENDROOT
BRANCH   1  12
ATOM     12  C   UNL     1      36.124   0.138  -3.903  1.00  0.00     0.025 A 
ATOM     13  C   UNL     1      37.128  -0.841  -3.903  1.00  0.00     0.016 A 
ATOM     14  C   UNL     1      36.867  -2.123  -4.394  1.00  0.00     0.051 A 
ATOM     15  C   UNL     1      35.596  -2.450  -4.876  1.00  0.00     0.157 A 
ATOM     16  C   UNL     1      34.840  -0.199  -4.369  1.00  0.00     0.062 A 
ATOM     17  C   UNL     1      34.576  -1.486  -4.860  1.00  0.00     0.158 A 
BRANCH  15  18
ATOM     18  O   UNL     1      35.366  -3.738  -5.361  1.00  0.00    -0.504 OA
ATOM     19  H   UNL     1      35.205  -4.525  -4.743  1.00  0.00     0.293 HD
ENDBRANCH  15  18
BRANCH  17  20
ATOM     20  O   UNL     1      33.302  -1.810  -5.325  1.00  0.00    -0.504 OA
ATOM     21  H   UNL     1      32.641  -2.323  -4.752  1.00  0.00     0.293 HD
ENDBRANCH  17  20
ENDBRANCH   1  12
BRANCH   2  22
ATOM     22  O   UNL     1      34.972   2.568  -4.982  1.00  0.00    -0.502 OA
ATOM     23  H   UNL     1      35.042   3.201  -5.769  1.00  0.00     0.293 HD
ENDBRANCH   2  22
BRANCH   6  24
ATOM     24  O   UNL     1      36.762   6.383  -1.724  1.00  0.00    -0.507 OA
ATOM     25  H   UNL     1      35.852   6.512  -2.141  1.00  0.00     0.293 HD
ENDBRANCH   6  24
BRANCH   8  26
ATOM     26  O   UNL     1      39.913   3.859   0.875  1.00  0.00    -0.508 OA
ATOM     27  H   UNL     1      40.185   4.696   1.379  1.00  0.00     0.293 HD
ENDBRANCH   8  26
TORSDOF 6
ENDMDL
MODEL 9
REMARK VINA RESULT:    -7.379      1.836      7.325
REMARK INTER + INTRA:          -8.765
REMARK INTER:                  -8.484
REMARK INTRA:                  -0.281
REMARK UNBOUND:                 0.124
REMARK SMILES O=c1c(O)c(-c2ccc(O)c(O)c2)oc2cc(O)cc(O)c12
REMARK SMILES IDX 5 1 3 2 2 3 1 4 22 5 20 6 19 7 17 8 16 9 15 10 14 11 6 12
REMARK SMILES IDX 7 13 8 14 9 15 13 16 11 17 10 18 12 20 4 22 21 24 18 26
REMARK H PARENT 10 19 12 21 4 23 21 25 18 27
REMARK Flexibility Score: inf
ROOT
ATOM      1  C   UNL     1      37.380   1.933  -2.515  1.00  0.00     0.180 A 
ATOM      2  C   UNL     1      36.196   2.029  -3.266  1.00  0.00     0.208 A 
ATOM      3  C   UNL     1      35.746   0.903  -3.974  1.00  0.00     0.238 A 
ATOM      4  O   UNL     1      34.656   0.978  -4.601  1.00  0.00    -0.285 OA
ATOM      5  C   UNL     1      36.495  -0.299  -3.937  1.00  0.00     0.111 A 
ATOM      6  C   UNL     1      36.154  -1.488  -4.648  1.00  0.00     0.134 A 
ATOM      7  C   UNL     1      36.894  -2.657  -4.434  1.00  0.00     0.093 A 
ATOM      8  C   UNL     1      38.003  -2.661  -3.583  1.00  0.00     0.123 A 
ATOM      9  C   UNL     1      38.378  -1.490  -2.931  1.00  0.00     0.094 A 
ATOM     10  C   UNL     1      37.638  -0.317  -3.096  1.00  0.00     0.146 A 
ATOM     11  O   UNL     1      38.024   0.775  -2.447  1.00  0.00    -0.452 OA
ENDROOT
BRANCH   1  12
ATOM     12  C   UNL     1      37.930   3.084  -1.763  1.00  0.00     0.025 A 
ATOM     13  C   UNL     1      37.386   3.415  -0.513  1.00  0.00     0.016 A 
ATOM     14  C   UNL     1      37.903   4.484   0.224  1.00  0.00     0.051 A 
ATOM     15  C   UNL     1      38.979   5.228  -0.269  1.00  0.00     0.157 A 
ATOM     16  C   UNL     1      39.027   3.820  -2.248  1.00  0.00     0.062 A 
ATOM     17  C   UNL     1      39.548   4.892  -1.509  1.00  0.00     0.158 A 
BRANCH  15  18
ATOM     18  O   UNL     1      39.473   6.290   0.488  1.00  0.00    -0.504 OA
ATOM     19  H   UNL     1      39.649   6.206   1.482  1.00  0.00     0.293 HD
ENDBRANCH  15  18
BRANCH  17  20
ATOM     20  O   UNL     1      40.631   5.620  -2.000  1.00  0.00    -0.504 OA
ATOM     21  H   UNL     1      41.585   5.390  -1.746  1.00  0.00     0.293 HD
ENDBRANCH  17  20
ENDBRANCH   1  12
BRANCH   2  22
ATOM     22  O   UNL     1      35.460   3.218  -3.273  1.00  0.00    -0.502 OA
ATOM     23  H   UNL     1      35.811   4.072  -3.686  1.00  0.00     0.293 HD
ENDBRANCH   2  22
BRANCH   6  24
ATOM     24  O   UNL     1      35.123  -1.567  -5.590  1.00  0.00    -0.507 OA
ATOM     25  H   UNL     1      35.213  -1.977  -6.507  1.00  0.00     0.293 HD
ENDBRANCH   6  24
BRANCH   8  26
ATOM     26  O   UNL     1      38.745  -3.824  -3.388  1.00  0.00    -0.508 OA
ATOM     27  H   UNL     1      38.323  -4.742  -3.472  1.00  0.00     0.293 HD
ENDBRANCH   8  26
TORSDOF 6
ENDMDL
