MODEL 1
REMARK VINA RESULT:    -2.923      0.000      0.000
REMARK INTER + INTRA:          -6.228
REMARK INTER:                  -4.632
REMARK INTRA:                  -1.596
REMARK UNBOUND:                -1.596
REMARK SMILES CCCCCCCCCCCC(=O)[O-]
REMARK SMILES IDX 7 1 8 2 9 3 10 4 11 5 12 6 13 7 14 8 6 9 5 10 4 11 3 12 2 13
REMARK SMILES IDX 1 14
REMARK H PARENT
REMARK Flexibility Score: inf
ROOT
ATOM      1  C   UNL     1    -102.282 -28.011 -13.826  1.00  0.00     0.000 C 
ENDROOT
BRANCH   1   2
ATOM      2  C   UNL     1    -101.196 -28.182 -12.753  1.00  0.00     0.000 C 
BRANCH   2   3
ATOM      3  C   UNL     1     -99.777 -27.977 -13.306  1.00  0.00     0.000 C 
BRANCH   3   4
ATOM      4  C   UNL     1     -98.829 -29.135 -12.948  1.00  0.00     0.006 C 
BRANCH   4   5
ATOM      5  C   UNL     1     -99.332 -29.945 -11.747  1.00  0.00     0.053 C 
BRANCH   5   6
ATOM      6  C   UNL     1     -98.325 -29.987 -10.639  1.00  0.00     0.041 C 
ATOM      7  O   UNL     1     -98.702 -30.094  -9.443  1.00  0.00    -0.550 OA
ATOM      8  O   UNL     1     -96.967 -29.937 -10.930  1.00  0.00    -0.550 OA
ENDBRANCH   5   6
ENDBRANCH   4   5
ENDBRANCH   3   4
ENDBRANCH   2   3
ENDBRANCH   1   2
BRANCH   1   9
ATOM      9  C   UNL     1    -101.702 -27.379 -15.097  1.00  0.00     0.000 C 
BRANCH   9  10
ATOM     10  C   UNL     1    -102.200 -28.107 -16.352  1.00  0.00    -0.000 C 
BRANCH  10  11
ATOM     11  C   UNL     1    -102.069 -29.626 -16.197  1.00  0.00    -0.000 C 
BRANCH  11  12
ATOM     12  C   UNL     1    -100.602 -30.063 -16.267  1.00  0.00    -0.000 C 
BRANCH  12  13
ATOM     13  C   UNL     1    -100.364 -31.333 -15.443  1.00  0.00    -0.003 C 
ATOM     14  C   UNL     1    -101.530 -31.603 -14.496  1.00  0.00     0.004 C 
ENDBRANCH  12  13
ENDBRANCH  11  12
ENDBRANCH  10  11
ENDBRANCH   9  10
ENDBRANCH   1   9
TORSDOF 10
ENDMDL
MODEL 2
REMARK VINA RESULT:    -2.890      2.689      4.548
REMARK INTER + INTRA:          -6.176
REMARK INTER:                  -5.261
REMARK INTRA:                  -0.914
REMARK UNBOUND:                -1.596
REMARK SMILES CCCCCCCCCCCC(=O)[O-]
REMARK SMILES IDX 7 1 8 2 9 3 10 4 11 5 12 6 13 7 14 8 6 9 5 10 4 11 3 12 2 13
REMARK SMILES IDX 1 14
REMARK H PARENT
REMARK Flexibility Score: inf
ROOT
ATOM      1  C   UNL     1    -102.197 -28.154 -16.181  1.00  0.00     0.000 C 
ENDROOT
BRANCH   1   2
ATOM      2  C   UNL     1    -101.705 -27.319 -14.991  1.00  0.00     0.000 C 
BRANCH   2   3
ATOM      3  C   UNL     1    -102.260 -27.816 -13.646  1.00  0.00     0.000 C 
BRANCH   3   4
ATOM      4  C   UNL     1    -101.237 -28.649 -12.855  1.00  0.00     0.006 C 
BRANCH   4   5
ATOM      5  C   UNL     1     -99.797 -28.178 -13.096  1.00  0.00     0.053 C 
BRANCH   5   6
ATOM      6  C   UNL     1     -98.877 -29.323 -13.391  1.00  0.00     0.041 C 
ATOM      7  O   UNL     1     -97.851 -29.510 -12.686  1.00  0.00    -0.550 OA
ATOM      8  O   UNL     1     -99.168 -30.201 -14.428  1.00  0.00    -0.550 OA
ENDBRANCH   5   6
ENDBRANCH   4   5
ENDBRANCH   3   4
ENDBRANCH   2   3
ENDBRANCH   1   2
BRANCH   1   9
ATOM      9  C   UNL     1    -103.489 -27.571 -16.765  1.00  0.00     0.000 C 
BRANCH   9  10
ATOM     10  C   UNL     1    -103.446 -26.038 -16.777  1.00  0.00    -0.000 C 
BRANCH  10  11
ATOM     11  C   UNL     1    -104.738 -25.445 -16.202  1.00  0.00    -0.000 C 
BRANCH  11  12
ATOM     12  C   UNL     1    -104.432 -24.336 -15.190  1.00  0.00    -0.000 C 
BRANCH  12  13
ATOM     13  C   UNL     1    -104.556 -24.853 -13.752  1.00  0.00    -0.003 C 
ATOM     14  C   UNL     1    -104.766 -23.707 -12.768  1.00  0.00     0.004 C 
ENDBRANCH  12  13
ENDBRANCH  11  12
ENDBRANCH  10  11
ENDBRANCH   9  10
ENDBRANCH   1   9
TORSDOF 10
ENDMDL
MODEL 3
REMARK VINA RESULT:    -2.809      2.055      3.622
REMARK INTER + INTRA:          -6.047
REMARK INTER:                  -5.271
REMARK INTRA:                  -0.776
REMARK UNBOUND:                -1.596
REMARK SMILES CCCCCCCCCCCC(=O)[O-]
REMARK SMILES IDX 7 1 8 2 9 3 10 4 11 5 12 6 13 7 14 8 6 9 5 10 4 11 3 12 2 13
REMARK SMILES IDX 1 14
REMARK H PARENT
REMARK Flexibility Score: inf
ROOT
ATOM      1  C   UNL     1    -102.506 -27.680 -13.800  1.00  0.00     0.000 C 
ENDROOT
BRANCH   1   2
ATOM      2  C   UNL     1    -101.400 -27.978 -12.776  1.00  0.00     0.000 C 
BRANCH   2   3
ATOM      3  C   UNL     1     -99.997 -27.988 -13.403  1.00  0.00     0.000 C 
BRANCH   3   4
ATOM      4  C   UNL     1     -99.378 -29.396 -13.448  1.00  0.00     0.006 C 
BRANCH   4   5
ATOM      5  C   UNL     1     -98.119 -29.502 -12.577  1.00  0.00     0.053 C 
BRANCH   5   6
ATOM      6  C   UNL     1     -98.417 -30.098 -11.235  1.00  0.00     0.041 C 
ATOM      7  O   UNL     1     -99.399 -30.872 -11.090  1.00  0.00    -0.550 OA
ATOM      8  O   UNL     1     -97.593 -29.822 -10.151  1.00  0.00    -0.550 OA
ENDBRANCH   5   6
ENDBRANCH   4   5
ENDBRANCH   3   4
ENDBRANCH   2   3
ENDBRANCH   1   2
BRANCH   1   9
ATOM      9  C   UNL     1    -101.908 -27.247 -15.143  1.00  0.00     0.000 C 
BRANCH   9  10
ATOM     10  C   UNL     1    -102.900 -27.476 -16.289  1.00  0.00    -0.000 C 
BRANCH  10  11
ATOM     11  C   UNL     1    -103.414 -26.144 -16.849  1.00  0.00    -0.000 C 
BRANCH  11  12
ATOM     12  C   UNL     1    -104.651 -25.665 -16.081  1.00  0.00    -0.000 C 
BRANCH  12  13
ATOM     13  C   UNL     1    -104.346 -24.391 -15.285  1.00  0.00    -0.003 C 
ATOM     14  C   UNL     1    -104.698 -24.564 -13.810  1.00  0.00     0.004 C 
ENDBRANCH  12  13
ENDBRANCH  11  12
ENDBRANCH  10  11
ENDBRANCH   9  10
ENDBRANCH   1   9
TORSDOF 10
ENDMDL
MODEL 4
REMARK VINA RESULT:    -2.799      0.932      2.687
REMARK INTER + INTRA:          -6.031
REMARK INTER:                  -4.595
REMARK INTRA:                  -1.436
REMARK UNBOUND:                -1.596
REMARK SMILES CCCCCCCCCCCC(=O)[O-]
REMARK SMILES IDX 7 1 8 2 9 3 10 4 11 5 12 6 13 7 14 8 6 9 5 10 4 11 3 12 2 13
REMARK SMILES IDX 1 14
REMARK H PARENT
REMARK Flexibility Score: inf
ROOT
ATOM      1  C   UNL     1    -100.954 -31.313 -14.694  1.00  0.00     0.000 C 
ENDROOT
BRANCH   1   2
ATOM      2  C   UNL     1     -99.751 -31.342 -13.740  1.00  0.00     0.000 C 
BRANCH   2   3
ATOM      3  C   UNL     1     -98.662 -30.328 -14.126  1.00  0.00     0.000 C 
BRANCH   3   4
ATOM      4  C   UNL     1     -98.382 -29.307 -13.010  1.00  0.00     0.006 C 
BRANCH   4   5
ATOM      5  C   UNL     1     -98.690 -29.872 -11.618  1.00  0.00     0.053 C 
BRANCH   5   6
ATOM      6  C   UNL     1     -97.454 -29.995 -10.779  1.00  0.00     0.041 C 
ATOM      7  O   UNL     1     -97.544 -30.278  -9.556  1.00  0.00    -0.550 OA
ATOM      8  O   UNL     1     -96.201 -29.827 -11.356  1.00  0.00    -0.550 OA
ENDBRANCH   5   6
ENDBRANCH   4   5
ENDBRANCH   3   4
ENDBRANCH   2   3
ENDBRANCH   1   2
BRANCH   1   9
ATOM      9  C   UNL     1    -100.755 -30.266 -15.796  1.00  0.00     0.000 C 
BRANCH   9  10
ATOM     10  C   UNL     1    -102.050 -29.487 -16.057  1.00  0.00    -0.000 C 
BRANCH  10  11
ATOM     11  C   UNL     1    -101.808 -27.975 -15.988  1.00  0.00    -0.000 C 
BRANCH  11  12
ATOM     12  C   UNL     1    -101.298 -27.561 -14.603  1.00  0.00    -0.000 C 
BRANCH  12  13
ATOM     13  C   UNL     1    -102.328 -27.891 -13.516  1.00  0.00    -0.003 C 
ATOM     14  C   UNL     1    -101.708 -27.810 -12.125  1.00  0.00     0.004 C 
ENDBRANCH  12  13
ENDBRANCH  11  12
ENDBRANCH  10  11
ENDBRANCH   9  10
ENDBRANCH   1   9
TORSDOF 10
ENDMDL
MODEL 5
REMARK VINA RESULT:    -2.791      2.825      4.313
REMARK INTER + INTRA:          -6.019
REMARK INTER:                  -5.003
REMARK INTRA:                  -1.016
REMARK UNBOUND:                -1.596
REMARK SMILES CCCCCCCCCCCC(=O)[O-]
REMARK SMILES IDX 7 1 8 2 9 3 10 4 11 5 12 6 13 7 14 8 6 9 5 10 4 11 3 12 2 13
REMARK SMILES IDX 1 14
REMARK H PARENT
REMARK Flexibility Score: inf
ROOT
ATOM      1  C   UNL     1    -102.352 -27.935 -14.012  1.00  0.00     0.000 C 
ENDROOT
BRANCH   1   2
ATOM      2  C   UNL     1    -101.359 -27.759 -12.854  1.00  0.00     0.000 C 
BRANCH   2   3
ATOM      3  C   UNL     1     -99.895 -27.919 -13.297  1.00  0.00     0.000 C 
BRANCH   3   4
ATOM      4  C   UNL     1     -99.245 -29.199 -12.743  1.00  0.00     0.006 C 
BRANCH   4   5
ATOM      5  C   UNL     1     -98.582 -30.035 -13.844  1.00  0.00     0.053 C 
BRANCH   5   6
ATOM      6  C   UNL     1     -99.593 -30.672 -14.747  1.00  0.00     0.041 C 
ATOM      7  O   UNL     1     -99.366 -30.772 -15.982  1.00  0.00    -0.550 OA
ATOM      8  O   UNL     1    -100.774 -31.180 -14.222  1.00  0.00    -0.550 OA
ENDBRANCH   5   6
ENDBRANCH   4   5
ENDBRANCH   3   4
ENDBRANCH   2   3
ENDBRANCH   1   2
BRANCH   1   9
ATOM      9  C   UNL     1    -101.675 -27.667 -15.361  1.00  0.00     0.000 C 
BRANCH   9  10
ATOM     10  C   UNL     1    -102.704 -27.628 -16.497  1.00  0.00    -0.000 C 
BRANCH  10  11
ATOM     11  C   UNL     1    -103.229 -26.205 -16.717  1.00  0.00    -0.000 C 
BRANCH  11  12
ATOM     12  C   UNL     1    -104.762 -26.181 -16.744  1.00  0.00    -0.000 C 
BRANCH  12  13
ATOM     13  C   UNL     1    -105.311 -25.046 -15.872  1.00  0.00    -0.003 C 
ATOM     14  C   UNL     1    -104.412 -24.790 -14.667  1.00  0.00     0.004 C 
ENDBRANCH  12  13
ENDBRANCH  11  12
ENDBRANCH  10  11
ENDBRANCH   9  10
ENDBRANCH   1   9
TORSDOF 10
ENDMDL
MODEL 6
REMARK VINA RESULT:    -2.757      1.615      2.654
REMARK INTER + INTRA:          -5.965
REMARK INTER:                  -4.652
REMARK INTRA:                  -1.312
REMARK UNBOUND:                -1.596
REMARK SMILES CCCCCCCCCCCC(=O)[O-]
REMARK SMILES IDX 7 1 8 2 9 3 10 4 11 5 12 6 13 7 14 8 6 9 5 10 4 11 3 12 2 13
REMARK SMILES IDX 1 14
REMARK H PARENT
REMARK Flexibility Score: inf
ROOT
ATOM      1  C   UNL     1    -101.685 -29.255 -12.355  1.00  0.00     0.000 C 
ENDROOT
BRANCH   1   2
ATOM      2  C   UNL     1    -100.392 -29.991 -11.975  1.00  0.00     0.000 C 
BRANCH   2   3
ATOM      3  C   UNL     1     -99.948 -31.002 -13.044  1.00  0.00     0.000 C 
BRANCH   3   4
ATOM      4  C   UNL     1     -98.701 -30.538 -13.817  1.00  0.00     0.006 C 
BRANCH   4   5
ATOM      5  C   UNL     1     -97.854 -29.549 -13.007  1.00  0.00     0.053 C 
BRANCH   5   6
ATOM      6  C   UNL     1     -96.488 -30.091 -12.714  1.00  0.00     0.041 C 
ATOM      7  O   UNL     1     -95.949 -30.908 -13.506  1.00  0.00    -0.550 OA
ATOM      8  O   UNL     1     -95.800 -29.674 -11.582  1.00  0.00    -0.550 OA
ENDBRANCH   5   6
ENDBRANCH   4   5
ENDBRANCH   3   4
ENDBRANCH   2   3
ENDBRANCH   1   2
BRANCH   1   9
ATOM      9  C   UNL     1    -101.408 -27.777 -12.652  1.00  0.00     0.000 C 
BRANCH   9  10
ATOM     10  C   UNL     1    -100.892 -27.589 -14.084  1.00  0.00    -0.000 C 
BRANCH  10  11
ATOM     11  C   UNL     1    -102.031 -27.201 -15.034  1.00  0.00    -0.000 C 
BRANCH  11  12
ATOM     12  C   UNL     1    -101.984 -28.033 -16.320  1.00  0.00    -0.000 C 
BRANCH  12  13
ATOM     13  C   UNL     1    -102.422 -29.479 -16.057  1.00  0.00    -0.003 C 
ATOM     14  C   UNL     1    -101.333 -30.468 -16.458  1.00  0.00     0.004 C 
ENDBRANCH  12  13
ENDBRANCH  11  12
ENDBRANCH  10  11
ENDBRANCH   9  10
ENDBRANCH   1   9
TORSDOF 10
ENDMDL
MODEL 7
REMARK VINA RESULT:    -2.724      2.410      4.198
REMARK INTER + INTRA:          -5.912
REMARK INTER:                  -4.876
REMARK INTRA:                  -1.035
REMARK UNBOUND:                -1.596
REMARK SMILES CCCCCCCCCCCC(=O)[O-]
REMARK SMILES IDX 7 1 8 2 9 3 10 4 11 5 12 6 13 7 14 8 6 9 5 10 4 11 3 12 2 13
REMARK SMILES IDX 1 14
REMARK H PARENT
REMARK Flexibility Score: inf
ROOT
ATOM      1  C   UNL     1    -100.739 -30.054 -15.828  1.00  0.00     0.000 C 
ENDROOT
BRANCH   1   2
ATOM      2  C   UNL     1    -100.731 -30.170 -14.296  1.00  0.00     0.000 C 
BRANCH   2   3
ATOM      3  C   UNL     1     -99.693 -29.248 -13.637  1.00  0.00     0.000 C 
BRANCH   3   4
ATOM      4  C   UNL     1    -100.251 -27.845 -13.339  1.00  0.00     0.006 C 
BRANCH   4   5
ATOM      5  C   UNL     1    -101.739 -27.881 -12.970  1.00  0.00     0.053 C 
BRANCH   5   6
ATOM      6  C   UNL     1    -101.953 -27.725 -11.496  1.00  0.00     0.041 C 
ATOM      7  O   UNL     1    -101.448 -28.552 -10.692  1.00  0.00    -0.550 OA
ATOM      8  O   UNL     1    -102.686 -26.651 -11.007  1.00  0.00    -0.550 OA
ENDBRANCH   5   6
ENDBRANCH   4   5
ENDBRANCH   3   4
ENDBRANCH   2   3
ENDBRANCH   1   2
BRANCH   1   9
ATOM      9  C   UNL     1    -102.102 -29.570 -16.335  1.00  0.00     0.000 C 
BRANCH   9  10
ATOM     10  C   UNL     1    -102.066 -28.075 -16.674  1.00  0.00    -0.000 C 
BRANCH  10  11
ATOM     11  C   UNL     1    -103.466 -27.456 -16.587  1.00  0.00    -0.000 C 
BRANCH  11  12
ATOM     12  C   UNL     1    -103.401 -25.929 -16.702  1.00  0.00    -0.000 C 
BRANCH  12  13
ATOM     13  C   UNL     1    -104.517 -25.266 -15.887  1.00  0.00    -0.003 C 
ATOM     14  C   UNL     1    -104.276 -25.427 -14.389  1.00  0.00     0.004 C 
ENDBRANCH  12  13
ENDBRANCH  11  12
ENDBRANCH  10  11
ENDBRANCH   9  10
ENDBRANCH   1   9
TORSDOF 10
ENDMDL
MODEL 8
REMARK VINA RESULT:    -2.717      3.857      5.863
REMARK INTER + INTRA:          -5.902
REMARK INTER:                  -4.824
REMARK INTRA:                  -1.078
REMARK UNBOUND:                -1.596
REMARK SMILES CCCCCCCCCCCC(=O)[O-]
REMARK SMILES IDX 7 1 8 2 9 3 10 4 11 5 12 6 13 7 14 8 6 9 5 10 4 11 3 12 2 13
REMARK SMILES IDX 1 14
REMARK H PARENT
REMARK Flexibility Score: inf
ROOT
ATOM      1  C   UNL     1    -102.731 -29.415 -16.095  1.00  0.00     0.000 C 
ENDROOT
BRANCH   1   2
ATOM      2  C   UNL     1    -102.011 -28.122 -16.506  1.00  0.00     0.000 C 
BRANCH   2   3
ATOM      3  C   UNL     1    -102.551 -26.883 -15.773  1.00  0.00     0.000 C 
BRANCH   3   4
ATOM      4  C   UNL     1    -103.531 -26.067 -16.633  1.00  0.00     0.006 C 
BRANCH   4   5
ATOM      5  C   UNL     1    -104.177 -24.921 -15.844  1.00  0.00     0.053 C 
BRANCH   5   6
ATOM      6  C   UNL     1    -104.821 -25.407 -14.581  1.00  0.00     0.041 C 
ATOM      7  O   UNL     1    -104.445 -24.961 -13.466  1.00  0.00    -0.550 OA
ATOM      8  O   UNL     1    -105.858 -26.331 -14.638  1.00  0.00    -0.550 OA
ENDBRANCH   5   6
ENDBRANCH   4   5
ENDBRANCH   3   4
ENDBRANCH   2   3
ENDBRANCH   1   2
BRANCH   1   9
ATOM      9  C   UNL     1    -101.730 -30.556 -15.879  1.00  0.00     0.000 C 
BRANCH   9  10
ATOM     10  C   UNL     1    -100.364 -30.015 -15.440  1.00  0.00    -0.000 C 
BRANCH  10  11
ATOM     11  C   UNL     1    -100.117 -30.284 -13.951  1.00  0.00    -0.000 C 
BRANCH  11  12
ATOM     12  C   UNL     1     -99.311 -29.148 -13.312  1.00  0.00    -0.000 C 
BRANCH  12  13
ATOM     13  C   UNL     1    -100.118 -27.844 -13.291  1.00  0.00    -0.003 C 
ATOM     14  C   UNL     1    -101.347 -27.969 -12.396  1.00  0.00     0.004 C 
ENDBRANCH  12  13
ENDBRANCH  11  12
ENDBRANCH  10  11
ENDBRANCH   9  10
ENDBRANCH   1   9
TORSDOF 10
ENDMDL
MODEL 9
REMARK VINA RESULT:    -2.678      4.313      6.092
REMARK INTER + INTRA:          -5.840
REMARK INTER:                  -5.194
REMARK INTRA:                  -0.646
REMARK UNBOUND:                -1.596
REMARK SMILES CCCCCCCCCCCC(=O)[O-]
REMARK SMILES IDX 7 1 8 2 9 3 10 4 11 5 12 6 13 7 14 8 6 9 5 10 4 11 3 12 2 13
REMARK SMILES IDX 1 14
REMARK H PARENT
REMARK Flexibility Score: inf
ROOT
ATOM      1  C   UNL     1    -102.143 -28.276 -16.377  1.00  0.00     0.000 C 
ENDROOT
BRANCH   1   2
ATOM      2  C   UNL     1    -102.522 -26.897 -15.817  1.00  0.00     0.000 C 
BRANCH   2   3
ATOM      3  C   UNL     1    -103.537 -26.155 -16.701  1.00  0.00     0.000 C 
BRANCH   3   4
ATOM      4  C   UNL     1    -104.262 -25.024 -15.950  1.00  0.00     0.006 C 
BRANCH   4   5
ATOM      5  C   UNL     1    -104.340 -25.289 -14.441  1.00  0.00     0.053 C 
BRANCH   5   6
ATOM      6  C   UNL     1    -104.742 -24.063 -13.680  1.00  0.00     0.041 C 
ATOM      7  O   UNL     1    -104.511 -23.981 -12.445  1.00  0.00    -0.550 OA
ATOM      8  O   UNL     1    -105.345 -23.000 -14.339  1.00  0.00    -0.550 OA
ENDBRANCH   5   6
ENDBRANCH   4   5
ENDBRANCH   3   4
ENDBRANCH   2   3
ENDBRANCH   1   2
BRANCH   1   9
ATOM      9  C   UNL     1    -101.243 -29.038 -15.398  1.00  0.00     0.000 C 
BRANCH   9  10
ATOM     10  C   UNL     1    -101.398 -28.498 -13.971  1.00  0.00    -0.000 C 
BRANCH  10  11
ATOM     11  C   UNL     1    -100.042 -28.085 -13.387  1.00  0.00    -0.000 C 
BRANCH  11  12
ATOM     12  C   UNL     1     -99.435 -29.217 -12.551  1.00  0.00    -0.000 C 
BRANCH  12  13
ATOM     13  C   UNL     1     -98.047 -29.606 -13.074  1.00  0.00    -0.003 C 
ATOM     14  C   UNL     1     -98.140 -30.723 -14.108  1.00  0.00     0.004 C 
ENDBRANCH  12  13
ENDBRANCH  11  12
ENDBRANCH  10  11
ENDBRANCH   9  10
ENDBRANCH   1   9
TORSDOF 10
ENDMDL
