MODEL 1
REMARK VINA RESULT:    -6.335      0.000      0.000
REMARK INTER + INTRA:          -7.574
REMARK INTER:                  -7.446
REMARK INTRA:                  -0.127
REMARK UNBOUND:                -0.127
REMARK SMILES O=C([O-])C=Cc1ccc(O)c(O)c1
REMARK SMILES IDX 6 1 13 2 7 3 11 4 8 5 9 6 5 7 4 8 2 9 1 10 3 11 12 12 10 14
REMARK H PARENT 12 13 10 15
REMARK Flexibility Score: inf
ROOT
ATOM      1  C   UNL     1     -24.830 -19.133 -13.215  1.00  0.00    -0.022 A 
ATOM      2  C   UNL     1     -24.525 -20.167 -14.116  1.00  0.00     0.058 A 
ATOM      3  C   UNL     1     -24.792 -19.403 -11.833  1.00  0.00     0.012 A 
ATOM      4  C   UNL     1     -24.212 -21.453 -13.654  1.00  0.00     0.157 A 
ATOM      5  C   UNL     1     -24.480 -20.685 -11.372  1.00  0.00     0.051 A 
ATOM      6  C   UNL     1     -24.193 -21.713 -12.273  1.00  0.00     0.157 A 
ENDROOT
BRANCH   1   7
ATOM      7  C   UNL     1     -25.144 -17.787 -13.757  1.00  0.00     0.010 C 
ATOM      8  C   UNL     1     -24.213 -16.905 -14.146  1.00  0.00     0.025 C 
BRANCH   8   9
ATOM      9  C   UNL     1     -24.562 -15.573 -14.668  1.00  0.00     0.064 C 
ATOM     10  O   UNL     1     -23.779 -14.595 -14.537  1.00  0.00    -0.545 OA
ATOM     11  O   UNL     1     -25.779 -15.390 -15.313  1.00  0.00    -0.545 OA
ENDBRANCH   8   9
ENDBRANCH   1   7
BRANCH   4  12
ATOM     12  O   UNL     1     -23.922 -22.472 -14.559  1.00  0.00    -0.504 OA
ATOM     13  H   UNL     1     -23.783 -23.429 -14.255  1.00  0.00     0.293 HD
ENDBRANCH   4  12
BRANCH   6  14
ATOM     14  O   UNL     1     -23.886 -22.981 -11.782  1.00  0.00    -0.504 OA
ATOM     15  H   UNL     1     -22.986 -23.196 -11.370  1.00  0.00     0.293 HD
ENDBRANCH   6  14
TORSDOF 4
ENDMDL
MODEL 2
REMARK VINA RESULT:    -5.996      1.692      2.341
REMARK INTER + INTRA:          -7.175
REMARK INTER:                  -7.039
REMARK INTRA:                  -0.135
REMARK UNBOUND:                -0.127
REMARK SMILES O=C([O-])C=Cc1ccc(O)c(O)c1
REMARK SMILES IDX 6 1 13 2 7 3 11 4 8 5 9 6 5 7 4 8 2 9 1 10 3 11 12 12 10 14
REMARK H PARENT 12 13 10 15
REMARK Flexibility Score: inf
ROOT
ATOM      1  C   UNL     1     -24.571 -21.154 -12.434  1.00  0.00    -0.022 A 
ATOM      2  C   UNL     1     -24.675 -22.431 -13.010  1.00  0.00     0.058 A 
ATOM      3  C   UNL     1     -24.472 -21.049 -11.032  1.00  0.00     0.012 A 
ATOM      4  C   UNL     1     -24.705 -23.581 -12.209  1.00  0.00     0.157 A 
ATOM      5  C   UNL     1     -24.501 -22.194 -10.233  1.00  0.00     0.051 A 
ATOM      6  C   UNL     1     -24.620 -23.461 -10.812  1.00  0.00     0.157 A 
ENDROOT
BRANCH   1   7
ATOM      7  C   UNL     1     -24.533 -19.970 -13.328  1.00  0.00     0.010 C 
ATOM      8  C   UNL     1     -24.847 -18.729 -12.934  1.00  0.00     0.025 C 
BRANCH   8   9
ATOM      9  C   UNL     1     -24.810 -17.579 -13.853  1.00  0.00     0.064 C 
ATOM     10  O   UNL     1     -23.735 -16.963 -14.084  1.00  0.00    -0.545 OA
ATOM     11  O   UNL     1     -25.980 -17.165 -14.476  1.00  0.00    -0.545 OA
ENDBRANCH   8   9
ENDBRANCH   1   7
BRANCH   4  12
ATOM     12  O   UNL     1     -24.819 -24.841 -12.795  1.00  0.00    -0.504 OA
ATOM     13  H   UNL     1     -25.670 -25.386 -12.720  1.00  0.00     0.293 HD
ENDBRANCH   4  12
BRANCH   6  14
ATOM     14  O   UNL     1     -24.648 -24.585  -9.988  1.00  0.00    -0.504 OA
ATOM     15  H   UNL     1     -25.513 -24.962  -9.621  1.00  0.00     0.293 HD
ENDBRANCH   6  14
TORSDOF 4
ENDMDL
MODEL 3
REMARK VINA RESULT:    -5.929      1.008      1.940
REMARK INTER + INTRA:          -7.096
REMARK INTER:                  -6.965
REMARK INTRA:                  -0.131
REMARK UNBOUND:                -0.127
REMARK SMILES O=C([O-])C=Cc1ccc(O)c(O)c1
REMARK SMILES IDX 6 1 13 2 7 3 11 4 8 5 9 6 5 7 4 8 2 9 1 10 3 11 12 12 10 14
REMARK H PARENT 12 13 10 15
REMARK Flexibility Score: inf
ROOT
ATOM      1  C   UNL     1     -24.876 -19.408 -13.024  1.00  0.00    -0.022 A 
ATOM      2  C   UNL     1     -25.417 -19.785 -11.783  1.00  0.00     0.058 A 
ATOM      3  C   UNL     1     -24.105 -20.344 -13.741  1.00  0.00     0.012 A 
ATOM      4  C   UNL     1     -25.177 -21.060 -11.252  1.00  0.00     0.157 A 
ATOM      5  C   UNL     1     -23.865 -21.615 -13.212  1.00  0.00     0.051 A 
ATOM      6  C   UNL     1     -24.393 -21.979 -11.971  1.00  0.00     0.157 A 
ENDROOT
BRANCH   1   7
ATOM      7  C   UNL     1     -25.170 -18.050 -13.545  1.00  0.00     0.010 C 
ATOM      8  C   UNL     1     -24.252 -17.253 -14.109  1.00  0.00     0.025 C 
BRANCH   8   9
ATOM      9  C   UNL     1     -24.579 -15.905 -14.604  1.00  0.00     0.064 C 
ATOM     10  O   UNL     1     -23.768 -14.949 -14.475  1.00  0.00    -0.545 OA
ATOM     11  O   UNL     1     -25.803 -15.683 -15.221  1.00  0.00    -0.545 OA
ENDBRANCH   8   9
ENDBRANCH   1   7
BRANCH   4  12
ATOM     12  O   UNL     1     -25.711 -21.417 -10.016  1.00  0.00    -0.504 OA
ATOM     13  H   UNL     1     -26.707 -21.366  -9.833  1.00  0.00     0.293 HD
ENDBRANCH   4  12
BRANCH   6  14
ATOM     14  O   UNL     1     -24.135 -23.254 -11.470  1.00  0.00    -0.504 OA
ATOM     15  H   UNL     1     -23.251 -23.723 -11.622  1.00  0.00     0.293 HD
ENDBRANCH   6  14
TORSDOF 4
ENDMDL
MODEL 4
REMARK VINA RESULT:    -5.853      5.529      6.638
REMARK INTER + INTRA:          -7.007
REMARK INTER:                  -6.880
REMARK INTRA:                  -0.127
REMARK UNBOUND:                -0.127
REMARK SMILES O=C([O-])C=Cc1ccc(O)c(O)c1
REMARK SMILES IDX 6 1 13 2 7 3 11 4 8 5 9 6 5 7 4 8 2 9 1 10 3 11 12 12 10 14
REMARK H PARENT 12 13 10 15
REMARK Flexibility Score: inf
ROOT
ATOM      1  C   UNL     1     -25.728 -23.877 -13.166  1.00  0.00    -0.022 A 
ATOM      2  C   UNL     1     -26.815 -24.009 -14.046  1.00  0.00     0.058 A 
ATOM      3  C   UNL     1     -24.495 -24.463 -13.517  1.00  0.00     0.012 A 
ATOM      4  C   UNL     1     -26.687 -24.729 -15.243  1.00  0.00     0.157 A 
ATOM      5  C   UNL     1     -24.367 -25.181 -14.708  1.00  0.00     0.051 A 
ATOM      6  C   UNL     1     -25.456 -25.321 -15.573  1.00  0.00     0.157 A 
ENDROOT
BRANCH   1   7
ATOM      7  C   UNL     1     -25.914 -23.095 -11.918  1.00  0.00     0.010 C 
ATOM      8  C   UNL     1     -26.441 -23.600 -10.794  1.00  0.00     0.025 C 
BRANCH   8   9
ATOM      9  C   UNL     1     -26.622 -22.789  -9.578  1.00  0.00     0.064 C 
ATOM     10  O   UNL     1     -26.627 -23.320  -8.435  1.00  0.00    -0.545 OA
ATOM     11  O   UNL     1     -26.792 -21.415  -9.693  1.00  0.00    -0.545 OA
ENDBRANCH   8   9
ENDBRANCH   1   7
BRANCH   4  12
ATOM     12  O   UNL     1     -27.776 -24.860 -16.102  1.00  0.00    -0.504 OA
ATOM     13  H   UNL     1     -28.153 -25.769 -16.347  1.00  0.00     0.293 HD
ENDBRANCH   4  12
BRANCH   6  14
ATOM     14  O   UNL     1     -25.297 -26.044 -16.754  1.00  0.00    -0.504 OA
ATOM     15  H   UNL     1     -25.052 -27.026 -16.755  1.00  0.00     0.293 HD
ENDBRANCH   6  14
TORSDOF 4
ENDMDL
MODEL 5
REMARK VINA RESULT:    -5.801      3.511      5.177
REMARK INTER + INTRA:          -6.946
REMARK INTER:                  -6.820
REMARK INTRA:                  -0.126
REMARK UNBOUND:                -0.127
REMARK SMILES O=C([O-])C=Cc1ccc(O)c(O)c1
REMARK SMILES IDX 6 1 13 2 7 3 11 4 8 5 9 6 5 7 4 8 2 9 1 10 3 11 12 12 10 14
REMARK H PARENT 12 13 10 15
REMARK Flexibility Score: inf
ROOT
ATOM      1  C   UNL     1     -25.283 -23.417 -13.586  1.00  0.00    -0.022 A 
ATOM      2  C   UNL     1     -26.501 -23.659 -14.245  1.00  0.00     0.058 A 
ATOM      3  C   UNL     1     -24.140 -24.136 -13.988  1.00  0.00     0.012 A 
ATOM      4  C   UNL     1     -26.587 -24.614 -15.267  1.00  0.00     0.157 A 
ATOM      5  C   UNL     1     -24.225 -25.088 -15.007  1.00  0.00     0.051 A 
ATOM      6  C   UNL     1     -25.443 -25.334 -15.648  1.00  0.00     0.157 A 
ENDROOT
BRANCH   1   7
ATOM      7  C   UNL     1     -25.244 -22.388 -12.518  1.00  0.00     0.010 C 
ATOM      8  C   UNL     1     -24.696 -21.175 -12.672  1.00  0.00     0.025 C 
BRANCH   8   9
ATOM      9  C   UNL     1     -24.665 -20.183 -11.584  1.00  0.00     0.064 C 
ATOM     10  O   UNL     1     -23.770 -20.214 -10.697  1.00  0.00    -0.545 OA
ATOM     11  O   UNL     1     -25.642 -19.196 -11.532  1.00  0.00    -0.545 OA
ENDBRANCH   8   9
ENDBRANCH   1   7
BRANCH   4  12
ATOM     12  O   UNL     1     -27.804 -24.850 -15.905  1.00  0.00    -0.504 OA
ATOM     13  H   UNL     1     -28.229 -24.157 -16.510  1.00  0.00     0.293 HD
ENDBRANCH   4  12
BRANCH   6  14
ATOM     14  O   UNL     1     -25.496 -26.291 -16.661  1.00  0.00    -0.504 OA
ATOM     15  H   UNL     1     -24.786 -26.354 -17.379  1.00  0.00     0.293 HD
ENDBRANCH   6  14
TORSDOF 4
ENDMDL
MODEL 6
REMARK VINA RESULT:    -5.792      4.708      6.877
REMARK INTER + INTRA:          -6.936
REMARK INTER:                  -6.809
REMARK INTRA:                  -0.127
REMARK UNBOUND:                -0.127
REMARK SMILES O=C([O-])C=Cc1ccc(O)c(O)c1
REMARK SMILES IDX 6 1 13 2 7 3 11 4 8 5 9 6 5 7 4 8 2 9 1 10 3 11 12 12 10 14
REMARK H PARENT 12 13 10 15
REMARK Flexibility Score: inf
ROOT
ATOM      1  C   UNL     1     -26.215 -23.146 -12.760  1.00  0.00    -0.022 A 
ATOM      2  C   UNL     1     -26.797 -23.991 -13.720  1.00  0.00     0.058 A 
ATOM      3  C   UNL     1     -25.239 -22.218 -13.175  1.00  0.00     0.012 A 
ATOM      4  C   UNL     1     -26.399 -23.933 -15.063  1.00  0.00     0.157 A 
ATOM      5  C   UNL     1     -24.842 -22.160 -14.513  1.00  0.00     0.051 A 
ATOM      6  C   UNL     1     -25.414 -23.014 -15.460  1.00  0.00     0.157 A 
ENDROOT
BRANCH   1   7
ATOM      7  C   UNL     1     -26.680 -23.240 -11.354  1.00  0.00     0.010 C 
ATOM      8  C   UNL     1     -26.169 -24.095 -10.456  1.00  0.00     0.025 C 
BRANCH   8   9
ATOM      9  C   UNL     1     -26.665 -24.169  -9.072  1.00  0.00     0.064 C 
ATOM     10  O   UNL     1     -26.975 -23.127  -8.433  1.00  0.00    -0.545 OA
ATOM     11  O   UNL     1     -26.791 -25.408  -8.457  1.00  0.00    -0.545 OA
ENDBRANCH   8   9
ENDBRANCH   1   7
BRANCH   4  12
ATOM     12  O   UNL     1     -26.978 -24.784 -16.003  1.00  0.00    -0.504 OA
ATOM     13  H   UNL     1     -27.739 -25.407 -15.758  1.00  0.00     0.293 HD
ENDBRANCH   4  12
BRANCH   6  14
ATOM     14  O   UNL     1     -24.996 -22.932 -16.788  1.00  0.00    -0.504 OA
ATOM     15  H   UNL     1     -25.394 -22.265 -17.437  1.00  0.00     0.293 HD
ENDBRANCH   6  14
TORSDOF 4
ENDMDL
MODEL 7
REMARK VINA RESULT:    -5.790      2.510      3.462
REMARK INTER + INTRA:          -6.933
REMARK INTER:                  -6.803
REMARK INTRA:                  -0.130
REMARK UNBOUND:                -0.127
REMARK SMILES O=C([O-])C=Cc1ccc(O)c(O)c1
REMARK SMILES IDX 6 1 13 2 7 3 11 4 8 5 9 6 5 7 4 8 2 9 1 10 3 11 12 12 10 14
REMARK H PARENT 12 13 10 15
REMARK Flexibility Score: inf
ROOT
ATOM      1  C   UNL     1     -24.249 -21.973 -13.986  1.00  0.00    -0.022 A 
ATOM      2  C   UNL     1     -25.230 -22.348 -14.920  1.00  0.00     0.058 A 
ATOM      3  C   UNL     1     -23.337 -22.946 -13.532  1.00  0.00     0.012 A 
ATOM      4  C   UNL     1     -25.320 -23.671 -15.375  1.00  0.00     0.157 A 
ATOM      5  C   UNL     1     -23.426 -24.264 -13.985  1.00  0.00     0.051 A 
ATOM      6  C   UNL     1     -24.414 -24.634 -14.902  1.00  0.00     0.157 A 
ENDROOT
BRANCH   1   7
ATOM      7  C   UNL     1     -24.192 -20.557 -13.545  1.00  0.00     0.010 C 
ATOM      8  C   UNL     1     -24.386 -19.513 -14.363  1.00  0.00     0.025 C 
BRANCH   8   9
ATOM      9  C   UNL     1     -24.309 -18.121 -13.892  1.00  0.00     0.064 C 
ATOM     10  O   UNL     1     -24.846 -17.768 -12.807  1.00  0.00    -0.545 OA
ATOM     11  O   UNL     1     -23.635 -17.177 -14.657  1.00  0.00    -0.545 OA
ENDBRANCH   8   9
ENDBRANCH   1   7
BRANCH   4  12
ATOM     12  O   UNL     1     -26.304 -24.031 -16.293  1.00  0.00    -0.504 OA
ATOM     13  H   UNL     1     -26.717 -23.353 -16.923  1.00  0.00     0.293 HD
ENDBRANCH   4  12
BRANCH   6  14
ATOM     14  O   UNL     1     -24.476 -25.958 -15.335  1.00  0.00    -0.504 OA
ATOM     15  H   UNL     1     -24.937 -26.680 -14.795  1.00  0.00     0.293 HD
ENDBRANCH   6  14
TORSDOF 4
ENDMDL
MODEL 8
REMARK VINA RESULT:    -5.669      2.820      6.165
REMARK INTER + INTRA:          -6.791
REMARK INTER:                  -6.665
REMARK INTRA:                  -0.125
REMARK UNBOUND:                -0.127
REMARK SMILES O=C([O-])C=Cc1ccc(O)c(O)c1
REMARK SMILES IDX 6 1 13 2 7 3 11 4 8 5 9 6 5 7 4 8 2 9 1 10 3 11 12 12 10 14
REMARK H PARENT 12 13 10 15
REMARK Flexibility Score: inf
ROOT
ATOM      1  C   UNL     1     -25.221 -21.128 -11.242  1.00  0.00    -0.022 A 
ATOM      2  C   UNL     1     -24.410 -21.899 -12.092  1.00  0.00     0.058 A 
ATOM      3  C   UNL     1     -25.547 -19.812 -11.626  1.00  0.00     0.012 A 
ATOM      4  C   UNL     1     -23.914 -21.367 -13.290  1.00  0.00     0.157 A 
ATOM      5  C   UNL     1     -25.053 -19.280 -12.820  1.00  0.00     0.051 A 
ATOM      6  C   UNL     1     -24.235 -20.048 -13.653  1.00  0.00     0.157 A 
ENDROOT
BRANCH   1   7
ATOM      7  C   UNL     1     -25.729 -21.744  -9.991  1.00  0.00     0.010 C 
ATOM      8  C   UNL     1     -26.638 -22.729  -9.961  1.00  0.00     0.025 C 
BRANCH   8   9
ATOM      9  C   UNL     1     -27.128 -23.307  -8.699  1.00  0.00     0.064 C 
ATOM     10  O   UNL     1     -26.888 -24.506  -8.395  1.00  0.00    -0.545 OA
ATOM     11  O   UNL     1     -27.870 -22.519  -7.830  1.00  0.00    -0.545 OA
ENDBRANCH   8   9
ENDBRANCH   1   7
BRANCH   4  12
ATOM     12  O   UNL     1     -23.103 -22.140 -14.118  1.00  0.00    -0.504 OA
ATOM     13  H   UNL     1     -23.191 -22.109 -15.127  1.00  0.00     0.293 HD
ENDBRANCH   4  12
BRANCH   6  14
ATOM     14  O   UNL     1     -23.756 -19.489 -14.837  1.00  0.00    -0.504 OA
ATOM     15  H   UNL     1     -23.782 -18.492 -15.011  1.00  0.00     0.293 HD
ENDBRANCH   6  14
TORSDOF 4
ENDMDL
