MODEL 1
REMARK VINA RESULT:    47.287      0.000      0.000
REMARK INTER + INTRA:          61.791
REMARK INTER:                  62.491
REMARK INTRA:                  -0.701
REMARK UNBOUND:                -0.701
REMARK SMILES CC[C@H](C=C[C@@H](C)[C@@H]1CC[C@H]2[C@@H]3CC=C4C[C@@H](O)CC[C@@]4(C)[C@H]3CC[C@]21C)C(C)C
REMARK SMILES IDX 6 1 7 2 5 3 4 4 3 5 2 6 1 7 28 8 29 9 30 10 8 11 9 12 26 13
REMARK SMILES IDX 10 14 11 15 25 16 27 17 12 18 24 19 23 20 13 21 21 22 14 23
REMARK SMILES IDX 15 24 20 25 22 26 16 27 19 28 17 29 18 30
REMARK H PARENT 18 31
REMARK Flexibility Score: inf
ROOT
ATOM      1  C   UNL     1     -16.583 -38.817  22.170  1.00  0.00     0.012 C 
ATOM      2  C   UNL     1     -15.979 -38.631  20.763  1.00  0.00     0.012 C 
ENDROOT
BRANCH   1   3
ATOM      3  C   UNL     1     -17.896 -39.555  22.006  1.00  0.00    -0.028 C 
ATOM      4  C   UNL     1     -18.075 -40.455  21.024  1.00  0.00    -0.027 C 
BRANCH   4   5
ATOM      5  C   UNL     1     -19.459 -40.906  20.586  1.00  0.00     0.014 C 
BRANCH   5   6
ATOM      6  C   UNL     1     -19.798 -42.255  21.279  1.00  0.00     0.004 C 
ATOM      7  C   UNL     1     -20.772 -43.116  20.466  1.00  0.00     0.004 C 
ENDBRANCH   5   6
BRANCH   5   8
ATOM      8  C   UNL     1     -20.527 -39.802  20.884  1.00  0.00    -0.011 C 
ATOM      9  C   UNL     1     -21.177 -40.007  22.271  1.00  0.00     0.008 C 
ATOM     10  C   UNL     1     -21.630 -39.772  19.815  1.00  0.00     0.008 C 
ENDBRANCH   5   8
ENDBRANCH   4   5
ENDBRANCH   1   3
BRANCH   1  11
ATOM     11  C   UNL     1     -16.773 -37.506  23.051  1.00  0.00     0.002 C 
ATOM     12  C   UNL     1     -16.278 -36.210  22.374  1.00  0.00     0.005 C 
ATOM     13  C   UNL     1     -15.975 -37.496  24.403  1.00  0.00    -0.026 C 
ATOM     14  C   UNL     1     -14.814 -36.039  22.791  1.00  0.00     0.005 C 
ATOM     15  C   UNL     1     -14.565 -37.065  23.920  1.00  0.00    -0.001 C 
ATOM     16  C   UNL     1     -16.608 -36.435  25.393  1.00  0.00     0.007 C 
ATOM     17  C   UNL     1     -15.946 -38.887  25.112  1.00  0.00     0.012 C 
ATOM     18  C   UNL     1     -13.585 -36.537  25.013  1.00  0.00     0.000 C 
ATOM     19  C   UNL     1     -15.610 -35.448  26.042  1.00  0.00     0.005 C 
ATOM     20  C   UNL     1     -14.267 -36.134  26.339  1.00  0.00     0.003 C 
ATOM     21  C   UNL     1     -12.481 -37.546  25.355  1.00  0.00     0.031 C 
ATOM     22  C   UNL     1     -13.269 -35.334  27.265  1.00  0.00    -0.008 C 
ATOM     23  C   UNL     1     -11.501 -36.912  26.306  1.00  0.00    -0.027 C 
ATOM     24  C   UNL     1     -11.838 -35.915  27.160  1.00  0.00    -0.065 C 
ATOM     25  C   UNL     1     -13.211 -33.827  26.872  1.00  0.00     0.014 C 
ATOM     26  C   UNL     1     -13.749 -35.472  28.737  1.00  0.00     0.016 C 
ATOM     27  C   UNL     1     -10.722 -35.158  27.854  1.00  0.00     0.063 C 
ATOM     28  C   UNL     1     -12.047 -33.038  27.516  1.00  0.00     0.033 C 
ATOM     29  C   UNL     1     -10.680 -33.721  27.313  1.00  0.00     0.118 C 
BRANCH  29  30
ATOM     30  O   UNL     1     -10.346 -33.695  25.944  1.00  0.00    -0.393 OA
ATOM     31  H   UNL     1      -9.690 -32.967  25.791  1.00  0.00     0.210 HD
ENDBRANCH  29  30
ENDBRANCH   1  11
TORSDOF 6
ENDMDL
MODEL 2
REMARK VINA RESULT:    49.899      3.218      5.229
REMARK INTER + INTRA:          65.242
REMARK INTER:                  60.962
REMARK INTRA:                   4.279
REMARK UNBOUND:                -0.701
REMARK SMILES CC[C@H](C=C[C@@H](C)[C@@H]1CC[C@H]2[C@@H]3CC=C4C[C@@H](O)CC[C@@]4(C)[C@H]3CC[C@]21C)C(C)C
REMARK SMILES IDX 6 1 7 2 5 3 4 4 3 5 2 6 1 7 28 8 29 9 30 10 8 11 9 12 26 13
REMARK SMILES IDX 10 14 11 15 25 16 27 17 12 18 24 19 23 20 13 21 21 22 14 23
REMARK SMILES IDX 15 24 20 25 22 26 16 27 19 28 17 29 18 30
REMARK H PARENT 18 31
REMARK Flexibility Score: inf
ROOT
ATOM      1  C   UNL     1     -16.011 -38.030  23.721  1.00  0.00     0.012 C 
ATOM      2  C   UNL     1     -16.231 -37.235  22.418  1.00  0.00     0.012 C 
ENDROOT
BRANCH   1   3
ATOM      3  C   UNL     1     -16.770 -37.315  24.821  1.00  0.00    -0.028 C 
ATOM      4  C   UNL     1     -16.661 -35.987  24.996  1.00  0.00    -0.027 C 
BRANCH   4   5
ATOM      5  C   UNL     1     -17.071 -35.309  26.294  1.00  0.00     0.014 C 
BRANCH   5   6
ATOM      6  C   UNL     1     -18.079 -34.170  25.977  1.00  0.00     0.004 C 
ATOM      7  C   UNL     1     -18.137 -33.101  27.076  1.00  0.00     0.004 C 
ENDBRANCH   5   6
BRANCH   5   8
ATOM      8  C   UNL     1     -17.653 -36.349  27.309  1.00  0.00    -0.011 C 
ATOM      9  C   UNL     1     -16.751 -37.599  27.414  1.00  0.00     0.008 C 
ATOM     10  C   UNL     1     -19.073 -36.789  26.922  1.00  0.00     0.008 C 
ENDBRANCH   5   8
ENDBRANCH   4   5
ENDBRANCH   1   3
BRANCH   1  11
ATOM     11  C   UNL     1     -14.505 -38.302  24.153  1.00  0.00     0.002 C 
ATOM     12  C   UNL     1     -14.353 -39.234  25.373  1.00  0.00     0.005 C 
ATOM     13  C   UNL     1     -13.708 -37.029  24.610  1.00  0.00    -0.026 C 
ATOM     14  C   UNL     1     -14.334 -38.328  26.608  1.00  0.00     0.005 C 
ATOM     15  C   UNL     1     -14.187 -36.883  26.079  1.00  0.00    -0.001 C 
ATOM     16  C   UNL     1     -12.152 -37.309  24.523  1.00  0.00     0.007 C 
ATOM     17  C   UNL     1     -14.035 -35.759  23.763  1.00  0.00     0.012 C 
ATOM     18  C   UNL     1     -13.316 -35.983  27.010  1.00  0.00     0.000 C 
ATOM     19  C   UNL     1     -11.337 -36.951  25.788  1.00  0.00     0.005 C 
ATOM     20  C   UNL     1     -11.898 -35.693  26.471  1.00  0.00     0.003 C 
ATOM     21  C   UNL     1     -13.975 -34.631  27.311  1.00  0.00     0.031 C 
ATOM     22  C   UNL     1     -10.991 -35.048  27.591  1.00  0.00    -0.008 C 
ATOM     23  C   UNL     1     -13.146 -33.884  28.321  1.00  0.00    -0.027 C 
ATOM     24  C   UNL     1     -11.810 -34.068  28.464  1.00  0.00    -0.065 C 
ATOM     25  C   UNL     1     -10.380 -36.136  28.526  1.00  0.00     0.014 C 
ATOM     26  C   UNL     1      -9.848 -34.253  26.898  1.00  0.00     0.016 C 
ATOM     27  C   UNL     1     -11.134 -33.490  29.692  1.00  0.00     0.063 C 
ATOM     28  C   UNL     1      -9.735 -35.585  29.819  1.00  0.00     0.033 C 
ATOM     29  C   UNL     1     -10.673 -34.642  30.598  1.00  0.00     0.118 C 
BRANCH  29  30
ATOM     30  O   UNL     1     -11.767 -35.379  31.093  1.00  0.00    -0.393 OA
ATOM     31  H   UNL     1     -12.016 -36.065  30.421  1.00  0.00     0.210 HD
ENDBRANCH  29  30
ENDBRANCH   1  11
TORSDOF 6
ENDMDL
