MODEL 1
REMARK VINA RESULT:    -3.358      0.000      0.000
REMARK INTER + INTRA:         -13.656
REMARK INTER:                  -8.461
REMARK INTRA:                  -5.195
REMARK UNBOUND:                -5.195
REMARK SMILES CCCCCCCCCCCCCCCCCCCCCCCCCCCC(=O)[O-]
REMARK SMILES IDX 15 1 16 2 17 3 18 4 19 5 20 6 21 7 22 8 23 9 24 10 25 11
REMARK SMILES IDX 26 12 27 13 28 14 29 15 30 16 14 17 13 18 12 19 11 20 10 21
REMARK SMILES IDX 9 22 8 23 7 24 6 25 5 26 4 27 3 28 2 29 1 30
REMARK H PARENT
REMARK Flexibility Score: inf
ROOT
ATOM      1  C   UNL     1      19.107  -3.039  39.020  1.00  0.00     0.000 C 
ENDROOT
BRANCH   1   2
ATOM      2  C   UNL     1      18.123  -2.234  38.151  1.00  0.00     0.000 C 
BRANCH   2   3
ATOM      3  C   UNL     1      18.177  -0.707  38.344  1.00  0.00     0.000 C 
BRANCH   3   4
ATOM      4  C   UNL     1      17.914   0.067  37.040  1.00  0.00     0.000 C 
BRANCH   4   5
ATOM      5  C   UNL     1      17.134  -0.756  36.001  1.00  0.00     0.000 C 
BRANCH   5   6
ATOM      6  C   UNL     1      15.681  -0.303  35.758  1.00  0.00     0.000 C 
BRANCH   6   7
ATOM      7  C   UNL     1      15.292   0.988  36.508  1.00  0.00     0.000 C 
BRANCH   7   8
ATOM      8  C   UNL     1      14.385   0.707  37.716  1.00  0.00     0.000 C 
BRANCH   8   9
ATOM      9  C   UNL     1      14.534   1.795  38.787  1.00  0.00     0.000 C 
BRANCH   9  10
ATOM     10  C   UNL     1      15.763   2.672  38.505  1.00  0.00     0.000 C 
BRANCH  10  11
ATOM     11  C   UNL     1      16.855   2.545  39.582  1.00  0.00     0.000 C 
BRANCH  11  12
ATOM     12  C   UNL     1      16.339   2.299  41.010  1.00  0.00     0.006 C 
BRANCH  12  13
ATOM     13  C   UNL     1      17.015   3.195  42.055  1.00  0.00     0.053 C 
BRANCH  13  14
ATOM     14  C   UNL     1      16.586   2.810  43.436  1.00  0.00     0.041 C 
ATOM     15  O   UNL     1      16.540   3.674  44.350  1.00  0.00    -0.550 OA
ATOM     16  O   UNL     1      16.230   1.495  43.712  1.00  0.00    -0.550 OA
ENDBRANCH  13  14
ENDBRANCH  12  13
ENDBRANCH  11  12
ENDBRANCH  10  11
ENDBRANCH   9  10
ENDBRANCH   8   9
ENDBRANCH   7   8
ENDBRANCH   6   7
ENDBRANCH   5   6
ENDBRANCH   4   5
ENDBRANCH   3   4
ENDBRANCH   2   3
ENDBRANCH   1   2
BRANCH   1  17
ATOM     17  C   UNL     1      20.504  -3.155  38.388  1.00  0.00     0.000 C 
BRANCH  17  18
ATOM     18  C   UNL     1      21.629  -2.777  39.365  1.00  0.00     0.000 C 
BRANCH  18  19
ATOM     19  C   UNL     1      21.427  -1.392  39.999  1.00  0.00     0.000 C 
BRANCH  19  20
ATOM     20  C   UNL     1      21.870  -0.279  39.039  1.00  0.00     0.000 C 
BRANCH  20  21
ATOM     21  C   UNL     1      21.716   1.128  39.646  1.00  0.00     0.000 C 
BRANCH  21  22
ATOM     22  C   UNL     1      20.375   1.388  40.365  1.00  0.00    -0.000 C 
BRANCH  22  23
ATOM     23  C   UNL     1      20.499   1.873  41.823  1.00  0.00    -0.000 C 
BRANCH  23  24
ATOM     24  C   UNL     1      19.991   0.838  42.835  1.00  0.00    -0.000 C 
BRANCH  24  25
ATOM     25  C   UNL     1      18.897  -0.047  42.223  1.00  0.00    -0.000 C 
BRANCH  25  26
ATOM     26  C   UNL     1      19.033  -1.527  42.622  1.00  0.00    -0.000 C 
BRANCH  26  27
ATOM     27  C   UNL     1      19.987  -1.759  43.812  1.00  0.00    -0.000 C 
BRANCH  27  28
ATOM     28  C   UNL     1      20.737  -3.099  43.702  1.00  0.00    -0.000 C 
BRANCH  28  29
ATOM     29  C   UNL     1      20.231  -3.962  42.536  1.00  0.00    -0.003 C 
ATOM     30  C   UNL     1      19.398  -5.155  43.008  1.00  0.00     0.004 C 
ENDBRANCH  28  29
ENDBRANCH  27  28
ENDBRANCH  26  27
ENDBRANCH  25  26
ENDBRANCH  24  25
ENDBRANCH  23  24
ENDBRANCH  22  23
ENDBRANCH  21  22
ENDBRANCH  20  21
ENDBRANCH  19  20
ENDBRANCH  18  19
ENDBRANCH  17  18
ENDBRANCH   1  17
TORSDOF 26
ENDMDL
MODEL 2
REMARK VINA RESULT:    -3.353      2.643      4.117
REMARK INTER + INTRA:         -13.645
REMARK INTER:                  -8.633
REMARK INTRA:                  -5.012
REMARK UNBOUND:                -5.195
REMARK SMILES CCCCCCCCCCCCCCCCCCCCCCCCCCCC(=O)[O-]
REMARK SMILES IDX 15 1 16 2 17 3 18 4 19 5 20 6 21 7 22 8 23 9 24 10 25 11
REMARK SMILES IDX 26 12 27 13 28 14 29 15 30 16 14 17 13 18 12 19 11 20 10 21
REMARK SMILES IDX 9 22 8 23 7 24 6 25 5 26 4 27 3 28 2 29 1 30
REMARK H PARENT
REMARK Flexibility Score: inf
ROOT
ATOM      1  C   UNL     1      18.809  -4.051  38.767  1.00  0.00     0.000 C 
ENDROOT
BRANCH   1   2
ATOM      2  C   UNL     1      19.100  -2.737  38.016  1.00  0.00     0.000 C 
BRANCH   2   3
ATOM      3  C   UNL     1      18.245  -1.532  38.448  1.00  0.00     0.000 C 
BRANCH   3   4
ATOM      4  C   UNL     1      18.178  -0.433  37.372  1.00  0.00     0.000 C 
BRANCH   4   5
ATOM      5  C   UNL     1      17.024  -0.639  36.377  1.00  0.00     0.000 C 
BRANCH   5   6
ATOM      6  C   UNL     1      16.643   0.602  35.545  1.00  0.00     0.000 C 
BRANCH   6   7
ATOM      7  C   UNL     1      15.214   1.120  35.808  1.00  0.00     0.000 C 
BRANCH   7   8
ATOM      8  C   UNL     1      14.547   0.410  36.996  1.00  0.00     0.000 C 
BRANCH   8   9
ATOM      9  C   UNL     1      14.231   1.397  38.126  1.00  0.00     0.000 C 
BRANCH   9  10
ATOM     10  C   UNL     1      15.470   1.639  39.001  1.00  0.00     0.000 C 
BRANCH  10  11
ATOM     11  C   UNL     1      15.897   3.116  39.048  1.00  0.00     0.000 C 
BRANCH  11  12
ATOM     12  C   UNL     1      16.905   3.540  37.966  1.00  0.00     0.006 C 
BRANCH  12  13
ATOM     13  C   UNL     1      16.619   4.932  37.390  1.00  0.00     0.053 C 
BRANCH  13  14
ATOM     14  C   UNL     1      15.751   4.831  36.175  1.00  0.00     0.041 C 
ATOM     15  O   UNL     1      14.559   5.235  36.212  1.00  0.00    -0.550 OA
ATOM     16  O   UNL     1      16.261   4.297  34.998  1.00  0.00    -0.550 OA
ENDBRANCH  13  14
ENDBRANCH  12  13
ENDBRANCH  11  12
ENDBRANCH  10  11
ENDBRANCH   9  10
ENDBRANCH   8   9
ENDBRANCH   7   8
ENDBRANCH   6   7
ENDBRANCH   5   6
ENDBRANCH   4   5
ENDBRANCH   3   4
ENDBRANCH   2   3
ENDBRANCH   1   2
BRANCH   1  17
ATOM     17  C   UNL     1      19.122  -3.960  40.269  1.00  0.00     0.000 C 
BRANCH  17  18
ATOM     18  C   UNL     1      20.620  -3.754  40.551  1.00  0.00     0.000 C 
BRANCH  18  19
ATOM     19  C   UNL     1      20.919  -2.404  41.221  1.00  0.00     0.000 C 
BRANCH  19  20
ATOM     20  C   UNL     1      19.656  -1.824  41.874  1.00  0.00     0.000 C 
BRANCH  20  21
ATOM     21  C   UNL     1      19.899  -1.340  43.315  1.00  0.00     0.000 C 
BRANCH  21  22
ATOM     22  C   UNL     1      19.069  -0.110  43.742  1.00  0.00    -0.000 C 
BRANCH  22  23
ATOM     23  C   UNL     1      19.704   1.254  43.409  1.00  0.00    -0.000 C 
BRANCH  23  24
ATOM     24  C   UNL     1      18.667   2.296  42.970  1.00  0.00    -0.000 C 
BRANCH  24  25
ATOM     25  C   UNL     1      18.942   2.785  41.542  1.00  0.00    -0.000 C 
BRANCH  25  26
ATOM     26  C   UNL     1      18.948   1.644  40.509  1.00  0.00    -0.000 C 
BRANCH  26  27
ATOM     27  C   UNL     1      20.142   1.702  39.533  1.00  0.00    -0.000 C 
BRANCH  27  28
ATOM     28  C   UNL     1      21.434   1.152  40.163  1.00  0.00    -0.000 C 
BRANCH  28  29
ATOM     29  C   UNL     1      22.485   0.769  39.110  1.00  0.00    -0.003 C 
ATOM     30  C   UNL     1      22.079  -0.463  38.300  1.00  0.00     0.004 C 
ENDBRANCH  28  29
ENDBRANCH  27  28
ENDBRANCH  26  27
ENDBRANCH  25  26
ENDBRANCH  24  25
ENDBRANCH  23  24
ENDBRANCH  22  23
ENDBRANCH  21  22
ENDBRANCH  20  21
ENDBRANCH  19  20
ENDBRANCH  18  19
ENDBRANCH  17  18
ENDBRANCH   1  17
TORSDOF 26
ENDMDL
MODEL 3
REMARK VINA RESULT:    -3.352      2.538      7.316
REMARK INTER + INTRA:         -13.641
REMARK INTER:                  -8.306
REMARK INTRA:                  -5.335
REMARK UNBOUND:                -5.195
REMARK SMILES CCCCCCCCCCCCCCCCCCCCCCCCCCCC(=O)[O-]
REMARK SMILES IDX 15 1 16 2 17 3 18 4 19 5 20 6 21 7 22 8 23 9 24 10 25 11
REMARK SMILES IDX 26 12 27 13 28 14 29 15 30 16 14 17 13 18 12 19 11 20 10 21
REMARK SMILES IDX 9 22 8 23 7 24 6 25 5 26 4 27 3 28 2 29 1 30
REMARK H PARENT
REMARK Flexibility Score: inf
ROOT
ATOM      1  C   UNL     1      19.701   1.327  39.460  1.00  0.00     0.000 C 
ENDROOT
BRANCH   1   2
ATOM      2  C   UNL     1      20.659   1.059  40.636  1.00  0.00     0.000 C 
BRANCH   2   3
ATOM      3  C   UNL     1      20.423   1.929  41.884  1.00  0.00     0.000 C 
BRANCH   3   4
ATOM      4  C   UNL     1      20.032   1.101  43.121  1.00  0.00     0.000 C 
BRANCH   4   5
ATOM      5  C   UNL     1      19.741  -0.373  42.788  1.00  0.00     0.000 C 
BRANCH   5   6
ATOM      6  C   UNL     1      19.463  -1.280  44.003  1.00  0.00     0.000 C 
BRANCH   6   7
ATOM      7  C   UNL     1      18.355  -2.327  43.766  1.00  0.00     0.000 C 
BRANCH   7   8
ATOM      8  C   UNL     1      18.837  -3.757  44.052  1.00  0.00     0.000 C 
BRANCH   8   9
ATOM      9  C   UNL     1      20.032  -3.759  45.013  1.00  0.00     0.000 C 
BRANCH   9  10
ATOM     10  C   UNL     1      21.185  -4.601  44.447  1.00  0.00     0.000 C 
BRANCH  10  11
ATOM     11  C   UNL     1      22.123  -3.800  43.527  1.00  0.00     0.000 C 
BRANCH  11  12
ATOM     12  C   UNL     1      22.047  -4.168  42.035  1.00  0.00     0.006 C 
BRANCH  12  13
ATOM     13  C   UNL     1      21.407  -3.069  41.178  1.00  0.00     0.053 C 
BRANCH  13  14
ATOM     14  C   UNL     1      20.100  -3.532  40.616  1.00  0.00     0.041 C 
ATOM     15  O   UNL     1      19.239  -2.695  40.241  1.00  0.00    -0.550 OA
ATOM     16  O   UNL     1      19.835  -4.892  40.502  1.00  0.00    -0.550 OA
ENDBRANCH  13  14
ENDBRANCH  12  13
ENDBRANCH  11  12
ENDBRANCH  10  11
ENDBRANCH   9  10
ENDBRANCH   8   9
ENDBRANCH   7   8
ENDBRANCH   6   7
ENDBRANCH   5   6
ENDBRANCH   4   5
ENDBRANCH   3   4
ENDBRANCH   2   3
ENDBRANCH   1   2
BRANCH   1  17
ATOM     17  C   UNL     1      18.289   0.768  39.702  1.00  0.00     0.000 C 
BRANCH  17  18
ATOM     18  C   UNL     1      17.324   1.074  38.544  1.00  0.00     0.000 C 
BRANCH  18  19
ATOM     19  C   UNL     1      15.853   1.106  38.988  1.00  0.00     0.000 C 
BRANCH  19  20
ATOM     20  C   UNL     1      14.979   1.811  37.942  1.00  0.00     0.000 C 
BRANCH  20  21
ATOM     21  C   UNL     1      15.010   3.344  38.074  1.00  0.00     0.000 C 
BRANCH  21  22
ATOM     22  C   UNL     1      15.771   4.084  36.954  1.00  0.00    -0.000 C 
BRANCH  22  23
ATOM     23  C   UNL     1      17.178   4.581  37.337  1.00  0.00    -0.000 C 
BRANCH  23  24
ATOM     24  C   UNL     1      17.216   5.235  38.725  1.00  0.00    -0.000 C 
BRANCH  24  25
ATOM     25  C   UNL     1      18.323   4.628  39.595  1.00  0.00    -0.000 C 
BRANCH  25  26
ATOM     26  C   UNL     1      17.952   4.579  41.088  1.00  0.00    -0.000 C 
BRANCH  26  27
ATOM     27  C   UNL     1      16.746   3.666  41.393  1.00  0.00    -0.000 C 
BRANCH  27  28
ATOM     28  C   UNL     1      16.879   2.965  42.757  1.00  0.00    -0.000 C 
BRANCH  28  29
ATOM     29  C   UNL     1      16.442   1.493  42.707  1.00  0.00    -0.003 C 
ATOM     30  C   UNL     1      16.346   0.863  44.098  1.00  0.00     0.004 C 
ENDBRANCH  28  29
ENDBRANCH  27  28
ENDBRANCH  26  27
ENDBRANCH  25  26
ENDBRANCH  24  25
ENDBRANCH  23  24
ENDBRANCH  22  23
ENDBRANCH  21  22
ENDBRANCH  20  21
ENDBRANCH  19  20
ENDBRANCH  18  19
ENDBRANCH  17  18
ENDBRANCH   1  17
TORSDOF 26
ENDMDL
MODEL 4
REMARK VINA RESULT:    -3.337      2.323      4.443
REMARK INTER + INTRA:         -13.603
REMARK INTER:                  -8.151
REMARK INTRA:                  -5.452
REMARK UNBOUND:                -5.195
REMARK SMILES CCCCCCCCCCCCCCCCCCCCCCCCCCCC(=O)[O-]
REMARK SMILES IDX 15 1 16 2 17 3 18 4 19 5 20 6 21 7 22 8 23 9 24 10 25 11
REMARK SMILES IDX 26 12 27 13 28 14 29 15 30 16 14 17 13 18 12 19 11 20 10 21
REMARK SMILES IDX 9 22 8 23 7 24 6 25 5 26 4 27 3 28 2 29 1 30
REMARK H PARENT
REMARK Flexibility Score: inf
ROOT
ATOM      1  C   UNL     1      19.021  -1.844  37.083  1.00  0.00     0.000 C 
ENDROOT
BRANCH   1   2
ATOM      2  C   UNL     1      18.925  -0.647  36.117  1.00  0.00     0.000 C 
BRANCH   2   3
ATOM      3  C   UNL     1      17.933   0.453  36.535  1.00  0.00     0.000 C 
BRANCH   3   4
ATOM      4  C   UNL     1      18.258   1.819  35.904  1.00  0.00     0.000 C 
BRANCH   4   5
ATOM      5  C   UNL     1      18.972   2.773  36.878  1.00  0.00     0.000 C 
BRANCH   5   6
ATOM      6  C   UNL     1      18.270   4.126  37.106  1.00  0.00     0.000 C 
BRANCH   6   7
ATOM      7  C   UNL     1      18.727   4.864  38.382  1.00  0.00     0.000 C 
BRANCH   7   8
ATOM      8  C   UNL     1      19.184   3.894  39.482  1.00  0.00     0.000 C 
BRANCH   8   9
ATOM      9  C   UNL     1      18.226   3.921  40.679  1.00  0.00     0.000 C 
BRANCH   9  10
ATOM     10  C   UNL     1      17.151   2.831  40.541  1.00  0.00     0.000 C 
BRANCH  10  11
ATOM     11  C   UNL     1      15.775   3.389  40.139  1.00  0.00     0.000 C 
BRANCH  11  12
ATOM     12  C   UNL     1      15.201   2.830  38.826  1.00  0.00     0.006 C 
BRANCH  12  13
ATOM     13  C   UNL     1      15.385   1.314  38.687  1.00  0.00     0.053 C 
BRANCH  13  14
ATOM     14  C   UNL     1      14.270   0.719  37.885  1.00  0.00     0.041 C 
ATOM     15  O   UNL     1      13.128   0.578  38.395  1.00  0.00    -0.550 OA
ATOM     16  O   UNL     1      14.491   0.326  36.571  1.00  0.00    -0.550 OA
ENDBRANCH  13  14
ENDBRANCH  12  13
ENDBRANCH  11  12
ENDBRANCH  10  11
ENDBRANCH   9  10
ENDBRANCH   8   9
ENDBRANCH   7   8
ENDBRANCH   6   7
ENDBRANCH   5   6
ENDBRANCH   4   5
ENDBRANCH   3   4
ENDBRANCH   2   3
ENDBRANCH   1   2
BRANCH   1  17
ATOM     17  C   UNL     1      18.360  -1.566  38.444  1.00  0.00     0.000 C 
BRANCH  17  18
ATOM     18  C   UNL     1      18.841  -2.529  39.543  1.00  0.00     0.000 C 
BRANCH  18  19
ATOM     19  C   UNL     1      20.341  -2.842  39.444  1.00  0.00     0.000 C 
BRANCH  19  20
ATOM     20  C   UNL     1      20.901  -3.283  40.805  1.00  0.00     0.000 C 
BRANCH  20  21
ATOM     21  C   UNL     1      19.901  -3.074  41.957  1.00  0.00     0.000 C 
BRANCH  21  22
ATOM     22  C   UNL     1      20.528  -2.633  43.296  1.00  0.00    -0.000 C 
BRANCH  22  23
ATOM     23  C   UNL     1      19.792  -1.487  44.018  1.00  0.00    -0.000 C 
BRANCH  23  24
ATOM     24  C   UNL     1      18.807  -0.749  43.102  1.00  0.00    -0.000 C 
BRANCH  24  25
ATOM     25  C   UNL     1      18.974   0.772  43.219  1.00  0.00    -0.000 C 
BRANCH  25  26
ATOM     26  C   UNL     1      20.122   1.316  42.351  1.00  0.00    -0.000 C 
BRANCH  26  27
ATOM     27  C   UNL     1      20.316   0.544  41.030  1.00  0.00    -0.000 C 
BRANCH  27  28
ATOM     28  C   UNL     1      21.462   1.123  40.181  1.00  0.00    -0.000 C 
BRANCH  28  29
ATOM     29  C   UNL     1      21.376   0.698  38.708  1.00  0.00    -0.003 C 
ATOM     30  C   UNL     1      22.542  -0.200  38.289  1.00  0.00     0.004 C 
ENDBRANCH  28  29
ENDBRANCH  27  28
ENDBRANCH  26  27
ENDBRANCH  25  26
ENDBRANCH  24  25
ENDBRANCH  23  24
ENDBRANCH  22  23
ENDBRANCH  21  22
ENDBRANCH  20  21
ENDBRANCH  19  20
ENDBRANCH  18  19
ENDBRANCH  17  18
ENDBRANCH   1  17
TORSDOF 26
ENDMDL
MODEL 5
REMARK VINA RESULT:    -3.312      2.502      5.336
REMARK INTER + INTRA:         -13.541
REMARK INTER:                  -9.003
REMARK INTRA:                  -4.537
REMARK UNBOUND:                -5.195
REMARK SMILES CCCCCCCCCCCCCCCCCCCCCCCCCCCC(=O)[O-]
REMARK SMILES IDX 15 1 16 2 17 3 18 4 19 5 20 6 21 7 22 8 23 9 24 10 25 11
REMARK SMILES IDX 26 12 27 13 28 14 29 15 30 16 14 17 13 18 12 19 11 20 10 21
REMARK SMILES IDX 9 22 8 23 7 24 6 25 5 26 4 27 3 28 2 29 1 30
REMARK H PARENT
REMARK Flexibility Score: inf
ROOT
ATOM      1  C   UNL     1      20.555   1.956  39.109  1.00  0.00     0.000 C 
ENDROOT
BRANCH   1   2
ATOM      2  C   UNL     1      19.795   2.089  40.442  1.00  0.00     0.000 C 
BRANCH   2   3
ATOM      3  C   UNL     1      20.461   1.401  41.647  1.00  0.00     0.000 C 
BRANCH   3   4
ATOM      4  C   UNL     1      20.339   2.223  42.943  1.00  0.00     0.000 C 
BRANCH   4   5
ATOM      5  C   UNL     1      19.866   1.383  44.142  1.00  0.00     0.000 C 
BRANCH   5   6
ATOM      6  C   UNL     1      18.484   1.763  44.708  1.00  0.00     0.000 C 
BRANCH   6   7
ATOM      7  C   UNL     1      17.298   1.266  43.857  1.00  0.00     0.000 C 
BRANCH   7   8
ATOM      8  C   UNL     1      16.699   2.381  42.986  1.00  0.00     0.000 C 
BRANCH   8   9
ATOM      9  C   UNL     1      16.346   1.864  41.586  1.00  0.00     0.000 C 
BRANCH   9  10
ATOM     10  C   UNL     1      16.273   3.023  40.580  1.00  0.00     0.000 C 
BRANCH  10  11
ATOM     11  C   UNL     1      16.285   2.552  39.115  1.00  0.00     0.000 C 
BRANCH  11  12
ATOM     12  C   UNL     1      15.912   1.075  38.900  1.00  0.00     0.006 C 
BRANCH  12  13
ATOM     13  C   UNL     1      14.673   0.891  38.016  1.00  0.00     0.053 C 
BRANCH  13  14
ATOM     14  C   UNL     1      15.061   0.821  36.573  1.00  0.00     0.041 C 
ATOM     15  O   UNL     1      15.032  -0.279  35.962  1.00  0.00    -0.550 OA
ATOM     16  O   UNL     1      15.449   1.973  35.900  1.00  0.00    -0.550 OA
ENDBRANCH  13  14
ENDBRANCH  12  13
ENDBRANCH  11  12
ENDBRANCH  10  11
ENDBRANCH   9  10
ENDBRANCH   8   9
ENDBRANCH   7   8
ENDBRANCH   6   7
ENDBRANCH   5   6
ENDBRANCH   4   5
ENDBRANCH   3   4
ENDBRANCH   2   3
ENDBRANCH   1   2
BRANCH   1  17
ATOM     17  C   UNL     1      19.853   2.678  37.947  1.00  0.00     0.000 C 
BRANCH  17  18
ATOM     18  C   UNL     1      19.921   1.888  36.630  1.00  0.00     0.000 C 
BRANCH  18  19
ATOM     19  C   UNL     1      18.746   0.913  36.459  1.00  0.00     0.000 C 
BRANCH  19  20
ATOM     20  C   UNL     1      19.185  -0.531  36.745  1.00  0.00     0.000 C 
BRANCH  20  21
ATOM     21  C   UNL     1      18.071  -1.376  37.389  1.00  0.00     0.000 C 
BRANCH  21  22
ATOM     22  C   UNL     1      18.515  -2.244  38.585  1.00  0.00    -0.000 C 
BRANCH  22  23
ATOM     23  C   UNL     1      19.056  -1.460  39.797  1.00  0.00    -0.000 C 
BRANCH  23  24
ATOM     24  C   UNL     1      20.437  -1.951  40.249  1.00  0.00    -0.000 C 
BRANCH  24  25
ATOM     25  C   UNL     1      20.336  -2.794  41.527  1.00  0.00    -0.000 C 
BRANCH  25  26
ATOM     26  C   UNL     1      19.652  -2.046  42.685  1.00  0.00    -0.000 C 
BRANCH  26  27
ATOM     27  C   UNL     1      20.308  -2.303  44.057  1.00  0.00    -0.000 C 
BRANCH  27  28
ATOM     28  C   UNL     1      20.606  -3.796  44.287  1.00  0.00    -0.000 C 
BRANCH  28  29
ATOM     29  C   UNL     1      22.027  -4.037  44.819  1.00  0.00    -0.003 C 
ATOM     30  C   UNL     1      23.083  -3.983  43.714  1.00  0.00     0.004 C 
ENDBRANCH  28  29
ENDBRANCH  27  28
ENDBRANCH  26  27
ENDBRANCH  25  26
ENDBRANCH  24  25
ENDBRANCH  23  24
ENDBRANCH  22  23
ENDBRANCH  21  22
ENDBRANCH  20  21
ENDBRANCH  19  20
ENDBRANCH  18  19
ENDBRANCH  17  18
ENDBRANCH   1  17
TORSDOF 26
ENDMDL
MODEL 6
REMARK VINA RESULT:    -3.311      3.004      7.832
REMARK INTER + INTRA:         -13.539
REMARK INTER:                  -8.060
REMARK INTRA:                  -5.479
REMARK UNBOUND:                -5.195
REMARK SMILES CCCCCCCCCCCCCCCCCCCCCCCCCCCC(=O)[O-]
REMARK SMILES IDX 15 1 16 2 17 3 18 4 19 5 20 6 21 7 22 8 23 9 24 10 25 11
REMARK SMILES IDX 26 12 27 13 28 14 29 15 30 16 14 17 13 18 12 19 11 20 10 21
REMARK SMILES IDX 9 22 8 23 7 24 6 25 5 26 4 27 3 28 2 29 1 30
REMARK H PARENT
REMARK Flexibility Score: inf
ROOT
ATOM      1  C   UNL     1      15.736   3.269  39.211  1.00  0.00     0.000 C 
ENDROOT
BRANCH   1   2
ATOM      2  C   UNL     1      16.631   2.241  39.929  1.00  0.00     0.000 C 
BRANCH   2   3
ATOM      3  C   UNL     1      16.377   2.094  41.440  1.00  0.00     0.000 C 
BRANCH   3   4
ATOM      4  C   UNL     1      17.541   2.629  42.294  1.00  0.00     0.000 C 
BRANCH   4   5
ATOM      5  C   UNL     1      18.797   2.946  41.464  1.00  0.00     0.000 C 
BRANCH   5   6
ATOM      6  C   UNL     1      20.062   2.160  41.860  1.00  0.00     0.000 C 
BRANCH   6   7
ATOM      7  C   UNL     1      19.777   0.763  42.450  1.00  0.00     0.000 C 
BRANCH   7   8
ATOM      8  C   UNL     1      19.917  -0.350  41.400  1.00  0.00     0.000 C 
BRANCH   8   9
ATOM      9  C   UNL     1      20.748   0.121  40.199  1.00  0.00     0.000 C 
BRANCH   9  10
ATOM     10  C   UNL     1      20.012  -0.166  38.882  1.00  0.00     0.000 C 
BRANCH  10  11
ATOM     11  C   UNL     1      18.531  -0.529  39.084  1.00  0.00     0.000 C 
BRANCH  11  12
ATOM     12  C   UNL     1      18.021  -1.695  38.220  1.00  0.00     0.006 C 
BRANCH  12  13
ATOM     13  C   UNL     1      19.079  -2.782  37.991  1.00  0.00     0.053 C 
BRANCH  13  14
ATOM     14  C   UNL     1      18.910  -3.896  38.975  1.00  0.00     0.041 C 
ATOM     15  O   UNL     1      19.303  -5.058  38.690  1.00  0.00    -0.550 OA
ATOM     16  O   UNL     1      18.324  -3.651  40.211  1.00  0.00    -0.550 OA
ENDBRANCH  13  14
ENDBRANCH  12  13
ENDBRANCH  11  12
ENDBRANCH  10  11
ENDBRANCH   9  10
ENDBRANCH   8   9
ENDBRANCH   7   8
ENDBRANCH   6   7
ENDBRANCH   5   6
ENDBRANCH   4   5
ENDBRANCH   3   4
ENDBRANCH   2   3
ENDBRANCH   1   2
BRANCH   1  17
ATOM     17  C   UNL     1      14.514   2.625  38.535  1.00  0.00     0.000 C 
BRANCH  17  18
ATOM     18  C   UNL     1      14.650   1.100  38.393  1.00  0.00     0.000 C 
BRANCH  18  19
ATOM     19  C   UNL     1      14.361   0.608  36.967  1.00  0.00     0.000 C 
BRANCH  19  20
ATOM     20  C   UNL     1      15.655   0.171  36.264  1.00  0.00     0.000 C 
BRANCH  20  21
ATOM     21  C   UNL     1      16.419   1.351  35.636  1.00  0.00     0.000 C 
BRANCH  21  22
ATOM     22  C   UNL     1      17.826   1.604  36.216  1.00  0.00    -0.000 C 
BRANCH  22  23
ATOM     23  C   UNL     1      18.224   3.087  36.345  1.00  0.00    -0.000 C 
BRANCH  23  24
ATOM     24  C   UNL     1      19.107   3.358  37.570  1.00  0.00    -0.000 C 
BRANCH  24  25
ATOM     25  C   UNL     1      19.482   4.842  37.668  1.00  0.00    -0.000 C 
BRANCH  25  26
ATOM     26  C   UNL     1      18.665   5.597  38.731  1.00  0.00    -0.000 C 
BRANCH  26  27
ATOM     27  C   UNL     1      17.359   6.209  38.185  1.00  0.00    -0.000 C 
BRANCH  27  28
ATOM     28  C   UNL     1      17.585   6.987  36.876  1.00  0.00    -0.000 C 
BRANCH  28  29
ATOM     29  C   UNL     1      16.468   6.750  35.849  1.00  0.00    -0.003 C 
ATOM     30  C   UNL     1      15.543   5.598  36.247  1.00  0.00     0.004 C 
ENDBRANCH  28  29
ENDBRANCH  27  28
ENDBRANCH  26  27
ENDBRANCH  25  26
ENDBRANCH  24  25
ENDBRANCH  23  24
ENDBRANCH  22  23
ENDBRANCH  21  22
ENDBRANCH  20  21
ENDBRANCH  19  20
ENDBRANCH  18  19
ENDBRANCH  17  18
ENDBRANCH   1  17
TORSDOF 26
ENDMDL
MODEL 7
REMARK VINA RESULT:    -3.311      2.314      5.116
REMARK INTER + INTRA:         -13.539
REMARK INTER:                  -8.575
REMARK INTRA:                  -4.964
REMARK UNBOUND:                -5.195
REMARK SMILES CCCCCCCCCCCCCCCCCCCCCCCCCCCC(=O)[O-]
REMARK SMILES IDX 15 1 16 2 17 3 18 4 19 5 20 6 21 7 22 8 23 9 24 10 25 11
REMARK SMILES IDX 26 12 27 13 28 14 29 15 30 16 14 17 13 18 12 19 11 20 10 21
REMARK SMILES IDX 9 22 8 23 7 24 6 25 5 26 4 27 3 28 2 29 1 30
REMARK H PARENT
REMARK Flexibility Score: inf
ROOT
ATOM      1  C   UNL     1      14.951  -0.159  33.945  1.00  0.00     0.000 C 
ENDROOT
BRANCH   1   2
ATOM      2  C   UNL     1      15.100  -0.370  35.464  1.00  0.00     0.000 C 
BRANCH   2   3
ATOM      3  C   UNL     1      14.983   0.906  36.317  1.00  0.00     0.000 C 
BRANCH   3   4
ATOM      4  C   UNL     1      14.257   0.664  37.653  1.00  0.00     0.000 C 
BRANCH   4   5
ATOM      5  C   UNL     1      14.925   1.385  38.836  1.00  0.00     0.000 C 
BRANCH   5   6
ATOM      6  C   UNL     1      15.080   2.910  38.674  1.00  0.00     0.000 C 
BRANCH   6   7
ATOM      7  C   UNL     1      16.544   3.386  38.570  1.00  0.00     0.000 C 
BRANCH   7   8
ATOM      8  C   UNL     1      16.883   4.455  39.621  1.00  0.00     0.000 C 
BRANCH   8   9
ATOM      9  C   UNL     1      17.522   3.827  40.865  1.00  0.00     0.000 C 
BRANCH   9  10
ATOM     10  C   UNL     1      18.124   2.453  40.534  1.00  0.00     0.000 C 
BRANCH  10  11
ATOM     11  C   UNL     1      17.618   1.334  41.461  1.00  0.00     0.000 C 
BRANCH  11  12
ATOM     12  C   UNL     1      17.075   1.806  42.820  1.00  0.00     0.006 C 
BRANCH  12  13
ATOM     13  C   UNL     1      17.543   0.932  43.991  1.00  0.00     0.053 C 
BRANCH  13  14
ATOM     14  C   UNL     1      18.999   1.145  44.258  1.00  0.00     0.041 C 
ATOM     15  O   UNL     1      19.368   1.895  45.201  1.00  0.00    -0.550 OA
ATOM     16  O   UNL     1      19.952   0.511  43.470  1.00  0.00    -0.550 OA
ENDBRANCH  13  14
ENDBRANCH  12  13
ENDBRANCH  11  12
ENDBRANCH  10  11
ENDBRANCH   9  10
ENDBRANCH   8   9
ENDBRANCH   7   8
ENDBRANCH   6   7
ENDBRANCH   5   6
ENDBRANCH   4   5
ENDBRANCH   3   4
ENDBRANCH   2   3
ENDBRANCH   1   2
BRANCH   1  17
ATOM     17  C   UNL     1      16.258   0.300  33.276  1.00  0.00     0.000 C 
BRANCH  17  18
ATOM     18  C   UNL     1      17.375  -0.752  33.374  1.00  0.00     0.000 C 
BRANCH  18  19
ATOM     19  C   UNL     1      18.681  -0.181  33.947  1.00  0.00     0.000 C 
BRANCH  19  20
ATOM     20  C   UNL     1      18.461   1.229  34.515  1.00  0.00     0.000 C 
BRANCH  20  21
ATOM     21  C   UNL     1      18.484   1.261  36.055  1.00  0.00     0.000 C 
BRANCH  21  22
ATOM     22  C   UNL     1      18.795  -0.090  36.734  1.00  0.00    -0.000 C 
BRANCH  22  23
ATOM     23  C   UNL     1      17.969  -0.391  37.999  1.00  0.00    -0.000 C 
BRANCH  23  24
ATOM     24  C   UNL     1      18.757  -1.195  39.042  1.00  0.00    -0.000 C 
BRANCH  24  25
ATOM     25  C   UNL     1      20.269  -1.010  38.859  1.00  0.00    -0.000 C 
BRANCH  25  26
ATOM     26  C   UNL     1      20.965  -0.486  40.127  1.00  0.00    -0.000 C 
BRANCH  26  27
ATOM     27  C   UNL     1      21.380   0.998  40.033  1.00  0.00    -0.000 C 
BRANCH  27  28
ATOM     28  C   UNL     1      22.462   1.231  38.962  1.00  0.00    -0.000 C 
BRANCH  28  29
ATOM     29  C   UNL     1      21.940   2.041  37.766  1.00  0.00    -0.003 C 
ATOM     30  C   UNL     1      20.831   3.019  38.161  1.00  0.00     0.004 C 
ENDBRANCH  28  29
ENDBRANCH  27  28
ENDBRANCH  26  27
ENDBRANCH  25  26
ENDBRANCH  24  25
ENDBRANCH  23  24
ENDBRANCH  22  23
ENDBRANCH  21  22
ENDBRANCH  20  21
ENDBRANCH  19  20
ENDBRANCH  18  19
ENDBRANCH  17  18
ENDBRANCH   1  17
TORSDOF 26
ENDMDL
MODEL 8
REMARK VINA RESULT:    -3.309      2.629      6.332
REMARK INTER + INTRA:         -13.535
REMARK INTER:                  -8.308
REMARK INTRA:                  -5.227
REMARK UNBOUND:                -5.195
REMARK SMILES CCCCCCCCCCCCCCCCCCCCCCCCCCCC(=O)[O-]
REMARK SMILES IDX 15 1 16 2 17 3 18 4 19 5 20 6 21 7 22 8 23 9 24 10 25 11
REMARK SMILES IDX 26 12 27 13 28 14 29 15 30 16 14 17 13 18 12 19 11 20 10 21
REMARK SMILES IDX 9 22 8 23 7 24 6 25 5 26 4 27 3 28 2 29 1 30
REMARK H PARENT
REMARK Flexibility Score: inf
ROOT
ATOM      1  C   UNL     1      14.536   2.842  38.135  1.00  0.00     0.000 C 
ENDROOT
BRANCH   1   2
ATOM      2  C   UNL     1      15.780   3.730  38.328  1.00  0.00     0.000 C 
BRANCH   2   3
ATOM      3  C   UNL     1      16.400   4.279  37.030  1.00  0.00     0.000 C 
BRANCH   3   4
ATOM      4  C   UNL     1      16.903   5.727  37.177  1.00  0.00     0.000 C 
BRANCH   4   5
ATOM      5  C   UNL     1      18.438   5.827  37.206  1.00  0.00     0.000 C 
BRANCH   5   6
ATOM      6  C   UNL     1      19.126   5.062  38.353  1.00  0.00     0.000 C 
BRANCH   6   7
ATOM      7  C   UNL     1      18.799   5.607  39.758  1.00  0.00     0.000 C 
BRANCH   7   8
ATOM      8  C   UNL     1      18.518   4.483  40.767  1.00  0.00     0.000 C 
BRANCH   8   9
ATOM      9  C   UNL     1      17.535   4.942  41.851  1.00  0.00     0.000 C 
BRANCH   9  10
ATOM     10  C   UNL     1      16.283   4.052  41.864  1.00  0.00     0.000 C 
BRANCH  10  11
ATOM     11  C   UNL     1      16.605   2.556  41.712  1.00  0.00     0.000 C 
BRANCH  11  12
ATOM     12  C   UNL     1      16.852   1.802  43.030  1.00  0.00     0.006 C 
BRANCH  12  13
ATOM     13  C   UNL     1      18.235   1.141  43.093  1.00  0.00     0.053 C 
BRANCH  13  14
ATOM     14  C   UNL     1      19.255   2.103  43.617  1.00  0.00     0.041 C 
ATOM     15  O   UNL     1      18.969   2.872  44.572  1.00  0.00    -0.550 OA
ATOM     16  O   UNL     1      20.524   2.145  43.055  1.00  0.00    -0.550 OA
ENDBRANCH  13  14
ENDBRANCH  12  13
ENDBRANCH  11  12
ENDBRANCH  10  11
ENDBRANCH   9  10
ENDBRANCH   8   9
ENDBRANCH   7   8
ENDBRANCH   6   7
ENDBRANCH   5   6
ENDBRANCH   4   5
ENDBRANCH   3   4
ENDBRANCH   2   3
ENDBRANCH   1   2
BRANCH   1  17
ATOM     17  C   UNL     1      14.799   1.366  38.478  1.00  0.00     0.000 C 
BRANCH  17  18
ATOM     18  C   UNL     1      14.477   0.420  37.308  1.00  0.00     0.000 C 
BRANCH  18  19
ATOM     19  C   UNL     1      15.154   0.845  35.996  1.00  0.00     0.000 C 
BRANCH  19  20
ATOM     20  C   UNL     1      15.066  -0.272  34.947  1.00  0.00     0.000 C 
BRANCH  20  21
ATOM     21  C   UNL     1      15.706   0.121  33.602  1.00  0.00     0.000 C 
BRANCH  21  22
ATOM     22  C   UNL     1      16.982  -0.662  33.230  1.00  0.00    -0.000 C 
BRANCH  22  23
ATOM     23  C   UNL     1      18.306   0.085  33.484  1.00  0.00    -0.000 C 
BRANCH  23  24
ATOM     24  C   UNL     1      18.716   0.074  34.962  1.00  0.00    -0.000 C 
BRANCH  24  25
ATOM     25  C   UNL     1      18.969   1.497  35.479  1.00  0.00    -0.000 C 
BRANCH  25  26
ATOM     26  C   UNL     1      18.716   1.638  36.991  1.00  0.00    -0.000 C 
BRANCH  26  27
ATOM     27  C   UNL     1      18.374   0.303  37.685  1.00  0.00    -0.000 C 
BRANCH  27  28
ATOM     28  C   UNL     1      18.361   0.433  39.219  1.00  0.00    -0.000 C 
BRANCH  28  29
ATOM     29  C   UNL     1      19.568   1.220  39.753  1.00  0.00    -0.003 C 
ATOM     30  C   UNL     1      20.798   0.334  39.962  1.00  0.00     0.004 C 
ENDBRANCH  28  29
ENDBRANCH  27  28
ENDBRANCH  26  27
ENDBRANCH  25  26
ENDBRANCH  24  25
ENDBRANCH  23  24
ENDBRANCH  22  23
ENDBRANCH  21  22
ENDBRANCH  20  21
ENDBRANCH  19  20
ENDBRANCH  18  19
ENDBRANCH  17  18
ENDBRANCH   1  17
TORSDOF 26
ENDMDL
MODEL 9
REMARK VINA RESULT:    -3.298      2.438      4.978
REMARK INTER + INTRA:         -13.506
REMARK INTER:                  -7.854
REMARK INTRA:                  -5.653
REMARK UNBOUND:                -5.195
REMARK SMILES CCCCCCCCCCCCCCCCCCCCCCCCCCCC(=O)[O-]
REMARK SMILES IDX 15 1 16 2 17 3 18 4 19 5 20 6 21 7 22 8 23 9 24 10 25 11
REMARK SMILES IDX 26 12 27 13 28 14 29 15 30 16 14 17 13 18 12 19 11 20 10 21
REMARK SMILES IDX 9 22 8 23 7 24 6 25 5 26 4 27 3 28 2 29 1 30
REMARK H PARENT
REMARK Flexibility Score: inf
ROOT
ATOM      1  C   UNL     1      20.425   1.490  40.271  1.00  0.00     0.000 C 
ENDROOT
BRANCH   1   2
ATOM      2  C   UNL     1      21.620   0.758  39.631  1.00  0.00     0.000 C 
BRANCH   2   3
ATOM      3  C   UNL     1      21.345  -0.694  39.201  1.00  0.00     0.000 C 
BRANCH   3   4
ATOM      4  C   UNL     1      20.146  -1.317  39.940  1.00  0.00     0.000 C 
BRANCH   4   5
ATOM      5  C   UNL     1      18.978  -1.664  39.000  1.00  0.00     0.000 C 
BRANCH   5   6
ATOM      6  C   UNL     1      19.314  -1.641  37.496  1.00  0.00     0.000 C 
BRANCH   6   7
ATOM      7  C   UNL     1      18.582  -0.537  36.705  1.00  0.00     0.000 C 
BRANCH   7   8
ATOM      8  C   UNL     1      17.111  -0.398  37.128  1.00  0.00     0.000 C 
BRANCH   8   9
ATOM      9  C   UNL     1      16.173  -0.528  35.922  1.00  0.00     0.000 C 
BRANCH   9  10
ATOM     10  C   UNL     1      15.041   0.508  35.997  1.00  0.00     0.000 C 
BRANCH  10  11
ATOM     11  C   UNL     1      15.411   1.746  36.833  1.00  0.00     0.000 C 
BRANCH  11  12
ATOM     12  C   UNL     1      16.017   2.915  36.037  1.00  0.00     0.006 C 
BRANCH  12  13
ATOM     13  C   UNL     1      15.694   4.286  36.643  1.00  0.00     0.053 C 
BRANCH  13  14
ATOM     14  C   UNL     1      16.952   5.040  36.939  1.00  0.00     0.041 C 
ATOM     15  O   UNL     1      18.040   4.691  36.409  1.00  0.00    -0.550 OA
ATOM     16  O   UNL     1      16.923   6.133  37.796  1.00  0.00    -0.550 OA
ENDBRANCH  13  14
ENDBRANCH  12  13
ENDBRANCH  11  12
ENDBRANCH  10  11
ENDBRANCH   9  10
ENDBRANCH   8   9
ENDBRANCH   7   8
ENDBRANCH   6   7
ENDBRANCH   5   6
ENDBRANCH   4   5
ENDBRANCH   3   4
ENDBRANCH   2   3
ENDBRANCH   1   2
BRANCH   1  17
ATOM     17  C   UNL     1      19.769   2.505  39.320  1.00  0.00     0.000 C 
BRANCH  17  18
ATOM     18  C   UNL     1      18.247   2.313  39.208  1.00  0.00     0.000 C 
BRANCH  18  19
ATOM     19  C   UNL     1      17.674   1.435  40.331  1.00  0.00     0.000 C 
BRANCH  19  20
ATOM     20  C   UNL     1      16.260   1.893  40.718  1.00  0.00     0.000 C 
BRANCH  20  21
ATOM     21  C   UNL     1      15.893   3.264  40.122  1.00  0.00     0.000 C 
BRANCH  21  22
ATOM     22  C   UNL     1      15.875   4.433  41.130  1.00  0.00    -0.000 C 
BRANCH  22  23
ATOM     23  C   UNL     1      17.202   5.204  41.262  1.00  0.00    -0.000 C 
BRANCH  23  24
ATOM     24  C   UNL     1      18.158   4.566  42.278  1.00  0.00    -0.000 C 
BRANCH  24  25
ATOM     25  C   UNL     1      17.442   4.265  43.601  1.00  0.00    -0.000 C 
BRANCH  25  26
ATOM     26  C   UNL     1      17.706   2.838  44.113  1.00  0.00    -0.000 C 
BRANCH  26  27
ATOM     27  C   UNL     1      19.053   2.252  43.639  1.00  0.00    -0.000 C 
BRANCH  27  28
ATOM     28  C   UNL     1      19.364   0.899  44.304  1.00  0.00    -0.000 C 
BRANCH  28  29
ATOM     29  C   UNL     1      19.459  -0.248  43.287  1.00  0.00    -0.003 C 
ATOM     30  C   UNL     1      19.911  -1.562  43.927  1.00  0.00     0.004 C 
ENDBRANCH  28  29
ENDBRANCH  27  28
ENDBRANCH  26  27
ENDBRANCH  25  26
ENDBRANCH  24  25
ENDBRANCH  23  24
ENDBRANCH  22  23
ENDBRANCH  21  22
ENDBRANCH  20  21
ENDBRANCH  19  20
ENDBRANCH  18  19
ENDBRANCH  17  18
ENDBRANCH   1  17
TORSDOF 26
ENDMDL
