MODEL 1
REMARK VINA RESULT:    -4.619      0.000      0.000
REMARK INTER + INTRA:         -10.905
REMARK INTER:                  -7.590
REMARK INTRA:                  -3.315
REMARK UNBOUND:                -3.315
REMARK SMILES C[C@H]1O[C@H](OC[C@@H]2O[C@@H](Oc3c(-c4ccc(O)c(O)c4)oc4cc(O)cc(O)c4c3=O)[C@@H](O)[C@@H](O)[C@H]2O)[C@H](O)[C@@H](O)[C@H]1O
REMARK SMILES IDX 7 1 36 2 34 3 32 4 9 5 8 6 6 7 5 8 4 9 1 10 2 11 42 12 3 13
REMARK SMILES IDX 40 14 38 15 43 16 41 18 39 20 37 22 35 24 10 26 11 27 12 28
REMARK SMILES IDX 30 29 21 30 29 31 31 32 22 33 27 34 23 35 26 36 24 37 13 38
REMARK SMILES IDX 20 39 14 40 18 41 15 42 16 43 19 44 17 46 28 48 25 50 33 52
REMARK H PARENT 43 17 41 19 39 21 37 23 35 25 19 45 17 47 28 49 25 51 33 53
REMARK Flexibility Score: inf
ROOT
ATOM      1  C   UNL     1       7.199   8.673  11.612  1.00  0.00     0.180 C 
ATOM      2  C   UNL     1       8.421   7.893  12.181  1.00  0.00     0.177 C 
ATOM      3  C   UNL     1       9.465   8.854  12.797  1.00  0.00     0.180 C 
ATOM      4  C   UNL     1       9.626  10.149  11.953  1.00  0.00     0.214 C 
ATOM      5  C   UNL     1       8.893  10.013  10.601  1.00  0.00     0.339 C 
ATOM      6  O   UNL     1       7.504   9.817  10.808  1.00  0.00    -0.332 OA
ENDROOT
BRANCH   1   7
ATOM      7  C   UNL     1       6.281   7.741  10.800  1.00  0.00     0.198 C 
BRANCH   7   8
ATOM      8  O   UNL     1       5.550   8.471   9.828  1.00  0.00    -0.347 OA
BRANCH   8   9
ATOM      9  C   UNL     1       4.161   8.531  10.152  1.00  0.00     0.281 C 
ATOM     10  C   UNL     1       4.056  12.002  11.382  1.00  0.00     0.041 C 
ATOM     11  C   UNL     1       4.198  10.875  10.359  1.00  0.00     0.150 C 
ATOM     12  C   UNL     1       3.255  11.103   9.162  1.00  0.00     0.174 C 
ATOM     13  O   UNL     1       3.910   9.642  10.999  1.00  0.00    -0.344 OA
ATOM     14  C   UNL     1       3.451   9.950   8.163  1.00  0.00     0.179 C 
ATOM     15  C   UNL     1       3.294   8.588   8.875  1.00  0.00     0.202 C 
BRANCH  12  16
ATOM     16  O   UNL     1       1.921  11.144   9.610  1.00  0.00    -0.388 OA
ATOM     17  H   UNL     1       1.342  11.182   8.802  1.00  0.00     0.211 HD
ENDBRANCH  12  16
BRANCH  14  18
ATOM     18  O   UNL     1       2.568  10.077   7.074  1.00  0.00    -0.387 OA
ATOM     19  H   UNL     1       3.046   9.785   6.255  1.00  0.00     0.211 HD
ENDBRANCH  14  18
BRANCH  15  20
ATOM     20  O   UNL     1       3.667   7.548   8.009  1.00  0.00    -0.385 OA
ATOM     21  H   UNL     1       2.827   7.109   7.706  1.00  0.00     0.211 HD
ENDBRANCH  15  20
ENDBRANCH   8   9
ENDBRANCH   7   8
ENDBRANCH   1   7
BRANCH   2  22
ATOM     22  O   UNL     1       7.993   6.972  13.162  1.00  0.00    -0.387 OA
ATOM     23  H   UNL     1       8.799   6.491  13.482  1.00  0.00     0.211 HD
ENDBRANCH   2  22
BRANCH   3  24
ATOM     24  O   UNL     1       9.123   9.173  14.127  1.00  0.00    -0.387 OA
ATOM     25  H   UNL     1       8.935  10.148  14.154  1.00  0.00     0.211 HD
ENDBRANCH   3  24
BRANCH   5  26
ATOM     26  O   UNL     1       9.096  11.200   9.832  1.00  0.00    -0.454 OA
BRANCH  26  27
ATOM     27  C   UNL     1       8.022  11.899   9.273  1.00  0.00     0.214 A 
ATOM     28  C   UNL     1       7.555  11.605   7.980  1.00  0.00     0.180 A 
ATOM     29  C   UNL     1       7.451  12.962   9.980  1.00  0.00     0.239 A 
ATOM     30  O   UNL     1       6.600  12.355   7.444  1.00  0.00    -0.452 OA
ATOM     31  C   UNL     1       6.471  13.773   9.362  1.00  0.00     0.111 A 
ATOM     32  O   UNL     1       7.834  13.166  11.161  1.00  0.00    -0.285 OA
ATOM     33  C   UNL     1       6.054  13.397   8.059  1.00  0.00     0.146 A 
ATOM     34  C   UNL     1       5.890  14.941   9.947  1.00  0.00     0.134 A 
ATOM     35  C   UNL     1       5.061  14.116   7.393  1.00  0.00     0.094 A 
ATOM     36  C   UNL     1       4.880  15.628   9.265  1.00  0.00     0.093 A 
ATOM     37  C   UNL     1       4.464  15.226   7.995  1.00  0.00     0.123 A 
BRANCH  28  38
ATOM     38  C   UNL     1       8.093  10.485   7.177  1.00  0.00     0.025 A 
ATOM     39  C   UNL     1       9.322  10.590   6.505  1.00  0.00     0.062 A 
ATOM     40  C   UNL     1       7.383   9.273   7.121  1.00  0.00     0.016 A 
ATOM     41  C   UNL     1       9.824   9.510   5.766  1.00  0.00     0.158 A 
ATOM     42  C   UNL     1       7.882   8.197   6.382  1.00  0.00     0.051 A 
ATOM     43  C   UNL     1       9.097   8.310   5.703  1.00  0.00     0.157 A 
BRANCH  41  44
ATOM     44  O   UNL     1      11.045   9.624   5.098  1.00  0.00    -0.504 OA
ATOM     45  H   UNL     1      11.096   9.727   4.091  1.00  0.00     0.293 HD
ENDBRANCH  41  44
BRANCH  43  46
ATOM     46  O   UNL     1       9.564   7.223   4.961  1.00  0.00    -0.504 OA
ATOM     47  H   UNL     1      10.443   6.756   5.178  1.00  0.00     0.293 HD
ENDBRANCH  43  46
ENDBRANCH  28  38
BRANCH  34  48
ATOM     48  O   UNL     1       6.290  15.487  11.174  1.00  0.00    -0.507 OA
ATOM     49  H   UNL     1       5.710  15.533  12.000  1.00  0.00     0.293 HD
ENDBRANCH  34  48
BRANCH  37  50
ATOM     50  O   UNL     1       3.466  15.926   7.322  1.00  0.00    -0.508 OA
ATOM     51  H   UNL     1       3.492  16.052   6.316  1.00  0.00     0.293 HD
ENDBRANCH  37  50
ENDBRANCH  26  27
ENDBRANCH   5  26
BRANCH   4  52
ATOM     52  O   UNL     1       9.186  11.288  12.669  1.00  0.00    -0.384 OA
ATOM     53  H   UNL     1       9.265  12.081  12.080  1.00  0.00     0.211 HD
ENDBRANCH   4  52
TORSDOF 16
ENDMDL
MODEL 2
REMARK VINA RESULT:    -4.614      3.257      7.363
REMARK INTER + INTRA:         -10.896
REMARK INTER:                  -8.603
REMARK INTRA:                  -2.293
REMARK UNBOUND:                -3.315
REMARK SMILES C[C@H]1O[C@H](OC[C@@H]2O[C@@H](Oc3c(-c4ccc(O)c(O)c4)oc4cc(O)cc(O)c4c3=O)[C@@H](O)[C@@H](O)[C@H]2O)[C@H](O)[C@@H](O)[C@H]1O
REMARK SMILES IDX 7 1 36 2 34 3 32 4 9 5 8 6 6 7 5 8 4 9 1 10 2 11 42 12 3 13
REMARK SMILES IDX 40 14 38 15 43 16 41 18 39 20 37 22 35 24 10 26 11 27 12 28
REMARK SMILES IDX 30 29 21 30 29 31 31 32 22 33 27 34 23 35 26 36 24 37 13 38
REMARK SMILES IDX 20 39 14 40 18 41 15 42 16 43 19 44 17 46 28 48 25 50 33 52
REMARK H PARENT 43 17 41 19 39 21 37 23 35 25 19 45 17 47 28 49 25 51 33 53
REMARK Flexibility Score: inf
ROOT
ATOM      1  C   UNL     1       8.334  12.134  12.541  1.00  0.00     0.180 C 
ATOM      2  C   UNL     1       7.312  12.051  13.713  1.00  0.00     0.177 C 
ATOM      3  C   UNL     1       6.893  10.588  13.990  1.00  0.00     0.180 C 
ATOM      4  C   UNL     1       6.717   9.779  12.676  1.00  0.00     0.214 C 
ATOM      5  C   UNL     1       6.760  10.715  11.449  1.00  0.00     0.339 C 
ATOM      6  O   UNL     1       8.013  11.374  11.373  1.00  0.00    -0.332 OA
ENDROOT
BRANCH   1   7
ATOM      7  C   UNL     1       8.569  13.596  12.118  1.00  0.00     0.198 C 
BRANCH   7   8
ATOM      8  O   UNL     1       9.121  14.349  13.186  1.00  0.00    -0.347 OA
BRANCH   8   9
ATOM      9  C   UNL     1       8.822  15.739  13.058  1.00  0.00     0.281 C 
ATOM     10  C   UNL     1       6.554  16.059  15.943  1.00  0.00     0.041 C 
ATOM     11  C   UNL     1       7.879  15.847  15.212  1.00  0.00     0.150 C 
ATOM     12  C   UNL     1       8.959  16.804  15.753  1.00  0.00     0.174 C 
ATOM     13  O   UNL     1       7.670  16.058  13.823  1.00  0.00    -0.344 OA
ATOM     14  C   UNL     1      10.269  16.537  14.992  1.00  0.00     0.179 C 
ATOM     15  C   UNL     1      10.031  16.609  13.467  1.00  0.00     0.202 C 
BRANCH  12  16
ATOM     16  O   UNL     1       8.546  18.137  15.570  1.00  0.00    -0.388 OA
ATOM     17  H   UNL     1       9.089  18.698  16.187  1.00  0.00     0.211 HD
ENDBRANCH  12  16
BRANCH  14  18
ATOM     18  O   UNL     1      11.277  17.427  15.407  1.00  0.00    -0.387 OA
ATOM     19  H   UNL     1      10.900  18.010  16.116  1.00  0.00     0.211 HD
ENDBRANCH  14  18
BRANCH  15  20
ATOM     20  O   UNL     1      11.175  16.173  12.781  1.00  0.00    -0.385 OA
ATOM     21  H   UNL     1      10.975  15.261  12.435  1.00  0.00     0.211 HD
ENDBRANCH  15  20
ENDBRANCH   8   9
ENDBRANCH   7   8
ENDBRANCH   1   7
BRANCH   2  22
ATOM     22  O   UNL     1       7.870  12.611  14.883  1.00  0.00    -0.387 OA
ATOM     23  H   UNL     1       8.115  11.858  15.478  1.00  0.00     0.211 HD
ENDBRANCH   2  22
BRANCH   3  24
ATOM     24  O   UNL     1       7.826   9.956  14.837  1.00  0.00    -0.387 OA
ATOM     25  H   UNL     1       8.168   9.161  14.351  1.00  0.00     0.211 HD
ENDBRANCH   3  24
BRANCH   5  26
ATOM     26  O   UNL     1       6.552   9.949  10.262  1.00  0.00    -0.454 OA
BRANCH  26  27
ATOM     27  C   UNL     1       7.454   9.998   9.195  1.00  0.00     0.214 A 
ATOM     28  C   UNL     1       7.321  10.953   8.172  1.00  0.00     0.180 A 
ATOM     29  C   UNL     1       8.460   9.032   9.101  1.00  0.00     0.239 A 
ATOM     30  O   UNL     1       8.136  10.907   7.126  1.00  0.00    -0.452 OA
ATOM     31  C   UNL     1       9.280   8.978   7.948  1.00  0.00     0.111 A 
ATOM     32  O   UNL     1       8.608   8.229  10.058  1.00  0.00    -0.285 OA
ATOM     33  C   UNL     1       9.081   9.988   6.972  1.00  0.00     0.146 A 
ATOM     34  C   UNL     1      10.271   7.980   7.698  1.00  0.00     0.134 A 
ATOM     35  C   UNL     1       9.874  10.035   5.824  1.00  0.00     0.094 A 
ATOM     36  C   UNL     1      11.066   8.067   6.550  1.00  0.00     0.093 A 
ATOM     37  C   UNL     1      10.874   9.083   5.614  1.00  0.00     0.123 A 
BRANCH  28  38
ATOM     38  C   UNL     1       6.296  12.019   8.209  1.00  0.00     0.025 A 
ATOM     39  C   UNL     1       6.598  13.308   8.679  1.00  0.00     0.062 A 
ATOM     40  C   UNL     1       5.005  11.752   7.724  1.00  0.00     0.016 A 
ATOM     41  C   UNL     1       5.617  14.311   8.688  1.00  0.00     0.158 A 
ATOM     42  C   UNL     1       4.026  12.749   7.736  1.00  0.00     0.051 A 
ATOM     43  C   UNL     1       4.325  14.026   8.217  1.00  0.00     0.157 A 
BRANCH  41  44
ATOM     44  O   UNL     1       5.924  15.589   9.159  1.00  0.00    -0.504 OA
ATOM     45  H   UNL     1       5.205  16.225   9.485  1.00  0.00     0.293 HD
ENDBRANCH  41  44
BRANCH  43  46
ATOM     46  O   UNL     1       3.324  14.999   8.229  1.00  0.00    -0.504 OA
ATOM     47  H   UNL     1       3.287  15.747   7.540  1.00  0.00     0.293 HD
ENDBRANCH  43  46
ENDBRANCH  28  38
BRANCH  34  48
ATOM     48  O   UNL     1      10.492   6.868   8.520  1.00  0.00    -0.507 OA
ATOM     49  H   UNL     1       9.762   6.298   8.927  1.00  0.00     0.293 HD
ENDBRANCH  34  48
BRANCH  37  50
ATOM     50  O   UNL     1      11.664   9.151   4.469  1.00  0.00    -0.508 OA
ATOM     51  H   UNL     1      12.081  10.023   4.163  1.00  0.00     0.293 HD
ENDBRANCH  37  50
ENDBRANCH  26  27
ENDBRANCH   5  26
BRANCH   4  52
ATOM     52  O   UNL     1       7.681   8.747  12.574  1.00  0.00    -0.384 OA
ATOM     53  H   UNL     1       8.558   9.154  12.356  1.00  0.00     0.211 HD
ENDBRANCH   4  52
TORSDOF 16
ENDMDL
MODEL 3
REMARK VINA RESULT:    -4.584      2.446      6.703
REMARK INTER + INTRA:         -10.846
REMARK INTER:                  -7.774
REMARK INTRA:                  -3.072
REMARK UNBOUND:                -3.315
REMARK SMILES C[C@H]1O[C@H](OC[C@@H]2O[C@@H](Oc3c(-c4ccc(O)c(O)c4)oc4cc(O)cc(O)c4c3=O)[C@@H](O)[C@@H](O)[C@H]2O)[C@H](O)[C@@H](O)[C@H]1O
REMARK SMILES IDX 7 1 36 2 34 3 32 4 9 5 8 6 6 7 5 8 4 9 1 10 2 11 42 12 3 13
REMARK SMILES IDX 40 14 38 15 43 16 41 18 39 20 37 22 35 24 10 26 11 27 12 28
REMARK SMILES IDX 30 29 21 30 29 31 31 32 22 33 27 34 23 35 26 36 24 37 13 38
REMARK SMILES IDX 20 39 14 40 18 41 15 42 16 43 19 44 17 46 28 48 25 50 33 52
REMARK H PARENT 43 17 41 19 39 21 37 23 35 25 19 45 17 47 28 49 25 51 33 53
REMARK Flexibility Score: inf
ROOT
ATOM      1  C   UNL     1       8.359  11.905  12.279  1.00  0.00     0.180 C 
ATOM      2  C   UNL     1       7.383  11.692  13.474  1.00  0.00     0.177 C 
ATOM      3  C   UNL     1       7.186  10.189  13.778  1.00  0.00     0.180 C 
ATOM      4  C   UNL     1       7.103   9.343  12.478  1.00  0.00     0.214 C 
ATOM      5  C   UNL     1       6.985  10.257  11.239  1.00  0.00     0.339 C 
ATOM      6  O   UNL     1       8.127  11.089  11.127  1.00  0.00    -0.332 OA
ENDROOT
BRANCH   1   7
ATOM      7  C   UNL     1       8.371  13.379  11.834  1.00  0.00     0.198 C 
BRANCH   7   8
ATOM      8  O   UNL     1       7.213  14.056  12.294  1.00  0.00    -0.347 OA
BRANCH   8   9
ATOM      9  C   UNL     1       7.430  15.464  12.386  1.00  0.00     0.281 C 
ATOM     10  C   UNL     1       4.060  16.583  11.409  1.00  0.00     0.041 C 
ATOM     11  C   UNL     1       5.127  15.937  12.291  1.00  0.00     0.150 C 
ATOM     12  C   UNL     1       5.078  16.517  13.718  1.00  0.00     0.174 C 
ATOM     13  O   UNL     1       6.399  16.158  11.701  1.00  0.00    -0.344 OA
ATOM     14  C   UNL     1       6.161  15.821  14.562  1.00  0.00     0.179 C 
ATOM     15  C   UNL     1       7.534  15.916  13.859  1.00  0.00     0.202 C 
BRANCH  12  16
ATOM     16  O   UNL     1       5.304  17.905  13.674  1.00  0.00    -0.388 OA
ATOM     17  H   UNL     1       5.233  18.243  14.607  1.00  0.00     0.211 HD
ENDBRANCH  12  16
BRANCH  14  18
ATOM     18  O   UNL     1       6.200  16.357  15.863  1.00  0.00    -0.387 OA
ATOM     19  H   UNL     1       6.107  17.343  15.792  1.00  0.00     0.211 HD
ENDBRANCH  14  18
BRANCH  15  20
ATOM     20  O   UNL     1       8.472  15.116  14.529  1.00  0.00    -0.385 OA
ATOM     21  H   UNL     1       9.027  15.726  15.087  1.00  0.00     0.211 HD
ENDBRANCH  15  20
ENDBRANCH   8   9
ENDBRANCH   7   8
ENDBRANCH   1   7
BRANCH   2  22
ATOM     22  O   UNL     1       7.877  12.344  14.625  1.00  0.00    -0.387 OA
ATOM     23  H   UNL     1       7.101  12.528  15.212  1.00  0.00     0.211 HD
ENDBRANCH   2  22
BRANCH   3  24
ATOM     24  O   UNL     1       8.218   9.711  14.611  1.00  0.00    -0.387 OA
ATOM     25  H   UNL     1       7.869   9.720  15.541  1.00  0.00     0.211 HD
ENDBRANCH   3  24
BRANCH   5  26
ATOM     26  O   UNL     1       6.867   9.450  10.066  1.00  0.00    -0.454 OA
BRANCH  26  27
ATOM     27  C   UNL     1       7.764   9.577   9.001  1.00  0.00     0.214 A 
ATOM     28  C   UNL     1       7.590  10.563   8.015  1.00  0.00     0.180 A 
ATOM     29  C   UNL     1       8.809   8.657   8.870  1.00  0.00     0.239 A 
ATOM     30  O   UNL     1       8.403  10.589   6.967  1.00  0.00    -0.452 OA
ATOM     31  C   UNL     1       9.627   8.680   7.716  1.00  0.00     0.111 A 
ATOM     32  O   UNL     1       8.991   7.826   9.797  1.00  0.00    -0.285 OA
ATOM     33  C   UNL     1       9.385   9.716   6.778  1.00  0.00     0.146 A 
ATOM     34  C   UNL     1      10.658   7.733   7.428  1.00  0.00     0.134 A 
ATOM     35  C   UNL     1      10.173   9.838   5.633  1.00  0.00     0.094 A 
ATOM     36  C   UNL     1      11.447   7.896   6.283  1.00  0.00     0.093 A 
ATOM     37  C   UNL     1      11.210   8.937   5.386  1.00  0.00     0.123 A 
BRANCH  28  38
ATOM     38  C   UNL     1       6.522  11.584   8.093  1.00  0.00     0.025 A 
ATOM     39  C   UNL     1       6.796  12.901   8.497  1.00  0.00     0.062 A 
ATOM     40  C   UNL     1       5.213  11.244   7.712  1.00  0.00     0.016 A 
ATOM     41  C   UNL     1       5.774  13.859   8.546  1.00  0.00     0.158 A 
ATOM     42  C   UNL     1       4.193  12.197   7.763  1.00  0.00     0.051 A 
ATOM     43  C   UNL     1       4.466  13.502   8.179  1.00  0.00     0.157 A 
BRANCH  41  44
ATOM     44  O   UNL     1       6.054  15.165   8.952  1.00  0.00    -0.504 OA
ATOM     45  H   UNL     1       6.785  15.371   9.624  1.00  0.00     0.293 HD
ENDBRANCH  41  44
BRANCH  43  46
ATOM     46  O   UNL     1       3.424  14.430   8.233  1.00  0.00    -0.504 OA
ATOM     47  H   UNL     1       3.499  15.354   7.811  1.00  0.00     0.293 HD
ENDBRANCH  43  46
ENDBRANCH  28  38
BRANCH  34  48
ATOM     48  O   UNL     1      10.926   6.601   8.208  1.00  0.00    -0.507 OA
ATOM     49  H   UNL     1      10.246   6.127   8.787  1.00  0.00     0.293 HD
ENDBRANCH  34  48
BRANCH  37  50
ATOM     50  O   UNL     1      11.995   9.081   4.244  1.00  0.00    -0.508 OA
ATOM     51  H   UNL     1      12.579   8.326   3.902  1.00  0.00     0.293 HD
ENDBRANCH  37  50
ENDBRANCH  26  27
ENDBRANCH   5  26
BRANCH   4  52
ATOM     52  O   UNL     1       8.204   8.459  12.367  1.00  0.00    -0.384 OA
ATOM     53  H   UNL     1       8.044   7.680  12.957  1.00  0.00     0.211 HD
ENDBRANCH   4  52
TORSDOF 16
ENDMDL
MODEL 4
REMARK VINA RESULT:    -4.407      4.018      7.710
REMARK INTER + INTRA:         -10.556
REMARK INTER:                  -8.285
REMARK INTRA:                  -2.271
REMARK UNBOUND:                -3.315
REMARK SMILES C[C@H]1O[C@H](OC[C@@H]2O[C@@H](Oc3c(-c4ccc(O)c(O)c4)oc4cc(O)cc(O)c4c3=O)[C@@H](O)[C@@H](O)[C@H]2O)[C@H](O)[C@@H](O)[C@H]1O
REMARK SMILES IDX 7 1 36 2 34 3 32 4 9 5 8 6 6 7 5 8 4 9 1 10 2 11 42 12 3 13
REMARK SMILES IDX 40 14 38 15 43 16 41 18 39 20 37 22 35 24 10 26 11 27 12 28
REMARK SMILES IDX 30 29 21 30 29 31 31 32 22 33 27 34 23 35 26 36 24 37 13 38
REMARK SMILES IDX 20 39 14 40 18 41 15 42 16 43 19 44 17 46 28 48 25 50 33 52
REMARK H PARENT 43 17 41 19 39 21 37 23 35 25 19 45 17 47 28 49 25 51 33 53
REMARK Flexibility Score: inf
ROOT
ATOM      1  C   UNL     1      11.348   7.095   7.711  1.00  0.00     0.180 C 
ATOM      2  C   UNL     1      11.802   5.949   8.664  1.00  0.00     0.177 C 
ATOM      3  C   UNL     1      13.096   5.274   8.155  1.00  0.00     0.180 C 
ATOM      4  C   UNL     1      13.096   5.118   6.609  1.00  0.00     0.214 C 
ATOM      5  C   UNL     1      11.703   5.445   6.028  1.00  0.00     0.339 C 
ATOM      6  O   UNL     1      11.351   6.788   6.315  1.00  0.00    -0.332 OA
ENDROOT
BRANCH   1   7
ATOM      7  C   UNL     1       9.947   7.607   8.093  1.00  0.00     0.198 C 
BRANCH   7   8
ATOM      8  O   UNL     1       9.888   9.022   8.023  1.00  0.00    -0.347 OA
BRANCH   8   9
ATOM      9  C   UNL     1       8.763   9.463   7.262  1.00  0.00     0.281 C 
ATOM     10  C   UNL     1       6.861  11.036   9.995  1.00  0.00     0.041 C 
ATOM     11  C   UNL     1       8.001  10.863   8.993  1.00  0.00     0.150 C 
ATOM     12  C   UNL     1       8.220  12.158   8.188  1.00  0.00     0.174 C 
ATOM     13  O   UNL     1       7.687   9.780   8.130  1.00  0.00    -0.344 OA
ATOM     14  C   UNL     1       9.385  11.929   7.209  1.00  0.00     0.179 C 
ATOM     15  C   UNL     1       9.136  10.661   6.361  1.00  0.00     0.202 C 
BRANCH  12  16
ATOM     16  O   UNL     1       7.045  12.485   7.486  1.00  0.00    -0.388 OA
ATOM     17  H   UNL     1       7.030  13.475   7.386  1.00  0.00     0.211 HD
ENDBRANCH  12  16
BRANCH  14  18
ATOM     18  O   UNL     1       9.591  13.065   6.403  1.00  0.00    -0.387 OA
ATOM     19  H   UNL     1       9.259  12.858   5.491  1.00  0.00     0.211 HD
ENDBRANCH  14  18
BRANCH  15  20
ATOM     20  O   UNL     1      10.283  10.348   5.616  1.00  0.00    -0.385 OA
ATOM     21  H   UNL     1      10.712   9.567   6.059  1.00  0.00     0.211 HD
ENDBRANCH  15  20
ENDBRANCH   8   9
ENDBRANCH   7   8
ENDBRANCH   1   7
BRANCH   2  22
ATOM     22  O   UNL     1      12.016   6.457   9.964  1.00  0.00    -0.387 OA
ATOM     23  H   UNL     1      12.040   5.681  10.580  1.00  0.00     0.211 HD
ENDBRANCH   2  22
BRANCH   3  24
ATOM     24  O   UNL     1      14.232   5.994   8.576  1.00  0.00    -0.387 OA
ATOM     25  H   UNL     1      14.170   6.899   8.173  1.00  0.00     0.211 HD
ENDBRANCH   3  24
BRANCH   5  26
ATOM     26  O   UNL     1      11.723   5.250   4.613  1.00  0.00    -0.454 OA
BRANCH  26  27
ATOM     27  C   UNL     1      10.908   6.002   3.762  1.00  0.00     0.214 A 
ATOM     28  C   UNL     1      11.415   7.103   3.050  1.00  0.00     0.180 A 
ATOM     29  C   UNL     1       9.545   5.703   3.676  1.00  0.00     0.239 A 
ATOM     30  O   UNL     1      10.590   7.852   2.331  1.00  0.00    -0.452 OA
ATOM     31  C   UNL     1       8.682   6.550   2.941  1.00  0.00     0.111 A 
ATOM     32  O   UNL     1       9.121   4.674   4.264  1.00  0.00    -0.285 OA
ATOM     33  C   UNL     1       9.284   7.632   2.247  1.00  0.00     0.146 A 
ATOM     34  C   UNL     1       7.263   6.402   2.863  1.00  0.00     0.134 A 
ATOM     35  C   UNL     1       8.513   8.492   1.464  1.00  0.00     0.094 A 
ATOM     36  C   UNL     1       6.520   7.266   2.050  1.00  0.00     0.093 A 
ATOM     37  C   UNL     1       7.134   8.308   1.354  1.00  0.00     0.123 A 
BRANCH  28  38
ATOM     38  C   UNL     1      12.848   7.470   3.074  1.00  0.00     0.025 A 
ATOM     39  C   UNL     1      13.288   8.662   3.673  1.00  0.00     0.062 A 
ATOM     40  C   UNL     1      13.796   6.590   2.525  1.00  0.00     0.016 A 
ATOM     41  C   UNL     1      14.652   8.984   3.703  1.00  0.00     0.158 A 
ATOM     42  C   UNL     1      15.155   6.911   2.551  1.00  0.00     0.051 A 
ATOM     43  C   UNL     1      15.589   8.104   3.136  1.00  0.00     0.157 A 
BRANCH  41  44
ATOM     44  O   UNL     1      15.081  10.171   4.299  1.00  0.00    -0.504 OA
ATOM     45  H   UNL     1      14.731  11.075   4.001  1.00  0.00     0.293 HD
ENDBRANCH  41  44
BRANCH  43  46
ATOM     46  O   UNL     1      16.952   8.405   3.135  1.00  0.00    -0.504 OA
ATOM     47  H   UNL     1      17.444   8.686   3.980  1.00  0.00     0.293 HD
ENDBRANCH  43  46
ENDBRANCH  28  38
BRANCH  34  48
ATOM     48  O   UNL     1       6.532   5.450   3.586  1.00  0.00    -0.507 OA
ATOM     49  H   UNL     1       5.605   5.600   3.961  1.00  0.00     0.293 HD
ENDBRANCH  34  48
BRANCH  37  50
ATOM     50  O   UNL     1       6.381   9.168   0.559  1.00  0.00    -0.508 OA
ATOM     51  H   UNL     1       5.999  10.032   0.925  1.00  0.00     0.293 HD
ENDBRANCH  37  50
ENDBRANCH  26  27
ENDBRANCH   5  26
BRANCH   4  52
ATOM     52  O   UNL     1      14.106   5.909   6.011  1.00  0.00    -0.384 OA
ATOM     53  H   UNL     1      13.898   6.010   5.047  1.00  0.00     0.211 HD
ENDBRANCH   4  52
TORSDOF 16
ENDMDL
MODEL 5
REMARK VINA RESULT:    -4.291      8.662     11.857
REMARK INTER + INTRA:         -10.365
REMARK INTER:                  -7.802
REMARK INTRA:                  -2.564
REMARK UNBOUND:                -3.315
REMARK SMILES C[C@H]1O[C@H](OC[C@@H]2O[C@@H](Oc3c(-c4ccc(O)c(O)c4)oc4cc(O)cc(O)c4c3=O)[C@@H](O)[C@@H](O)[C@H]2O)[C@H](O)[C@@H](O)[C@H]1O
REMARK SMILES IDX 7 1 36 2 34 3 32 4 9 5 8 6 6 7 5 8 4 9 1 10 2 11 42 12 3 13
REMARK SMILES IDX 40 14 38 15 43 16 41 18 39 20 37 22 35 24 10 26 11 27 12 28
REMARK SMILES IDX 30 29 21 30 29 31 31 32 22 33 27 34 23 35 26 36 24 37 13 38
REMARK SMILES IDX 20 39 14 40 18 41 15 42 16 43 19 44 17 46 28 48 25 50 33 52
REMARK H PARENT 43 17 41 19 39 21 37 23 35 25 19 45 17 47 28 49 25 51 33 53
REMARK Flexibility Score: inf
ROOT
ATOM      1  C   UNL     1      12.637   5.824   3.441  1.00  0.00     0.180 C 
ATOM      2  C   UNL     1      11.423   6.457   4.185  1.00  0.00     0.177 C 
ATOM      3  C   UNL     1      10.143   6.401   3.319  1.00  0.00     0.180 C 
ATOM      4  C   UNL     1      10.444   6.692   1.823  1.00  0.00     0.214 C 
ATOM      5  C   UNL     1      11.890   7.205   1.648  1.00  0.00     0.339 C 
ATOM      6  O   UNL     1      12.818   6.226   2.081  1.00  0.00    -0.332 OA
ENDROOT
BRANCH   1   7
ATOM      7  C   UNL     1      13.948   6.088   4.205  1.00  0.00     0.198 C 
BRANCH   7   8
ATOM      8  O   UNL     1      14.680   7.143   3.604  1.00  0.00    -0.347 OA
BRANCH   8   9
ATOM      9  C   UNL     1      15.079   8.119   4.566  1.00  0.00     0.281 C 
ATOM     10  C   UNL     1      18.394   6.734   5.377  1.00  0.00     0.041 C 
ATOM     11  C   UNL     1      17.321   7.406   4.521  1.00  0.00     0.150 C 
ATOM     12  C   UNL     1      17.843   8.732   3.934  1.00  0.00     0.174 C 
ATOM     13  O   UNL     1      16.173   7.629   5.326  1.00  0.00    -0.344 OA
ATOM     14  C   UNL     1      16.730   9.353   3.074  1.00  0.00     0.179 C 
ATOM     15  C   UNL     1      15.420   9.464   3.887  1.00  0.00     0.202 C 
BRANCH  12  16
ATOM     16  O   UNL     1      18.204   9.603   4.979  1.00  0.00    -0.388 OA
ATOM     17  H   UNL     1      17.440   9.630   5.615  1.00  0.00     0.211 HD
ENDBRANCH  12  16
BRANCH  14  18
ATOM     18  O   UNL     1      17.133  10.600   2.560  1.00  0.00    -0.387 OA
ATOM     19  H   UNL     1      17.387  10.472   1.609  1.00  0.00     0.211 HD
ENDBRANCH  14  18
BRANCH  15  20
ATOM     20  O   UNL     1      14.363   9.844   3.046  1.00  0.00    -0.385 OA
ATOM     21  H   UNL     1      13.672   9.131   3.109  1.00  0.00     0.211 HD
ENDBRANCH  15  20
ENDBRANCH   8   9
ENDBRANCH   7   8
ENDBRANCH   1   7
BRANCH   2  22
ATOM     22  O   UNL     1      11.197   5.782   5.404  1.00  0.00    -0.387 OA
ATOM     23  H   UNL     1      10.294   6.043   5.718  1.00  0.00     0.211 HD
ENDBRANCH   2  22
BRANCH   3  24
ATOM     24  O   UNL     1       9.502   5.153   3.458  1.00  0.00    -0.387 OA
ATOM     25  H   UNL     1       9.350   5.010   4.429  1.00  0.00     0.211 HD
ENDBRANCH   3  24
BRANCH   5  26
ATOM     26  O   UNL     1      12.121   7.504   0.270  1.00  0.00    -0.454 OA
BRANCH  26  27
ATOM     27  C   UNL     1      12.260   8.822  -0.176  1.00  0.00     0.214 A 
ATOM     28  C   UNL     1      11.187   9.506  -0.773  1.00  0.00     0.180 A 
ATOM     29  C   UNL     1      13.510   9.445  -0.100  1.00  0.00     0.239 A 
ATOM     30  O   UNL     1      11.384  10.719  -1.275  1.00  0.00    -0.452 OA
ATOM     31  C   UNL     1      13.700  10.717  -0.689  1.00  0.00     0.111 A 
ATOM     32  O   UNL     1      14.440   8.845   0.499  1.00  0.00    -0.285 OA
ATOM     33  C   UNL     1      12.559  11.337  -1.261  1.00  0.00     0.146 A 
ATOM     34  C   UNL     1      14.950  11.406  -0.760  1.00  0.00     0.134 A 
ATOM     35  C   UNL     1      12.648  12.610  -1.825  1.00  0.00     0.094 A 
ATOM     36  C   UNL     1      15.003  12.691  -1.310  1.00  0.00     0.093 A 
ATOM     37  C   UNL     1      13.864  13.295  -1.844  1.00  0.00     0.123 A 
BRANCH  28  38
ATOM     38  C   UNL     1       9.831   8.923  -0.873  1.00  0.00     0.025 A 
ATOM     39  C   UNL     1       8.812   9.286   0.023  1.00  0.00     0.062 A 
ATOM     40  C   UNL     1       9.542   8.021  -1.911  1.00  0.00     0.016 A 
ATOM     41  C   UNL     1       7.527   8.738  -0.100  1.00  0.00     0.158 A 
ATOM     42  C   UNL     1       8.263   7.472  -2.032  1.00  0.00     0.051 A 
ATOM     43  C   UNL     1       7.255   7.823  -1.132  1.00  0.00     0.157 A 
BRANCH  41  44
ATOM     44  O   UNL     1       6.520   9.101   0.795  1.00  0.00    -0.504 OA
ATOM     45  H   UNL     1       5.561   8.795   0.674  1.00  0.00     0.293 HD
ENDBRANCH  41  44
BRANCH  43  46
ATOM     46  O   UNL     1       5.990   7.248  -1.269  1.00  0.00    -0.504 OA
ATOM     47  H   UNL     1       5.684   6.814  -2.137  1.00  0.00     0.293 HD
ENDBRANCH  43  46
ENDBRANCH  28  38
BRANCH  34  48
ATOM     48  O   UNL     1      16.171  10.863  -0.338  1.00  0.00    -0.507 OA
ATOM     49  H   UNL     1      17.058  11.346  -0.369  1.00  0.00     0.293 HD
ENDBRANCH  34  48
BRANCH  37  50
ATOM     50  O   UNL     1      13.932  14.570  -2.400  1.00  0.00    -0.508 OA
ATOM     51  H   UNL     1      14.251  15.367  -1.862  1.00  0.00     0.293 HD
ENDBRANCH  37  50
ENDBRANCH  26  27
ENDBRANCH   5  26
BRANCH   4  52
ATOM     52  O   UNL     1      10.197   5.554   1.017  1.00  0.00    -0.384 OA
ATOM     53  H   UNL     1       9.236   5.541   0.776  1.00  0.00     0.211 HD
ENDBRANCH   4  52
TORSDOF 16
ENDMDL
MODEL 6
REMARK VINA RESULT:    -4.252      5.314     10.219
REMARK INTER + INTRA:         -10.301
REMARK INTER:                  -7.988
REMARK INTRA:                  -2.313
REMARK UNBOUND:                -3.315
REMARK SMILES C[C@H]1O[C@H](OC[C@@H]2O[C@@H](Oc3c(-c4ccc(O)c(O)c4)oc4cc(O)cc(O)c4c3=O)[C@@H](O)[C@@H](O)[C@H]2O)[C@H](O)[C@@H](O)[C@H]1O
REMARK SMILES IDX 7 1 36 2 34 3 32 4 9 5 8 6 6 7 5 8 4 9 1 10 2 11 42 12 3 13
REMARK SMILES IDX 40 14 38 15 43 16 41 18 39 20 37 22 35 24 10 26 11 27 12 28
REMARK SMILES IDX 30 29 21 30 29 31 31 32 22 33 27 34 23 35 26 36 24 37 13 38
REMARK SMILES IDX 20 39 14 40 18 41 15 42 16 43 19 44 17 46 28 48 25 50 33 52
REMARK H PARENT 43 17 41 19 39 21 37 23 35 25 19 45 17 47 28 49 25 51 33 53
REMARK Flexibility Score: inf
ROOT
ATOM      1  C   UNL     1      12.017   4.708   0.126  1.00  0.00     0.180 C 
ATOM      2  C   UNL     1      13.024   5.522  -0.739  1.00  0.00     0.177 C 
ATOM      3  C   UNL     1      14.431   5.537  -0.097  1.00  0.00     0.180 C 
ATOM      4  C   UNL     1      14.359   5.679   1.448  1.00  0.00     0.214 C 
ATOM      5  C   UNL     1      12.923   6.020   1.899  1.00  0.00     0.339 C 
ATOM      6  O   UNL     1      12.029   4.983   1.530  1.00  0.00    -0.332 OA
ENDROOT
BRANCH   1   7
ATOM      7  C   UNL     1      10.577   4.888  -0.390  1.00  0.00     0.198 C 
BRANCH   7   8
ATOM      8  O   UNL     1       9.839   5.751   0.459  1.00  0.00    -0.347 OA
BRANCH   8   9
ATOM      9  C   UNL     1       8.770   6.387  -0.241  1.00  0.00     0.281 C 
ATOM     10  C   UNL     1       6.529   6.960   2.625  1.00  0.00     0.041 C 
ATOM     11  C   UNL     1       7.768   7.142   1.750  1.00  0.00     0.150 C 
ATOM     12  C   UNL     1       7.991   8.631   1.424  1.00  0.00     0.174 C 
ATOM     13  O   UNL     1       7.598   6.386   0.560  1.00  0.00    -0.344 OA
ATOM     14  C   UNL     1       9.256   8.754   0.556  1.00  0.00     0.179 C 
ATOM     15  C   UNL     1       9.159   7.819  -0.671  1.00  0.00     0.202 C 
BRANCH  12  16
ATOM     16  O   UNL     1       6.872   9.140   0.739  1.00  0.00    -0.388 OA
ATOM     17  H   UNL     1       6.444   9.811   1.335  1.00  0.00     0.211 HD
ENDBRANCH  12  16
BRANCH  14  18
ATOM     18  O   UNL     1       9.474  10.092   0.178  1.00  0.00    -0.387 OA
ATOM     19  H   UNL     1       9.422  10.654   0.995  1.00  0.00     0.211 HD
ENDBRANCH  14  18
BRANCH  15  20
ATOM     20  O   UNL     1      10.388   7.786  -1.347  1.00  0.00    -0.385 OA
ATOM     21  H   UNL     1      10.376   8.533  -2.006  1.00  0.00     0.211 HD
ENDBRANCH  15  20
ENDBRANCH   8   9
ENDBRANCH   7   8
ENDBRANCH   1   7
BRANCH   2  22
ATOM     22  O   UNL     1      13.104   4.971  -2.036  1.00  0.00    -0.387 OA
ATOM     23  H   UNL     1      14.019   4.607  -2.143  1.00  0.00     0.211 HD
ENDBRANCH   2  22
BRANCH   3  24
ATOM     24  O   UNL     1      15.152   4.379  -0.452  1.00  0.00    -0.387 OA
ATOM     25  H   UNL     1      14.509   3.623  -0.449  1.00  0.00     0.211 HD
ENDBRANCH   3  24
BRANCH   5  26
ATOM     26  O   UNL     1      12.899   6.186   3.317  1.00  0.00    -0.454 OA
BRANCH  26  27
ATOM     27  C   UNL     1      12.104   7.164   3.924  1.00  0.00     0.214 A 
ATOM     28  C   UNL     1      12.596   8.460   4.158  1.00  0.00     0.180 A 
ATOM     29  C   UNL     1      10.825   6.827   4.376  1.00  0.00     0.239 A 
ATOM     30  O   UNL     1      11.850   9.331   4.825  1.00  0.00    -0.452 OA
ATOM     31  C   UNL     1      10.075   7.762   5.128  1.00  0.00     0.111 A 
ATOM     32  O   UNL     1      10.376   5.685   4.097  1.00  0.00    -0.285 OA
ATOM     33  C   UNL     1      10.646   9.047   5.307  1.00  0.00     0.146 A 
ATOM     34  C   UNL     1       8.803   7.497   5.724  1.00  0.00     0.134 A 
ATOM     35  C   UNL     1       9.955  10.043   5.999  1.00  0.00     0.094 A 
ATOM     36  C   UNL     1       8.124   8.523   6.391  1.00  0.00     0.093 A 
ATOM     37  C   UNL     1       8.691   9.789   6.534  1.00  0.00     0.123 A 
BRANCH  28  38
ATOM     38  C   UNL     1      13.930   8.899   3.693  1.00  0.00     0.025 A 
ATOM     39  C   UNL     1      15.062   8.801   4.519  1.00  0.00     0.062 A 
ATOM     40  C   UNL     1      14.079   9.382   2.381  1.00  0.00     0.016 A 
ATOM     41  C   UNL     1      16.321   9.204   4.052  1.00  0.00     0.158 A 
ATOM     42  C   UNL     1      15.333   9.787   1.917  1.00  0.00     0.051 A 
ATOM     43  C   UNL     1      16.454   9.702   2.746  1.00  0.00     0.157 A 
BRANCH  41  44
ATOM     44  O   UNL     1      17.441   9.107   4.881  1.00  0.00    -0.504 OA
ATOM     45  H   UNL     1      17.374   8.766   5.833  1.00  0.00     0.293 HD
ENDBRANCH  41  44
BRANCH  43  46
ATOM     46  O   UNL     1      17.693  10.127   2.259  1.00  0.00    -0.504 OA
ATOM     47  H   UNL     1      18.402   9.471   1.937  1.00  0.00     0.293 HD
ENDBRANCH  43  46
ENDBRANCH  28  38
BRANCH  34  48
ATOM     48  O   UNL     1       8.179   6.242   5.720  1.00  0.00    -0.507 OA
ATOM     49  H   UNL     1       7.327   6.024   5.223  1.00  0.00     0.293 HD
ENDBRANCH  34  48
BRANCH  37  50
ATOM     50  O   UNL     1       8.010  10.798   7.212  1.00  0.00    -0.508 OA
ATOM     51  H   UNL     1       8.377  11.741   7.267  1.00  0.00     0.293 HD
ENDBRANCH  37  50
ENDBRANCH  26  27
ENDBRANCH   5  26
BRANCH   4  52
ATOM     52  O   UNL     1      14.843   4.516   2.095  1.00  0.00    -0.384 OA
ATOM     53  H   UNL     1      15.488   4.789   2.795  1.00  0.00     0.211 HD
ENDBRANCH   4  52
TORSDOF 16
ENDMDL
MODEL 7
REMARK VINA RESULT:    -4.239      2.331      6.927
REMARK INTER + INTRA:         -10.280
REMARK INTER:                  -7.684
REMARK INTRA:                  -2.597
REMARK UNBOUND:                -3.315
REMARK SMILES C[C@H]1O[C@H](OC[C@@H]2O[C@@H](Oc3c(-c4ccc(O)c(O)c4)oc4cc(O)cc(O)c4c3=O)[C@@H](O)[C@@H](O)[C@H]2O)[C@H](O)[C@@H](O)[C@H]1O
REMARK SMILES IDX 7 1 36 2 34 3 32 4 9 5 8 6 6 7 5 8 4 9 1 10 2 11 42 12 3 13
REMARK SMILES IDX 40 14 38 15 43 16 41 18 39 20 37 22 35 24 10 26 11 27 12 28
REMARK SMILES IDX 30 29 21 30 29 31 31 32 22 33 27 34 23 35 26 36 24 37 13 38
REMARK SMILES IDX 20 39 14 40 18 41 15 42 16 43 19 44 17 46 28 48 25 50 33 52
REMARK H PARENT 43 17 41 19 39 21 37 23 35 25 19 45 17 47 28 49 25 51 33 53
REMARK Flexibility Score: inf
ROOT
ATOM      1  C   UNL     1       6.754  10.282  13.664  1.00  0.00     0.180 C 
ATOM      2  C   UNL     1       7.600  11.589  13.705  1.00  0.00     0.177 C 
ATOM      3  C   UNL     1       7.086  12.623  12.677  1.00  0.00     0.180 C 
ATOM      4  C   UNL     1       6.662  11.950  11.343  1.00  0.00     0.214 C 
ATOM      5  C   UNL     1       7.104  10.471  11.313  1.00  0.00     0.339 C 
ATOM      6  O   UNL     1       6.485   9.749  12.365  1.00  0.00    -0.332 OA
ENDROOT
BRANCH   1   7
ATOM      7  C   UNL     1       7.405   9.177  14.517  1.00  0.00     0.198 C 
BRANCH   7   8
ATOM      8  O   UNL     1       8.252   8.361  13.725  1.00  0.00    -0.347 OA
BRANCH   8   9
ATOM      9  C   UNL     1       9.582   8.326  14.244  1.00  0.00     0.281 C 
ATOM     10  C   UNL     1       9.661   4.787  15.261  1.00  0.00     0.041 C 
ATOM     11  C   UNL     1       9.618   5.974  14.299  1.00  0.00     0.150 C 
ATOM     12  C   UNL     1      10.732   5.859  13.242  1.00  0.00     0.174 C 
ATOM     13  O   UNL     1       9.757   7.171  15.049  1.00  0.00    -0.344 OA
ATOM     14  C   UNL     1      10.631   7.068  12.296  1.00  0.00     0.179 C 
ATOM     15  C   UNL     1      10.625   8.385  13.106  1.00  0.00     0.202 C 
BRANCH  12  16
ATOM     16  O   UNL     1      11.988   5.833  13.876  1.00  0.00    -0.388 OA
ATOM     17  H   UNL     1      11.941   6.466  14.643  1.00  0.00     0.211 HD
ENDBRANCH  12  16
BRANCH  14  18
ATOM     18  O   UNL     1      11.666   7.045  11.343  1.00  0.00    -0.387 OA
ATOM     19  H   UNL     1      11.361   7.552  10.546  1.00  0.00     0.211 HD
ENDBRANCH  14  18
BRANCH  15  20
ATOM     20  O   UNL     1      10.336   9.467  12.260  1.00  0.00    -0.385 OA
ATOM     21  H   UNL     1      11.153   9.639  11.720  1.00  0.00     0.211 HD
ENDBRANCH  15  20
ENDBRANCH   8   9
ENDBRANCH   7   8
ENDBRANCH   1   7
BRANCH   2  22
ATOM     22  O   UNL     1       7.561  12.151  14.999  1.00  0.00    -0.387 OA
ATOM     23  H   UNL     1       7.024  11.541  15.566  1.00  0.00     0.211 HD
ENDBRANCH   2  22
BRANCH   3  24
ATOM     24  O   UNL     1       6.017  13.369  13.214  1.00  0.00    -0.387 OA
ATOM     25  H   UNL     1       6.411  14.171  13.647  1.00  0.00     0.211 HD
ENDBRANCH   3  24
BRANCH   5  26
ATOM     26  O   UNL     1       6.738   9.893  10.059  1.00  0.00    -0.454 OA
BRANCH  26  27
ATOM     27  C   UNL     1       7.614   9.901   8.970  1.00  0.00     0.214 A 
ATOM     28  C   UNL     1       7.374  10.713   7.848  1.00  0.00     0.180 A 
ATOM     29  C   UNL     1       8.706   9.028   8.960  1.00  0.00     0.239 A 
ATOM     30  O   UNL     1       8.172  10.620   6.792  1.00  0.00    -0.452 OA
ATOM     31  C   UNL     1       9.509   8.916   7.800  1.00  0.00     0.111 A 
ATOM     32  O   UNL     1       8.945   8.360  10.000  1.00  0.00    -0.285 OA
ATOM     33  C   UNL     1       9.199   9.782   6.720  1.00  0.00     0.146 A 
ATOM     34  C   UNL     1      10.587   7.992   7.639  1.00  0.00     0.134 A 
ATOM     35  C   UNL     1       9.965   9.767   5.554  1.00  0.00     0.094 A 
ATOM     36  C   UNL     1      11.352   8.018   6.468  1.00  0.00     0.093 A 
ATOM     37  C   UNL     1      11.048   8.895   5.427  1.00  0.00     0.123 A 
BRANCH  28  38
ATOM     38  C   UNL     1       6.253  11.676   7.791  1.00  0.00     0.025 A 
ATOM     39  C   UNL     1       4.919  11.241   7.722  1.00  0.00     0.062 A 
ATOM     40  C   UNL     1       6.522  13.054   7.851  1.00  0.00     0.016 A 
ATOM     41  C   UNL     1       3.868  12.169   7.688  1.00  0.00     0.158 A 
ATOM     42  C   UNL     1       5.475  13.979   7.814  1.00  0.00     0.051 A 
ATOM     43  C   UNL     1       4.150  13.545   7.731  1.00  0.00     0.157 A 
BRANCH  41  44
ATOM     44  O   UNL     1       2.545  11.729   7.617  1.00  0.00    -0.504 OA
ATOM     45  H   UNL     1       1.940  11.718   8.431  1.00  0.00     0.293 HD
ENDBRANCH  41  44
BRANCH  43  46
ATOM     46  O   UNL     1       3.126  14.492   7.682  1.00  0.00    -0.504 OA
ATOM     47  H   UNL     1       2.260  14.327   7.174  1.00  0.00     0.293 HD
ENDBRANCH  43  46
ENDBRANCH  28  38
BRANCH  34  48
ATOM     48  O   UNL     1      10.926   7.009   8.578  1.00  0.00    -0.507 OA
ATOM     49  H   UNL     1      10.822   6.014   8.433  1.00  0.00     0.293 HD
ENDBRANCH  34  48
BRANCH  37  50
ATOM     50  O   UNL     1      11.810   8.902   4.261  1.00  0.00    -0.508 OA
ATOM     51  H   UNL     1      12.602   9.524   4.148  1.00  0.00     0.293 HD
ENDBRANCH  37  50
ENDBRANCH  26  27
ENDBRANCH   5  26
BRANCH   4  52
ATOM     52  O   UNL     1       5.269  12.079  11.121  1.00  0.00    -0.384 OA
ATOM     53  H   UNL     1       4.903  11.188  10.888  1.00  0.00     0.211 HD
ENDBRANCH   4  52
TORSDOF 16
ENDMDL
MODEL 8
REMARK VINA RESULT:    -4.194      4.559      8.850
REMARK INTER + INTRA:         -10.206
REMARK INTER:                  -8.206
REMARK INTRA:                  -2.001
REMARK UNBOUND:                -3.315
REMARK SMILES C[C@H]1O[C@H](OC[C@@H]2O[C@@H](Oc3c(-c4ccc(O)c(O)c4)oc4cc(O)cc(O)c4c3=O)[C@@H](O)[C@@H](O)[C@H]2O)[C@H](O)[C@@H](O)[C@H]1O
REMARK SMILES IDX 7 1 36 2 34 3 32 4 9 5 8 6 6 7 5 8 4 9 1 10 2 11 42 12 3 13
REMARK SMILES IDX 40 14 38 15 43 16 41 18 39 20 37 22 35 24 10 26 11 27 12 28
REMARK SMILES IDX 30 29 21 30 29 31 31 32 22 33 27 34 23 35 26 36 24 37 13 38
REMARK SMILES IDX 20 39 14 40 18 41 15 42 16 43 19 44 17 46 28 48 25 50 33 52
REMARK H PARENT 43 17 41 19 39 21 37 23 35 25 19 45 17 47 28 49 25 51 33 53
REMARK Flexibility Score: inf
ROOT
ATOM      1  C   UNL     1       9.750   8.242   5.617  1.00  0.00     0.180 C 
ATOM      2  C   UNL     1       8.381   7.500   5.585  1.00  0.00     0.177 C 
ATOM      3  C   UNL     1       8.569   5.981   5.368  1.00  0.00     0.180 C 
ATOM      4  C   UNL     1       9.701   5.679   4.347  1.00  0.00     0.214 C 
ATOM      5  C   UNL     1      10.156   6.974   3.639  1.00  0.00     0.339 C 
ATOM      6  O   UNL     1      10.674   7.897   4.581  1.00  0.00    -0.332 OA
ENDROOT
BRANCH   1   7
ATOM      7  C   UNL     1       9.550   9.769   5.600  1.00  0.00     0.198 C 
BRANCH   7   8
ATOM      8  O   UNL     1       8.668  10.175   6.633  1.00  0.00    -0.347 OA
BRANCH   8   9
ATOM      9  C   UNL     1       9.351  10.910   7.648  1.00  0.00     0.281 C 
ATOM     10  C   UNL     1       7.247  13.933   7.618  1.00  0.00     0.041 C 
ATOM     11  C   UNL     1       7.597  12.465   7.858  1.00  0.00     0.150 C 
ATOM     12  C   UNL     1       7.263  12.054   9.305  1.00  0.00     0.174 C 
ATOM     13  O   UNL     1       8.978  12.278   7.588  1.00  0.00    -0.344 OA
ATOM     14  C   UNL     1       7.622  10.569   9.483  1.00  0.00     0.179 C 
ATOM     15  C   UNL     1       9.082  10.312   9.047  1.00  0.00     0.202 C 
BRANCH  12  16
ATOM     16  O   UNL     1       7.996  12.849  10.205  1.00  0.00    -0.388 OA
ATOM     17  H   UNL     1       7.854  13.798   9.940  1.00  0.00     0.211 HD
ENDBRANCH  12  16
BRANCH  14  18
ATOM     18  O   UNL     1       7.392  10.155  10.808  1.00  0.00    -0.387 OA
ATOM     19  H   UNL     1       6.653   9.492  10.799  1.00  0.00     0.211 HD
ENDBRANCH  14  18
BRANCH  15  20
ATOM     20  O   UNL     1       9.341   8.933   9.024  1.00  0.00    -0.385 OA
ATOM     21  H   UNL     1       8.459   8.473   8.992  1.00  0.00     0.211 HD
ENDBRANCH  15  20
ENDBRANCH   8   9
ENDBRANCH   7   8
ENDBRANCH   1   7
BRANCH   2  22
ATOM     22  O   UNL     1       7.682   7.721   6.792  1.00  0.00    -0.387 OA
ATOM     23  H   UNL     1       6.974   7.030   6.850  1.00  0.00     0.211 HD
ENDBRANCH   2  22
BRANCH   3  24
ATOM     24  O   UNL     1       8.826   5.332   6.593  1.00  0.00    -0.387 OA
ATOM     25  H   UNL     1       8.240   4.530   6.626  1.00  0.00     0.211 HD
ENDBRANCH   3  24
BRANCH   5  26
ATOM     26  O   UNL     1      11.164   6.658   2.678  1.00  0.00    -0.454 OA
BRANCH  26  27
ATOM     27  C   UNL     1      11.778   7.653   1.911  1.00  0.00     0.214 A 
ATOM     28  C   UNL     1      11.133   8.216   0.796  1.00  0.00     0.180 A 
ATOM     29  C   UNL     1      13.088   8.040   2.210  1.00  0.00     0.239 A 
ATOM     30  O   UNL     1      11.785   9.084   0.035  1.00  0.00    -0.452 OA
ATOM     31  C   UNL     1      13.773   8.930   1.350  1.00  0.00     0.111 A 
ATOM     32  O   UNL     1      13.623   7.578   3.251  1.00  0.00    -0.285 OA
ATOM     33  C   UNL     1      13.040   9.455   0.255  1.00  0.00     0.146 A 
ATOM     34  C   UNL     1      15.140   9.319   1.499  1.00  0.00     0.134 A 
ATOM     35  C   UNL     1      13.626  10.373  -0.620  1.00  0.00     0.094 A 
ATOM     36  C   UNL     1      15.692  10.259   0.621  1.00  0.00     0.093 A 
ATOM     37  C   UNL     1      14.947  10.784  -0.435  1.00  0.00     0.123 A 
BRANCH  28  38
ATOM     38  C   UNL     1       9.742   7.873   0.427  1.00  0.00     0.025 A 
ATOM     39  C   UNL     1       8.666   8.705   0.778  1.00  0.00     0.062 A 
ATOM     40  C   UNL     1       9.494   6.714  -0.328  1.00  0.00     0.016 A 
ATOM     41  C   UNL     1       7.357   8.373   0.401  1.00  0.00     0.158 A 
ATOM     42  C   UNL     1       8.189   6.381  -0.701  1.00  0.00     0.051 A 
ATOM     43  C   UNL     1       7.119   7.202  -0.339  1.00  0.00     0.157 A 
BRANCH  41  44
ATOM     44  O   UNL     1       6.292   9.203   0.756  1.00  0.00    -0.504 OA
ATOM     45  H   UNL     1       5.327   8.915   0.638  1.00  0.00     0.293 HD
ENDBRANCH  41  44
BRANCH  43  46
ATOM     46  O   UNL     1       5.825   6.837  -0.713  1.00  0.00    -0.504 OA
ATOM     47  H   UNL     1       5.602   6.524  -1.656  1.00  0.00     0.293 HD
ENDBRANCH  43  46
ENDBRANCH  28  38
BRANCH  34  48
ATOM     48  O   UNL     1      16.006   8.792   2.465  1.00  0.00    -0.507 OA
ATOM     49  H   UNL     1      16.195   9.216   3.363  1.00  0.00     0.293 HD
ENDBRANCH  34  48
BRANCH  37  50
ATOM     50  O   UNL     1      15.512  11.710  -1.310  1.00  0.00    -0.508 OA
ATOM     51  H   UNL     1      15.861  11.435  -2.221  1.00  0.00     0.293 HD
ENDBRANCH  37  50
ENDBRANCH  26  27
ENDBRANCH   5  26
BRANCH   4  52
ATOM     52  O   UNL     1      10.790   5.017   4.965  1.00  0.00    -0.384 OA
ATOM     53  H   UNL     1      10.445   4.220   5.442  1.00  0.00     0.211 HD
ENDBRANCH   4  52
TORSDOF 16
ENDMDL
MODEL 9
REMARK VINA RESULT:    -4.171      2.143      7.000
REMARK INTER + INTRA:         -10.167
REMARK INTER:                  -6.642
REMARK INTRA:                  -3.525
REMARK UNBOUND:                -3.315
REMARK SMILES C[C@H]1O[C@H](OC[C@@H]2O[C@@H](Oc3c(-c4ccc(O)c(O)c4)oc4cc(O)cc(O)c4c3=O)[C@@H](O)[C@@H](O)[C@H]2O)[C@H](O)[C@@H](O)[C@H]1O
REMARK SMILES IDX 7 1 36 2 34 3 32 4 9 5 8 6 6 7 5 8 4 9 1 10 2 11 42 12 3 13
REMARK SMILES IDX 40 14 38 15 43 16 41 18 39 20 37 22 35 24 10 26 11 27 12 28
REMARK SMILES IDX 30 29 21 30 29 31 31 32 22 33 27 34 23 35 26 36 24 37 13 38
REMARK SMILES IDX 20 39 14 40 18 41 15 42 16 43 19 44 17 46 28 48 25 50 33 52
REMARK H PARENT 43 17 41 19 39 21 37 23 35 25 19 45 17 47 28 49 25 51 33 53
REMARK Flexibility Score: inf
ROOT
ATOM      1  C   UNL     1       5.158  11.204   7.607  1.00  0.00     0.180 C 
ATOM      2  C   UNL     1       4.544  12.426   8.353  1.00  0.00     0.177 C 
ATOM      3  C   UNL     1       5.485  13.651   8.292  1.00  0.00     0.180 C 
ATOM      4  C   UNL     1       6.975  13.243   8.452  1.00  0.00     0.214 C 
ATOM      5  C   UNL     1       7.093  11.765   8.881  1.00  0.00     0.339 C 
ATOM      6  O   UNL     1       6.529  10.917   7.894  1.00  0.00    -0.332 OA
ENDROOT
BRANCH   1   7
ATOM      7  C   UNL     1       4.332   9.930   7.865  1.00  0.00     0.198 C 
BRANCH   7   8
ATOM      8  O   UNL     1       5.170   8.853   8.251  1.00  0.00    -0.347 OA
BRANCH   8   9
ATOM      9  C   UNL     1       4.714   7.613   7.710  1.00  0.00     0.281 C 
ATOM     10  C   UNL     1       7.388   7.108   5.227  1.00  0.00     0.041 C 
ATOM     11  C   UNL     1       6.759   7.213   6.616  1.00  0.00     0.150 C 
ATOM     12  C   UNL     1       7.090   5.967   7.460  1.00  0.00     0.174 C 
ATOM     13  O   UNL     1       5.355   7.364   6.468  1.00  0.00    -0.344 OA
ATOM     14  C   UNL     1       6.445   6.135   8.847  1.00  0.00     0.179 C 
ATOM     15  C   UNL     1       4.940   6.454   8.706  1.00  0.00     0.202 C 
BRANCH  12  16
ATOM     16  O   UNL     1       6.592   4.816   6.822  1.00  0.00    -0.388 OA
ATOM     17  H   UNL     1       6.702   4.058   7.457  1.00  0.00     0.211 HD
ENDBRANCH  12  16
BRANCH  14  18
ATOM     18  O   UNL     1       6.666   4.995   9.641  1.00  0.00    -0.387 OA
ATOM     19  H   UNL     1       5.940   4.945  10.316  1.00  0.00     0.211 HD
ENDBRANCH  14  18
BRANCH  15  20
ATOM     20  O   UNL     1       4.403   6.800   9.955  1.00  0.00    -0.385 OA
ATOM     21  H   UNL     1       5.158   7.131  10.513  1.00  0.00     0.211 HD
ENDBRANCH  15  20
ENDBRANCH   8   9
ENDBRANCH   7   8
ENDBRANCH   1   7
BRANCH   2  22
ATOM     22  O   UNL     1       3.295  12.762   7.786  1.00  0.00    -0.387 OA
ATOM     23  H   UNL     1       2.876  13.434   8.381  1.00  0.00     0.211 HD
ENDBRANCH   2  22
BRANCH   3  24
ATOM     24  O   UNL     1       5.296  14.364   7.091  1.00  0.00    -0.387 OA
ATOM     25  H   UNL     1       5.037  15.290   7.339  1.00  0.00     0.211 HD
ENDBRANCH   3  24
BRANCH   5  26
ATOM     26  O   UNL     1       8.471  11.433   9.062  1.00  0.00    -0.454 OA
BRANCH  26  27
ATOM     27  C   UNL     1       8.977  10.187   8.681  1.00  0.00     0.214 A 
ATOM     28  C   UNL     1       8.984   9.100   9.572  1.00  0.00     0.180 A 
ATOM     29  C   UNL     1       9.558  10.038   7.418  1.00  0.00     0.239 A 
ATOM     30  O   UNL     1       9.563   7.962   9.209  1.00  0.00    -0.452 OA
ATOM     31  C   UNL     1      10.211   8.829   7.080  1.00  0.00     0.111 A 
ATOM     32  O   UNL     1       9.480  10.999   6.609  1.00  0.00    -0.285 OA
ATOM     33  C   UNL     1      10.160   7.784   8.037  1.00  0.00     0.146 A 
ATOM     34  C   UNL     1      10.922   8.598   5.862  1.00  0.00     0.134 A 
ATOM     35  C   UNL     1      10.741   6.544   7.769  1.00  0.00     0.094 A 
ATOM     36  C   UNL     1      11.474   7.337   5.612  1.00  0.00     0.093 A 
ATOM     37  C   UNL     1      11.390   6.312   6.555  1.00  0.00     0.123 A 
BRANCH  28  38
ATOM     38  C   UNL     1       8.372   9.172  10.917  1.00  0.00     0.025 A 
ATOM     39  C   UNL     1       7.047   8.761  11.140  1.00  0.00     0.062 A 
ATOM     40  C   UNL     1       9.143   9.618  12.004  1.00  0.00     0.016 A 
ATOM     41  C   UNL     1       6.491   8.818  12.426  1.00  0.00     0.158 A 
ATOM     42  C   UNL     1       8.588   9.679  13.284  1.00  0.00     0.051 A 
ATOM     43  C   UNL     1       7.266   9.283  13.501  1.00  0.00     0.157 A 
BRANCH  41  44
ATOM     44  O   UNL     1       5.173   8.411  12.640  1.00  0.00    -0.504 OA
ATOM     45  H   UNL     1       4.910   7.432  12.644  1.00  0.00     0.293 HD
ENDBRANCH  41  44
BRANCH  43  46
ATOM     46  O   UNL     1       6.734   9.367  14.790  1.00  0.00    -0.504 OA
ATOM     47  H   UNL     1       7.290   9.168  15.619  1.00  0.00     0.293 HD
ENDBRANCH  43  46
ENDBRANCH  28  38
BRANCH  34  48
ATOM     48  O   UNL     1      11.145   9.577   4.885  1.00  0.00    -0.507 OA
ATOM     49  H   UNL     1      10.571   9.712   4.064  1.00  0.00     0.293 HD
ENDBRANCH  34  48
BRANCH  37  50
ATOM     50  O   UNL     1      11.954   5.065   6.298  1.00  0.00    -0.508 OA
ATOM     51  H   UNL     1      12.792   4.967   5.736  1.00  0.00     0.293 HD
ENDBRANCH  37  50
ENDBRANCH  26  27
ENDBRANCH   5  26
BRANCH   4  52
ATOM     52  O   UNL     1       7.710  13.500   7.270  1.00  0.00    -0.384 OA
ATOM     53  H   UNL     1       7.726  12.674   6.723  1.00  0.00     0.211 HD
ENDBRANCH   4  52
TORSDOF 16
ENDMDL
