MODEL 1
REMARK VINA RESULT:    11.702      0.000      0.000
REMARK INTER + INTRA:          21.251
REMARK INTER:                  21.964
REMARK INTRA:                  -0.713
REMARK UNBOUND:                -0.713
REMARK SMILES CCCCCCCCC=CCCCCCCCC(=O)[O-]
REMARK SMILES IDX 10 1 9 2 11 3 12 4 13 5 14 6 15 7 16 8 17 9 18 10 19 11
REMARK SMILES IDX 20 12 8 13 7 14 6 15 5 16 4 17 3 18 2 19 1 20
REMARK H PARENT
REMARK Flexibility Score: inf
ROOT
ATOM      1  C   UNL     1      77.963   4.946  63.502  1.00  0.00    -0.031 C 
ATOM      2  C   UNL     1      78.712   5.619  64.390  1.00  0.00    -0.031 C 
ENDROOT
BRANCH   1   3
ATOM      3  C   UNL     1      78.156   3.472  63.262  1.00  0.00     0.027 C 
BRANCH   3   4
ATOM      4  C   UNL     1      76.918   2.813  62.635  1.00  0.00     0.004 C 
BRANCH   4   5
ATOM      5  C   UNL     1      76.969   1.279  62.729  1.00  0.00     0.000 C 
BRANCH   5   6
ATOM      6  C   UNL     1      78.320   0.754  63.248  1.00  0.00     0.000 C 
BRANCH   6   7
ATOM      7  C   UNL     1      78.431   0.642  64.779  1.00  0.00     0.000 C 
BRANCH   7   8
ATOM      8  C   UNL     1      79.123  -0.651  65.237  1.00  0.00     0.006 C 
BRANCH   8   9
ATOM      9  C   UNL     1      79.675  -0.503  66.658  1.00  0.00     0.053 C 
BRANCH   9  10
ATOM     10  C   UNL     1      79.336  -1.707  67.480  1.00  0.00     0.041 C 
ATOM     11  O   UNL     1      80.246  -2.352  68.064  1.00  0.00    -0.550 OA
ATOM     12  O   UNL     1      78.010  -2.088  67.638  1.00  0.00    -0.550 OA
ENDBRANCH   9  10
ENDBRANCH   8   9
ENDBRANCH   7   8
ENDBRANCH   6   7
ENDBRANCH   5   6
ENDBRANCH   4   5
ENDBRANCH   3   4
ENDBRANCH   1   3
BRANCH   2  13
ATOM     13  C   UNL     1      78.510   7.089  64.636  1.00  0.00     0.027 C 
BRANCH  13  14
ATOM     14  C   UNL     1      77.780   7.332  65.967  1.00  0.00     0.004 C 
BRANCH  14  15
ATOM     15  C   UNL     1      77.377   8.803  66.161  1.00  0.00     0.000 C 
BRANCH  15  16
ATOM     16  C   UNL     1      78.280   9.537  67.164  1.00  0.00     0.000 C 
BRANCH  16  17
ATOM     17  C   UNL     1      79.085  10.646  66.469  1.00  0.00    -0.000 C 
BRANCH  17  18
ATOM     18  C   UNL     1      80.598  10.371  66.474  1.00  0.00    -0.000 C 
BRANCH  18  19
ATOM     19  C   UNL     1      81.248  10.605  65.103  1.00  0.00    -0.003 C 
ATOM     20  C   UNL     1      81.528   9.283  64.395  1.00  0.00     0.004 C 
ENDBRANCH  18  19
ENDBRANCH  17  18
ENDBRANCH  16  17
ENDBRANCH  15  16
ENDBRANCH  14  15
ENDBRANCH  13  14
ENDBRANCH   2  13
TORSDOF 15
ENDMDL
MODEL 2
REMARK VINA RESULT:    13.240      6.773     12.584
REMARK INTER + INTRA:          24.137
REMARK INTER:                  24.702
REMARK INTRA:                  -0.566
REMARK UNBOUND:                -0.713
REMARK SMILES CCCCCCCCC=CCCCCCCCC(=O)[O-]
REMARK SMILES IDX 10 1 9 2 11 3 12 4 13 5 14 6 15 7 16 8 17 9 18 10 19 11
REMARK SMILES IDX 20 12 8 13 7 14 6 15 5 16 4 17 3 18 2 19 1 20
REMARK H PARENT
REMARK Flexibility Score: inf
ROOT
ATOM      1  C   UNL     1      82.535  -2.732  68.767  1.00  0.00    -0.031 C 
ATOM      2  C   UNL     1      83.752  -3.036  68.290  1.00  0.00    -0.031 C 
ENDROOT
BRANCH   1   3
ATOM      3  C   UNL     1      81.456  -2.172  67.878  1.00  0.00     0.027 C 
BRANCH   3   4
ATOM      4  C   UNL     1      80.054  -2.334  68.486  1.00  0.00     0.004 C 
BRANCH   4   5
ATOM      5  C   UNL     1      78.944  -1.943  67.494  1.00  0.00     0.000 C 
BRANCH   5   6
ATOM      6  C   UNL     1      79.278  -0.673  66.691  1.00  0.00     0.000 C 
BRANCH   6   7
ATOM      7  C   UNL     1      78.870  -0.715  65.207  1.00  0.00     0.000 C 
BRANCH   7   8
ATOM      8  C   UNL     1      79.145   0.606  64.472  1.00  0.00     0.006 C 
BRANCH   8   9
ATOM      9  C   UNL     1      77.880   1.123  63.781  1.00  0.00     0.053 C 
BRANCH   9  10
ATOM     10  C   UNL     1      78.227   2.152  62.753  1.00  0.00     0.041 C 
ATOM     11  O   UNL     1      79.273   2.030  62.061  1.00  0.00    -0.550 OA
ATOM     12  O   UNL     1      77.372   3.223  62.526  1.00  0.00    -0.550 OA
ENDBRANCH   9  10
ENDBRANCH   8   9
ENDBRANCH   7   8
ENDBRANCH   6   7
ENDBRANCH   5   6
ENDBRANCH   4   5
ENDBRANCH   3   4
ENDBRANCH   1   3
BRANCH   2  13
ATOM     13  C   UNL     1      84.825  -3.606  69.177  1.00  0.00     0.027 C 
BRANCH  13  14
ATOM     14  C   UNL     1      85.801  -4.479  68.373  1.00  0.00     0.004 C 
BRANCH  14  15
ATOM     15  C   UNL     1      87.101  -4.772  69.140  1.00  0.00     0.000 C 
BRANCH  15  16
ATOM     16  C   UNL     1      88.286  -5.063  68.207  1.00  0.00     0.000 C 
BRANCH  16  17
ATOM     17  C   UNL     1      88.008  -6.297  67.334  1.00  0.00    -0.000 C 
BRANCH  17  18
ATOM     18  C   UNL     1      89.232  -7.218  67.204  1.00  0.00    -0.000 C 
BRANCH  18  19
ATOM     19  C   UNL     1      88.888  -8.698  67.433  1.00  0.00    -0.003 C 
ATOM     20  C   UNL     1      89.091  -9.089  68.894  1.00  0.00     0.004 C 
ENDBRANCH  18  19
ENDBRANCH  17  18
ENDBRANCH  16  17
ENDBRANCH  15  16
ENDBRANCH  14  15
ENDBRANCH  13  14
ENDBRANCH   2  13
TORSDOF 15
ENDMDL
MODEL 3
REMARK VINA RESULT:    13.407      1.040      2.171
REMARK INTER + INTRA:          24.450
REMARK INTER:                  25.310
REMARK INTRA:                  -0.860
REMARK UNBOUND:                -0.713
REMARK SMILES CCCCCCCCC=CCCCCCCCC(=O)[O-]
REMARK SMILES IDX 10 1 9 2 11 3 12 4 13 5 14 6 15 7 16 8 17 9 18 10 19 11
REMARK SMILES IDX 20 12 8 13 7 14 6 15 5 16 4 17 3 18 2 19 1 20
REMARK H PARENT
REMARK Flexibility Score: inf
ROOT
ATOM      1  C   UNL     1      77.996   3.393  62.257  1.00  0.00    -0.031 C 
ATOM      2  C   UNL     1      78.210   3.968  63.450  1.00  0.00    -0.031 C 
ENDROOT
BRANCH   1   3
ATOM      3  C   UNL     1      77.336   2.045  62.136  1.00  0.00     0.027 C 
BRANCH   3   4
ATOM      4  C   UNL     1      77.227   1.322  63.488  1.00  0.00     0.004 C 
BRANCH   4   5
ATOM      5  C   UNL     1      78.470   0.467  63.789  1.00  0.00     0.000 C 
BRANCH   5   6
ATOM      6  C   UNL     1      78.794   0.389  65.292  1.00  0.00     0.000 C 
BRANCH   6   7
ATOM      7  C   UNL     1      79.929  -0.582  65.663  1.00  0.00     0.000 C 
BRANCH   7   8
ATOM      8  C   UNL     1      80.051  -0.813  67.178  1.00  0.00     0.006 C 
BRANCH   8   9
ATOM      9  C   UNL     1      78.678  -1.080  67.803  1.00  0.00     0.053 C 
BRANCH   9  10
ATOM     10  C   UNL     1      78.323  -2.529  67.688  1.00  0.00     0.041 C 
ATOM     11  O   UNL     1      77.154  -2.872  67.371  1.00  0.00    -0.550 OA
ATOM     12  O   UNL     1      79.297  -3.500  67.885  1.00  0.00    -0.550 OA
ENDBRANCH   9  10
ENDBRANCH   8   9
ENDBRANCH   7   8
ENDBRANCH   6   7
ENDBRANCH   5   6
ENDBRANCH   4   5
ENDBRANCH   3   4
ENDBRANCH   1   3
BRANCH   2  13
ATOM     13  C   UNL     1      78.859   5.319  63.568  1.00  0.00     0.027 C 
BRANCH  13  14
ATOM     14  C   UNL     1      78.628   5.925  64.961  1.00  0.00     0.004 C 
BRANCH  14  15
ATOM     15  C   UNL     1      77.842   7.245  64.909  1.00  0.00     0.000 C 
BRANCH  15  16
ATOM     16  C   UNL     1      77.743   7.930  66.281  1.00  0.00     0.000 C 
BRANCH  16  17
ATOM     17  C   UNL     1      77.082   9.312  66.159  1.00  0.00    -0.000 C 
BRANCH  17  18
ATOM     18  C   UNL     1      77.932  10.432  66.778  1.00  0.00    -0.000 C 
BRANCH  18  19
ATOM     19  C   UNL     1      79.355   9.972  67.129  1.00  0.00    -0.003 C 
ATOM     20  C   UNL     1      80.377  10.562  66.162  1.00  0.00     0.004 C 
ENDBRANCH  18  19
ENDBRANCH  17  18
ENDBRANCH  16  17
ENDBRANCH  15  16
ENDBRANCH  14  15
ENDBRANCH  13  14
ENDBRANCH   2  13
TORSDOF 15
ENDMDL
MODEL 4
REMARK VINA RESULT:    13.535      6.159     10.163
REMARK INTER + INTRA:          24.690
REMARK INTER:                  25.236
REMARK INTRA:                  -0.546
REMARK UNBOUND:                -0.713
REMARK SMILES CCCCCCCCC=CCCCCCCCC(=O)[O-]
REMARK SMILES IDX 10 1 9 2 11 3 12 4 13 5 14 6 15 7 16 8 17 9 18 10 19 11
REMARK SMILES IDX 20 12 8 13 7 14 6 15 5 16 4 17 3 18 2 19 1 20
REMARK H PARENT
REMARK Flexibility Score: inf
ROOT
ATOM      1  C   UNL     1      81.517  -2.082  68.137  1.00  0.00    -0.031 C 
ATOM      2  C   UNL     1      80.239  -2.382  68.414  1.00  0.00    -0.031 C 
ENDROOT
BRANCH   1   3
ATOM      3  C   UNL     1      82.642  -2.503  69.045  1.00  0.00     0.027 C 
BRANCH   3   4
ATOM      4  C   UNL     1      83.825  -3.107  68.273  1.00  0.00     0.004 C 
BRANCH   4   5
ATOM      5  C   UNL     1      84.728  -3.965  69.175  1.00  0.00     0.000 C 
BRANCH   5   6
ATOM      6  C   UNL     1      85.812  -4.725  68.389  1.00  0.00     0.000 C 
BRANCH   6   7
ATOM      7  C   UNL     1      87.209  -4.722  69.035  1.00  0.00     0.000 C 
BRANCH   7   8
ATOM      8  C   UNL     1      88.321  -5.141  68.062  1.00  0.00     0.006 C 
BRANCH   8   9
ATOM      9  C   UNL     1      87.910  -6.379  67.259  1.00  0.00     0.053 C 
BRANCH   9  10
ATOM     10  C   UNL     1      88.961  -7.439  67.356  1.00  0.00     0.041 C 
ATOM     11  O   UNL     1      88.705  -8.536  67.919  1.00  0.00    -0.550 OA
ATOM     12  O   UNL     1      90.209  -7.234  66.782  1.00  0.00    -0.550 OA
ENDBRANCH   9  10
ENDBRANCH   8   9
ENDBRANCH   7   8
ENDBRANCH   6   7
ENDBRANCH   5   6
ENDBRANCH   4   5
ENDBRANCH   3   4
ENDBRANCH   1   3
BRANCH   2  13
ATOM     13  C   UNL     1      79.118  -1.971  67.500  1.00  0.00     0.027 C 
BRANCH  13  14
ATOM     14  C   UNL     1      79.452  -0.661  66.770  1.00  0.00     0.004 C 
BRANCH  14  15
ATOM     15  C   UNL     1      79.193  -0.744  65.257  1.00  0.00     0.000 C 
BRANCH  15  16
ATOM     16  C   UNL     1      79.015   0.637  64.609  1.00  0.00     0.000 C 
BRANCH  16  17
ATOM     17  C   UNL     1      77.737   0.684  63.756  1.00  0.00    -0.000 C 
BRANCH  17  18
ATOM     18  C   UNL     1      77.967   1.329  62.380  1.00  0.00    -0.000 C 
BRANCH  18  19
ATOM     19  C   UNL     1      76.882   2.353  62.016  1.00  0.00    -0.003 C 
ATOM     20  C   UNL     1      77.144   3.695  62.692  1.00  0.00     0.004 C 
ENDBRANCH  18  19
ENDBRANCH  17  18
ENDBRANCH  16  17
ENDBRANCH  15  16
ENDBRANCH  14  15
ENDBRANCH  13  14
ENDBRANCH   2  13
TORSDOF 15
ENDMDL
MODEL 5
REMARK VINA RESULT:    13.779      1.338      2.407
REMARK INTER + INTRA:          25.149
REMARK INTER:                  25.797
REMARK INTRA:                  -0.647
REMARK UNBOUND:                -0.713
REMARK SMILES CCCCCCCCC=CCCCCCCCC(=O)[O-]
REMARK SMILES IDX 10 1 9 2 11 3 12 4 13 5 14 6 15 7 16 8 17 9 18 10 19 11
REMARK SMILES IDX 20 12 8 13 7 14 6 15 5 16 4 17 3 18 2 19 1 20
REMARK H PARENT
REMARK Flexibility Score: inf
ROOT
ATOM      1  C   UNL     1      77.300   3.073  61.977  1.00  0.00    -0.031 C 
ATOM      2  C   UNL     1      77.411   3.720  63.147  1.00  0.00    -0.031 C 
ENDROOT
BRANCH   1   3
ATOM      3  C   UNL     1      76.875   1.630  61.909  1.00  0.00     0.027 C 
BRANCH   3   4
ATOM      4  C   UNL     1      77.670   0.739  62.876  1.00  0.00     0.004 C 
BRANCH   4   5
ATOM      5  C   UNL     1      79.170   1.078  62.876  1.00  0.00     0.000 C 
BRANCH   5   6
ATOM      6  C   UNL     1      79.846   0.807  64.232  1.00  0.00     0.000 C 
BRANCH   6   7
ATOM      7  C   UNL     1      79.185  -0.295  65.080  1.00  0.00     0.000 C 
BRANCH   7   8
ATOM      8  C   UNL     1      79.708  -0.335  66.524  1.00  0.00     0.006 C 
BRANCH   8   9
ATOM      9  C   UNL     1      80.224  -1.732  66.881  1.00  0.00     0.053 C 
BRANCH   9  10
ATOM     10  C   UNL     1      79.312  -2.392  67.867  1.00  0.00     0.041 C 
ATOM     11  O   UNL     1      79.704  -2.614  69.043  1.00  0.00    -0.550 OA
ATOM     12  O   UNL     1      78.013  -2.720  67.500  1.00  0.00    -0.550 OA
ENDBRANCH   9  10
ENDBRANCH   8   9
ENDBRANCH   7   8
ENDBRANCH   6   7
ENDBRANCH   5   6
ENDBRANCH   4   5
ENDBRANCH   3   4
ENDBRANCH   1   3
BRANCH   2  13
ATOM     13  C   UNL     1      77.824   5.164  63.212  1.00  0.00     0.027 C 
BRANCH  13  14
ATOM     14  C   UNL     1      78.733   5.426  64.423  1.00  0.00     0.004 C 
BRANCH  14  15
ATOM     15  C   UNL     1      79.216   6.884  64.497  1.00  0.00     0.000 C 
BRANCH  15  16
ATOM     16  C   UNL     1      80.700   7.035  64.131  1.00  0.00     0.000 C 
BRANCH  16  17
ATOM     17  C   UNL     1      80.970   8.405  63.488  1.00  0.00    -0.000 C 
BRANCH  17  18
ATOM     18  C   UNL     1      81.868   9.300  64.356  1.00  0.00    -0.000 C 
BRANCH  18  19
ATOM     19  C   UNL     1      81.156  10.577  64.826  1.00  0.00    -0.003 C 
ATOM     20  C   UNL     1      81.065  10.626  66.348  1.00  0.00     0.004 C 
ENDBRANCH  18  19
ENDBRANCH  17  18
ENDBRANCH  16  17
ENDBRANCH  15  16
ENDBRANCH  14  15
ENDBRANCH  13  14
ENDBRANCH   2  13
TORSDOF 15
ENDMDL
MODEL 6
REMARK VINA RESULT:    14.020      6.417     12.179
REMARK INTER + INTRA:          25.601
REMARK INTER:                  26.211
REMARK INTRA:                  -0.609
REMARK UNBOUND:                -0.713
REMARK SMILES CCCCCCCCC=CCCCCCCCC(=O)[O-]
REMARK SMILES IDX 10 1 9 2 11 3 12 4 13 5 14 6 15 7 16 8 17 9 18 10 19 11
REMARK SMILES IDX 20 12 8 13 7 14 6 15 5 16 4 17 3 18 2 19 1 20
REMARK H PARENT
REMARK Flexibility Score: inf
ROOT
ATOM      1  C   UNL     1      82.050  -2.703  67.961  1.00  0.00    -0.031 C 
ATOM      2  C   UNL     1      83.354  -2.428  68.120  1.00  0.00    -0.031 C 
ENDROOT
BRANCH   1   3
ATOM      3  C   UNL     1      80.996  -1.635  68.092  1.00  0.00     0.027 C 
BRANCH   3   4
ATOM      4  C   UNL     1      79.578  -2.180  67.858  1.00  0.00     0.004 C 
BRANCH   4   5
ATOM      5  C   UNL     1      78.709  -1.202  67.050  1.00  0.00     0.000 C 
BRANCH   5   6
ATOM      6  C   UNL     1      79.327  -0.834  65.689  1.00  0.00     0.000 C 
BRANCH   6   7
ATOM      7  C   UNL     1      78.848   0.504  65.096  1.00  0.00     0.000 C 
BRANCH   7   8
ATOM      8  C   UNL     1      78.319   0.368  63.660  1.00  0.00     0.006 C 
BRANCH   8   9
ATOM      9  C   UNL     1      77.193   1.372  63.393  1.00  0.00     0.053 C 
BRANCH   9  10
ATOM     10  C   UNL     1      77.673   2.472  62.500  1.00  0.00     0.041 C 
ATOM     11  O   UNL     1      76.940   3.470  62.275  1.00  0.00    -0.550 OA
ATOM     12  O   UNL     1      78.949   2.417  61.954  1.00  0.00    -0.550 OA
ENDBRANCH   9  10
ENDBRANCH   8   9
ENDBRANCH   7   8
ENDBRANCH   6   7
ENDBRANCH   5   6
ENDBRANCH   4   5
ENDBRANCH   3   4
ENDBRANCH   1   3
BRANCH   2  13
ATOM     13  C   UNL     1      84.406  -3.493  67.978  1.00  0.00     0.027 C 
BRANCH  13  14
ATOM     14  C   UNL     1      84.765  -4.101  69.342  1.00  0.00     0.004 C 
BRANCH  14  15
ATOM     15  C   UNL     1      86.262  -4.432  69.467  1.00  0.00     0.000 C 
BRANCH  15  16
ATOM     16  C   UNL     1      86.892  -4.839  68.126  1.00  0.00     0.000 C 
BRANCH  16  17
ATOM     17  C   UNL     1      88.202  -5.611  68.347  1.00  0.00    -0.000 C 
BRANCH  17  18
ATOM     18  C   UNL     1      88.430  -6.704  67.290  1.00  0.00    -0.000 C 
BRANCH  18  19
ATOM     19  C   UNL     1      88.397  -8.120  67.883  1.00  0.00    -0.003 C 
ATOM     20  C   UNL     1      89.544  -8.969  67.343  1.00  0.00     0.004 C 
ENDBRANCH  18  19
ENDBRANCH  17  18
ENDBRANCH  16  17
ENDBRANCH  15  16
ENDBRANCH  14  15
ENDBRANCH  13  14
ENDBRANCH   2  13
TORSDOF 15
ENDMDL
