MODEL 1
REMARK VINA RESULT:    -4.647      0.000      0.000
REMARK INTER + INTRA:         -10.107
REMARK INTER:                  -8.994
REMARK INTRA:                  -1.114
REMARK UNBOUND:                -1.114
REMARK SMILES CCCCCCCCCCCCCCCCCC(=O)[O-]
REMARK SMILES IDX 10 1 11 2 12 3 13 4 14 5 15 6 16 7 17 8 18 9 19 10 20 11
REMARK SMILES IDX 9 12 8 13 7 14 6 15 5 16 4 17 3 18 2 19 1 20
REMARK H PARENT
REMARK Flexibility Score: inf
ROOT
ATOM      1  C   UNL     1       2.207  -1.056   5.855  1.00  0.00     0.000 C 
ENDROOT
BRANCH   1   2
ATOM      2  C   UNL     1       2.549  -0.179   7.072  1.00  0.00     0.000 C 
BRANCH   2   3
ATOM      3  C   UNL     1       1.409  -0.122   8.104  1.00  0.00     0.000 C 
BRANCH   3   4
ATOM      4  C   UNL     1       1.126   1.278   8.685  1.00  0.00     0.000 C 
BRANCH   4   5
ATOM      5  C   UNL     1       1.421   2.430   7.701  1.00  0.00     0.000 C 
BRANCH   5   6
ATOM      6  C   UNL     1       0.702   3.731   8.098  1.00  0.00     0.000 C 
BRANCH   6   7
ATOM      7  C   UNL     1       0.383   4.625   6.889  1.00  0.00     0.006 C 
BRANCH   7   8
ATOM      8  C   UNL     1       1.180   4.236   5.638  1.00  0.00     0.053 C 
BRANCH   8   9
ATOM      9  C   UNL     1       0.749   5.062   4.468  1.00  0.00     0.041 C 
ATOM     10  O   UNL     1       1.545   5.275   3.515  1.00  0.00    -0.550 OA
ATOM     11  O   UNL     1      -0.516   5.634   4.447  1.00  0.00    -0.550 OA
ENDBRANCH   8   9
ENDBRANCH   7   8
ENDBRANCH   6   7
ENDBRANCH   5   6
ENDBRANCH   4   5
ENDBRANCH   3   4
ENDBRANCH   2   3
ENDBRANCH   1   2
BRANCH   1  12
ATOM     12  C   UNL     1       0.716  -0.999   5.489  1.00  0.00     0.000 C 
BRANCH  12  13
ATOM     13  C   UNL     1       0.032  -2.372   5.563  1.00  0.00    -0.000 C 
BRANCH  13  14
ATOM     14  C   UNL     1      -1.471  -2.251   5.283  1.00  0.00    -0.000 C 
BRANCH  14  15
ATOM     15  C   UNL     1      -1.847  -2.971   3.979  1.00  0.00    -0.000 C 
BRANCH  15  16
ATOM     16  C   UNL     1      -3.140  -2.424   3.346  1.00  0.00    -0.000 C 
BRANCH  16  17
ATOM     17  C   UNL     1      -3.831  -1.301   4.145  1.00  0.00    -0.000 C 
BRANCH  17  18
ATOM     18  C   UNL     1      -5.300  -1.575   4.524  1.00  0.00    -0.000 C 
BRANCH  18  19
ATOM     19  C   UNL     1      -5.594  -1.538   6.034  1.00  0.00    -0.003 C 
ATOM     20  C   UNL     1      -5.609  -0.120   6.603  1.00  0.00     0.004 C 
ENDBRANCH  18  19
ENDBRANCH  17  18
ENDBRANCH  16  17
ENDBRANCH  15  16
ENDBRANCH  14  15
ENDBRANCH  13  14
ENDBRANCH  12  13
ENDBRANCH   1  12
TORSDOF 16
ENDMDL
MODEL 2
REMARK VINA RESULT:    -4.576      0.985      2.106
REMARK INTER + INTRA:          -9.969
REMARK INTER:                  -8.900
REMARK INTRA:                  -1.070
REMARK UNBOUND:                -1.114
REMARK SMILES CCCCCCCCCCCCCCCCCC(=O)[O-]
REMARK SMILES IDX 10 1 11 2 12 3 13 4 14 5 15 6 16 7 17 8 18 9 19 10 20 11
REMARK SMILES IDX 9 12 8 13 7 14 6 15 5 16 4 17 3 18 2 19 1 20
REMARK H PARENT
REMARK Flexibility Score: inf
ROOT
ATOM      1  C   UNL     1       0.023  -2.175   5.118  1.00  0.00     0.000 C 
ENDROOT
BRANCH   1   2
ATOM      2  C   UNL     1       0.973  -1.108   5.690  1.00  0.00     0.000 C 
BRANCH   2   3
ATOM      3  C   UNL     1       0.958  -1.063   7.229  1.00  0.00     0.000 C 
BRANCH   3   4
ATOM      4  C   UNL     1       1.353   0.296   7.843  1.00  0.00     0.000 C 
BRANCH   4   5
ATOM      5  C   UNL     1       1.746   1.360   6.796  1.00  0.00     0.000 C 
BRANCH   5   6
ATOM      6  C   UNL     1       1.312   2.775   7.216  1.00  0.00     0.000 C 
BRANCH   6   7
ATOM      7  C   UNL     1       1.423   3.795   6.071  1.00  0.00     0.006 C 
BRANCH   7   8
ATOM      8  C   UNL     1       0.433   4.957   6.215  1.00  0.00     0.053 C 
BRANCH   8   9
ATOM      9  C   UNL     1       0.124   5.548   4.877  1.00  0.00     0.041 C 
ATOM     10  O   UNL     1      -1.034   5.975   4.624  1.00  0.00    -0.550 OA
ATOM     11  O   UNL     1       1.102   5.589   3.892  1.00  0.00    -0.550 OA
ENDBRANCH   8   9
ENDBRANCH   7   8
ENDBRANCH   6   7
ENDBRANCH   5   6
ENDBRANCH   4   5
ENDBRANCH   3   4
ENDBRANCH   2   3
ENDBRANCH   1   2
BRANCH   1  12
ATOM     12  C   UNL     1      -1.139  -2.501   6.070  1.00  0.00     0.000 C 
BRANCH  12  13
ATOM     13  C   UNL     1      -2.484  -2.639   5.341  1.00  0.00    -0.000 C 
BRANCH  13  14
ATOM     14  C   UNL     1      -2.603  -1.608   4.212  1.00  0.00    -0.000 C 
BRANCH  14  15
ATOM     15  C   UNL     1      -4.050  -1.111   4.072  1.00  0.00    -0.000 C 
BRANCH  15  16
ATOM     16  C   UNL     1      -5.085  -2.138   4.568  1.00  0.00    -0.000 C 
BRANCH  16  17
ATOM     17  C   UNL     1      -6.129  -1.582   5.557  1.00  0.00    -0.000 C 
BRANCH  17  18
ATOM     18  C   UNL     1      -5.599  -0.527   6.548  1.00  0.00    -0.000 C 
BRANCH  18  19
ATOM     19  C   UNL     1      -6.675   0.403   7.137  1.00  0.00    -0.003 C 
ATOM     20  C   UNL     1      -6.446   0.715   8.615  1.00  0.00     0.004 C 
ENDBRANCH  18  19
ENDBRANCH  17  18
ENDBRANCH  16  17
ENDBRANCH  15  16
ENDBRANCH  14  15
ENDBRANCH  13  14
ENDBRANCH  12  13
ENDBRANCH   1  12
TORSDOF 16
ENDMDL
MODEL 3
REMARK VINA RESULT:    -4.492      1.333      2.616
REMARK INTER + INTRA:          -9.807
REMARK INTER:                  -8.471
REMARK INTRA:                  -1.336
REMARK UNBOUND:                -1.114
REMARK SMILES CCCCCCCCCCCCCCCCCC(=O)[O-]
REMARK SMILES IDX 10 1 11 2 12 3 13 4 14 5 15 6 16 7 17 8 18 9 19 10 20 11
REMARK SMILES IDX 9 12 8 13 7 14 6 15 5 16 4 17 3 18 2 19 1 20
REMARK H PARENT
REMARK Flexibility Score: inf
ROOT
ATOM      1  C   UNL     1       0.599  -1.911   5.244  1.00  0.00     0.000 C 
ENDROOT
BRANCH   1   2
ATOM      2  C   UNL     1       1.167  -0.520   5.577  1.00  0.00     0.000 C 
BRANCH   2   3
ATOM      3  C   UNL     1       1.911  -0.488   6.925  1.00  0.00     0.000 C 
BRANCH   3   4
ATOM      4  C   UNL     1       1.606   0.739   7.807  1.00  0.00     0.000 C 
BRANCH   4   5
ATOM      5  C   UNL     1       1.658   2.081   7.046  1.00  0.00     0.000 C 
BRANCH   5   6
ATOM      6  C   UNL     1       0.883   3.193   7.773  1.00  0.00     0.000 C 
BRANCH   6   7
ATOM      7  C   UNL     1       0.512   4.362   6.846  1.00  0.00     0.006 C 
BRANCH   7   8
ATOM      8  C   UNL     1       1.421   4.452   5.615  1.00  0.00     0.053 C 
BRANCH   8   9
ATOM      9  C   UNL     1       0.692   5.088   4.474  1.00  0.00     0.041 C 
ATOM     10  O   UNL     1       1.220   5.134   3.331  1.00  0.00    -0.550 OA
ATOM     11  O   UNL     1      -0.552   5.670   4.681  1.00  0.00    -0.550 OA
ENDBRANCH   8   9
ENDBRANCH   7   8
ENDBRANCH   6   7
ENDBRANCH   5   6
ENDBRANCH   4   5
ENDBRANCH   3   4
ENDBRANCH   2   3
ENDBRANCH   1   2
BRANCH   1  12
ATOM     12  C   UNL     1      -0.391  -2.412   6.307  1.00  0.00     0.000 C 
BRANCH  12  13
ATOM     13  C   UNL     1      -1.845  -2.413   5.811  1.00  0.00    -0.000 C 
BRANCH  13  14
ATOM     14  C   UNL     1      -1.921  -1.993   4.338  1.00  0.00    -0.000 C 
BRANCH  14  15
ATOM     15  C   UNL     1      -3.312  -1.438   3.996  1.00  0.00    -0.000 C 
BRANCH  15  16
ATOM     16  C   UNL     1      -4.443  -2.446   4.274  1.00  0.00    -0.000 C 
BRANCH  16  17
ATOM     17  C   UNL     1      -4.582  -3.572   3.230  1.00  0.00    -0.000 C 
BRANCH  17  18
ATOM     18  C   UNL     1      -3.965  -4.925   3.637  1.00  0.00    -0.000 C 
BRANCH  18  19
ATOM     19  C   UNL     1      -2.870  -5.447   2.690  1.00  0.00    -0.003 C 
ATOM     20  C   UNL     1      -2.648  -4.538   1.481  1.00  0.00     0.004 C 
ENDBRANCH  18  19
ENDBRANCH  17  18
ENDBRANCH  16  17
ENDBRANCH  15  16
ENDBRANCH  14  15
ENDBRANCH  13  14
ENDBRANCH  12  13
ENDBRANCH   1  12
TORSDOF 16
ENDMDL
MODEL 4
REMARK VINA RESULT:    -4.482      1.234      1.979
REMARK INTER + INTRA:          -9.788
REMARK INTER:                  -8.523
REMARK INTRA:                  -1.265
REMARK UNBOUND:                -1.114
REMARK SMILES CCCCCCCCCCCCCCCCCC(=O)[O-]
REMARK SMILES IDX 10 1 11 2 12 3 13 4 14 5 15 6 16 7 17 8 18 9 19 10 20 11
REMARK SMILES IDX 9 12 8 13 7 14 6 15 5 16 4 17 3 18 2 19 1 20
REMARK H PARENT
REMARK Flexibility Score: inf
ROOT
ATOM      1  C   UNL     1       2.491  -1.063   7.663  1.00  0.00     0.000 C 
ENDROOT
BRANCH   1   2
ATOM      2  C   UNL     1       1.407  -0.109   8.196  1.00  0.00     0.000 C 
BRANCH   2   3
ATOM      3  C   UNL     1       1.497   1.298   7.578  1.00  0.00     0.000 C 
BRANCH   3   4
ATOM      4  C   UNL     1       0.884   2.424   8.435  1.00  0.00     0.000 C 
BRANCH   4   5
ATOM      5  C   UNL     1       0.774   3.776   7.697  1.00  0.00     0.000 C 
BRANCH   5   6
ATOM      6  C   UNL     1       1.388   3.720   6.288  1.00  0.00     0.000 C 
BRANCH   6   7
ATOM      7  C   UNL     1       1.256   5.050   5.529  1.00  0.00     0.006 C 
BRANCH   7   8
ATOM      8  C   UNL     1      -0.084   5.183   4.796  1.00  0.00     0.053 C 
BRANCH   8   9
ATOM      9  C   UNL     1      -0.810   6.408   5.254  1.00  0.00     0.041 C 
ATOM     10  O   UNL     1      -1.167   6.521   6.457  1.00  0.00    -0.550 OA
ATOM     11  O   UNL     1      -1.132   7.408   4.345  1.00  0.00    -0.550 OA
ENDBRANCH   8   9
ENDBRANCH   7   8
ENDBRANCH   6   7
ENDBRANCH   5   6
ENDBRANCH   4   5
ENDBRANCH   3   4
ENDBRANCH   2   3
ENDBRANCH   1   2
BRANCH   1  12
ATOM     12  C   UNL     1       1.915  -2.160   6.755  1.00  0.00     0.000 C 
BRANCH  12  13
ATOM     13  C   UNL     1       1.628  -1.663   5.331  1.00  0.00    -0.000 C 
BRANCH  13  14
ATOM     14  C   UNL     1       0.120  -1.649   5.049  1.00  0.00    -0.000 C 
BRANCH  14  15
ATOM     15  C   UNL     1      -0.632  -2.554   6.037  1.00  0.00    -0.000 C 
BRANCH  15  16
ATOM     16  C   UNL     1      -2.133  -2.671   5.717  1.00  0.00    -0.000 C 
BRANCH  16  17
ATOM     17  C   UNL     1      -2.532  -2.227   4.295  1.00  0.00    -0.000 C 
BRANCH  17  18
ATOM     18  C   UNL     1      -3.629  -1.146   4.229  1.00  0.00    -0.000 C 
BRANCH  18  19
ATOM     19  C   UNL     1      -4.929  -1.499   4.973  1.00  0.00    -0.003 C 
ATOM     20  C   UNL     1      -5.248  -0.526   6.108  1.00  0.00     0.004 C 
ENDBRANCH  18  19
ENDBRANCH  17  18
ENDBRANCH  16  17
ENDBRANCH  15  16
ENDBRANCH  14  15
ENDBRANCH  13  14
ENDBRANCH  12  13
ENDBRANCH   1  12
TORSDOF 16
ENDMDL
MODEL 5
REMARK VINA RESULT:    -4.439      1.678      3.068
REMARK INTER + INTRA:          -9.704
REMARK INTER:                  -7.794
REMARK INTRA:                  -1.910
REMARK UNBOUND:                -1.114
REMARK SMILES CCCCCCCCCCCCCCCCCC(=O)[O-]
REMARK SMILES IDX 10 1 11 2 12 3 13 4 14 5 15 6 16 7 17 8 18 9 19 10 20 11
REMARK SMILES IDX 9 12 8 13 7 14 6 15 5 16 4 17 3 18 2 19 1 20
REMARK H PARENT
REMARK Flexibility Score: inf
ROOT
ATOM      1  C   UNL     1       3.013  -1.482   5.690  1.00  0.00     0.000 C 
ENDROOT
BRANCH   1   2
ATOM      2  C   UNL     1       3.589  -1.014   7.038  1.00  0.00     0.000 C 
BRANCH   2   3
ATOM      3  C   UNL     1       2.676  -0.006   7.757  1.00  0.00     0.000 C 
BRANCH   3   4
ATOM      4  C   UNL     1       1.778   0.836   6.828  1.00  0.00     0.000 C 
BRANCH   4   5
ATOM      5  C   UNL     1       1.206   2.104   7.497  1.00  0.00     0.000 C 
BRANCH   5   6
ATOM      6  C   UNL     1       2.095   3.337   7.259  1.00  0.00     0.000 C 
BRANCH   6   7
ATOM      7  C   UNL     1       1.716   4.105   5.982  1.00  0.00     0.006 C 
BRANCH   7   8
ATOM      8  C   UNL     1       0.391   4.865   6.120  1.00  0.00     0.053 C 
BRANCH   8   9
ATOM      9  C   UNL     1      -0.007   5.459   4.807  1.00  0.00     0.041 C 
ATOM     10  O   UNL     1       0.443   4.981   3.732  1.00  0.00    -0.550 OA
ATOM     11  O   UNL     1      -0.841   6.569   4.770  1.00  0.00    -0.550 OA
ENDBRANCH   8   9
ENDBRANCH   7   8
ENDBRANCH   6   7
ENDBRANCH   5   6
ENDBRANCH   4   5
ENDBRANCH   3   4
ENDBRANCH   2   3
ENDBRANCH   1   2
BRANCH   1  12
ATOM     12  C   UNL     1       2.989  -3.013   5.559  1.00  0.00     0.000 C 
BRANCH  12  13
ATOM     13  C   UNL     1       2.922  -3.725   6.919  1.00  0.00    -0.000 C 
BRANCH  13  14
ATOM     14  C   UNL     1       1.513  -4.273   7.181  1.00  0.00    -0.000 C 
BRANCH  14  15
ATOM     15  C   UNL     1       0.818  -3.487   8.303  1.00  0.00    -0.000 C 
BRANCH  15  16
ATOM     16  C   UNL     1      -0.013  -2.302   7.776  1.00  0.00    -0.000 C 
BRANCH  16  17
ATOM     17  C   UNL     1      -1.051  -2.664   6.695  1.00  0.00    -0.000 C 
BRANCH  17  18
ATOM     18  C   UNL     1      -0.727  -2.154   5.277  1.00  0.00    -0.000 C 
BRANCH  18  19
ATOM     19  C   UNL     1      -1.651  -2.693   4.170  1.00  0.00    -0.003 C 
ATOM     20  C   UNL     1      -2.831  -1.767   3.877  1.00  0.00     0.004 C 
ENDBRANCH  18  19
ENDBRANCH  17  18
ENDBRANCH  16  17
ENDBRANCH  15  16
ENDBRANCH  14  15
ENDBRANCH  13  14
ENDBRANCH  12  13
ENDBRANCH   1  12
TORSDOF 16
ENDMDL
MODEL 6
REMARK VINA RESULT:    -4.361      4.637      8.021
REMARK INTER + INTRA:          -9.554
REMARK INTER:                  -6.970
REMARK INTRA:                  -2.584
REMARK UNBOUND:                -1.114
REMARK SMILES CCCCCCCCCCCCCCCCCC(=O)[O-]
REMARK SMILES IDX 10 1 11 2 12 3 13 4 14 5 15 6 16 7 17 8 18 9 19 10 20 11
REMARK SMILES IDX 9 12 8 13 7 14 6 15 5 16 4 17 3 18 2 19 1 20
REMARK H PARENT
REMARK Flexibility Score: inf
ROOT
ATOM      1  C   UNL     1      -3.073  -2.627   7.567  1.00  0.00     0.000 C 
ENDROOT
BRANCH   1   2
ATOM      2  C   UNL     1      -4.603  -2.522   7.439  1.00  0.00     0.000 C 
BRANCH   2   3
ATOM      3  C   UNL     1      -5.067  -2.326   5.985  1.00  0.00     0.000 C 
BRANCH   3   4
ATOM      4  C   UNL     1      -4.573  -1.027   5.314  1.00  0.00     0.000 C 
BRANCH   4   5
ATOM      5  C   UNL     1      -3.732  -1.266   4.043  1.00  0.00     0.000 C 
BRANCH   5   6
ATOM      6  C   UNL     1      -3.987  -2.653   3.429  1.00  0.00     0.000 C 
BRANCH   6   7
ATOM      7  C   UNL     1      -2.687  -3.416   3.125  1.00  0.00     0.006 C 
BRANCH   7   8
ATOM      8  C   UNL     1      -2.843  -4.934   3.271  1.00  0.00     0.053 C 
BRANCH   8   9
ATOM      9  C   UNL     1      -2.794  -5.595   1.930  1.00  0.00     0.041 C 
ATOM     10  O   UNL     1      -2.884  -4.905   0.880  1.00  0.00    -0.550 OA
ATOM     11  O   UNL     1      -2.694  -6.977   1.839  1.00  0.00    -0.550 OA
ENDBRANCH   8   9
ENDBRANCH   7   8
ENDBRANCH   6   7
ENDBRANCH   5   6
ENDBRANCH   4   5
ENDBRANCH   3   4
ENDBRANCH   2   3
ENDBRANCH   1   2
BRANCH   1  12
ATOM     12  C   UNL     1      -2.541  -4.005   7.145  1.00  0.00     0.000 C 
BRANCH  12  13
ATOM     13  C   UNL     1      -1.166  -3.928   6.464  1.00  0.00    -0.000 C 
BRANCH  13  14
ATOM     14  C   UNL     1      -0.568  -2.521   6.595  1.00  0.00    -0.000 C 
BRANCH  14  15
ATOM     15  C   UNL     1      -0.237  -1.934   5.215  1.00  0.00    -0.000 C 
BRANCH  15  16
ATOM     16  C   UNL     1       0.813  -0.810   5.280  1.00  0.00    -0.000 C 
BRANCH  16  17
ATOM     17  C   UNL     1       2.105  -1.169   6.040  1.00  0.00    -0.000 C 
BRANCH  17  18
ATOM     18  C   UNL     1       3.023  -2.186   5.332  1.00  0.00    -0.000 C 
BRANCH  18  19
ATOM     19  C   UNL     1       3.098  -3.567   6.006  1.00  0.00    -0.003 C 
ATOM     20  C   UNL     1       2.918  -3.499   7.522  1.00  0.00     0.004 C 
ENDBRANCH  18  19
ENDBRANCH  17  18
ENDBRANCH  16  17
ENDBRANCH  15  16
ENDBRANCH  14  15
ENDBRANCH  13  14
ENDBRANCH  12  13
ENDBRANCH   1  12
TORSDOF 16
ENDMDL
MODEL 7
REMARK VINA RESULT:    -4.309      3.624      5.324
REMARK INTER + INTRA:          -9.454
REMARK INTER:                  -7.128
REMARK INTRA:                  -2.326
REMARK UNBOUND:                -1.114
REMARK SMILES CCCCCCCCCCCCCCCCCC(=O)[O-]
REMARK SMILES IDX 10 1 11 2 12 3 13 4 14 5 15 6 16 7 17 8 18 9 19 10 20 11
REMARK SMILES IDX 9 12 8 13 7 14 6 15 5 16 4 17 3 18 2 19 1 20
REMARK H PARENT
REMARK Flexibility Score: inf
ROOT
ATOM      1  C   UNL     1      -3.348  -5.648   5.167  1.00  0.00     0.000 C 
ENDROOT
BRANCH   1   2
ATOM      2  C   UNL     1      -2.781  -4.841   6.347  1.00  0.00     0.000 C 
BRANCH   2   3
ATOM      3  C   UNL     1      -1.276  -5.081   6.564  1.00  0.00     0.000 C 
BRANCH   3   4
ATOM      4  C   UNL     1      -0.453  -3.814   6.875  1.00  0.00     0.000 C 
BRANCH   4   5
ATOM      5  C   UNL     1      -1.120  -2.507   6.396  1.00  0.00     0.000 C 
BRANCH   5   6
ATOM      6  C   UNL     1      -0.488  -1.974   5.098  1.00  0.00     0.000 C 
BRANCH   6   7
ATOM      7  C   UNL     1       1.040  -1.845   5.192  1.00  0.00     0.006 C 
BRANCH   7   8
ATOM      8  C   UNL     1       1.482  -0.628   6.014  1.00  0.00     0.053 C 
BRANCH   8   9
ATOM      9  C   UNL     1       2.881  -0.814   6.509  1.00  0.00     0.041 C 
ATOM     10  O   UNL     1       3.237  -0.307   7.607  1.00  0.00    -0.550 OA
ATOM     11  O   UNL     1       3.805  -1.509   5.741  1.00  0.00    -0.550 OA
ENDBRANCH   8   9
ENDBRANCH   7   8
ENDBRANCH   6   7
ENDBRANCH   5   6
ENDBRANCH   4   5
ENDBRANCH   3   4
ENDBRANCH   2   3
ENDBRANCH   1   2
BRANCH   1  12
ATOM     12  C   UNL     1      -2.607  -5.366   3.851  1.00  0.00     0.000 C 
BRANCH  12  13
ATOM     13  C   UNL     1      -2.932  -3.982   3.270  1.00  0.00    -0.000 C 
BRANCH  13  14
ATOM     14  C   UNL     1      -4.409  -3.891   2.866  1.00  0.00    -0.000 C 
BRANCH  14  15
ATOM     15  C   UNL     1      -5.031  -2.573   3.351  1.00  0.00    -0.000 C 
BRANCH  15  16
ATOM     16  C   UNL     1      -3.988  -1.594   3.920  1.00  0.00    -0.000 C 
BRANCH  16  17
ATOM     17  C   UNL     1      -4.454  -0.789   5.151  1.00  0.00    -0.000 C 
BRANCH  17  18
ATOM     18  C   UNL     1      -4.779  -1.631   6.400  1.00  0.00    -0.000 C 
BRANCH  18  19
ATOM     19  C   UNL     1      -5.527  -0.874   7.512  1.00  0.00    -0.003 C 
ATOM     20  C   UNL     1      -6.241   0.377   7.002  1.00  0.00     0.004 C 
ENDBRANCH  18  19
ENDBRANCH  17  18
ENDBRANCH  16  17
ENDBRANCH  15  16
ENDBRANCH  14  15
ENDBRANCH  13  14
ENDBRANCH  12  13
ENDBRANCH   1  12
TORSDOF 16
ENDMDL
MODEL 8
REMARK VINA RESULT:    -4.287      4.953      8.137
REMARK INTER + INTRA:          -9.410
REMARK INTER:                  -7.197
REMARK INTRA:                  -2.213
REMARK UNBOUND:                -1.114
REMARK SMILES CCCCCCCCCCCCCCCCCC(=O)[O-]
REMARK SMILES IDX 10 1 11 2 12 3 13 4 14 5 15 6 16 7 17 8 18 9 19 10 20 11
REMARK SMILES IDX 9 12 8 13 7 14 6 15 5 16 4 17 3 18 2 19 1 20
REMARK H PARENT
REMARK Flexibility Score: inf
ROOT
ATOM      1  C   UNL     1      -4.540  -2.131   7.141  1.00  0.00     0.000 C 
ENDROOT
BRANCH   1   2
ATOM      2  C   UNL     1      -5.369  -1.506   6.005  1.00  0.00     0.000 C 
BRANCH   2   3
ATOM      3  C   UNL     1      -4.519  -0.645   5.054  1.00  0.00     0.000 C 
BRANCH   3   4
ATOM      4  C   UNL     1      -3.919  -1.402   3.852  1.00  0.00     0.000 C 
BRANCH   4   5
ATOM      5  C   UNL     1      -2.411  -1.702   3.996  1.00  0.00     0.000 C 
BRANCH   5   6
ATOM      6  C   UNL     1      -2.085  -3.182   3.732  1.00  0.00     0.000 C 
BRANCH   6   7
ATOM      7  C   UNL     1      -3.302  -3.977   3.232  1.00  0.00     0.006 C 
BRANCH   7   8
ATOM      8  C   UNL     1      -3.013  -4.754   1.942  1.00  0.00     0.053 C 
BRANCH   8   9
ATOM      9  C   UNL     1      -4.247  -4.846   1.102  1.00  0.00     0.041 C 
ATOM     10  O   UNL     1      -5.370  -4.551   1.590  1.00  0.00    -0.550 OA
ATOM     11  O   UNL     1      -4.164  -5.300  -0.208  1.00  0.00    -0.550 OA
ENDBRANCH   8   9
ENDBRANCH   7   8
ENDBRANCH   6   7
ENDBRANCH   5   6
ENDBRANCH   4   5
ENDBRANCH   3   4
ENDBRANCH   2   3
ENDBRANCH   1   2
BRANCH   1  12
ATOM     12  C   UNL     1      -4.279  -3.630   6.924  1.00  0.00     0.000 C 
BRANCH  12  13
ATOM     13  C   UNL     1      -2.809  -4.016   7.143  1.00  0.00    -0.000 C 
BRANCH  13  14
ATOM     14  C   UNL     1      -1.984  -2.801   7.586  1.00  0.00    -0.000 C 
BRANCH  14  15
ATOM     15  C   UNL     1      -0.552  -3.215   7.958  1.00  0.00    -0.000 C 
BRANCH  15  16
ATOM     16  C   UNL     1       0.435  -3.073   6.785  1.00  0.00    -0.000 C 
BRANCH  16  17
ATOM     17  C   UNL     1       0.405  -1.707   6.071  1.00  0.00    -0.000 C 
BRANCH  17  18
ATOM     18  C   UNL     1       1.698  -1.328   5.322  1.00  0.00    -0.000 C 
BRANCH  18  19
ATOM     19  C   UNL     1       2.764  -2.438   5.274  1.00  0.00    -0.003 C 
ATOM     20  C   UNL     1       4.190  -1.890   5.212  1.00  0.00     0.004 C 
ENDBRANCH  18  19
ENDBRANCH  17  18
ENDBRANCH  16  17
ENDBRANCH  15  16
ENDBRANCH  14  15
ENDBRANCH  13  14
ENDBRANCH  12  13
ENDBRANCH   1  12
TORSDOF 16
ENDMDL
MODEL 9
REMARK VINA RESULT:    -4.286      2.804      4.658
REMARK INTER + INTRA:          -9.410
REMARK INTER:                  -7.196
REMARK INTRA:                  -2.214
REMARK UNBOUND:                -1.114
REMARK SMILES CCCCCCCCCCCCCCCCCC(=O)[O-]
REMARK SMILES IDX 10 1 11 2 12 3 13 4 14 5 15 6 16 7 17 8 18 9 19 10 20 11
REMARK SMILES IDX 9 12 8 13 7 14 6 15 5 16 4 17 3 18 2 19 1 20
REMARK H PARENT
REMARK Flexibility Score: inf
ROOT
ATOM      1  C   UNL     1       0.553  -0.523   9.186  1.00  0.00     0.000 C 
ENDROOT
BRANCH   1   2
ATOM      2  C   UNL     1       1.792   0.243   8.689  1.00  0.00     0.000 C 
BRANCH   2   3
ATOM      3  C   UNL     1       1.475   1.697   8.297  1.00  0.00     0.000 C 
BRANCH   3   4
ATOM      4  C   UNL     1       1.573   2.000   6.788  1.00  0.00     0.000 C 
BRANCH   4   5
ATOM      5  C   UNL     1       1.314   3.479   6.433  1.00  0.00     0.000 C 
BRANCH   5   6
ATOM      6  C   UNL     1       0.496   4.202   7.517  1.00  0.00     0.000 C 
BRANCH   6   7
ATOM      7  C   UNL     1      -0.109   5.525   7.020  1.00  0.00     0.006 C 
BRANCH   7   8
ATOM      8  C   UNL     1      -0.483   5.484   5.534  1.00  0.00     0.053 C 
BRANCH   8   9
ATOM      9  C   UNL     1       0.059   6.686   4.827  1.00  0.00     0.041 C 
ATOM     10  O   UNL     1       1.110   6.595   4.139  1.00  0.00    -0.550 OA
ATOM     11  O   UNL     1      -0.572   7.916   4.961  1.00  0.00    -0.550 OA
ENDBRANCH   8   9
ENDBRANCH   7   8
ENDBRANCH   6   7
ENDBRANCH   5   6
ENDBRANCH   4   5
ENDBRANCH   3   4
ENDBRANCH   2   3
ENDBRANCH   1   2
BRANCH   1  12
ATOM     12  C   UNL     1       0.657  -2.036   8.938  1.00  0.00     0.000 C 
BRANCH  12  13
ATOM     13  C   UNL     1      -0.473  -2.571   8.045  1.00  0.00    -0.000 C 
BRANCH  13  14
ATOM     14  C   UNL     1       0.070  -3.010   6.679  1.00  0.00    -0.000 C 
BRANCH  14  15
ATOM     15  C   UNL     1       0.017  -1.854   5.669  1.00  0.00    -0.000 C 
BRANCH  15  16
ATOM     16  C   UNL     1       1.414  -1.327   5.290  1.00  0.00    -0.000 C 
BRANCH  16  17
ATOM     17  C   UNL     1       2.565  -2.332   5.493  1.00  0.00    -0.000 C 
BRANCH  17  18
ATOM     18  C   UNL     1       3.880  -1.725   6.023  1.00  0.00    -0.000 C 
BRANCH  18  19
ATOM     19  C   UNL     1       4.330  -2.260   7.394  1.00  0.00    -0.003 C 
ATOM     20  C   UNL     1       3.699  -3.607   7.744  1.00  0.00     0.004 C 
ENDBRANCH  18  19
ENDBRANCH  17  18
ENDBRANCH  16  17
ENDBRANCH  15  16
ENDBRANCH  14  15
ENDBRANCH  13  14
ENDBRANCH  12  13
ENDBRANCH   1  12
TORSDOF 16
ENDMDL
