MODEL 1
REMARK VINA RESULT:    -6.960      0.000      0.000
REMARK INTER + INTRA:          -8.485
REMARK INTER:                  -8.180
REMARK INTRA:                  -0.305
REMARK UNBOUND:                -0.305
REMARK SMILES O=c1cc(-c2ccc(O)c(O)c2)oc2cc(O)cc(O)c12
REMARK SMILES IDX 4 1 3 2 2 3 1 4 21 5 19 6 18 7 16 8 15 9 14 10 13 11 5 12
REMARK SMILES IDX 6 13 7 14 8 15 12 16 10 17 9 18 11 20 20 22 17 24
REMARK H PARENT 9 19 11 21 20 23 17 25
REMARK Flexibility Score: inf
ROOT
ATOM      1  C   UNL     1      14.389 -22.830  20.482  1.00  0.00     0.138 A 
ATOM      2  C   UNL     1      15.460 -21.982  20.155  1.00  0.00     0.100 A 
ATOM      3  C   UNL     1      15.210 -20.797  19.460  1.00  0.00     0.197 A 
ATOM      4  O   UNL     1      16.177 -20.042  19.171  1.00  0.00    -0.289 OA
ATOM      5  C   UNL     1      13.888 -20.468  19.100  1.00  0.00     0.107 A 
ATOM      6  C   UNL     1      13.547 -19.289  18.395  1.00  0.00     0.134 A 
ATOM      7  C   UNL     1      12.205 -19.032  18.080  1.00  0.00     0.093 A 
ATOM      8  C   UNL     1      11.200 -19.926  18.455  1.00  0.00     0.123 A 
ATOM      9  C   UNL     1      11.530 -21.093  19.152  1.00  0.00     0.094 A 
ATOM     10  C   UNL     1      12.863 -21.369  19.475  1.00  0.00     0.146 A 
ATOM     11  O   UNL     1      13.151 -22.485  20.137  1.00  0.00    -0.456 OA
ENDROOT
BRANCH   1  12
ATOM     12  C   UNL     1      14.596 -24.102  21.221  1.00  0.00     0.021 A 
ATOM     13  C   UNL     1      15.793 -24.816  21.046  1.00  0.00     0.016 A 
ATOM     14  C   UNL     1      16.015 -26.011  21.734  1.00  0.00     0.051 A 
ATOM     15  C   UNL     1      15.048 -26.509  22.617  1.00  0.00     0.157 A 
ATOM     16  C   UNL     1      13.632 -24.601  22.120  1.00  0.00     0.062 A 
ATOM     17  C   UNL     1      13.854 -25.797  22.813  1.00  0.00     0.158 A 
BRANCH  15  18
ATOM     18  O   UNL     1      15.272 -27.702  23.302  1.00  0.00    -0.504 OA
ATOM     19  H   UNL     1      15.101 -28.602  22.869  1.00  0.00     0.293 HD
ENDBRANCH  15  18
BRANCH  17  20
ATOM     20  O   UNL     1      12.876 -26.260  23.694  1.00  0.00    -0.504 OA
ATOM     21  H   UNL     1      12.373 -27.124  23.533  1.00  0.00     0.293 HD
ENDBRANCH  17  20
ENDBRANCH   1  12
BRANCH   6  22
ATOM     22  O   UNL     1      14.529 -18.377  18.008  1.00  0.00    -0.507 OA
ATOM     23  H   UNL     1      15.220 -18.605  17.301  1.00  0.00     0.293 HD
ENDBRANCH   6  22
BRANCH   8  24
ATOM     24  O   UNL     1       9.875 -19.646  18.129  1.00  0.00    -0.508 OA
ATOM     25  H   UNL     1       9.108 -19.963  18.710  1.00  0.00     0.293 HD
ENDBRANCH   8  24
TORSDOF 5
ENDMDL
MODEL 2
REMARK VINA RESULT:    -6.909      1.513      6.843
REMARK INTER + INTRA:          -8.425
REMARK INTER:                  -8.128
REMARK INTRA:                  -0.297
REMARK UNBOUND:                -0.305
REMARK SMILES O=c1cc(-c2ccc(O)c(O)c2)oc2cc(O)cc(O)c12
REMARK SMILES IDX 4 1 3 2 2 3 1 4 21 5 19 6 18 7 16 8 15 9 14 10 13 11 5 12
REMARK SMILES IDX 6 13 7 14 8 15 12 16 10 17 9 18 11 20 20 22 17 24
REMARK H PARENT 9 19 11 21 20 23 17 25
REMARK Flexibility Score: inf
ROOT
ATOM      1  C   UNL     1      13.959 -21.946  19.839  1.00  0.00     0.138 A 
ATOM      2  C   UNL     1      15.327 -21.656  19.696  1.00  0.00     0.100 A 
ATOM      3  C   UNL     1      16.271 -22.483  20.307  1.00  0.00     0.197 A 
ATOM      4  O   UNL     1      17.496 -22.214  20.173  1.00  0.00    -0.289 OA
ATOM      5  C   UNL     1      15.841 -23.597  21.053  1.00  0.00     0.107 A 
ATOM      6  C   UNL     1      16.731 -24.485  21.703  1.00  0.00     0.134 A 
ATOM      7  C   UNL     1      16.222 -25.576  22.422  1.00  0.00     0.093 A 
ATOM      8  C   UNL     1      14.845 -25.797  22.503  1.00  0.00     0.123 A 
ATOM      9  C   UNL     1      13.960 -24.924  21.862  1.00  0.00     0.094 A 
ATOM     10  C   UNL     1      14.447 -23.829  21.141  1.00  0.00     0.146 A 
ATOM     11  O   UNL     1      13.586 -23.013  20.542  1.00  0.00    -0.456 OA
ENDROOT
BRANCH   1  12
ATOM     12  C   UNL     1      12.910 -21.102  19.212  1.00  0.00     0.021 A 
ATOM     13  C   UNL     1      11.559 -21.347  19.507  1.00  0.00     0.016 A 
ATOM     14  C   UNL     1      10.553 -20.563  18.936  1.00  0.00     0.051 A 
ATOM     15  C   UNL     1      10.881 -19.515  18.067  1.00  0.00     0.157 A 
ATOM     16  C   UNL     1      13.235 -20.039  18.346  1.00  0.00     0.062 A 
ATOM     17  C   UNL     1      12.229 -19.250  17.775  1.00  0.00     0.158 A 
BRANCH  15  18
ATOM     18  O   UNL     1       9.875 -18.736  17.498  1.00  0.00    -0.504 OA
ATOM     19  H   UNL     1       8.903 -18.852  17.758  1.00  0.00     0.293 HD
ENDBRANCH  15  18
BRANCH  17  20
ATOM     20  O   UNL     1      12.589 -18.208  16.921  1.00  0.00    -0.504 OA
ATOM     21  H   UNL     1      13.254 -17.495  17.194  1.00  0.00     0.293 HD
ENDBRANCH  17  20
ENDBRANCH   1  12
BRANCH   6  22
ATOM     22  O   UNL     1      18.111 -24.290  21.640  1.00  0.00    -0.507 OA
ATOM     23  H   UNL     1      18.607 -24.265  20.755  1.00  0.00     0.293 HD
ENDBRANCH   6  22
BRANCH   8  24
ATOM     24  O   UNL     1      14.366 -26.889  23.223  1.00  0.00    -0.508 OA
ATOM     25  H   UNL     1      14.221 -27.791  22.785  1.00  0.00     0.293 HD
ENDBRANCH   8  24
TORSDOF 5
ENDMDL
MODEL 3
REMARK VINA RESULT:    -6.822      2.258      3.125
REMARK INTER + INTRA:          -8.323
REMARK INTER:                  -8.021
REMARK INTRA:                  -0.302
REMARK UNBOUND:                -0.305
REMARK SMILES O=c1cc(-c2ccc(O)c(O)c2)oc2cc(O)cc(O)c12
REMARK SMILES IDX 4 1 3 2 2 3 1 4 21 5 19 6 18 7 16 8 15 9 14 10 13 11 5 12
REMARK SMILES IDX 6 13 7 14 8 15 12 16 10 17 9 18 11 20 20 22 17 24
REMARK H PARENT 9 19 11 21 20 23 17 25
REMARK Flexibility Score: inf
ROOT
ATOM      1  C   UNL     1      14.446 -22.938  21.931  1.00  0.00     0.138 A 
ATOM      2  C   UNL     1      13.709 -23.382  20.820  1.00  0.00     0.100 A 
ATOM      3  C   UNL     1      13.392 -22.482  19.802  1.00  0.00     0.197 A 
ATOM      4  O   UNL     1      12.730 -22.890  18.809  1.00  0.00    -0.289 OA
ATOM      5  C   UNL     1      13.817 -21.142  19.900  1.00  0.00     0.107 A 
ATOM      6  C   UNL     1      13.539 -20.166  18.914  1.00  0.00     0.134 A 
ATOM      7  C   UNL     1      14.004 -18.854  19.085  1.00  0.00     0.093 A 
ATOM      8  C   UNL     1      14.741 -18.500  20.217  1.00  0.00     0.123 A 
ATOM      9  C   UNL     1      15.021 -19.461  21.195  1.00  0.00     0.094 A 
ATOM     10  C   UNL     1      14.565 -20.774  21.045  1.00  0.00     0.146 A 
ATOM     11  O   UNL     1      14.842 -21.669  21.988  1.00  0.00    -0.456 OA
ENDROOT
BRANCH   1  12
ATOM     12  C   UNL     1      14.812 -23.851  23.043  1.00  0.00     0.021 A 
ATOM     13  C   UNL     1      15.134 -25.189  22.761  1.00  0.00     0.016 A 
ATOM     14  C   UNL     1      15.490 -26.066  23.788  1.00  0.00     0.051 A 
ATOM     15  C   UNL     1      15.539 -25.620  25.114  1.00  0.00     0.157 A 
ATOM     16  C   UNL     1      14.876 -23.404  24.377  1.00  0.00     0.062 A 
ATOM     17  C   UNL     1      15.235 -24.281  25.408  1.00  0.00     0.158 A 
BRANCH  15  18
ATOM     18  O   UNL     1      15.893 -26.498  26.138  1.00  0.00    -0.504 OA
ATOM     19  H   UNL     1      15.776 -26.250  27.113  1.00  0.00     0.293 HD
ENDBRANCH  15  18
BRANCH  17  20
ATOM     20  O   UNL     1      15.285 -23.802  26.718  1.00  0.00    -0.504 OA
ATOM     21  H   UNL     1      16.125 -23.860  27.279  1.00  0.00     0.293 HD
ENDBRANCH  17  20
ENDBRANCH   1  12
BRANCH   6  22
ATOM     22  O   UNL     1      12.805 -20.490  17.772  1.00  0.00    -0.507 OA
ATOM     23  H   UNL     1      13.248 -20.597  16.866  1.00  0.00     0.293 HD
ENDBRANCH   6  22
BRANCH   8  24
ATOM     24  O   UNL     1      15.192 -17.190  20.361  1.00  0.00    -0.508 OA
ATOM     25  H   UNL     1      15.736 -16.734  19.638  1.00  0.00     0.293 HD
ENDBRANCH   8  24
TORSDOF 5
ENDMDL
MODEL 4
REMARK VINA RESULT:    -6.803      2.646      3.458
REMARK INTER + INTRA:          -8.301
REMARK INTER:                  -7.993
REMARK INTRA:                  -0.308
REMARK UNBOUND:                -0.305
REMARK SMILES O=c1cc(-c2ccc(O)c(O)c2)oc2cc(O)cc(O)c12
REMARK SMILES IDX 4 1 3 2 2 3 1 4 21 5 19 6 18 7 16 8 15 9 14 10 13 11 5 12
REMARK SMILES IDX 6 13 7 14 8 15 12 16 10 17 9 18 11 20 20 22 17 24
REMARK H PARENT 9 19 11 21 20 23 17 25
REMARK Flexibility Score: inf
ROOT
ATOM      1  C   UNL     1      14.947 -23.512  22.161  1.00  0.00     0.138 A 
ATOM      2  C   UNL     1      14.574 -24.394  21.133  1.00  0.00     0.100 A 
ATOM      3  C   UNL     1      14.076 -23.880  19.934  1.00  0.00     0.197 A 
ATOM      4  O   UNL     1      13.744 -24.680  19.018  1.00  0.00    -0.289 OA
ATOM      5  C   UNL     1      13.959 -22.486  19.771  1.00  0.00     0.107 A 
ATOM      6  C   UNL     1      13.464 -21.883  18.590  1.00  0.00     0.134 A 
ATOM      7  C   UNL     1      13.384 -20.486  18.505  1.00  0.00     0.093 A 
ATOM      8  C   UNL     1      13.789 -19.681  19.573  1.00  0.00     0.123 A 
ATOM      9  C   UNL     1      14.279 -20.271  20.742  1.00  0.00     0.094 A 
ATOM     10  C   UNL     1      14.366 -21.663  20.848  1.00  0.00     0.146 A 
ATOM     11  O   UNL     1      14.834 -22.200  21.971  1.00  0.00    -0.456 OA
ENDROOT
BRANCH   1  12
ATOM     12  C   UNL     1      15.484 -24.001  23.456  1.00  0.00     0.021 A 
ATOM     13  C   UNL     1      16.162 -25.231  23.503  1.00  0.00     0.016 A 
ATOM     14  C   UNL     1      16.682 -25.710  24.707  1.00  0.00     0.051 A 
ATOM     15  C   UNL     1      16.543 -24.965  25.885  1.00  0.00     0.157 A 
ATOM     16  C   UNL     1      15.357 -23.250  24.641  1.00  0.00     0.062 A 
ATOM     17  C   UNL     1      15.880 -23.727  25.849  1.00  0.00     0.158 A 
BRANCH  15  18
ATOM     18  O   UNL     1      17.062 -25.446  27.086  1.00  0.00    -0.504 OA
ATOM     19  H   UNL     1      16.575 -25.315  27.964  1.00  0.00     0.293 HD
ENDBRANCH  15  18
BRANCH  17  20
ATOM     20  O   UNL     1      15.734 -22.956  27.002  1.00  0.00    -0.504 OA
ATOM     21  H   UNL     1      15.711 -21.944  26.973  1.00  0.00     0.293 HD
ENDBRANCH  17  20
ENDBRANCH   1  12
BRANCH   6  22
ATOM     22  O   UNL     1      13.053 -22.660  17.507  1.00  0.00    -0.507 OA
ATOM     23  H   UNL     1      13.330 -22.440  16.557  1.00  0.00     0.293 HD
ENDBRANCH   6  22
BRANCH   8  24
ATOM     24  O   UNL     1      13.699 -18.296  19.461  1.00  0.00    -0.508 OA
ATOM     25  H   UNL     1      14.387 -17.684  19.885  1.00  0.00     0.293 HD
ENDBRANCH   8  24
TORSDOF 5
ENDMDL
MODEL 5
REMARK VINA RESULT:    -6.649      2.363      7.302
REMARK INTER + INTRA:          -8.120
REMARK INTER:                  -7.809
REMARK INTRA:                  -0.311
REMARK UNBOUND:                -0.305
REMARK SMILES O=c1cc(-c2ccc(O)c(O)c2)oc2cc(O)cc(O)c12
REMARK SMILES IDX 4 1 3 2 2 3 1 4 21 5 19 6 18 7 16 8 15 9 14 10 13 11 5 12
REMARK SMILES IDX 6 13 7 14 8 15 12 16 10 17 9 18 11 20 20 22 17 24
REMARK H PARENT 9 19 11 21 20 23 17 25
REMARK Flexibility Score: inf
ROOT
ATOM      1  C   UNL     1      14.704 -22.133  21.218  1.00  0.00     0.138 A 
ATOM      2  C   UNL     1      14.938 -23.385  20.625  1.00  0.00     0.100 A 
ATOM      3  C   UNL     1      15.276 -24.474  21.431  1.00  0.00     0.197 A 
ATOM      4  O   UNL     1      15.485 -25.593  20.889  1.00  0.00    -0.289 OA
ATOM      5  C   UNL     1      15.374 -24.303  22.826  1.00  0.00     0.107 A 
ATOM      6  C   UNL     1      15.711 -25.352  23.713  1.00  0.00     0.134 A 
ATOM      7  C   UNL     1      15.782 -25.101  25.091  1.00  0.00     0.093 A 
ATOM      8  C   UNL     1      15.522 -23.826  25.598  1.00  0.00     0.123 A 
ATOM      9  C   UNL     1      15.187 -22.785  24.726  1.00  0.00     0.094 A 
ATOM     10  C   UNL     1      15.112 -23.014  23.349  1.00  0.00     0.146 A 
ATOM     11  O   UNL     1      14.794 -22.008  22.540  1.00  0.00    -0.456 OA
ENDROOT
BRANCH   1  12
ATOM     12  C   UNL     1      14.340 -20.940  20.412  1.00  0.00     0.021 A 
ATOM     13  C   UNL     1      13.752 -21.114  19.148  1.00  0.00     0.016 A 
ATOM     14  C   UNL     1      13.394 -20.009  18.373  1.00  0.00     0.051 A 
ATOM     15  C   UNL     1      13.609 -18.710  18.850  1.00  0.00     0.157 A 
ATOM     16  C   UNL     1      14.543 -19.632  20.892  1.00  0.00     0.062 A 
ATOM     17  C   UNL     1      14.182 -18.522  20.118  1.00  0.00     0.158 A 
BRANCH  15  18
ATOM     18  O   UNL     1      13.251 -17.609  18.073  1.00  0.00    -0.504 OA
ATOM     19  H   UNL     1      13.333 -16.663  18.427  1.00  0.00     0.293 HD
ENDBRANCH  15  18
BRANCH  17  20
ATOM     20  O   UNL     1      14.400 -17.242  20.627  1.00  0.00    -0.504 OA
ATOM     21  H   UNL     1      14.717 -17.088  21.576  1.00  0.00     0.293 HD
ENDBRANCH  17  20
ENDBRANCH   1  12
BRANCH   6  22
ATOM     22  O   UNL     1      15.977 -26.637  23.237  1.00  0.00    -0.507 OA
ATOM     23  H   UNL     1      16.287 -26.799  22.285  1.00  0.00     0.293 HD
ENDBRANCH   6  22
BRANCH   8  24
ATOM     24  O   UNL     1      15.598 -23.604  26.971  1.00  0.00    -0.508 OA
ATOM     25  H   UNL     1      15.969 -24.304  27.602  1.00  0.00     0.293 HD
ENDBRANCH   8  24
TORSDOF 5
ENDMDL
MODEL 6
REMARK VINA RESULT:    -6.552      2.763      7.351
REMARK INTER + INTRA:          -8.006
REMARK INTER:                  -7.709
REMARK INTRA:                  -0.297
REMARK UNBOUND:                -0.305
REMARK SMILES O=c1cc(-c2ccc(O)c(O)c2)oc2cc(O)cc(O)c12
REMARK SMILES IDX 4 1 3 2 2 3 1 4 21 5 19 6 18 7 16 8 15 9 14 10 13 11 5 12
REMARK SMILES IDX 6 13 7 14 8 15 12 16 10 17 9 18 11 20 20 22 17 24
REMARK H PARENT 9 19 11 21 20 23 17 25
REMARK Flexibility Score: inf
ROOT
ATOM      1  C   UNL     1      14.745 -23.388  21.804  1.00  0.00     0.138 A 
ATOM      2  C   UNL     1      14.909 -24.774  21.640  1.00  0.00     0.100 A 
ATOM      3  C   UNL     1      15.381 -25.541  22.707  1.00  0.00     0.197 A 
ATOM      4  O   UNL     1      15.524 -26.783  22.551  1.00  0.00    -0.289 OA
ATOM      5  C   UNL     1      15.682 -24.915  23.933  1.00  0.00     0.107 A 
ATOM      6  C   UNL     1      16.164 -25.617  25.064  1.00  0.00     0.134 A 
ATOM      7  C   UNL     1      16.435 -24.921  26.250  1.00  0.00     0.093 A 
ATOM      8  C   UNL     1      16.232 -23.542  26.330  1.00  0.00     0.123 A 
ATOM      9  C   UNL     1      15.755 -22.842  25.217  1.00  0.00     0.094 A 
ATOM     10  C   UNL     1      15.480 -23.517  24.023  1.00  0.00     0.146 A 
ATOM     11  O   UNL     1      15.029 -22.830  22.979  1.00  0.00    -0.456 OA
ENDROOT
BRANCH   1  12
ATOM     12  C   UNL     1      14.247 -22.523  20.705  1.00  0.00     0.021 A 
ATOM     13  C   UNL     1      14.230 -21.129  20.877  1.00  0.00     0.016 A 
ATOM     14  C   UNL     1      13.772 -20.293  19.856  1.00  0.00     0.051 A 
ATOM     15  C   UNL     1      13.332 -20.834  18.642  1.00  0.00     0.157 A 
ATOM     16  C   UNL     1      13.814 -23.061  19.477  1.00  0.00     0.062 A 
ATOM     17  C   UNL     1      13.358 -22.225  18.451  1.00  0.00     0.158 A 
BRANCH  15  18
ATOM     18  O   UNL     1      12.875 -19.997  17.625  1.00  0.00    -0.504 OA
ATOM     19  H   UNL     1      13.516 -19.538  16.988  1.00  0.00     0.293 HD
ENDBRANCH  15  18
BRANCH  17  20
ATOM     20  O   UNL     1      12.937 -22.795  17.250  1.00  0.00    -0.504 OA
ATOM     21  H   UNL     1      11.965 -23.020  17.073  1.00  0.00     0.293 HD
ENDBRANCH  17  20
ENDBRANCH   1  12
BRANCH   6  22
ATOM     22  O   UNL     1      16.376 -26.996  25.014  1.00  0.00    -0.507 OA
ATOM     23  H   UNL     1      17.161 -27.397  24.512  1.00  0.00     0.293 HD
ENDBRANCH   6  22
BRANCH   8  24
ATOM     24  O   UNL     1      16.509 -22.874  27.521  1.00  0.00    -0.508 OA
ATOM     25  H   UNL     1      16.401 -21.870  27.604  1.00  0.00     0.293 HD
ENDBRANCH   8  24
TORSDOF 5
ENDMDL
MODEL 7
REMARK VINA RESULT:    -6.468      3.093      3.559
REMARK INTER + INTRA:          -7.907
REMARK INTER:                  -7.630
REMARK INTRA:                  -0.277
REMARK UNBOUND:                -0.305
REMARK SMILES O=c1cc(-c2ccc(O)c(O)c2)oc2cc(O)cc(O)c12
REMARK SMILES IDX 4 1 3 2 2 3 1 4 21 5 19 6 18 7 16 8 15 9 14 10 13 11 5 12
REMARK SMILES IDX 6 13 7 14 8 15 12 16 10 17 9 18 11 20 20 22 17 24
REMARK H PARENT 9 19 11 21 20 23 17 25
REMARK Flexibility Score: inf
ROOT
ATOM      1  C   UNL     1      15.288 -22.805  22.629  1.00  0.00     0.138 A 
ATOM      2  C   UNL     1      15.397 -21.429  22.363  1.00  0.00     0.100 A 
ATOM      3  C   UNL     1      14.867 -20.916  21.178  1.00  0.00     0.197 A 
ATOM      4  O   UNL     1      14.969 -19.680  20.948  1.00  0.00    -0.289 OA
ATOM      5  C   UNL     1      14.227 -21.782  20.269  1.00  0.00     0.107 A 
ATOM      6  C   UNL     1      13.664 -21.344  19.047  1.00  0.00     0.134 A 
ATOM      7  C   UNL     1      13.039 -22.270  18.199  1.00  0.00     0.093 A 
ATOM      8  C   UNL     1      12.965 -23.620  18.548  1.00  0.00     0.123 A 
ATOM      9  C   UNL     1      13.519 -24.059  19.755  1.00  0.00     0.094 A 
ATOM     10  C   UNL     1      14.148 -23.152  20.614  1.00  0.00     0.146 A 
ATOM     11  O   UNL     1      14.669 -23.594  21.755  1.00  0.00    -0.456 OA
ENDROOT
BRANCH   1  12
ATOM     12  C   UNL     1      15.832 -23.407  23.873  1.00  0.00     0.021 A 
ATOM     13  C   UNL     1      16.604 -24.578  23.793  1.00  0.00     0.016 A 
ATOM     14  C   UNL     1      17.133 -25.160  24.947  1.00  0.00     0.051 A 
ATOM     15  C   UNL     1      16.909 -24.577  26.201  1.00  0.00     0.157 A 
ATOM     16  C   UNL     1      15.620 -22.818  25.135  1.00  0.00     0.062 A 
ATOM     17  C   UNL     1      16.152 -23.398  26.293  1.00  0.00     0.158 A 
BRANCH  15  18
ATOM     18  O   UNL     1      17.437 -25.161  27.351  1.00  0.00    -0.504 OA
ATOM     19  H   UNL     1      18.313 -24.846  27.750  1.00  0.00     0.293 HD
ENDBRANCH  15  18
BRANCH  17  20
ATOM     20  O   UNL     1      15.919 -22.786  27.525  1.00  0.00    -0.504 OA
ATOM     21  H   UNL     1      16.634 -22.254  28.005  1.00  0.00     0.293 HD
ENDBRANCH  17  20
ENDBRANCH   1  12
BRANCH   6  22
ATOM     22  O   UNL     1      13.722 -20.001  18.671  1.00  0.00    -0.507 OA
ATOM     23  H   UNL     1      13.739 -19.256  19.358  1.00  0.00     0.293 HD
ENDBRANCH   6  22
BRANCH   8  24
ATOM     24  O   UNL     1      12.338 -24.519  17.688  1.00  0.00    -0.508 OA
ATOM     25  H   UNL     1      12.769 -24.808  16.817  1.00  0.00     0.293 HD
ENDBRANCH   8  24
TORSDOF 5
ENDMDL
MODEL 8
REMARK VINA RESULT:    -6.391      3.399      6.961
REMARK INTER + INTRA:          -7.816
REMARK INTER:                  -7.528
REMARK INTRA:                  -0.288
REMARK UNBOUND:                -0.305
REMARK SMILES O=c1cc(-c2ccc(O)c(O)c2)oc2cc(O)cc(O)c12
REMARK SMILES IDX 4 1 3 2 2 3 1 4 21 5 19 6 18 7 16 8 15 9 14 10 13 11 5 12
REMARK SMILES IDX 6 13 7 14 8 15 12 16 10 17 9 18 11 20 20 22 17 24
REMARK H PARENT 9 19 11 21 20 23 17 25
REMARK Flexibility Score: inf
ROOT
ATOM      1  C   UNL     1      14.373 -19.186  20.645  1.00  0.00     0.138 A 
ATOM      2  C   UNL     1      13.090 -19.070  20.084  1.00  0.00     0.100 A 
ATOM      3  C   UNL     1      12.423 -20.218  19.652  1.00  0.00     0.197 A 
ATOM      4  O   UNL     1      11.273 -20.104  19.150  1.00  0.00    -0.289 OA
ATOM      5  C   UNL     1      13.045 -21.475  19.787  1.00  0.00     0.107 A 
ATOM      6  C   UNL     1      12.440 -22.687  19.374  1.00  0.00     0.134 A 
ATOM      7  C   UNL     1      13.123 -23.899  19.549  1.00  0.00     0.093 A 
ATOM      8  C   UNL     1      14.394 -23.924  20.127  1.00  0.00     0.123 A 
ATOM      9  C   UNL     1      14.997 -22.731  20.538  1.00  0.00     0.094 A 
ATOM     10  C   UNL     1      14.333 -21.511  20.371  1.00  0.00     0.146 A 
ATOM     11  O   UNL     1      14.927 -20.390  20.768  1.00  0.00    -0.456 OA
ENDROOT
BRANCH   1  12
ATOM     12  C   UNL     1      15.129 -18.001  21.123  1.00  0.00     0.021 A 
ATOM     13  C   UNL     1      16.534 -18.013  21.078  1.00  0.00     0.016 A 
ATOM     14  C   UNL     1      17.268 -16.908  21.515  1.00  0.00     0.051 A 
ATOM     15  C   UNL     1      16.612 -15.768  21.995  1.00  0.00     0.157 A 
ATOM     16  C   UNL     1      14.475 -16.847  21.596  1.00  0.00     0.062 A 
ATOM     17  C   UNL     1      15.209 -15.736  22.031  1.00  0.00     0.158 A 
BRANCH  15  18
ATOM     18  O   UNL     1      17.348 -14.667  22.432  1.00  0.00    -0.504 OA
ATOM     19  H   UNL     1      18.048 -14.752  23.158  1.00  0.00     0.293 HD
ENDBRANCH  15  18
BRANCH  17  20
ATOM     20  O   UNL     1      14.525 -14.612  22.494  1.00  0.00    -0.504 OA
ATOM     21  H   UNL     1      14.503 -13.744  21.974  1.00  0.00     0.293 HD
ENDBRANCH  17  20
ENDBRANCH   1  12
BRANCH   6  22
ATOM     22  O   UNL     1      11.171 -22.693  18.794  1.00  0.00    -0.507 OA
ATOM     23  H   UNL     1      11.027 -22.434  17.824  1.00  0.00     0.293 HD
ENDBRANCH   6  22
BRANCH   8  24
ATOM     24  O   UNL     1      15.050 -25.142  20.290  1.00  0.00    -0.508 OA
ATOM     25  H   UNL     1      15.930 -25.337  19.827  1.00  0.00     0.293 HD
ENDBRANCH   8  24
TORSDOF 5
ENDMDL
MODEL 9
REMARK VINA RESULT:    -6.327      3.777      5.877
REMARK INTER + INTRA:          -7.742
REMARK INTER:                  -7.438
REMARK INTRA:                  -0.304
REMARK UNBOUND:                -0.305
REMARK SMILES O=c1cc(-c2ccc(O)c(O)c2)oc2cc(O)cc(O)c12
REMARK SMILES IDX 4 1 3 2 2 3 1 4 21 5 19 6 18 7 16 8 15 9 14 10 13 11 5 12
REMARK SMILES IDX 6 13 7 14 8 15 12 16 10 17 9 18 11 20 20 22 17 24
REMARK H PARENT 9 19 11 21 20 23 17 25
REMARK Flexibility Score: inf
ROOT
ATOM      1  C   UNL     1      14.441 -19.091  20.392  1.00  0.00     0.138 A 
ATOM      2  C   UNL     1      15.813 -19.218  20.115  1.00  0.00     0.100 A 
ATOM      3  C   UNL     1      16.696 -18.232  20.557  1.00  0.00     0.197 A 
ATOM      4  O   UNL     1      17.925 -18.355  20.304  1.00  0.00    -0.289 OA
ATOM      5  C   UNL     1      16.201 -17.127  21.277  1.00  0.00     0.107 A 
ATOM      6  C   UNL     1      17.027 -16.084  21.761  1.00  0.00     0.134 A 
ATOM      7  C   UNL     1      16.457 -15.020  22.475  1.00  0.00     0.093 A 
ATOM      8  C   UNL     1      15.082 -14.979  22.716  1.00  0.00     0.123 A 
ATOM      9  C   UNL     1      14.260 -16.007  22.241  1.00  0.00     0.094 A 
ATOM     10  C   UNL     1      14.809 -17.076  21.526  1.00  0.00     0.146 A 
ATOM     11  O   UNL     1      14.007 -18.040  21.084  1.00  0.00    -0.456 OA
ENDROOT
BRANCH   1  12
ATOM     12  C   UNL     1      13.455 -20.109  19.947  1.00  0.00     0.021 A 
ATOM     13  C   UNL     1      13.834 -21.461  19.897  1.00  0.00     0.016 A 
ATOM     14  C   UNL     1      12.923 -22.439  19.489  1.00  0.00     0.051 A 
ATOM     15  C   UNL     1      11.616 -22.084  19.134  1.00  0.00     0.157 A 
ATOM     16  C   UNL     1      12.135 -19.759  19.601  1.00  0.00     0.062 A 
ATOM     17  C   UNL     1      11.220 -20.738  19.195  1.00  0.00     0.158 A 
BRANCH  15  18
ATOM     18  O   UNL     1      10.709 -23.062  18.727  1.00  0.00    -0.504 OA
ATOM     19  H   UNL     1       9.936 -22.843  18.109  1.00  0.00     0.293 HD
ENDBRANCH  15  18
BRANCH  17  20
ATOM     20  O   UNL     1       9.922 -20.353  18.858  1.00  0.00    -0.504 OA
ATOM     21  H   UNL     1       9.151 -20.436  19.508  1.00  0.00     0.293 HD
ENDBRANCH  17  20
ENDBRANCH   1  12
BRANCH   6  22
ATOM     22  O   UNL     1      18.404 -16.098  21.536  1.00  0.00    -0.507 OA
ATOM     23  H   UNL     1      18.920 -15.248  21.334  1.00  0.00     0.293 HD
ENDBRANCH   6  22
BRANCH   8  24
ATOM     24  O   UNL     1      14.541 -13.912  23.428  1.00  0.00    -0.508 OA
ATOM     25  H   UNL     1      15.095 -13.378  24.087  1.00  0.00     0.293 HD
ENDBRANCH   8  24
TORSDOF 5
ENDMDL
