MODEL 1
REMARK VINA RESULT:     4.438      0.000      0.000
REMARK INTER + INTRA:           4.954
REMARK INTER:                   5.216
REMARK INTRA:                  -0.262
REMARK UNBOUND:                -0.262
REMARK SMILES O=c1cc(-c2ccc(O)c(O)c2)oc2cc(O)cc(O)c12
REMARK SMILES IDX 4 1 3 2 2 3 1 4 21 5 19 6 18 7 16 8 15 9 14 10 13 11 5 12
REMARK SMILES IDX 6 13 7 14 8 15 12 16 10 17 9 18 11 20 20 22 17 24
REMARK H PARENT 9 19 11 21 20 23 17 25
REMARK Flexibility Score: inf
ROOT
ATOM      1  C   UNL     1     -18.256  33.896  -9.516  1.00  0.00     0.138 A 
ATOM      2  C   UNL     1     -18.180  33.588 -10.881  1.00  0.00     0.100 A 
ATOM      3  C   UNL     1     -16.955  33.688 -11.544  1.00  0.00     0.197 A 
ATOM      4  O   UNL     1     -16.931  33.464 -12.782  1.00  0.00    -0.289 OA
ATOM      5  C   UNL     1     -15.797  34.069 -10.828  1.00  0.00     0.107 A 
ATOM      6  C   UNL     1     -14.488  34.166 -11.389  1.00  0.00     0.134 A 
ATOM      7  C   UNL     1     -13.438  34.665 -10.610  1.00  0.00     0.093 A 
ATOM      8  C   UNL     1     -13.636  35.016  -9.272  1.00  0.00     0.123 A 
ATOM      9  C   UNL     1     -14.897  34.874  -8.699  1.00  0.00     0.094 A 
ATOM     10  C   UNL     1     -15.973  34.411  -9.459  1.00  0.00     0.146 A 
ATOM     11  O   UNL     1     -17.163  34.305  -8.879  1.00  0.00    -0.456 OA
ENDROOT
BRANCH   1  12
ATOM     12  C   UNL     1     -19.532  33.805  -8.761  1.00  0.00     0.021 A 
ATOM     13  C   UNL     1     -19.872  32.657  -8.020  1.00  0.00     0.016 A 
ATOM     14  C   UNL     1     -21.076  32.603  -7.311  1.00  0.00     0.051 A 
ATOM     15  C   UNL     1     -21.954  33.693  -7.325  1.00  0.00     0.157 A 
ATOM     16  C   UNL     1     -20.414  34.900  -8.759  1.00  0.00     0.062 A 
ATOM     17  C   UNL     1     -21.622  34.845  -8.048  1.00  0.00     0.158 A 
BRANCH  15  18
ATOM     18  O   UNL     1     -23.155  33.642  -6.620  1.00  0.00    -0.504 OA
ATOM     19  H   UNL     1     -23.896  34.314  -6.786  1.00  0.00     0.293 HD
ENDBRANCH  15  18
BRANCH  17  20
ATOM     20  O   UNL     1     -22.497  35.930  -8.057  1.00  0.00    -0.504 OA
ATOM     21  H   UNL     1     -22.420  36.667  -8.748  1.00  0.00     0.293 HD
ENDBRANCH  17  20
ENDBRANCH   1  12
BRANCH   6  22
ATOM     22  O   UNL     1     -14.166  33.763 -12.689  1.00  0.00    -0.507 OA
ATOM     23  H   UNL     1     -14.306  34.321 -13.517  1.00  0.00     0.293 HD
ENDBRANCH   6  22
BRANCH   8  24
ATOM     24  O   UNL     1     -12.581  35.497  -8.501  1.00  0.00    -0.508 OA
ATOM     25  H   UNL     1     -12.581  36.441  -8.132  1.00  0.00     0.293 HD
ENDBRANCH   8  24
TORSDOF 5
ENDMDL
MODEL 2
REMARK VINA RESULT:     4.748     11.767     14.892
REMARK INTER + INTRA:           5.319
REMARK INTER:                   5.599
REMARK INTRA:                  -0.280
REMARK UNBOUND:                -0.262
REMARK SMILES O=c1cc(-c2ccc(O)c(O)c2)oc2cc(O)cc(O)c12
REMARK SMILES IDX 4 1 3 2 2 3 1 4 21 5 19 6 18 7 16 8 15 9 14 10 13 11 5 12
REMARK SMILES IDX 6 13 7 14 8 15 12 16 10 17 9 18 11 20 20 22 17 24
REMARK H PARENT 9 19 11 21 20 23 17 25
REMARK Flexibility Score: inf
ROOT
ATOM      1  C   UNL     1      -7.894  36.248   0.281  1.00  0.00     0.138 A 
ATOM      2  C   UNL     1      -7.472  37.323   1.075  1.00  0.00     0.100 A 
ATOM      3  C   UNL     1      -6.382  37.161   1.932  1.00  0.00     0.197 A 
ATOM      4  O   UNL     1      -6.065  38.125   2.677  1.00  0.00    -0.289 OA
ATOM      5  C   UNL     1      -5.694  35.926   1.971  1.00  0.00     0.107 A 
ATOM      6  C   UNL     1      -4.546  35.659   2.775  1.00  0.00     0.134 A 
ATOM      7  C   UNL     1      -4.020  34.362   2.817  1.00  0.00     0.093 A 
ATOM      8  C   UNL     1      -4.563  33.337   2.038  1.00  0.00     0.123 A 
ATOM      9  C   UNL     1      -5.650  33.601   1.208  1.00  0.00     0.094 A 
ATOM     10  C   UNL     1      -6.220  34.876   1.170  1.00  0.00     0.146 A 
ATOM     11  O   UNL     1      -7.265  35.081   0.377  1.00  0.00    -0.456 OA
ENDROOT
BRANCH   1  12
ATOM     12  C   UNL     1      -9.046  36.366  -0.649  1.00  0.00     0.021 A 
ATOM     13  C   UNL     1      -9.052  37.298  -1.704  1.00  0.00     0.016 A 
ATOM     14  C   UNL     1     -10.147  37.380  -2.570  1.00  0.00     0.051 A 
ATOM     15  C   UNL     1     -11.246  36.530  -2.403  1.00  0.00     0.157 A 
ATOM     16  C   UNL     1     -10.149  35.506  -0.497  1.00  0.00     0.062 A 
ATOM     17  C   UNL     1     -11.247  35.590  -1.366  1.00  0.00     0.158 A 
BRANCH  15  18
ATOM     18  O   UNL     1     -12.338  36.610  -3.264  1.00  0.00    -0.504 OA
ATOM     19  H   UNL     1     -12.763  37.500  -3.500  1.00  0.00     0.293 HD
ENDBRANCH  15  18
BRANCH  17  20
ATOM     20  O   UNL     1     -12.341  34.742  -1.204  1.00  0.00    -0.504 OA
ATOM     21  H   UNL     1     -13.202  35.064  -0.776  1.00  0.00     0.293 HD
ENDBRANCH  17  20
ENDBRANCH   1  12
BRANCH   6  22
ATOM     22  O   UNL     1      -3.876  36.630   3.525  1.00  0.00    -0.507 OA
ATOM     23  H   UNL     1      -4.324  37.311   4.119  1.00  0.00     0.293 HD
ENDBRANCH   6  22
BRANCH   8  24
ATOM     24  O   UNL     1      -4.022  32.054   2.075  1.00  0.00    -0.508 OA
ATOM     25  H   UNL     1      -4.612  31.230   2.098  1.00  0.00     0.293 HD
ENDBRANCH   8  24
TORSDOF 5
ENDMDL
MODEL 3
REMARK VINA RESULT:     5.572     11.892     14.825
REMARK INTER + INTRA:           6.287
REMARK INTER:                   6.563
REMARK INTRA:                  -0.276
REMARK UNBOUND:                -0.262
REMARK SMILES O=c1cc(-c2ccc(O)c(O)c2)oc2cc(O)cc(O)c12
REMARK SMILES IDX 4 1 3 2 2 3 1 4 21 5 19 6 18 7 16 8 15 9 14 10 13 11 5 12
REMARK SMILES IDX 6 13 7 14 8 15 12 16 10 17 9 18 11 20 20 22 17 24
REMARK H PARENT 9 19 11 21 20 23 17 25
REMARK Flexibility Score: inf
ROOT
ATOM      1  C   UNL     1      -7.903  35.540   0.257  1.00  0.00     0.138 A 
ATOM      2  C   UNL     1      -7.376  34.243   0.196  1.00  0.00     0.100 A 
ATOM      3  C   UNL     1      -6.225  33.930   0.922  1.00  0.00     0.197 A 
ATOM      4  O   UNL     1      -5.741  32.775   0.799  1.00  0.00    -0.289 OA
ATOM      5  C   UNL     1      -5.618  34.914   1.737  1.00  0.00     0.107 A 
ATOM      6  C   UNL     1      -4.467  34.699   2.552  1.00  0.00     0.134 A 
ATOM      7  C   UNL     1      -3.887  35.780   3.226  1.00  0.00     0.093 A 
ATOM      8  C   UNL     1      -4.451  37.057   3.163  1.00  0.00     0.123 A 
ATOM      9  C   UNL     1      -5.606  37.266   2.413  1.00  0.00     0.094 A 
ATOM     10  C   UNL     1      -6.189  36.216   1.701  1.00  0.00     0.146 A 
ATOM     11  O   UNL     1      -7.282  36.461   0.987  1.00  0.00    -0.456 OA
ENDROOT
BRANCH   1  12
ATOM     12  C   UNL     1      -9.125  35.926  -0.493  1.00  0.00     0.021 A 
ATOM     13  C   UNL     1      -9.187  37.115  -1.243  1.00  0.00     0.016 A 
ATOM     14  C   UNL     1     -10.348  37.448  -1.948  1.00  0.00     0.051 A 
ATOM     15  C   UNL     1     -11.460  36.598  -1.921  1.00  0.00     0.157 A 
ATOM     16  C   UNL     1     -10.242  35.071  -0.483  1.00  0.00     0.062 A 
ATOM     17  C   UNL     1     -11.406  35.406  -1.189  1.00  0.00     0.158 A 
BRANCH  15  18
ATOM     18  O   UNL     1     -12.619  36.927  -2.621  1.00  0.00    -0.504 OA
ATOM     19  H   UNL     1     -13.228  36.213  -3.003  1.00  0.00     0.293 HD
ENDBRANCH  15  18
BRANCH  17  20
ATOM     20  O   UNL     1     -12.514  34.560  -1.167  1.00  0.00    -0.504 OA
ATOM     21  H   UNL     1     -12.638  33.868  -0.436  1.00  0.00     0.293 HD
ENDBRANCH  17  20
ENDBRANCH   1  12
BRANCH   6  22
ATOM     22  O   UNL     1      -3.875  33.448   2.751  1.00  0.00    -0.507 OA
ATOM     23  H   UNL     1      -2.900  33.240   2.597  1.00  0.00     0.293 HD
ENDBRANCH   6  22
BRANCH   8  24
ATOM     24  O   UNL     1      -3.875  38.123   3.850  1.00  0.00    -0.508 OA
ATOM     25  H   UNL     1      -3.760  38.105   4.856  1.00  0.00     0.293 HD
ENDBRANCH   8  24
TORSDOF 5
ENDMDL
MODEL 4
REMARK VINA RESULT:     5.955      1.436      2.908
REMARK INTER + INTRA:           6.737
REMARK INTER:                   7.005
REMARK INTRA:                  -0.267
REMARK UNBOUND:                -0.262
REMARK SMILES O=c1cc(-c2ccc(O)c(O)c2)oc2cc(O)cc(O)c12
REMARK SMILES IDX 4 1 3 2 2 3 1 4 21 5 19 6 18 7 16 8 15 9 14 10 13 11 5 12
REMARK SMILES IDX 6 13 7 14 8 15 12 16 10 17 9 18 11 20 20 22 17 24
REMARK H PARENT 9 19 11 21 20 23 17 25
REMARK Flexibility Score: inf
ROOT
ATOM      1  C   UNL     1     -18.967  33.920  -9.062  1.00  0.00     0.138 A 
ATOM      2  C   UNL     1     -17.794  34.041  -8.305  1.00  0.00     0.100 A 
ATOM      3  C   UNL     1     -16.554  34.021  -8.947  1.00  0.00     0.197 A 
ATOM      4  O   UNL     1     -15.517  34.070  -8.235  1.00  0.00    -0.289 OA
ATOM      5  C   UNL     1     -16.492  33.908 -10.355  1.00  0.00     0.107 A 
ATOM      6  C   UNL     1     -15.287  33.916 -11.120  1.00  0.00     0.134 A 
ATOM      7  C   UNL     1     -15.343  33.682 -12.499  1.00  0.00     0.093 A 
ATOM      8  C   UNL     1     -16.566  33.498 -13.150  1.00  0.00     0.123 A 
ATOM      9  C   UNL     1     -17.751  33.542 -12.421  1.00  0.00     0.094 A 
ATOM     10  C   UNL     1     -17.727  33.740 -11.039  1.00  0.00     0.146 A 
ATOM     11  O   UNL     1     -18.879  33.760 -10.379  1.00  0.00    -0.456 OA
ENDROOT
BRANCH   1  12
ATOM     12  C   UNL     1     -20.312  33.938  -8.432  1.00  0.00     0.021 A 
ATOM     13  C   UNL     1     -20.778  32.861  -7.652  1.00  0.00     0.016 A 
ATOM     14  C   UNL     1     -22.044  32.910  -7.063  1.00  0.00     0.051 A 
ATOM     15  C   UNL     1     -22.862  34.034  -7.235  1.00  0.00     0.157 A 
ATOM     16  C   UNL     1     -21.134  35.068  -8.588  1.00  0.00     0.062 A 
ATOM     17  C   UNL     1     -22.405  35.115  -7.998  1.00  0.00     0.158 A 
BRANCH  15  18
ATOM     18  O   UNL     1     -24.125  34.085  -6.650  1.00  0.00    -0.504 OA
ATOM     19  H   UNL     1     -24.402  33.427  -5.930  1.00  0.00     0.293 HD
ENDBRANCH  15  18
BRANCH  17  20
ATOM     20  O   UNL     1     -23.220  36.234  -8.164  1.00  0.00    -0.504 OA
ATOM     21  H   UNL     1     -23.120  36.848  -8.965  1.00  0.00     0.293 HD
ENDBRANCH  17  20
ENDBRANCH   1  12
BRANCH   6  22
ATOM     22  O   UNL     1     -14.023  34.174 -10.581  1.00  0.00    -0.507 OA
ATOM     23  H   UNL     1     -13.350  34.816 -10.971  1.00  0.00     0.293 HD
ENDBRANCH   6  22
BRANCH   8  24
ATOM     24  O   UNL     1     -16.612  33.281 -14.525  1.00  0.00    -0.508 OA
ATOM     25  H   UNL     1     -17.493  33.211 -15.022  1.00  0.00     0.293 HD
ENDBRANCH   8  24
TORSDOF 5
ENDMDL
MODEL 5
REMARK VINA RESULT:     6.548      8.494     11.249
REMARK INTER + INTRA:           7.434
REMARK INTER:                   7.698
REMARK INTRA:                  -0.264
REMARK UNBOUND:                -0.262
REMARK SMILES O=c1cc(-c2ccc(O)c(O)c2)oc2cc(O)cc(O)c12
REMARK SMILES IDX 4 1 3 2 2 3 1 4 21 5 19 6 18 7 16 8 15 9 14 10 13 11 5 12
REMARK SMILES IDX 6 13 7 14 8 15 12 16 10 17 9 18 11 20 20 22 17 24
REMARK H PARENT 9 19 11 21 20 23 17 25
REMARK Flexibility Score: inf
ROOT
ATOM      1  C   UNL     1     -22.126  25.642  -7.739  1.00  0.00     0.138 A 
ATOM      2  C   UNL     1     -20.892  24.980  -7.686  1.00  0.00     0.100 A 
ATOM      3  C   UNL     1     -20.446  24.447  -6.474  1.00  0.00     0.197 A 
ATOM      4  O   UNL     1     -19.306  23.914  -6.445  1.00  0.00    -0.289 OA
ATOM      5  C   UNL     1     -21.255  24.553  -5.319  1.00  0.00     0.107 A 
ATOM      6  C   UNL     1     -20.922  24.013  -4.041  1.00  0.00     0.134 A 
ATOM      7  C   UNL     1     -21.748  24.280  -2.942  1.00  0.00     0.093 A 
ATOM      8  C   UNL     1     -22.926  25.017  -3.088  1.00  0.00     0.123 A 
ATOM      9  C   UNL     1     -23.288  25.502  -4.343  1.00  0.00     0.094 A 
ATOM     10  C   UNL     1     -22.468  25.282  -5.451  1.00  0.00     0.146 A 
ATOM     11  O   UNL     1     -22.842  25.775  -6.626  1.00  0.00    -0.456 OA
ENDROOT
BRANCH   1  12
ATOM     12  C   UNL     1     -22.649  26.224  -9.000  1.00  0.00     0.021 A 
ATOM     13  C   UNL     1     -23.421  25.466  -9.901  1.00  0.00     0.016 A 
ATOM     14  C   UNL     1     -23.909  26.044 -11.077  1.00  0.00     0.051 A 
ATOM     15  C   UNL     1     -23.641  27.387 -11.369  1.00  0.00     0.157 A 
ATOM     16  C   UNL     1     -22.396  27.576  -9.295  1.00  0.00     0.062 A 
ATOM     17  C   UNL     1     -22.885  28.155 -10.476  1.00  0.00     0.158 A 
BRANCH  15  18
ATOM     18  O   UNL     1     -24.125  27.965 -12.540  1.00  0.00    -0.504 OA
ATOM     19  H   UNL     1     -23.942  27.554 -13.449  1.00  0.00     0.293 HD
ENDBRANCH  15  18
BRANCH  17  20
ATOM     20  O   UNL     1     -22.623  29.492 -10.768  1.00  0.00    -0.504 OA
ATOM     21  H   UNL     1     -21.864  29.761 -11.383  1.00  0.00     0.293 HD
ENDBRANCH  17  20
ENDBRANCH   1  12
BRANCH   6  22
ATOM     22  O   UNL     1     -19.813  23.195  -3.804  1.00  0.00    -0.507 OA
ATOM     23  H   UNL     1     -19.774  22.464  -3.110  1.00  0.00     0.293 HD
ENDBRANCH   6  22
BRANCH   8  24
ATOM     24  O   UNL     1     -23.749  25.264  -1.992  1.00  0.00    -0.508 OA
ATOM     25  H   UNL     1     -23.388  25.674  -1.139  1.00  0.00     0.293 HD
ENDBRANCH   8  24
TORSDOF 5
ENDMDL
MODEL 6
REMARK VINA RESULT:     7.256      1.549      7.369
REMARK INTER + INTRA:           8.267
REMARK INTER:                   8.534
REMARK INTRA:                  -0.268
REMARK UNBOUND:                -0.262
REMARK SMILES O=c1cc(-c2ccc(O)c(O)c2)oc2cc(O)cc(O)c12
REMARK SMILES IDX 4 1 3 2 2 3 1 4 21 5 19 6 18 7 16 8 15 9 14 10 13 11 5 12
REMARK SMILES IDX 6 13 7 14 8 15 12 16 10 17 9 18 11 20 20 22 17 24
REMARK H PARENT 9 19 11 21 20 23 17 25
REMARK Flexibility Score: inf
ROOT
ATOM      1  C   UNL     1     -19.395  34.152  -8.996  1.00  0.00     0.138 A 
ATOM      2  C   UNL     1     -19.954  33.114  -8.239  1.00  0.00     0.100 A 
ATOM      3  C   UNL     1     -21.247  33.249  -7.731  1.00  0.00     0.197 A 
ATOM      4  O   UNL     1     -21.699  32.327  -7.003  1.00  0.00    -0.289 OA
ATOM      5  C   UNL     1     -21.993  34.419  -8.008  1.00  0.00     0.107 A 
ATOM      6  C   UNL     1     -23.334  34.650  -7.577  1.00  0.00     0.134 A 
ATOM      7  C   UNL     1     -23.930  35.894  -7.814  1.00  0.00     0.093 A 
ATOM      8  C   UNL     1     -23.256  36.894  -8.519  1.00  0.00     0.123 A 
ATOM      9  C   UNL     1     -21.967  36.659  -8.991  1.00  0.00     0.094 A 
ATOM     10  C   UNL     1     -21.332  35.441  -8.741  1.00  0.00     0.146 A 
ATOM     11  O   UNL     1     -20.097  35.263  -9.196  1.00  0.00    -0.456 OA
ENDROOT
BRANCH   1  12
ATOM     12  C   UNL     1     -18.025  34.060  -9.562  1.00  0.00     0.021 A 
ATOM     13  C   UNL     1     -16.881  34.116  -8.743  1.00  0.00     0.016 A 
ATOM     14  C   UNL     1     -15.604  34.016  -9.303  1.00  0.00     0.051 A 
ATOM     15  C   UNL     1     -15.448  33.852 -10.685  1.00  0.00     0.157 A 
ATOM     16  C   UNL     1     -17.860  33.881 -10.947  1.00  0.00     0.062 A 
ATOM     17  C   UNL     1     -16.578  33.783 -11.508  1.00  0.00     0.158 A 
BRANCH  15  18
ATOM     18  O   UNL     1     -14.176  33.754 -11.246  1.00  0.00    -0.504 OA
ATOM     19  H   UNL     1     -13.952  33.037 -11.926  1.00  0.00     0.293 HD
ENDBRANCH  15  18
BRANCH  17  20
ATOM     20  O   UNL     1     -16.419  33.616 -12.883  1.00  0.00    -0.504 OA
ATOM     21  H   UNL     1     -15.625  34.007 -13.376  1.00  0.00     0.293 HD
ENDBRANCH  17  20
ENDBRANCH   1  12
BRANCH   6  22
ATOM     22  O   UNL     1     -24.125  33.689  -6.940  1.00  0.00    -0.507 OA
ATOM     23  H   UNL     1     -25.003  33.877  -6.481  1.00  0.00     0.293 HD
ENDBRANCH   6  22
BRANCH   8  24
ATOM     24  O   UNL     1     -23.864  38.124  -8.763  1.00  0.00    -0.508 OA
ATOM     25  H   UNL     1     -24.525  38.247  -9.521  1.00  0.00     0.293 HD
ENDBRANCH   8  24
TORSDOF 5
ENDMDL
