MODEL 1
REMARK VINA RESULT:    -3.179      0.000      0.000
REMARK INTER + INTRA:          -9.062
REMARK INTER:                  -6.153
REMARK INTRA:                  -2.909
REMARK UNBOUND:                -2.909
REMARK SMILES CCCCCCCCCCCCCCCCCC(=O)[O-]
REMARK SMILES IDX 10 1 11 2 12 3 13 4 14 5 15 6 16 7 17 8 18 9 19 10 20 11
REMARK SMILES IDX 9 12 8 13 7 14 6 15 5 16 4 17 3 18 2 19 1 20
REMARK H PARENT
REMARK Flexibility Score: inf
ROOT
ATOM      1  C   UNL     1      31.380  46.809   8.579  1.00  0.00     0.000 C 
ENDROOT
BRANCH   1   2
ATOM      2  C   UNL     1      30.727  45.780   7.641  1.00  0.00     0.000 C 
BRANCH   2   3
ATOM      3  C   UNL     1      29.206  45.686   7.837  1.00  0.00     0.000 C 
BRANCH   3   4
ATOM      4  C   UNL     1      28.424  46.424   6.736  1.00  0.00     0.000 C 
BRANCH   4   5
ATOM      5  C   UNL     1      27.870  47.778   7.207  1.00  0.00     0.000 C 
BRANCH   5   6
ATOM      6  C   UNL     1      27.807  47.886   8.741  1.00  0.00     0.000 C 
BRANCH   6   7
ATOM      7  C   UNL     1      26.368  48.045   9.267  1.00  0.00     0.006 C 
BRANCH   7   8
ATOM      8  C   UNL     1      25.358  47.054   8.665  1.00  0.00     0.053 C 
BRANCH   8   9
ATOM      9  C   UNL     1      25.487  45.687   9.263  1.00  0.00     0.041 C 
ATOM     10  O   UNL     1      25.617  45.549  10.508  1.00  0.00    -0.550 OA
ATOM     11  O   UNL     1      25.496  44.567   8.442  1.00  0.00    -0.550 OA
ENDBRANCH   8   9
ENDBRANCH   7   8
ENDBRANCH   6   7
ENDBRANCH   5   6
ENDBRANCH   4   5
ENDBRANCH   3   4
ENDBRANCH   2   3
ENDBRANCH   1   2
BRANCH   1  12
ATOM     12  C   UNL     1      31.885  48.059   7.836  1.00  0.00     0.000 C 
BRANCH  12  13
ATOM     13  C   UNL     1      31.575  48.090   6.328  1.00  0.00    -0.000 C 
BRANCH  13  14
ATOM     14  C   UNL     1      30.898  49.397   5.885  1.00  0.00    -0.000 C 
BRANCH  14  15
ATOM     15  C   UNL     1      31.567  50.648   6.479  1.00  0.00    -0.000 C 
BRANCH  15  16
ATOM     16  C   UNL     1      30.612  51.622   7.197  1.00  0.00    -0.000 C 
BRANCH  16  17
ATOM     17  C   UNL     1      29.844  50.988   8.377  1.00  0.00    -0.000 C 
BRANCH  17  18
ATOM     18  C   UNL     1      28.405  51.522   8.486  1.00  0.00    -0.000 C 
BRANCH  18  19
ATOM     19  C   UNL     1      27.757  51.754   7.112  1.00  0.00    -0.003 C 
ATOM     20  C   UNL     1      26.368  51.124   7.004  1.00  0.00     0.004 C 
ENDBRANCH  18  19
ENDBRANCH  17  18
ENDBRANCH  16  17
ENDBRANCH  15  16
ENDBRANCH  14  15
ENDBRANCH  13  14
ENDBRANCH  12  13
ENDBRANCH   1  12
TORSDOF 16
ENDMDL
MODEL 2
REMARK VINA RESULT:    -3.158      4.068      6.337
REMARK INTER + INTRA:          -9.020
REMARK INTER:                  -6.314
REMARK INTRA:                  -2.707
REMARK UNBOUND:                -2.909
REMARK SMILES CCCCCCCCCCCCCCCCCC(=O)[O-]
REMARK SMILES IDX 10 1 11 2 12 3 13 4 14 5 15 6 16 7 17 8 18 9 19 10 20 11
REMARK SMILES IDX 9 12 8 13 7 14 6 15 5 16 4 17 3 18 2 19 1 20
REMARK H PARENT
REMARK Flexibility Score: inf
ROOT
ATOM      1  C   UNL     1      29.552  46.213   7.182  1.00  0.00     0.000 C 
ENDROOT
BRANCH   1   2
ATOM      2  C   UNL     1      30.662  46.469   8.215  1.00  0.00     0.000 C 
BRANCH   2   3
ATOM      3  C   UNL     1      31.578  47.637   7.818  1.00  0.00     0.000 C 
BRANCH   3   4
ATOM      4  C   UNL     1      31.267  48.175   6.409  1.00  0.00     0.000 C 
BRANCH   4   5
ATOM      5  C   UNL     1      31.603  49.667   6.257  1.00  0.00     0.000 C 
BRANCH   5   6
ATOM      6  C   UNL     1      32.385  50.220   7.461  1.00  0.00     0.000 C 
BRANCH   6   7
ATOM      7  C   UNL     1      32.685  51.725   7.336  1.00  0.00     0.006 C 
BRANCH   7   8
ATOM      8  C   UNL     1      32.114  52.384   6.069  1.00  0.00     0.053 C 
BRANCH   8   9
ATOM      9  C   UNL     1      32.328  53.866   6.062  1.00  0.00     0.041 C 
ATOM     10  O   UNL     1      33.487  54.339   5.927  1.00  0.00    -0.550 OA
ATOM     11  O   UNL     1      31.250  54.725   6.237  1.00  0.00    -0.550 OA
ENDBRANCH   8   9
ENDBRANCH   7   8
ENDBRANCH   6   7
ENDBRANCH   5   6
ENDBRANCH   4   5
ENDBRANCH   3   4
ENDBRANCH   2   3
ENDBRANCH   1   2
BRANCH   1  12
ATOM     12  C   UNL     1      28.478  45.234   7.689  1.00  0.00     0.000 C 
BRANCH  12  13
ATOM     13  C   UNL     1      27.082  45.849   7.896  1.00  0.00    -0.000 C 
BRANCH  13  14
ATOM     14  C   UNL     1      26.940  46.561   9.251  1.00  0.00    -0.000 C 
BRANCH  14  15
ATOM     15  C   UNL     1      26.676  48.070   9.109  1.00  0.00    -0.000 C 
BRANCH  15  16
ATOM     16  C   UNL     1      26.614  48.589   7.659  1.00  0.00    -0.000 C 
BRANCH  16  17
ATOM     17  C   UNL     1      27.825  49.456   7.254  1.00  0.00    -0.000 C 
BRANCH  17  18
ATOM     18  C   UNL     1      28.677  49.866   8.469  1.00  0.00    -0.000 C 
BRANCH  18  19
ATOM     19  C   UNL     1      28.730  51.390   8.663  1.00  0.00    -0.003 C 
ATOM     20  C   UNL     1      28.836  52.147   7.339  1.00  0.00     0.004 C 
ENDBRANCH  18  19
ENDBRANCH  17  18
ENDBRANCH  16  17
ENDBRANCH  15  16
ENDBRANCH  14  15
ENDBRANCH  13  14
ENDBRANCH  12  13
ENDBRANCH   1  12
TORSDOF 16
ENDMDL
MODEL 3
REMARK VINA RESULT:    -3.139      2.694      5.613
REMARK INTER + INTRA:          -8.984
REMARK INTER:                  -5.781
REMARK INTRA:                  -3.202
REMARK UNBOUND:                -2.909
REMARK SMILES CCCCCCCCCCCCCCCCCC(=O)[O-]
REMARK SMILES IDX 10 1 11 2 12 3 13 4 14 5 15 6 16 7 17 8 18 9 19 10 20 11
REMARK SMILES IDX 9 12 8 13 7 14 6 15 5 16 4 17 3 18 2 19 1 20
REMARK H PARENT
REMARK Flexibility Score: inf
ROOT
ATOM      1  C   UNL     1      29.440  47.469   9.596  1.00  0.00     0.000 C 
ENDROOT
BRANCH   1   2
ATOM      2  C   UNL     1      30.286  46.785   8.509  1.00  0.00     0.000 C 
BRANCH   2   3
ATOM      3  C   UNL     1      31.558  47.577   8.169  1.00  0.00     0.000 C 
BRANCH   3   4
ATOM      4  C   UNL     1      31.658  47.913   6.670  1.00  0.00     0.000 C 
BRANCH   4   5
ATOM      5  C   UNL     1      31.283  49.372   6.364  1.00  0.00     0.000 C 
BRANCH   5   6
ATOM      6  C   UNL     1      31.872  50.358   7.388  1.00  0.00     0.000 C 
BRANCH   6   7
ATOM      7  C   UNL     1      30.815  51.318   7.965  1.00  0.00     0.006 C 
BRANCH   7   8
ATOM      8  C   UNL     1      29.928  51.997   6.908  1.00  0.00     0.053 C 
BRANCH   8   9
ATOM      9  C   UNL     1      28.517  52.164   7.382  1.00  0.00     0.041 C 
ATOM     10  O   UNL     1      27.596  52.406   6.558  1.00  0.00    -0.550 OA
ATOM     11  O   UNL     1      28.225  52.086   8.737  1.00  0.00    -0.550 OA
ENDBRANCH   8   9
ENDBRANCH   7   8
ENDBRANCH   6   7
ENDBRANCH   5   6
ENDBRANCH   4   5
ENDBRANCH   3   4
ENDBRANCH   2   3
ENDBRANCH   1   2
BRANCH   1  12
ATOM     12  C   UNL     1      28.716  48.728   9.085  1.00  0.00     0.000 C 
BRANCH  12  13
ATOM     13  C   UNL     1      27.453  48.457   8.247  1.00  0.00    -0.000 C 
BRANCH  13  14
ATOM     14  C   UNL     1      27.680  48.674   6.742  1.00  0.00    -0.000 C 
BRANCH  14  15
ATOM     15  C   UNL     1      27.793  47.355   5.959  1.00  0.00    -0.000 C 
BRANCH  15  16
ATOM     16  C   UNL     1      26.828  46.240   6.411  1.00  0.00    -0.000 C 
BRANCH  16  17
ATOM     17  C   UNL     1      27.540  44.964   6.909  1.00  0.00    -0.000 C 
BRANCH  17  18
ATOM     18  C   UNL     1      27.117  44.584   8.340  1.00  0.00    -0.000 C 
BRANCH  18  19
ATOM     19  C   UNL     1      25.764  45.198   8.735  1.00  0.00    -0.003 C 
ATOM     20  C   UNL     1      25.770  45.770  10.152  1.00  0.00     0.004 C 
ENDBRANCH  18  19
ENDBRANCH  17  18
ENDBRANCH  16  17
ENDBRANCH  15  16
ENDBRANCH  14  15
ENDBRANCH  13  14
ENDBRANCH  12  13
ENDBRANCH   1  12
TORSDOF 16
ENDMDL
MODEL 4
REMARK VINA RESULT:    -3.091      2.074      3.541
REMARK INTER + INTRA:          -8.891
REMARK INTER:                  -6.672
REMARK INTRA:                  -2.219
REMARK UNBOUND:                -2.909
REMARK SMILES CCCCCCCCCCCCCCCCCC(=O)[O-]
REMARK SMILES IDX 10 1 11 2 12 3 13 4 14 5 15 6 16 7 17 8 18 9 19 10 20 11
REMARK SMILES IDX 9 12 8 13 7 14 6 15 5 16 4 17 3 18 2 19 1 20
REMARK H PARENT
REMARK Flexibility Score: inf
ROOT
ATOM      1  C   UNL     1      28.767  47.392   9.059  1.00  0.00     0.000 C 
ENDROOT
BRANCH   1   2
ATOM      2  C   UNL     1      27.399  47.824   8.506  1.00  0.00     0.000 C 
BRANCH   2   3
ATOM      3  C   UNL     1      26.263  47.621   9.520  1.00  0.00     0.000 C 
BRANCH   3   4
ATOM      4  C   UNL     1      26.012  46.134   9.831  1.00  0.00     0.000 C 
BRANCH   4   5
ATOM      5  C   UNL     1      24.950  45.507   8.914  1.00  0.00     0.000 C 
BRANCH   5   6
ATOM      6  C   UNL     1      25.560  44.550   7.875  1.00  0.00     0.000 C 
BRANCH   6   7
ATOM      7  C   UNL     1      26.800  43.808   8.406  1.00  0.00     0.006 C 
BRANCH   7   8
ATOM      8  C   UNL     1      27.629  43.097   7.323  1.00  0.00     0.053 C 
BRANCH   8   9
ATOM      9  C   UNL     1      27.538  41.606   7.434  1.00  0.00     0.041 C 
ATOM     10  O   UNL     1      28.570  40.897   7.303  1.00  0.00    -0.550 OA
ATOM     11  O   UNL     1      26.308  40.999   7.649  1.00  0.00    -0.550 OA
ENDBRANCH   8   9
ENDBRANCH   7   8
ENDBRANCH   6   7
ENDBRANCH   5   6
ENDBRANCH   4   5
ENDBRANCH   3   4
ENDBRANCH   2   3
ENDBRANCH   1   2
BRANCH   1  12
ATOM     12  C   UNL     1      29.518  46.433   8.117  1.00  0.00     0.000 C 
BRANCH  12  13
ATOM     13  C   UNL     1      31.035  46.341   8.357  1.00  0.00    -0.000 C 
BRANCH  13  14
ATOM     14  C   UNL     1      31.739  47.705   8.259  1.00  0.00    -0.000 C 
BRANCH  14  15
ATOM     15  C   UNL     1      31.690  48.302   6.843  1.00  0.00    -0.000 C 
BRANCH  15  16
ATOM     16  C   UNL     1      30.930  49.638   6.722  1.00  0.00    -0.000 C 
BRANCH  16  17
ATOM     17  C   UNL     1      31.075  50.552   7.957  1.00  0.00    -0.000 C 
BRANCH  17  18
ATOM     18  C   UNL     1      29.720  50.838   8.629  1.00  0.00    -0.000 C 
BRANCH  18  19
ATOM     19  C   UNL     1      28.769  51.632   7.721  1.00  0.00    -0.003 C 
ATOM     20  C   UNL     1      27.310  51.536   8.169  1.00  0.00     0.004 C 
ENDBRANCH  18  19
ENDBRANCH  17  18
ENDBRANCH  16  17
ENDBRANCH  15  16
ENDBRANCH  14  15
ENDBRANCH  13  14
ENDBRANCH  12  13
ENDBRANCH   1  12
TORSDOF 16
ENDMDL
MODEL 5
REMARK VINA RESULT:    -2.986      4.295      6.711
REMARK INTER + INTRA:          -8.688
REMARK INTER:                  -6.547
REMARK INTRA:                  -2.141
REMARK UNBOUND:                -2.909
REMARK SMILES CCCCCCCCCCCCCCCCCC(=O)[O-]
REMARK SMILES IDX 10 1 11 2 12 3 13 4 14 5 15 6 16 7 17 8 18 9 19 10 20 11
REMARK SMILES IDX 9 12 8 13 7 14 6 15 5 16 4 17 3 18 2 19 1 20
REMARK H PARENT
REMARK Flexibility Score: inf
ROOT
ATOM      1  C   UNL     1      30.095  46.057   6.973  1.00  0.00     0.000 C 
ENDROOT
BRANCH   1   2
ATOM      2  C   UNL     1      30.850  46.349   8.280  1.00  0.00     0.000 C 
BRANCH   2   3
ATOM      3  C   UNL     1      31.896  47.463   8.120  1.00  0.00     0.000 C 
BRANCH   3   4
ATOM      4  C   UNL     1      31.518  48.471   7.019  1.00  0.00     0.000 C 
BRANCH   4   5
ATOM      5  C   UNL     1      31.774  49.928   7.436  1.00  0.00     0.000 C 
BRANCH   5   6
ATOM      6  C   UNL     1      30.982  50.932   6.581  1.00  0.00     0.000 C 
BRANCH   6   7
ATOM      7  C   UNL     1      31.781  52.211   6.271  1.00  0.00     0.006 C 
BRANCH   7   8
ATOM      8  C   UNL     1      33.083  52.358   7.076  1.00  0.00     0.053 C 
BRANCH   8   9
ATOM      9  C   UNL     1      33.681  53.724   6.934  1.00  0.00     0.041 C 
ATOM     10  O   UNL     1      33.263  54.676   7.644  1.00  0.00    -0.550 OA
ATOM     11  O   UNL     1      34.677  53.952   5.993  1.00  0.00    -0.550 OA
ENDBRANCH   8   9
ENDBRANCH   7   8
ENDBRANCH   6   7
ENDBRANCH   5   6
ENDBRANCH   4   5
ENDBRANCH   3   4
ENDBRANCH   2   3
ENDBRANCH   1   2
BRANCH   1  12
ATOM     12  C   UNL     1      29.222  44.792   7.056  1.00  0.00     0.000 C 
BRANCH  12  13
ATOM     13  C   UNL     1      27.704  45.049   7.064  1.00  0.00    -0.000 C 
BRANCH  13  14
ATOM     14  C   UNL     1      27.044  44.688   8.405  1.00  0.00    -0.000 C 
BRANCH  14  15
ATOM     15  C   UNL     1      26.404  45.901   9.101  1.00  0.00    -0.000 C 
BRANCH  15  16
ATOM     16  C   UNL     1      27.350  47.094   9.339  1.00  0.00    -0.000 C 
BRANCH  16  17
ATOM     17  C   UNL     1      26.749  48.457   8.934  1.00  0.00    -0.000 C 
BRANCH  17  18
ATOM     18  C   UNL     1      27.719  49.286   8.071  1.00  0.00    -0.000 C 
BRANCH  18  19
ATOM     19  C   UNL     1      27.796  48.780   6.622  1.00  0.00    -0.003 C 
ATOM     20  C   UNL     1      26.460  48.894   5.888  1.00  0.00     0.004 C 
ENDBRANCH  18  19
ENDBRANCH  17  18
ENDBRANCH  16  17
ENDBRANCH  15  16
ENDBRANCH  14  15
ENDBRANCH  13  14
ENDBRANCH  12  13
ENDBRANCH   1  12
TORSDOF 16
ENDMDL
MODEL 6
REMARK VINA RESULT:    -2.978      2.801      5.572
REMARK INTER + INTRA:          -8.671
REMARK INTER:                  -5.993
REMARK INTRA:                  -2.679
REMARK UNBOUND:                -2.909
REMARK SMILES CCCCCCCCCCCCCCCCCC(=O)[O-]
REMARK SMILES IDX 10 1 11 2 12 3 13 4 14 5 15 6 16 7 17 8 18 9 19 10 20 11
REMARK SMILES IDX 9 12 8 13 7 14 6 15 5 16 4 17 3 18 2 19 1 20
REMARK H PARENT
REMARK Flexibility Score: inf
ROOT
ATOM      1  C   UNL     1      28.547  45.740   6.322  1.00  0.00     0.000 C 
ENDROOT
BRANCH   1   2
ATOM      2  C   UNL     1      29.517  46.764   6.935  1.00  0.00     0.000 C 
BRANCH   2   3
ATOM      3  C   UNL     1      30.263  46.209   8.158  1.00  0.00     0.000 C 
BRANCH   3   4
ATOM      4  C   UNL     1      31.554  46.991   8.464  1.00  0.00     0.000 C 
BRANCH   4   5
ATOM      5  C   UNL     1      31.902  48.012   7.369  1.00  0.00     0.000 C 
BRANCH   5   6
ATOM      6  C   UNL     1      31.907  49.459   7.894  1.00  0.00     0.000 C 
BRANCH   6   7
ATOM      7  C   UNL     1      30.722  50.288   7.365  1.00  0.00     0.006 C 
BRANCH   7   8
ATOM      8  C   UNL     1      29.683  50.665   8.433  1.00  0.00     0.053 C 
BRANCH   8   9
ATOM      9  C   UNL     1      28.792  51.780   7.981  1.00  0.00     0.041 C 
ATOM     10  O   UNL     1      27.831  52.156   8.702  1.00  0.00    -0.550 OA
ATOM     11  O   UNL     1      29.002  52.382   6.747  1.00  0.00    -0.550 OA
ENDBRANCH   8   9
ENDBRANCH   7   8
ENDBRANCH   6   7
ENDBRANCH   5   6
ENDBRANCH   4   5
ENDBRANCH   3   4
ENDBRANCH   2   3
ENDBRANCH   1   2
BRANCH   1  12
ATOM     12  C   UNL     1      28.597  44.373   7.027  1.00  0.00     0.000 C 
BRANCH  12  13
ATOM     13  C   UNL     1      27.227  43.797   7.427  1.00  0.00    -0.000 C 
BRANCH  13  14
ATOM     14  C   UNL     1      26.057  44.715   7.037  1.00  0.00    -0.000 C 
BRANCH  14  15
ATOM     15  C   UNL     1      25.202  45.139   8.244  1.00  0.00    -0.000 C 
BRANCH  15  16
ATOM     16  C   UNL     1      25.998  45.510   9.512  1.00  0.00    -0.000 C 
BRANCH  16  17
ATOM     17  C   UNL     1      25.873  46.995   9.914  1.00  0.00    -0.000 C 
BRANCH  17  18
ATOM     18  C   UNL     1      26.904  47.881   9.191  1.00  0.00    -0.000 C 
BRANCH  18  19
ATOM     19  C   UNL     1      26.243  48.989   8.356  1.00  0.00    -0.003 C 
ATOM     20  C   UNL     1      26.309  48.710   6.854  1.00  0.00     0.004 C 
ENDBRANCH  18  19
ENDBRANCH  17  18
ENDBRANCH  16  17
ENDBRANCH  15  16
ENDBRANCH  14  15
ENDBRANCH  13  14
ENDBRANCH  12  13
ENDBRANCH   1  12
TORSDOF 16
ENDMDL
MODEL 7
REMARK VINA RESULT:    -2.952      2.294      4.164
REMARK INTER + INTRA:          -8.622
REMARK INTER:                  -6.527
REMARK INTRA:                  -2.094
REMARK UNBOUND:                -2.909
REMARK SMILES CCCCCCCCCCCCCCCCCC(=O)[O-]
REMARK SMILES IDX 10 1 11 2 12 3 13 4 14 5 15 6 16 7 17 8 18 9 19 10 20 11
REMARK SMILES IDX 9 12 8 13 7 14 6 15 5 16 4 17 3 18 2 19 1 20
REMARK H PARENT
REMARK Flexibility Score: inf
ROOT
ATOM      1  C   UNL     1      27.690  48.351   8.250  1.00  0.00     0.000 C 
ENDROOT
BRANCH   1   2
ATOM      2  C   UNL     1      26.283  48.381   8.869  1.00  0.00     0.000 C 
BRANCH   2   3
ATOM      3  C   UNL     1      25.529  47.056   8.681  1.00  0.00     0.000 C 
BRANCH   3   4
ATOM      4  C   UNL     1      25.957  45.986   9.703  1.00  0.00     0.000 C 
BRANCH   4   5
ATOM      5  C   UNL     1      26.264  44.630   9.048  1.00  0.00     0.000 C 
BRANCH   5   6
ATOM      6  C   UNL     1      27.447  44.705   8.067  1.00  0.00     0.000 C 
BRANCH   6   7
ATOM      7  C   UNL     1      27.241  43.827   6.819  1.00  0.00     0.006 C 
BRANCH   7   8
ATOM      8  C   UNL     1      28.411  42.878   6.509  1.00  0.00     0.053 C 
BRANCH   8   9
ATOM      9  C   UNL     1      28.200  41.516   7.095  1.00  0.00     0.041 C 
ATOM     10  O   UNL     1      27.092  41.210   7.606  1.00  0.00    -0.550 OA
ATOM     11  O   UNL     1      29.241  40.595   7.106  1.00  0.00    -0.550 OA
ENDBRANCH   8   9
ENDBRANCH   7   8
ENDBRANCH   6   7
ENDBRANCH   5   6
ENDBRANCH   4   5
ENDBRANCH   3   4
ENDBRANCH   2   3
ENDBRANCH   1   2
BRANCH   1  12
ATOM     12  C   UNL     1      28.806  48.540   9.293  1.00  0.00     0.000 C 
BRANCH  12  13
ATOM     13  C   UNL     1      29.651  47.284   9.576  1.00  0.00    -0.000 C 
BRANCH  13  14
ATOM     14  C   UNL     1      30.480  46.836   8.361  1.00  0.00    -0.000 C 
BRANCH  14  15
ATOM     15  C   UNL     1      31.844  47.541   8.277  1.00  0.00    -0.000 C 
BRANCH  15  16
ATOM     16  C   UNL     1      31.953  48.629   7.191  1.00  0.00    -0.000 C 
BRANCH  16  17
ATOM     17  C   UNL     1      32.349  50.018   7.737  1.00  0.00    -0.000 C 
BRANCH  17  18
ATOM     18  C   UNL     1      31.633  51.160   6.994  1.00  0.00    -0.000 C 
BRANCH  18  19
ATOM     19  C   UNL     1      30.160  51.299   7.411  1.00  0.00    -0.003 C 
ATOM     20  C   UNL     1      29.198  51.126   6.235  1.00  0.00     0.004 C 
ENDBRANCH  18  19
ENDBRANCH  17  18
ENDBRANCH  16  17
ENDBRANCH  15  16
ENDBRANCH  14  15
ENDBRANCH  13  14
ENDBRANCH  12  13
ENDBRANCH   1  12
TORSDOF 16
ENDMDL
MODEL 8
REMARK VINA RESULT:    -2.901      2.644      6.001
REMARK INTER + INTRA:          -8.522
REMARK INTER:                  -6.431
REMARK INTRA:                  -2.092
REMARK UNBOUND:                -2.909
REMARK SMILES CCCCCCCCCCCCCCCCCC(=O)[O-]
REMARK SMILES IDX 10 1 11 2 12 3 13 4 14 5 15 6 16 7 17 8 18 9 19 10 20 11
REMARK SMILES IDX 9 12 8 13 7 14 6 15 5 16 4 17 3 18 2 19 1 20
REMARK H PARENT
REMARK Flexibility Score: inf
ROOT
ATOM      1  C   UNL     1      30.338  46.464   8.244  1.00  0.00     0.000 C 
ENDROOT
BRANCH   1   2
ATOM      2  C   UNL     1      31.655  47.247   8.381  1.00  0.00     0.000 C 
BRANCH   2   3
ATOM      3  C   UNL     1      31.804  48.338   7.310  1.00  0.00     0.000 C 
BRANCH   3   4
ATOM      4  C   UNL     1      32.380  49.648   7.880  1.00  0.00     0.000 C 
BRANCH   4   5
ATOM      5  C   UNL     1      31.862  50.894   7.144  1.00  0.00     0.000 C 
BRANCH   5   6
ATOM      6  C   UNL     1      30.406  50.734   6.669  1.00  0.00     0.000 C 
BRANCH   6   7
ATOM      7  C   UNL     1      29.519  51.931   7.058  1.00  0.00     0.006 C 
BRANCH   7   8
ATOM      8  C   UNL     1      28.638  51.694   8.296  1.00  0.00     0.053 C 
BRANCH   8   9
ATOM      9  C   UNL     1      27.179  51.816   7.978  1.00  0.00     0.041 C 
ATOM     10  O   UNL     1      26.609  50.945   7.272  1.00  0.00    -0.550 OA
ATOM     11  O   UNL     1      26.458  52.912   8.436  1.00  0.00    -0.550 OA
ENDBRANCH   8   9
ENDBRANCH   7   8
ENDBRANCH   6   7
ENDBRANCH   5   6
ENDBRANCH   4   5
ENDBRANCH   3   4
ENDBRANCH   2   3
ENDBRANCH   1   2
BRANCH   1  12
ATOM     12  C   UNL     1      29.135  47.369   7.926  1.00  0.00     0.000 C 
BRANCH  12  13
ATOM     13  C   UNL     1      28.556  48.131   9.132  1.00  0.00    -0.000 C 
BRANCH  13  14
ATOM     14  C   UNL     1      27.024  48.032   9.221  1.00  0.00    -0.000 C 
BRANCH  14  15
ATOM     15  C   UNL     1      26.456  46.838   8.436  1.00  0.00    -0.000 C 
BRANCH  15  16
ATOM     16  C   UNL     1      26.161  45.581   9.280  1.00  0.00    -0.000 C 
BRANCH  16  17
ATOM     17  C   UNL     1      25.913  44.310   8.439  1.00  0.00    -0.000 C 
BRANCH  17  18
ATOM     18  C   UNL     1      27.222  43.573   8.103  1.00  0.00    -0.000 C 
BRANCH  18  19
ATOM     19  C   UNL     1      27.586  43.671   6.613  1.00  0.00    -0.003 C 
ATOM     20  C   UNL     1      29.090  43.553   6.366  1.00  0.00     0.004 C 
ENDBRANCH  18  19
ENDBRANCH  17  18
ENDBRANCH  16  17
ENDBRANCH  15  16
ENDBRANCH  14  15
ENDBRANCH  13  14
ENDBRANCH  12  13
ENDBRANCH   1  12
TORSDOF 16
ENDMDL
MODEL 9
REMARK VINA RESULT:    -2.875      2.495      3.370
REMARK INTER + INTRA:          -8.473
REMARK INTER:                  -5.831
REMARK INTRA:                  -2.642
REMARK UNBOUND:                -2.909
REMARK SMILES CCCCCCCCCCCCCCCCCC(=O)[O-]
REMARK SMILES IDX 10 1 11 2 12 3 13 4 14 5 15 6 16 7 17 8 18 9 19 10 20 11
REMARK SMILES IDX 9 12 8 13 7 14 6 15 5 16 4 17 3 18 2 19 1 20
REMARK H PARENT
REMARK Flexibility Score: inf
ROOT
ATOM      1  C   UNL     1      31.615  46.866   8.565  1.00  0.00     0.000 C 
ENDROOT
BRANCH   1   2
ATOM      2  C   UNL     1      30.869  45.886   7.644  1.00  0.00     0.000 C 
BRANCH   2   3
ATOM      3  C   UNL     1      29.373  45.787   7.979  1.00  0.00     0.000 C 
BRANCH   3   4
ATOM      4  C   UNL     1      28.483  45.867   6.725  1.00  0.00     0.000 C 
BRANCH   4   5
ATOM      5  C   UNL     1      27.079  45.286   6.955  1.00  0.00     0.000 C 
BRANCH   5   6
ATOM      6  C   UNL     1      27.064  44.201   8.047  1.00  0.00     0.000 C 
BRANCH   6   7
ATOM      7  C   UNL     1      26.493  42.861   7.547  1.00  0.00     0.006 C 
BRANCH   7   8
ATOM      8  C   UNL     1      27.216  42.280   6.321  1.00  0.00     0.053 C 
BRANCH   8   9
ATOM      9  C   UNL     1      28.613  41.848   6.644  1.00  0.00     0.041 C 
ATOM     10  O   UNL     1      29.595  42.532   6.254  1.00  0.00    -0.550 OA
ATOM     11  O   UNL     1      28.830  40.671   7.350  1.00  0.00    -0.550 OA
ENDBRANCH   8   9
ENDBRANCH   7   8
ENDBRANCH   6   7
ENDBRANCH   5   6
ENDBRANCH   4   5
ENDBRANCH   3   4
ENDBRANCH   2   3
ENDBRANCH   1   2
BRANCH   1  12
ATOM     12  C   UNL     1      32.038  48.159   7.845  1.00  0.00     0.000 C 
BRANCH  12  13
ATOM     13  C   UNL     1      31.326  48.420   6.505  1.00  0.00    -0.000 C 
BRANCH  13  14
ATOM     14  C   UNL     1      30.189  49.448   6.624  1.00  0.00    -0.000 C 
BRANCH  14  15
ATOM     15  C   UNL     1      30.303  50.321   7.885  1.00  0.00    -0.000 C 
BRANCH  15  16
ATOM     16  C   UNL     1      29.079  50.283   8.821  1.00  0.00    -0.000 C 
BRANCH  16  17
ATOM     17  C   UNL     1      28.627  48.856   9.200  1.00  0.00    -0.000 C 
BRANCH  17  18
ATOM     18  C   UNL     1      27.134  48.623   8.909  1.00  0.00    -0.000 C 
BRANCH  18  19
ATOM     19  C   UNL     1      26.616  49.497   7.755  1.00  0.00    -0.003 C 
ATOM     20  C   UNL     1      25.735  48.718   6.778  1.00  0.00     0.004 C 
ENDBRANCH  18  19
ENDBRANCH  17  18
ENDBRANCH  16  17
ENDBRANCH  15  16
ENDBRANCH  14  15
ENDBRANCH  13  14
ENDBRANCH  12  13
ENDBRANCH   1  12
TORSDOF 16
ENDMDL
