MODEL 1
REMARK VINA RESULT:    -3.348      0.000      0.000
REMARK INTER + INTRA:         -10.990
REMARK INTER:                  -7.262
REMARK INTRA:                  -3.727
REMARK UNBOUND:                -3.727
REMARK SMILES CCCCCCCCCCCCCCCCCCCCCC(=O)[O-]
REMARK SMILES IDX 12 1 11 2 10 3 9 4 8 5 7 6 6 7 5 8 4 9 3 10 2 11 1 12 13 13
REMARK SMILES IDX 14 14 15 15 16 16 17 17 18 18 19 19 20 20 21 21 22 22 23 23
REMARK SMILES IDX 24 24
REMARK H PARENT
REMARK Flexibility Score: inf
ROOT
ATOM      1  C   UNL     1      19.442   3.327  38.886  1.00  0.00     0.000 C 
ENDROOT
BRANCH   1   2
ATOM      2  C   UNL     1      20.428   2.146  38.844  1.00  0.00     0.000 C 
BRANCH   2   3
ATOM      3  C   UNL     1      20.620   1.474  40.214  1.00  0.00     0.000 C 
BRANCH   3   4
ATOM      4  C   UNL     1      20.634  -0.061  40.128  1.00  0.00    -0.000 C 
BRANCH   4   5
ATOM      5  C   UNL     1      19.223  -0.677  40.187  1.00  0.00    -0.000 C 
BRANCH   5   6
ATOM      6  C   UNL     1      18.567  -0.947  38.817  1.00  0.00    -0.000 C 
BRANCH   6   7
ATOM      7  C   UNL     1      17.365  -0.042  38.476  1.00  0.00    -0.000 C 
BRANCH   7   8
ATOM      8  C   UNL     1      16.879  -0.125  37.015  1.00  0.00    -0.000 C 
BRANCH   8   9
ATOM      9  C   UNL     1      15.517   0.540  36.740  1.00  0.00    -0.000 C 
BRANCH   9  10
ATOM     10  C   UNL     1      14.705   0.791  38.023  1.00  0.00    -0.000 C 
BRANCH  10  11
ATOM     11  C   UNL     1      14.213   2.242  38.134  1.00  0.00    -0.003 C 
ATOM     12  C   UNL     1      15.090   3.231  37.366  1.00  0.00     0.004 C 
ENDBRANCH  10  11
ENDBRANCH   9  10
ENDBRANCH   8   9
ENDBRANCH   7   8
ENDBRANCH   6   7
ENDBRANCH   5   6
ENDBRANCH   4   5
ENDBRANCH   3   4
ENDBRANCH   2   3
ENDBRANCH   1   2
BRANCH   1  13
ATOM     13  C   UNL     1      18.748   3.466  40.251  1.00  0.00     0.000 C 
BRANCH  13  14
ATOM     14  C   UNL     1      17.323   4.032  40.137  1.00  0.00     0.000 C 
BRANCH  14  15
ATOM     15  C   UNL     1      16.315   3.243  41.001  1.00  0.00     0.000 C 
BRANCH  15  16
ATOM     16  C   UNL     1      16.842   1.873  41.461  1.00  0.00     0.000 C 
BRANCH  16  17
ATOM     17  C   UNL     1      17.012   1.781  42.987  1.00  0.00     0.000 C 
BRANCH  17  18
ATOM     18  C   UNL     1      17.809   0.530  43.416  1.00  0.00     0.000 C 
BRANCH  18  19
ATOM     19  C   UNL     1      19.316   0.788  43.606  1.00  0.00     0.000 C 
BRANCH  19  20
ATOM     20  C   UNL     1      19.701   2.263  43.802  1.00  0.00     0.006 C 
BRANCH  20  21
ATOM     21  C   UNL     1      19.992   2.613  45.270  1.00  0.00     0.053 C 
BRANCH  21  22
ATOM     22  C   UNL     1      18.778   3.182  45.936  1.00  0.00     0.041 C 
ATOM     23  O   UNL     1      18.015   2.437  46.610  1.00  0.00    -0.550 OA
ATOM     24  O   UNL     1      18.491   4.537  45.820  1.00  0.00    -0.550 OA
ENDBRANCH  21  22
ENDBRANCH  20  21
ENDBRANCH  19  20
ENDBRANCH  18  19
ENDBRANCH  17  18
ENDBRANCH  16  17
ENDBRANCH  15  16
ENDBRANCH  14  15
ENDBRANCH  13  14
ENDBRANCH   1  13
TORSDOF 20
ENDMDL
MODEL 2
REMARK VINA RESULT:    -3.295      4.762      7.652
REMARK INTER + INTRA:         -10.874
REMARK INTER:                  -7.479
REMARK INTRA:                  -3.395
REMARK UNBOUND:                -3.727
REMARK SMILES CCCCCCCCCCCCCCCCCCCCCC(=O)[O-]
REMARK SMILES IDX 12 1 11 2 10 3 9 4 8 5 7 6 6 7 5 8 4 9 3 10 2 11 1 12 13 13
REMARK SMILES IDX 14 14 15 15 16 16 17 17 18 18 19 19 20 20 21 21 22 22 23 23
REMARK SMILES IDX 24 24
REMARK H PARENT
REMARK Flexibility Score: inf
ROOT
ATOM      1  C   UNL     1      17.348  -3.776  43.726  1.00  0.00     0.000 C 
ENDROOT
BRANCH   1   2
ATOM      2  C   UNL     1      17.969  -2.424  44.118  1.00  0.00     0.000 C 
BRANCH   2   3
ATOM      3  C   UNL     1      18.892  -1.849  43.030  1.00  0.00     0.000 C 
BRANCH   3   4
ATOM      4  C   UNL     1      19.747  -0.673  43.534  1.00  0.00    -0.000 C 
BRANCH   4   5
ATOM      5  C   UNL     1      19.852   0.472  42.510  1.00  0.00    -0.000 C 
BRANCH   5   6
ATOM      6  C   UNL     1      19.967   1.886  43.118  1.00  0.00    -0.000 C 
BRANCH   6   7
ATOM      7  C   UNL     1      19.531   2.004  44.593  1.00  0.00    -0.000 C 
BRANCH   7   8
ATOM      8  C   UNL     1      18.118   2.581  44.812  1.00  0.00    -0.000 C 
BRANCH   8   9
ATOM      9  C   UNL     1      17.214   2.588  43.565  1.00  0.00    -0.000 C 
BRANCH   9  10
ATOM     10  C   UNL     1      16.350   1.321  43.445  1.00  0.00    -0.000 C 
BRANCH  10  11
ATOM     11  C   UNL     1      16.156   0.610  44.793  1.00  0.00    -0.003 C 
ATOM     12  C   UNL     1      14.769   0.836  45.394  1.00  0.00     0.004 C 
ENDBRANCH  10  11
ENDBRANCH   9  10
ENDBRANCH   8   9
ENDBRANCH   7   8
ENDBRANCH   6   7
ENDBRANCH   5   6
ENDBRANCH   4   5
ENDBRANCH   3   4
ENDBRANCH   2   3
ENDBRANCH   1   2
BRANCH   1  13
ATOM     13  C   UNL     1      17.997  -4.380  42.470  1.00  0.00     0.000 C 
BRANCH  13  14
ATOM     14  C   UNL     1      18.556  -5.792  42.711  1.00  0.00     0.000 C 
BRANCH  14  15
ATOM     15  C   UNL     1      18.899  -6.034  44.197  1.00  0.00     0.000 C 
BRANCH  15  16
ATOM     16  C   UNL     1      20.410  -6.055  44.481  1.00  0.00     0.000 C 
BRANCH  16  17
ATOM     17  C   UNL     1      20.868  -4.882  45.364  1.00  0.00     0.000 C 
BRANCH  17  18
ATOM     18  C   UNL     1      21.621  -3.800  44.561  1.00  0.00     0.000 C 
BRANCH  18  19
ATOM     19  C   UNL     1      22.952  -4.287  43.957  1.00  0.00     0.000 C 
BRANCH  19  20
ATOM     20  C   UNL     1      23.042  -4.192  42.426  1.00  0.00     0.006 C 
BRANCH  20  21
ATOM     21  C   UNL     1      21.689  -3.878  41.768  1.00  0.00     0.053 C 
BRANCH  21  22
ATOM     22  C   UNL     1      21.874  -3.064  40.525  1.00  0.00     0.041 C 
ATOM     23  O   UNL     1      21.232  -1.990  40.366  1.00  0.00    -0.550 OA
ATOM     24  O   UNL     1      22.762  -3.487  39.542  1.00  0.00    -0.550 OA
ENDBRANCH  21  22
ENDBRANCH  20  21
ENDBRANCH  19  20
ENDBRANCH  18  19
ENDBRANCH  17  18
ENDBRANCH  16  17
ENDBRANCH  15  16
ENDBRANCH  14  15
ENDBRANCH  13  14
ENDBRANCH   1  13
TORSDOF 20
ENDMDL
MODEL 3
REMARK VINA RESULT:    -3.271      3.461      6.352
REMARK INTER + INTRA:         -10.823
REMARK INTER:                  -7.211
REMARK INTRA:                  -3.612
REMARK UNBOUND:                -3.727
REMARK SMILES CCCCCCCCCCCCCCCCCCCCCC(=O)[O-]
REMARK SMILES IDX 12 1 11 2 10 3 9 4 8 5 7 6 6 7 5 8 4 9 3 10 2 11 1 12 13 13
REMARK SMILES IDX 14 14 15 15 16 16 17 17 18 18 19 19 20 20 21 21 22 22 23 23
REMARK SMILES IDX 24 24
REMARK H PARENT
REMARK Flexibility Score: inf
ROOT
ATOM      1  C   UNL     1      19.613  -0.123  42.969  1.00  0.00     0.000 C 
ENDROOT
BRANCH   1   2
ATOM      2  C   UNL     1      20.142   0.662  41.757  1.00  0.00     0.000 C 
BRANCH   2   3
ATOM      3  C   UNL     1      19.652   0.096  40.413  1.00  0.00     0.000 C 
BRANCH   3   4
ATOM      4  C   UNL     1      19.635   1.150  39.293  1.00  0.00    -0.000 C 
BRANCH   4   5
ATOM      5  C   UNL     1      19.908   2.575  39.808  1.00  0.00    -0.000 C 
BRANCH   5   6
ATOM      6  C   UNL     1      19.588   3.706  38.809  1.00  0.00    -0.000 C 
BRANCH   6   7
ATOM      7  C   UNL     1      20.179   3.520  37.396  1.00  0.00    -0.000 C 
BRANCH   7   8
ATOM      8  C   UNL     1      21.510   4.257  37.142  1.00  0.00    -0.000 C 
BRANCH   8   9
ATOM      9  C   UNL     1      22.779   3.435  37.437  1.00  0.00    -0.000 C 
BRANCH   9  10
ATOM     10  C   UNL     1      22.613   1.941  37.108  1.00  0.00    -0.000 C 
BRANCH  10  11
ATOM     11  C   UNL     1      23.179   1.029  38.207  1.00  0.00    -0.003 C 
ATOM     12  C   UNL     1      23.762   1.807  39.387  1.00  0.00     0.004 C 
ENDBRANCH  10  11
ENDBRANCH   9  10
ENDBRANCH   8   9
ENDBRANCH   7   8
ENDBRANCH   6   7
ENDBRANCH   5   6
ENDBRANCH   4   5
ENDBRANCH   3   4
ENDBRANCH   2   3
ENDBRANCH   1   2
BRANCH   1  13
ATOM     13  C   UNL     1      19.291   0.788  44.165  1.00  0.00     0.000 C 
BRANCH  13  14
ATOM     14  C   UNL     1      19.566   2.272  43.872  1.00  0.00     0.000 C 
BRANCH  14  15
ATOM     15  C   UNL     1      18.279   3.124  43.933  1.00  0.00     0.000 C 
BRANCH  15  16
ATOM     16  C   UNL     1      17.053   2.427  43.320  1.00  0.00     0.000 C 
BRANCH  16  17
ATOM     17  C   UNL     1      16.519   3.148  42.071  1.00  0.00     0.000 C 
BRANCH  17  18
ATOM     18  C   UNL     1      16.412   2.210  40.850  1.00  0.00     0.000 C 
BRANCH  18  19
ATOM     19  C   UNL     1      15.914   2.909  39.570  1.00  0.00     0.000 C 
BRANCH  19  20
ATOM     20  C   UNL     1      16.324   2.224  38.256  1.00  0.00     0.006 C 
BRANCH  20  21
ATOM     21  C   UNL     1      15.910   0.745  38.201  1.00  0.00     0.053 C 
BRANCH  21  22
ATOM     22  C   UNL     1      14.593   0.583  37.506  1.00  0.00     0.041 C 
ATOM     23  O   UNL     1      14.550   0.367  36.265  1.00  0.00    -0.550 OA
ATOM     24  O   UNL     1      13.409   0.664  38.232  1.00  0.00    -0.550 OA
ENDBRANCH  21  22
ENDBRANCH  20  21
ENDBRANCH  19  20
ENDBRANCH  18  19
ENDBRANCH  17  18
ENDBRANCH  16  17
ENDBRANCH  15  16
ENDBRANCH  14  15
ENDBRANCH  13  14
ENDBRANCH   1  13
TORSDOF 20
ENDMDL
MODEL 4
REMARK VINA RESULT:    -3.259      3.405      7.448
REMARK INTER + INTRA:         -10.797
REMARK INTER:                  -7.598
REMARK INTRA:                  -3.199
REMARK UNBOUND:                -3.727
REMARK SMILES CCCCCCCCCCCCCCCCCCCCCC(=O)[O-]
REMARK SMILES IDX 12 1 11 2 10 3 9 4 8 5 7 6 6 7 5 8 4 9 3 10 2 11 1 12 13 13
REMARK SMILES IDX 14 14 15 15 16 16 17 17 18 18 19 19 20 20 21 21 22 22 23 23
REMARK SMILES IDX 24 24
REMARK H PARENT
REMARK Flexibility Score: inf
ROOT
ATOM      1  C   UNL     1      17.019   2.998  39.263  1.00  0.00     0.000 C 
ENDROOT
BRANCH   1   2
ATOM      2  C   UNL     1      17.058   4.150  40.281  1.00  0.00     0.000 C 
BRANCH   2   3
ATOM      3  C   UNL     1      15.803   4.211  41.169  1.00  0.00     0.000 C 
BRANCH   3   4
ATOM      4  C   UNL     1      16.004   5.076  42.426  1.00  0.00    -0.000 C 
BRANCH   4   5
ATOM      5  C   UNL     1      17.411   4.927  43.036  1.00  0.00    -0.000 C 
BRANCH   5   6
ATOM      6  C   UNL     1      17.493   4.021  44.282  1.00  0.00    -0.000 C 
BRANCH   6   7
ATOM      7  C   UNL     1      16.193   3.267  44.632  1.00  0.00    -0.000 C 
BRANCH   7   8
ATOM      8  C   UNL     1      16.222   1.751  44.352  1.00  0.00    -0.000 C 
BRANCH   8   9
ATOM      9  C   UNL     1      16.763   1.352  42.967  1.00  0.00    -0.000 C 
BRANCH   9  10
ATOM     10  C   UNL     1      18.152   0.693  43.034  1.00  0.00    -0.000 C 
BRANCH  10  11
ATOM     11  C   UNL     1      19.120   1.250  41.979  1.00  0.00    -0.003 C 
ATOM     12  C   UNL     1      20.199   2.153  42.576  1.00  0.00     0.004 C 
ENDBRANCH  10  11
ENDBRANCH   9  10
ENDBRANCH   8   9
ENDBRANCH   7   8
ENDBRANCH   6   7
ENDBRANCH   5   6
ENDBRANCH   4   5
ENDBRANCH   3   4
ENDBRANCH   2   3
ENDBRANCH   1   2
BRANCH   1  13
ATOM     13  C   UNL     1      15.706   2.200  39.328  1.00  0.00     0.000 C 
BRANCH  13  14
ATOM     14  C   UNL     1      15.774   0.881  38.541  1.00  0.00     0.000 C 
BRANCH  14  15
ATOM     15  C   UNL     1      14.555   0.695  37.612  1.00  0.00     0.000 C 
BRANCH  15  16
ATOM     16  C   UNL     1      14.934   0.310  36.172  1.00  0.00     0.000 C 
BRANCH  16  17
ATOM     17  C   UNL     1      16.307   0.859  35.750  1.00  0.00     0.000 C 
BRANCH  17  18
ATOM     18  C   UNL     1      16.190   2.052  34.777  1.00  0.00     0.000 C 
BRANCH  18  19
ATOM     19  C   UNL     1      16.562   3.407  35.410  1.00  0.00     0.000 C 
BRANCH  19  20
ATOM     20  C   UNL     1      15.440   4.072  36.222  1.00  0.00     0.006 C 
BRANCH  20  21
ATOM     21  C   UNL     1      15.097   5.484  35.722  1.00  0.00     0.053 C 
BRANCH  21  22
ATOM     22  C   UNL     1      16.151   6.468  36.129  1.00  0.00     0.041 C 
ATOM     23  O   UNL     1      16.457   7.423  35.365  1.00  0.00    -0.550 OA
ATOM     24  O   UNL     1      16.791   6.333  37.355  1.00  0.00    -0.550 OA
ENDBRANCH  21  22
ENDBRANCH  20  21
ENDBRANCH  19  20
ENDBRANCH  18  19
ENDBRANCH  17  18
ENDBRANCH  16  17
ENDBRANCH  15  16
ENDBRANCH  14  15
ENDBRANCH  13  14
ENDBRANCH   1  13
TORSDOF 20
ENDMDL
MODEL 5
REMARK VINA RESULT:    -3.217      3.816      6.640
REMARK INTER + INTRA:         -10.705
REMARK INTER:                  -7.306
REMARK INTRA:                  -3.399
REMARK UNBOUND:                -3.727
REMARK SMILES CCCCCCCCCCCCCCCCCCCCCC(=O)[O-]
REMARK SMILES IDX 12 1 11 2 10 3 9 4 8 5 7 6 6 7 5 8 4 9 3 10 2 11 1 12 13 13
REMARK SMILES IDX 14 14 15 15 16 16 17 17 18 18 19 19 20 20 21 21 22 22 23 23
REMARK SMILES IDX 24 24
REMARK H PARENT
REMARK Flexibility Score: inf
ROOT
ATOM      1  C   UNL     1      20.439   1.342  40.065  1.00  0.00     0.000 C 
ENDROOT
BRANCH   1   2
ATOM      2  C   UNL     1      20.243   0.391  38.872  1.00  0.00     0.000 C 
BRANCH   2   3
ATOM      3  C   UNL     1      18.890   0.582  38.166  1.00  0.00     0.000 C 
BRANCH   3   4
ATOM      4  C   UNL     1      18.028  -0.692  38.176  1.00  0.00    -0.000 C 
BRANCH   4   5
ATOM      5  C   UNL     1      18.865  -1.982  38.090  1.00  0.00    -0.000 C 
BRANCH   5   6
ATOM      6  C   UNL     1      18.360  -3.152  38.960  1.00  0.00    -0.000 C 
BRANCH   6   7
ATOM      7  C   UNL     1      18.938  -3.204  40.389  1.00  0.00    -0.000 C 
BRANCH   7   8
ATOM      8  C   UNL     1      20.459  -2.967  40.487  1.00  0.00    -0.000 C 
BRANCH   8   9
ATOM      9  C   UNL     1      21.045  -3.065  41.908  1.00  0.00    -0.000 C 
BRANCH   9  10
ATOM     10  C   UNL     1      20.385  -4.169  42.753  1.00  0.00    -0.000 C 
BRANCH  10  11
ATOM     11  C   UNL     1      19.879  -3.652  44.108  1.00  0.00    -0.003 C 
ATOM     12  C   UNL     1      20.005  -2.135  44.253  1.00  0.00     0.004 C 
ENDBRANCH  10  11
ENDBRANCH   9  10
ENDBRANCH   8   9
ENDBRANCH   7   8
ENDBRANCH   6   7
ENDBRANCH   5   6
ENDBRANCH   4   5
ENDBRANCH   3   4
ENDBRANCH   2   3
ENDBRANCH   1   2
BRANCH   1  13
ATOM     13  C   UNL     1      20.298   0.626  41.418  1.00  0.00     0.000 C 
BRANCH  13  14
ATOM     14  C   UNL     1      18.844   0.238  41.735  1.00  0.00     0.000 C 
BRANCH  14  15
ATOM     15  C   UNL     1      18.218   1.156  42.806  1.00  0.00     0.000 C 
BRANCH  15  16
ATOM     16  C   UNL     1      16.946   1.876  42.329  1.00  0.00     0.000 C 
BRANCH  16  17
ATOM     17  C   UNL     1      17.063   2.405  40.889  1.00  0.00     0.000 C 
BRANCH  17  18
ATOM     18  C   UNL     1      15.943   1.870  39.972  1.00  0.00     0.000 C 
BRANCH  18  19
ATOM     19  C   UNL     1      15.285   2.955  39.098  1.00  0.00     0.000 C 
BRANCH  19  20
ATOM     20  C   UNL     1      14.258   2.432  38.080  1.00  0.00     0.006 C 
BRANCH  20  21
ATOM     21  C   UNL     1      14.440   0.939  37.764  1.00  0.00     0.053 C 
BRANCH  21  22
ATOM     22  C   UNL     1      15.074   0.749  36.420  1.00  0.00     0.041 C 
ATOM     23  O   UNL     1      15.145  -0.401  35.908  1.00  0.00    -0.550 OA
ATOM     24  O   UNL     1      15.582   1.844  35.729  1.00  0.00    -0.550 OA
ENDBRANCH  21  22
ENDBRANCH  20  21
ENDBRANCH  19  20
ENDBRANCH  18  19
ENDBRANCH  17  18
ENDBRANCH  16  17
ENDBRANCH  15  16
ENDBRANCH  14  15
ENDBRANCH  13  14
ENDBRANCH   1  13
TORSDOF 20
ENDMDL
MODEL 6
REMARK VINA RESULT:    -3.204      2.940      4.978
REMARK INTER + INTRA:         -10.678
REMARK INTER:                  -7.049
REMARK INTRA:                  -3.630
REMARK UNBOUND:                -3.727
REMARK SMILES CCCCCCCCCCCCCCCCCCCCCC(=O)[O-]
REMARK SMILES IDX 12 1 11 2 10 3 9 4 8 5 7 6 6 7 5 8 4 9 3 10 2 11 1 12 13 13
REMARK SMILES IDX 14 14 15 15 16 16 17 17 18 18 19 19 20 20 21 21 22 22 23 23
REMARK SMILES IDX 24 24
REMARK H PARENT
REMARK Flexibility Score: inf
ROOT
ATOM      1  C   UNL     1      19.380   1.330  38.722  1.00  0.00     0.000 C 
ENDROOT
BRANCH   1   2
ATOM      2  C   UNL     1      18.903  -0.056  39.189  1.00  0.00     0.000 C 
BRANCH   2   3
ATOM      3  C   UNL     1      17.740  -0.607  38.347  1.00  0.00     0.000 C 
BRANCH   3   4
ATOM      4  C   UNL     1      17.103   0.460  37.440  1.00  0.00    -0.000 C 
BRANCH   4   5
ATOM      5  C   UNL     1      15.563   0.417  37.455  1.00  0.00    -0.000 C 
BRANCH   5   6
ATOM      6  C   UNL     1      14.899   1.117  38.659  1.00  0.00    -0.000 C 
BRANCH   6   7
ATOM      7  C   UNL     1      15.727   2.251  39.297  1.00  0.00    -0.000 C 
BRANCH   7   8
ATOM      8  C   UNL     1      16.226   1.970  40.730  1.00  0.00    -0.000 C 
BRANCH   8   9
ATOM      9  C   UNL     1      16.563   3.222  41.561  1.00  0.00    -0.000 C 
BRANCH   9  10
ATOM     10  C   UNL     1      16.858   4.456  40.691  1.00  0.00    -0.000 C 
BRANCH  10  11
ATOM     11  C   UNL     1      18.330   4.891  40.764  1.00  0.00    -0.003 C 
ATOM     12  C   UNL     1      18.632   6.122  39.909  1.00  0.00     0.004 C 
ENDBRANCH  10  11
ENDBRANCH   9  10
ENDBRANCH   8   9
ENDBRANCH   7   8
ENDBRANCH   6   7
ENDBRANCH   5   6
ENDBRANCH   4   5
ENDBRANCH   3   4
ENDBRANCH   2   3
ENDBRANCH   1   2
BRANCH   1  13
ATOM     13  C   UNL     1      20.309   2.007  39.743  1.00  0.00     0.000 C 
BRANCH  13  14
ATOM     14  C   UNL     1      20.686   1.079  40.909  1.00  0.00     0.000 C 
BRANCH  14  15
ATOM     15  C   UNL     1      20.894   1.856  42.227  1.00  0.00     0.000 C 
BRANCH  15  16
ATOM     16  C   UNL     1      19.597   2.068  43.024  1.00  0.00     0.000 C 
BRANCH  16  17
ATOM     17  C   UNL     1      19.282   0.899  43.974  1.00  0.00     0.000 C 
BRANCH  17  18
ATOM     18  C   UNL     1      18.217  -0.058  43.398  1.00  0.00     0.000 C 
BRANCH  18  19
ATOM     19  C   UNL     1      18.567  -1.549  43.562  1.00  0.00     0.000 C 
BRANCH  19  20
ATOM     20  C   UNL     1      20.028  -1.909  43.251  1.00  0.00     0.006 C 
BRANCH  20  21
ATOM     21  C   UNL     1      20.231  -2.379  41.802  1.00  0.00     0.053 C 
BRANCH  21  22
ATOM     22  C   UNL     1      19.359  -3.557  41.494  1.00  0.00     0.041 C 
ATOM     23  O   UNL     1      18.525  -3.501  40.550  1.00  0.00    -0.550 OA
ATOM     24  O   UNL     1      19.472  -4.722  42.246  1.00  0.00    -0.550 OA
ENDBRANCH  21  22
ENDBRANCH  20  21
ENDBRANCH  19  20
ENDBRANCH  18  19
ENDBRANCH  17  18
ENDBRANCH  16  17
ENDBRANCH  15  16
ENDBRANCH  14  15
ENDBRANCH  13  14
ENDBRANCH   1  13
TORSDOF 20
ENDMDL
MODEL 7
REMARK VINA RESULT:    -3.180      3.507      6.111
REMARK INTER + INTRA:         -10.626
REMARK INTER:                  -6.782
REMARK INTRA:                  -3.844
REMARK UNBOUND:                -3.727
REMARK SMILES CCCCCCCCCCCCCCCCCCCCCC(=O)[O-]
REMARK SMILES IDX 12 1 11 2 10 3 9 4 8 5 7 6 6 7 5 8 4 9 3 10 2 11 1 12 13 13
REMARK SMILES IDX 14 14 15 15 16 16 17 17 18 18 19 19 20 20 21 21 22 22 23 23
REMARK SMILES IDX 24 24
REMARK H PARENT
REMARK Flexibility Score: inf
ROOT
ATOM      1  C   UNL     1      19.985   1.044  39.924  1.00  0.00     0.000 C 
ENDROOT
BRANCH   1   2
ATOM      2  C   UNL     1      18.901  -0.011  39.645  1.00  0.00     0.000 C 
BRANCH   2   3
ATOM      3  C   UNL     1      19.011  -1.243  40.560  1.00  0.00     0.000 C 
BRANCH   3   4
ATOM      4  C   UNL     1      19.151  -2.558  39.775  1.00  0.00    -0.000 C 
BRANCH   4   5
ATOM      5  C   UNL     1      20.577  -2.787  39.240  1.00  0.00    -0.000 C 
BRANCH   5   6
ATOM      6  C   UNL     1      21.703  -2.614  40.280  1.00  0.00    -0.000 C 
BRANCH   6   7
ATOM      7  C   UNL     1      22.119  -3.904  41.017  1.00  0.00    -0.000 C 
BRANCH   7   8
ATOM      8  C   UNL     1      22.110  -3.808  42.557  1.00  0.00    -0.000 C 
BRANCH   8   9
ATOM      9  C   UNL     1      20.711  -3.744  43.199  1.00  0.00    -0.000 C 
BRANCH   9  10
ATOM     10  C   UNL     1      20.350  -2.337  43.705  1.00  0.00    -0.000 C 
BRANCH  10  11
ATOM     11  C   UNL     1      18.859  -2.200  44.051  1.00  0.00    -0.003 C 
ATOM     12  C   UNL     1      18.008  -3.339  43.489  1.00  0.00     0.004 C 
ENDBRANCH  10  11
ENDBRANCH   9  10
ENDBRANCH   8   9
ENDBRANCH   7   8
ENDBRANCH   6   7
ENDBRANCH   5   6
ENDBRANCH   4   5
ENDBRANCH   3   4
ENDBRANCH   2   3
ENDBRANCH   1   2
BRANCH   1  13
ATOM     13  C   UNL     1      20.687   0.825  41.274  1.00  0.00     0.000 C 
BRANCH  13  14
ATOM     14  C   UNL     1      20.552   2.032  42.216  1.00  0.00     0.000 C 
BRANCH  14  15
ATOM     15  C   UNL     1      19.814   1.669  43.523  1.00  0.00     0.000 C 
BRANCH  15  16
ATOM     16  C   UNL     1      18.357   2.159  43.560  1.00  0.00     0.000 C 
BRANCH  16  17
ATOM     17  C   UNL     1      17.356   1.093  43.083  1.00  0.00     0.000 C 
BRANCH  17  18
ATOM     18  C   UNL     1      16.452   1.603  41.940  1.00  0.00     0.000 C 
BRANCH  18  19
ATOM     19  C   UNL     1      16.882   2.970  41.371  1.00  0.00     0.000 C 
BRANCH  19  20
ATOM     20  C   UNL     1      16.117   3.417  40.116  1.00  0.00     0.006 C 
BRANCH  20  21
ATOM     21  C   UNL     1      16.106   2.349  39.011  1.00  0.00     0.053 C 
BRANCH  21  22
ATOM     22  C   UNL     1      14.714   2.100  38.519  1.00  0.00     0.041 C 
ATOM     23  O   UNL     1      14.276   0.922  38.419  1.00  0.00    -0.550 OA
ATOM     24  O   UNL     1      13.895   3.170  38.176  1.00  0.00    -0.550 OA
ENDBRANCH  21  22
ENDBRANCH  20  21
ENDBRANCH  19  20
ENDBRANCH  18  19
ENDBRANCH  17  18
ENDBRANCH  16  17
ENDBRANCH  15  16
ENDBRANCH  14  15
ENDBRANCH  13  14
ENDBRANCH   1  13
TORSDOF 20
ENDMDL
MODEL 8
REMARK VINA RESULT:    -3.158      1.462      3.173
REMARK INTER + INTRA:         -10.578
REMARK INTER:                  -6.583
REMARK INTRA:                  -3.995
REMARK UNBOUND:                -3.727
REMARK SMILES CCCCCCCCCCCCCCCCCCCCCC(=O)[O-]
REMARK SMILES IDX 12 1 11 2 10 3 9 4 8 5 7 6 6 7 5 8 4 9 3 10 2 11 1 12 13 13
REMARK SMILES IDX 14 14 15 15 16 16 17 17 18 18 19 19 20 20 21 21 22 22 23 23
REMARK SMILES IDX 24 24
REMARK H PARENT
REMARK Flexibility Score: inf
ROOT
ATOM      1  C   UNL     1      19.776   3.268  38.661  1.00  0.00     0.000 C 
ENDROOT
BRANCH   1   2
ATOM      2  C   UNL     1      18.804   3.894  39.678  1.00  0.00     0.000 C 
BRANCH   2   3
ATOM      3  C   UNL     1      17.346   3.904  39.189  1.00  0.00     0.000 C 
BRANCH   3   4
ATOM      4  C   UNL     1      16.359   3.381  40.246  1.00  0.00    -0.000 C 
BRANCH   4   5
ATOM      5  C   UNL     1      15.958   1.911  40.016  1.00  0.00    -0.000 C 
BRANCH   5   6
ATOM      6  C   UNL     1      15.042   1.665  38.800  1.00  0.00    -0.000 C 
BRANCH   6   7
ATOM      7  C   UNL     1      15.660   0.808  37.675  1.00  0.00    -0.000 C 
BRANCH   7   8
ATOM      8  C   UNL     1      15.566   1.420  36.262  1.00  0.00    -0.000 C 
BRANCH   8   9
ATOM      9  C   UNL     1      16.879   2.012  35.718  1.00  0.00    -0.000 C 
BRANCH   9  10
ATOM     10  C   UNL     1      16.794   3.528  35.468  1.00  0.00    -0.000 C 
BRANCH  10  11
ATOM     11  C   UNL     1      15.492   4.141  36.006  1.00  0.00    -0.003 C 
ATOM     12  C   UNL     1      15.606   5.642  36.276  1.00  0.00     0.004 C 
ENDBRANCH  10  11
ENDBRANCH   9  10
ENDBRANCH   8   9
ENDBRANCH   7   8
ENDBRANCH   6   7
ENDBRANCH   5   6
ENDBRANCH   4   5
ENDBRANCH   3   4
ENDBRANCH   2   3
ENDBRANCH   1   2
BRANCH   1  13
ATOM     13  C   UNL     1      19.347   1.856  38.229  1.00  0.00     0.000 C 
BRANCH  13  14
ATOM     14  C   UNL     1      20.038   0.751  39.045  1.00  0.00     0.000 C 
BRANCH  14  15
ATOM     15  C   UNL     1      19.031  -0.073  39.876  1.00  0.00     0.000 C 
BRANCH  15  16
ATOM     16  C   UNL     1      19.056   0.263  41.377  1.00  0.00     0.000 C 
BRANCH  16  17
ATOM     17  C   UNL     1      20.305   1.059  41.790  1.00  0.00     0.000 C 
BRANCH  17  18
ATOM     18  C   UNL     1      19.979   2.186  42.794  1.00  0.00     0.000 C 
BRANCH  18  19
ATOM     19  C   UNL     1      18.528   2.156  43.313  1.00  0.00     0.000 C 
BRANCH  19  20
ATOM     20  C   UNL     1      17.905   3.537  43.573  1.00  0.00     0.006 C 
BRANCH  20  21
ATOM     21  C   UNL     1      17.350   3.681  44.999  1.00  0.00     0.053 C 
BRANCH  21  22
ATOM     22  C   UNL     1      18.400   3.363  46.018  1.00  0.00     0.041 C 
ATOM     23  O   UNL     1      19.459   4.046  46.074  1.00  0.00    -0.550 OA
ATOM     24  O   UNL     1      18.209   2.315  46.911  1.00  0.00    -0.550 OA
ENDBRANCH  21  22
ENDBRANCH  20  21
ENDBRANCH  19  20
ENDBRANCH  18  19
ENDBRANCH  17  18
ENDBRANCH  16  17
ENDBRANCH  15  16
ENDBRANCH  14  15
ENDBRANCH  13  14
ENDBRANCH   1  13
TORSDOF 20
ENDMDL
MODEL 9
REMARK VINA RESULT:    -3.110      1.674      4.588
REMARK INTER + INTRA:         -10.474
REMARK INTER:                  -6.855
REMARK INTRA:                  -3.619
REMARK UNBOUND:                -3.727
REMARK SMILES CCCCCCCCCCCCCCCCCCCCCC(=O)[O-]
REMARK SMILES IDX 12 1 11 2 10 3 9 4 8 5 7 6 6 7 5 8 4 9 3 10 2 11 1 12 13 13
REMARK SMILES IDX 14 14 15 15 16 16 17 17 18 18 19 19 20 20 21 21 22 22 23 23
REMARK SMILES IDX 24 24
REMARK H PARENT
REMARK Flexibility Score: inf
ROOT
ATOM      1  C   UNL     1      16.117  -0.369  36.116  1.00  0.00     0.000 C 
ENDROOT
BRANCH   1   2
ATOM      2  C   UNL     1      15.146   0.794  36.382  1.00  0.00     0.000 C 
BRANCH   2   3
ATOM      3  C   UNL     1      14.354   0.630  37.691  1.00  0.00     0.000 C 
BRANCH   3   4
ATOM      4  C   UNL     1      13.641   1.923  38.122  1.00  0.00    -0.000 C 
BRANCH   4   5
ATOM      5  C   UNL     1      14.613   2.995  38.648  1.00  0.00    -0.000 C 
BRANCH   5   6
ATOM      6  C   UNL     1      15.845   2.451  39.401  1.00  0.00    -0.000 C 
BRANCH   6   7
ATOM      7  C   UNL     1      16.837   3.523  39.898  1.00  0.00    -0.000 C 
BRANCH   7   8
ATOM      8  C   UNL     1      17.593   4.279  38.785  1.00  0.00    -0.000 C 
BRANCH   8   9
ATOM      9  C   UNL     1      17.969   3.429  37.557  1.00  0.00    -0.000 C 
BRANCH   9  10
ATOM     10  C   UNL     1      17.249   3.880  36.275  1.00  0.00    -0.000 C 
BRANCH  10  11
ATOM     11  C   UNL     1      16.553   5.241  36.437  1.00  0.00    -0.003 C 
ATOM     12  C   UNL     1      15.136   5.259  35.864  1.00  0.00     0.004 C 
ENDBRANCH  10  11
ENDBRANCH   9  10
ENDBRANCH   8   9
ENDBRANCH   7   8
ENDBRANCH   6   7
ENDBRANCH   5   6
ENDBRANCH   4   5
ENDBRANCH   3   4
ENDBRANCH   2   3
ENDBRANCH   1   2
BRANCH   1  13
ATOM     13  C   UNL     1      17.542  -0.071  36.609  1.00  0.00     0.000 C 
BRANCH  13  14
ATOM     14  C   UNL     1      17.727  -0.369  38.106  1.00  0.00     0.000 C 
BRANCH  14  15
ATOM     15  C   UNL     1      19.116   0.071  38.618  1.00  0.00     0.000 C 
BRANCH  15  16
ATOM     16  C   UNL     1      19.126   0.459  40.106  1.00  0.00     0.000 C 
BRANCH  16  17
ATOM     17  C   UNL     1      20.053   1.649  40.407  1.00  0.00     0.000 C 
BRANCH  17  18
ATOM     18  C   UNL     1      20.250   1.873  41.922  1.00  0.00     0.000 C 
BRANCH  18  19
ATOM     19  C   UNL     1      19.124   1.278  42.790  1.00  0.00     0.000 C 
BRANCH  19  20
ATOM     20  C   UNL     1      17.977   2.248  43.117  1.00  0.00     0.006 C 
BRANCH  20  21
ATOM     21  C   UNL     1      16.602   1.563  43.125  1.00  0.00     0.053 C 
BRANCH  21  22
ATOM     22  C   UNL     1      16.336   0.910  44.447  1.00  0.00     0.041 C 
ATOM     23  O   UNL     1      16.519   1.548  45.519  1.00  0.00    -0.550 OA
ATOM     24  O   UNL     1      15.879  -0.402  44.495  1.00  0.00    -0.550 OA
ENDBRANCH  21  22
ENDBRANCH  20  21
ENDBRANCH  19  20
ENDBRANCH  18  19
ENDBRANCH  17  18
ENDBRANCH  16  17
ENDBRANCH  15  16
ENDBRANCH  14  15
ENDBRANCH  13  14
ENDBRANCH   1  13
TORSDOF 20
ENDMDL
