MODEL 1
REMARK VINA RESULT:    -3.323      0.000      0.000
REMARK INTER + INTRA:          -9.120
REMARK INTER:                  -6.237
REMARK INTRA:                  -2.883
REMARK UNBOUND:                -2.883
REMARK SMILES CCCCCCCCC=CCCCCCCCC(=O)[O-]
REMARK SMILES IDX 10 1 9 2 11 3 12 4 13 5 14 6 15 7 16 8 17 9 18 10 19 11
REMARK SMILES IDX 20 12 8 13 7 14 6 15 5 16 4 17 3 18 2 19 1 20
REMARK H PARENT
REMARK Flexibility Score: inf
ROOT
ATOM      1  C   UNL     1      25.516  -4.151 -26.963  1.00  0.00    -0.031 C 
ATOM      2  C   UNL     1      24.786  -4.923 -26.139  1.00  0.00    -0.031 C 
ENDROOT
BRANCH   1   3
ATOM      3  C   UNL     1      25.450  -4.206 -28.467  1.00  0.00     0.027 C 
BRANCH   3   4
ATOM      4  C   UNL     1      24.404  -3.214 -28.997  1.00  0.00     0.004 C 
BRANCH   4   5
ATOM      5  C   UNL     1      23.478  -3.839 -30.052  1.00  0.00     0.000 C 
BRANCH   5   6
ATOM      6  C   UNL     1      23.737  -5.342 -30.240  1.00  0.00     0.000 C 
BRANCH   6   7
ATOM      7  C   UNL     1      24.137  -5.652 -31.691  1.00  0.00     0.000 C 
BRANCH   7   8
ATOM      8  C   UNL     1      23.787  -4.508 -32.657  1.00  0.00     0.006 C 
BRANCH   8   9
ATOM      9  C   UNL     1      24.866  -4.282 -33.724  1.00  0.00     0.053 C 
BRANCH   9  10
ATOM     10  C   UNL     1      26.188  -3.991 -33.083  1.00  0.00     0.041 C 
ATOM     11  O   UNL     1      27.198  -4.698 -33.356  1.00  0.00    -0.550 OA
ATOM     12  O   UNL     1      26.297  -2.953 -32.166  1.00  0.00    -0.550 OA
ENDBRANCH   9  10
ENDBRANCH   8   9
ENDBRANCH   7   8
ENDBRANCH   6   7
ENDBRANCH   5   6
ENDBRANCH   4   5
ENDBRANCH   3   4
ENDBRANCH   1   3
BRANCH   2  13
ATOM     13  C   UNL     1      23.862  -6.027 -26.592  1.00  0.00     0.027 C 
BRANCH  13  14
ATOM     14  C   UNL     1      24.567  -7.388 -26.628  1.00  0.00     0.004 C 
BRANCH  14  15
ATOM     15  C   UNL     1      24.653  -7.960 -28.054  1.00  0.00     0.000 C 
BRANCH  15  16
ATOM     16  C   UNL     1      26.078  -7.897 -28.630  1.00  0.00     0.000 C 
BRANCH  16  17
ATOM     17  C   UNL     1      27.155  -8.007 -27.541  1.00  0.00    -0.000 C 
BRANCH  17  18
ATOM     18  C   UNL     1      28.208  -6.899 -27.688  1.00  0.00    -0.000 C 
BRANCH  18  19
ATOM     19  C   UNL     1      28.353  -6.416 -29.141  1.00  0.00    -0.003 C 
ATOM     20  C   UNL     1      28.999  -5.035 -29.243  1.00  0.00     0.004 C 
ENDBRANCH  18  19
ENDBRANCH  17  18
ENDBRANCH  16  17
ENDBRANCH  15  16
ENDBRANCH  14  15
ENDBRANCH  13  14
ENDBRANCH   2  13
TORSDOF 15
ENDMDL
MODEL 2
REMARK VINA RESULT:    -3.143     13.315     15.507
REMARK INTER + INTRA:          -8.782
REMARK INTER:                  -6.132
REMARK INTRA:                  -2.651
REMARK UNBOUND:                -2.883
REMARK SMILES CCCCCCCCC=CCCCCCCCC(=O)[O-]
REMARK SMILES IDX 10 1 9 2 11 3 12 4 13 5 14 6 15 7 16 8 17 9 18 10 19 11
REMARK SMILES IDX 20 12 8 13 7 14 6 15 5 16 4 17 3 18 2 19 1 20
REMARK H PARENT
REMARK Flexibility Score: inf
ROOT
ATOM      1  C   UNL     1      30.754   4.850 -30.916  1.00  0.00    -0.031 C 
ATOM      2  C   UNL     1      31.409   4.010 -31.736  1.00  0.00    -0.031 C 
ENDROOT
BRANCH   1   3
ATOM      3  C   UNL     1      30.574   6.324 -31.169  1.00  0.00     0.027 C 
BRANCH   3   4
ATOM      4  C   UNL     1      31.287   7.148 -30.086  1.00  0.00     0.004 C 
BRANCH   4   5
ATOM      5  C   UNL     1      32.160   8.268 -30.673  1.00  0.00     0.000 C 
BRANCH   5   6
ATOM      6  C   UNL     1      32.782   9.156 -29.584  1.00  0.00     0.000 C 
BRANCH   6   7
ATOM      7  C   UNL     1      32.430   8.633 -28.183  1.00  0.00     0.000 C 
BRANCH   7   8
ATOM      8  C   UNL     1      32.152   9.767 -27.182  1.00  0.00     0.006 C 
BRANCH   8   9
ATOM      9  C   UNL     1      32.650   9.443 -25.767  1.00  0.00     0.053 C 
BRANCH   9  10
ATOM     10  C   UNL     1      33.544  10.533 -25.260  1.00  0.00     0.041 C 
ATOM     11  O   UNL     1      34.195  10.378 -24.189  1.00  0.00    -0.550 OA
ATOM     12  O   UNL     1      33.639  11.729 -25.960  1.00  0.00    -0.550 OA
ENDBRANCH   9  10
ENDBRANCH   8   9
ENDBRANCH   7   8
ENDBRANCH   6   7
ENDBRANCH   5   6
ENDBRANCH   4   5
ENDBRANCH   3   4
ENDBRANCH   1   3
BRANCH   2  13
ATOM     13  C   UNL     1      32.146   4.430 -32.984  1.00  0.00     0.027 C 
BRANCH  13  14
ATOM     14  C   UNL     1      33.572   3.870 -33.025  1.00  0.00     0.004 C 
BRANCH  14  15
ATOM     15  C   UNL     1      34.623   4.972 -33.241  1.00  0.00     0.000 C 
BRANCH  15  16
ATOM     16  C   UNL     1      34.498   6.116 -32.220  1.00  0.00     0.000 C 
BRANCH  16  17
ATOM     17  C   UNL     1      35.598   6.067 -31.148  1.00  0.00    -0.000 C 
BRANCH  17  18
ATOM     18  C   UNL     1      34.995   6.055 -29.736  1.00  0.00    -0.000 C 
BRANCH  18  19
ATOM     19  C   UNL     1      34.153   4.797 -29.467  1.00  0.00    -0.003 C 
ATOM     20  C   UNL     1      33.489   4.813 -28.090  1.00  0.00     0.004 C 
ENDBRANCH  18  19
ENDBRANCH  17  18
ENDBRANCH  16  17
ENDBRANCH  15  16
ENDBRANCH  14  15
ENDBRANCH  13  14
ENDBRANCH   2  13
TORSDOF 15
ENDMDL
MODEL 3
REMARK VINA RESULT:    -3.123      6.164     10.173
REMARK INTER + INTRA:          -8.744
REMARK INTER:                  -6.294
REMARK INTRA:                  -2.450
REMARK UNBOUND:                -2.883
REMARK SMILES CCCCCCCCC=CCCCCCCCC(=O)[O-]
REMARK SMILES IDX 10 1 9 2 11 3 12 4 13 5 14 6 15 7 16 8 17 9 18 10 19 11
REMARK SMILES IDX 20 12 8 13 7 14 6 15 5 16 4 17 3 18 2 19 1 20
REMARK H PARENT
REMARK Flexibility Score: inf
ROOT
ATOM      1  C   UNL     1      31.062  -0.707 -34.838  1.00  0.00    -0.031 C 
ATOM      2  C   UNL     1      32.137  -0.151 -35.421  1.00  0.00    -0.031 C 
ENDROOT
BRANCH   1   3
ATOM      3  C   UNL     1      30.714  -2.171 -34.906  1.00  0.00     0.027 C 
BRANCH   3   4
ATOM      4  C   UNL     1      29.228  -2.357 -35.248  1.00  0.00     0.004 C 
BRANCH   4   5
ATOM      5  C   UNL     1      28.978  -3.561 -36.168  1.00  0.00     0.000 C 
BRANCH   5   6
ATOM      6  C   UNL     1      27.576  -3.537 -36.796  1.00  0.00     0.000 C 
BRANCH   6   7
ATOM      7  C   UNL     1      26.785  -4.800 -36.422  1.00  0.00     0.000 C 
BRANCH   7   8
ATOM      8  C   UNL     1      26.365  -4.817 -34.943  1.00  0.00     0.006 C 
BRANCH   8   9
ATOM      9  C   UNL     1      25.204  -3.858 -34.646  1.00  0.00     0.053 C 
BRANCH   9  10
ATOM     10  C   UNL     1      24.413  -4.337 -33.467  1.00  0.00     0.041 C 
ATOM     11  O   UNL     1      24.798  -5.342 -32.806  1.00  0.00    -0.550 OA
ATOM     12  O   UNL     1      23.238  -3.686 -33.115  1.00  0.00    -0.550 OA
ENDBRANCH   9  10
ENDBRANCH   8   9
ENDBRANCH   7   8
ENDBRANCH   6   7
ENDBRANCH   5   6
ENDBRANCH   4   5
ENDBRANCH   3   4
ENDBRANCH   1   3
BRANCH   2  13
ATOM     13  C   UNL     1      33.107  -0.887 -36.313  1.00  0.00     0.027 C 
BRANCH  13  14
ATOM     14  C   UNL     1      33.132  -0.311 -37.734  1.00  0.00     0.004 C 
BRANCH  14  15
ATOM     15  C   UNL     1      32.763  -1.364 -38.793  1.00  0.00     0.000 C 
BRANCH  15  16
ATOM     16  C   UNL     1      31.409  -2.036 -38.511  1.00  0.00     0.000 C 
BRANCH  16  17
ATOM     17  C   UNL     1      30.283  -1.481 -39.397  1.00  0.00    -0.000 C 
BRANCH  17  18
ATOM     18  C   UNL     1      29.259  -0.695 -38.565  1.00  0.00    -0.000 C 
BRANCH  18  19
ATOM     19  C   UNL     1      29.745   0.722 -38.222  1.00  0.00    -0.003 C 
ATOM     20  C   UNL     1      30.103   1.541 -39.461  1.00  0.00     0.004 C 
ENDBRANCH  18  19
ENDBRANCH  17  18
ENDBRANCH  16  17
ENDBRANCH  15  16
ENDBRANCH  14  15
ENDBRANCH  13  14
ENDBRANCH   2  13
TORSDOF 15
ENDMDL
MODEL 4
REMARK VINA RESULT:    -3.119      5.940      9.910
REMARK INTER + INTRA:          -8.737
REMARK INTER:                  -6.248
REMARK INTRA:                  -2.489
REMARK UNBOUND:                -2.883
REMARK SMILES CCCCCCCCC=CCCCCCCCC(=O)[O-]
REMARK SMILES IDX 10 1 9 2 11 3 12 4 13 5 14 6 15 7 16 8 17 9 18 10 19 11
REMARK SMILES IDX 20 12 8 13 7 14 6 15 5 16 4 17 3 18 2 19 1 20
REMARK H PARENT
REMARK Flexibility Score: inf
ROOT
ATOM      1  C   UNL     1      31.189  -2.227 -39.279  1.00  0.00    -0.031 C 
ATOM      2  C   UNL     1      32.195  -1.551 -38.699  1.00  0.00    -0.031 C 
ENDROOT
BRANCH   1   3
ATOM      3  C   UNL     1      29.861  -1.626 -39.657  1.00  0.00     0.027 C 
BRANCH   3   4
ATOM      4  C   UNL     1      28.775  -2.711 -39.717  1.00  0.00     0.004 C 
BRANCH   4   5
ATOM      5  C   UNL     1      28.714  -3.557 -38.436  1.00  0.00     0.000 C 
BRANCH   5   6
ATOM      6  C   UNL     1      27.512  -3.190 -37.550  1.00  0.00     0.000 C 
BRANCH   6   7
ATOM      7  C   UNL     1      27.053  -4.400 -36.721  1.00  0.00     0.000 C 
BRANCH   7   8
ATOM      8  C   UNL     1      26.239  -3.991 -35.481  1.00  0.00     0.006 C 
BRANCH   8   9
ATOM      9  C   UNL     1      26.112  -5.125 -34.455  1.00  0.00     0.053 C 
BRANCH   9  10
ATOM     10  C   UNL     1      25.304  -4.680 -33.275  1.00  0.00     0.041 C 
ATOM     11  O   UNL     1      24.630  -5.517 -32.611  1.00  0.00    -0.550 OA
ATOM     12  O   UNL     1      25.278  -3.336 -32.924  1.00  0.00    -0.550 OA
ENDBRANCH   9  10
ENDBRANCH   8   9
ENDBRANCH   7   8
ENDBRANCH   6   7
ENDBRANCH   5   6
ENDBRANCH   4   5
ENDBRANCH   3   4
ENDBRANCH   1   3
BRANCH   2  13
ATOM     13  C   UNL     1      32.116  -0.112 -38.251  1.00  0.00     0.027 C 
BRANCH  13  14
ATOM     14  C   UNL     1      32.066   0.012 -36.723  1.00  0.00     0.004 C 
BRANCH  14  15
ATOM     15  C   UNL     1      30.630   0.191 -36.202  1.00  0.00     0.000 C 
BRANCH  15  16
ATOM     16  C   UNL     1      29.990  -1.137 -35.764  1.00  0.00     0.000 C 
BRANCH  16  17
ATOM     17  C   UNL     1      31.006  -2.090 -35.116  1.00  0.00    -0.000 C 
BRANCH  17  18
ATOM     18  C   UNL     1      30.574  -3.555 -35.279  1.00  0.00    -0.000 C 
BRANCH  18  19
ATOM     19  C   UNL     1      31.490  -4.335 -36.235  1.00  0.00    -0.003 C 
ATOM     20  C   UNL     1      32.827  -4.712 -35.598  1.00  0.00     0.004 C 
ENDBRANCH  18  19
ENDBRANCH  17  18
ENDBRANCH  16  17
ENDBRANCH  15  16
ENDBRANCH  14  15
ENDBRANCH  13  14
ENDBRANCH   2  13
TORSDOF 15
ENDMDL
MODEL 5
REMARK VINA RESULT:    -3.107      7.979     11.104
REMARK INTER + INTRA:          -8.715
REMARK INTER:                  -5.815
REMARK INTRA:                  -2.900
REMARK UNBOUND:                -2.883
REMARK SMILES CCCCCCCCC=CCCCCCCCC(=O)[O-]
REMARK SMILES IDX 10 1 9 2 11 3 12 4 13 5 14 6 15 7 16 8 17 9 18 10 19 11
REMARK SMILES IDX 20 12 8 13 7 14 6 15 5 16 4 17 3 18 2 19 1 20
REMARK H PARENT
REMARK Flexibility Score: inf
ROOT
ATOM      1  C   UNL     1      31.645  -3.995 -35.726  1.00  0.00    -0.031 C 
ATOM      2  C   UNL     1      32.099  -4.404 -36.923  1.00  0.00    -0.031 C 
ENDROOT
BRANCH   1   3
ATOM      3  C   UNL     1      31.803  -2.599 -35.183  1.00  0.00     0.027 C 
BRANCH   3   4
ATOM      4  C   UNL     1      30.471  -1.837 -35.260  1.00  0.00     0.004 C 
BRANCH   4   5
ATOM      5  C   UNL     1      30.420  -0.855 -36.441  1.00  0.00     0.000 C 
BRANCH   5   6
ATOM      6  C   UNL     1      31.792  -0.230 -36.741  1.00  0.00     0.000 C 
BRANCH   6   7
ATOM      7  C   UNL     1      31.760   0.553 -38.063  1.00  0.00     0.000 C 
BRANCH   7   8
ATOM      8  C   UNL     1      30.412   0.424 -38.793  1.00  0.00     0.006 C 
BRANCH   8   9
ATOM      9  C   UNL     1      30.074   1.660 -39.636  1.00  0.00     0.053 C 
BRANCH   9  10
ATOM     10  C   UNL     1      28.938   2.421 -39.024  1.00  0.00     0.041 C 
ATOM     11  O   UNL     1      28.249   3.214 -39.726  1.00  0.00    -0.550 OA
ATOM     12  O   UNL     1      28.657   2.272 -37.672  1.00  0.00    -0.550 OA
ENDBRANCH   9  10
ENDBRANCH   8   9
ENDBRANCH   7   8
ENDBRANCH   6   7
ENDBRANCH   5   6
ENDBRANCH   4   5
ENDBRANCH   3   4
ENDBRANCH   1   3
BRANCH   2  13
ATOM     13  C   UNL     1      32.920  -3.557 -37.865  1.00  0.00     0.027 C 
BRANCH  13  14
ATOM     14  C   UNL     1      32.087  -3.033 -39.040  1.00  0.00     0.004 C 
BRANCH  14  15
ATOM     15  C   UNL     1      31.384  -4.168 -39.805  1.00  0.00     0.000 C 
BRANCH  15  16
ATOM     16  C   UNL     1      29.902  -3.865 -40.081  1.00  0.00     0.000 C 
BRANCH  16  17
ATOM     17  C   UNL     1      29.182  -3.292 -38.851  1.00  0.00    -0.000 C 
BRANCH  17  18
ATOM     18  C   UNL     1      28.608  -4.413 -37.972  1.00  0.00    -0.000 C 
BRANCH  18  19
ATOM     19  C   UNL     1      27.837  -3.871 -36.758  1.00  0.00    -0.003 C 
ATOM     20  C   UNL     1      26.633  -4.737 -36.387  1.00  0.00     0.004 C 
ENDBRANCH  18  19
ENDBRANCH  17  18
ENDBRANCH  16  17
ENDBRANCH  15  16
ENDBRANCH  14  15
ENDBRANCH  13  14
ENDBRANCH   2  13
TORSDOF 15
ENDMDL
MODEL 6
REMARK VINA RESULT:    -3.091      8.360     11.558
REMARK INTER + INTRA:          -8.684
REMARK INTER:                  -5.904
REMARK INTRA:                  -2.780
REMARK UNBOUND:                -2.883
REMARK SMILES CCCCCCCCC=CCCCCCCCC(=O)[O-]
REMARK SMILES IDX 10 1 9 2 11 3 12 4 13 5 14 6 15 7 16 8 17 9 18 10 19 11
REMARK SMILES IDX 20 12 8 13 7 14 6 15 5 16 4 17 3 18 2 19 1 20
REMARK H PARENT
REMARK Flexibility Score: inf
ROOT
ATOM      1  C   UNL     1      33.032  -0.677 -38.254  1.00  0.00    -0.031 C 
ATOM      2  C   UNL     1      32.352   0.482 -38.221  1.00  0.00    -0.031 C 
ENDROOT
BRANCH   1   3
ATOM      3  C   UNL     1      32.479  -1.977 -38.777  1.00  0.00     0.027 C 
BRANCH   3   4
ATOM      4  C   UNL     1      32.836  -3.133 -37.830  1.00  0.00     0.004 C 
BRANCH   4   5
ATOM      5  C   UNL     1      33.350  -2.645 -36.468  1.00  0.00     0.000 C 
BRANCH   5   6
ATOM      6  C   UNL     1      32.279  -2.745 -35.369  1.00  0.00     0.000 C 
BRANCH   6   7
ATOM      7  C   UNL     1      32.560  -1.744 -34.237  1.00  0.00     0.000 C 
BRANCH   7   8
ATOM      8  C   UNL     1      32.058  -0.328 -34.564  1.00  0.00     0.006 C 
BRANCH   8   9
ATOM      9  C   UNL     1      33.178   0.720 -34.535  1.00  0.00     0.053 C 
BRANCH   9  10
ATOM     10  C   UNL     1      32.938   1.720 -33.446  1.00  0.00     0.041 C 
ATOM     11  O   UNL     1      32.014   1.538 -32.605  1.00  0.00    -0.550 OA
ATOM     12  O   UNL     1      33.720   2.866 -33.378  1.00  0.00    -0.550 OA
ENDBRANCH   9  10
ENDBRANCH   8   9
ENDBRANCH   7   8
ENDBRANCH   6   7
ENDBRANCH   5   6
ENDBRANCH   4   5
ENDBRANCH   3   4
ENDBRANCH   1   3
BRANCH   2  13
ATOM     13  C   UNL     1      30.903   0.639 -38.612  1.00  0.00     0.027 C 
BRANCH  13  14
ATOM     14  C   UNL     1      29.981   0.690 -37.389  1.00  0.00     0.004 C 
BRANCH  14  15
ATOM     15  C   UNL     1      28.888  -0.393 -37.439  1.00  0.00     0.000 C 
BRANCH  15  16
ATOM     16  C   UNL     1      28.658  -0.933 -38.861  1.00  0.00     0.000 C 
BRANCH  16  17
ATOM     17  C   UNL     1      28.634  -2.469 -38.906  1.00  0.00    -0.000 C 
BRANCH  17  18
ATOM     18  C   UNL     1      29.098  -3.071 -37.571  1.00  0.00    -0.000 C 
BRANCH  18  19
ATOM     19  C   UNL     1      28.273  -4.303 -37.164  1.00  0.00    -0.003 C 
ATOM     20  C   UNL     1      26.828  -3.955 -36.808  1.00  0.00     0.004 C 
ENDBRANCH  18  19
ENDBRANCH  17  18
ENDBRANCH  16  17
ENDBRANCH  15  16
ENDBRANCH  14  15
ENDBRANCH  13  14
ENDBRANCH   2  13
TORSDOF 15
ENDMDL
MODEL 7
REMARK VINA RESULT:    -3.080      9.110     11.585
REMARK INTER + INTRA:          -8.663
REMARK INTER:                  -5.956
REMARK INTRA:                  -2.707
REMARK UNBOUND:                -2.883
REMARK SMILES CCCCCCCCC=CCCCCCCCC(=O)[O-]
REMARK SMILES IDX 10 1 9 2 11 3 12 4 13 5 14 6 15 7 16 8 17 9 18 10 19 11
REMARK SMILES IDX 20 12 8 13 7 14 6 15 5 16 4 17 3 18 2 19 1 20
REMARK H PARENT
REMARK Flexibility Score: inf
ROOT
ATOM      1  C   UNL     1      30.941  -0.446 -38.654  1.00  0.00    -0.031 C 
ATOM      2  C   UNL     1      32.195  -0.914 -38.542  1.00  0.00    -0.031 C 
ENDROOT
BRANCH   1   3
ATOM      3  C   UNL     1      30.472   0.881 -38.117  1.00  0.00     0.027 C 
BRANCH   3   4
ATOM      4  C   UNL     1      29.902   0.719 -36.700  1.00  0.00     0.004 C 
BRANCH   4   5
ATOM      5  C   UNL     1      30.604   1.622 -35.674  1.00  0.00     0.000 C 
BRANCH   5   6
ATOM      6  C   UNL     1      30.416   1.125 -34.232  1.00  0.00     0.000 C 
BRANCH   6   7
ATOM      7  C   UNL     1      31.762   1.067 -33.492  1.00  0.00     0.000 C 
BRANCH   7   8
ATOM      8  C   UNL     1      32.127   2.404 -32.826  1.00  0.00     0.006 C 
BRANCH   8   9
ATOM      9  C   UNL     1      33.479   2.952 -33.300  1.00  0.00     0.053 C 
BRANCH   9  10
ATOM     10  C   UNL     1      33.552   4.433 -33.087  1.00  0.00     0.041 C 
ATOM     11  O   UNL     1      34.577   5.079 -33.444  1.00  0.00    -0.550 OA
ATOM     12  O   UNL     1      32.497   5.094 -32.471  1.00  0.00    -0.550 OA
ENDBRANCH   9  10
ENDBRANCH   8   9
ENDBRANCH   7   8
ENDBRANCH   6   7
ENDBRANCH   5   6
ENDBRANCH   4   5
ENDBRANCH   3   4
ENDBRANCH   1   3
BRANCH   2  13
ATOM     13  C   UNL     1      33.303  -0.228 -37.780  1.00  0.00     0.027 C 
BRANCH  13  14
ATOM     14  C   UNL     1      33.412  -0.740 -36.339  1.00  0.00     0.004 C 
BRANCH  14  15
ATOM     15  C   UNL     1      32.858  -2.167 -36.187  1.00  0.00     0.000 C 
BRANCH  15  16
ATOM     16  C   UNL     1      31.743  -2.258 -35.132  1.00  0.00     0.000 C 
BRANCH  16  17
ATOM     17  C   UNL     1      30.772  -3.418 -35.404  1.00  0.00    -0.000 C 
BRANCH  17  18
ATOM     18  C   UNL     1      29.604  -2.966 -36.293  1.00  0.00    -0.000 C 
BRANCH  18  19
ATOM     19  C   UNL     1      29.273  -3.988 -37.393  1.00  0.00    -0.003 C 
ATOM     20  C   UNL     1      30.407  -4.156 -38.403  1.00  0.00     0.004 C 
ENDBRANCH  18  19
ENDBRANCH  17  18
ENDBRANCH  16  17
ENDBRANCH  15  16
ENDBRANCH  14  15
ENDBRANCH  13  14
ENDBRANCH   2  13
TORSDOF 15
ENDMDL
MODEL 8
REMARK VINA RESULT:    -3.072     10.481     13.043
REMARK INTER + INTRA:          -8.648
REMARK INTER:                  -6.911
REMARK INTRA:                  -1.737
REMARK UNBOUND:                -2.883
REMARK SMILES CCCCCCCCC=CCCCCCCCC(=O)[O-]
REMARK SMILES IDX 10 1 9 2 11 3 12 4 13 5 14 6 15 7 16 8 17 9 18 10 19 11
REMARK SMILES IDX 20 12 8 13 7 14 6 15 5 16 4 17 3 18 2 19 1 20
REMARK H PARENT
REMARK Flexibility Score: inf
ROOT
ATOM      1  C   UNL     1      31.165   0.380 -34.715  1.00  0.00    -0.031 C 
ATOM      2  C   UNL     1      32.016  -0.417 -35.382  1.00  0.00    -0.031 C 
ENDROOT
BRANCH   1   3
ATOM      3  C   UNL     1      31.362   1.859 -34.509  1.00  0.00     0.027 C 
BRANCH   3   4
ATOM      4  C   UNL     1      32.057   2.129 -33.165  1.00  0.00     0.004 C 
BRANCH   4   5
ATOM      5  C   UNL     1      33.405   2.846 -33.330  1.00  0.00     0.000 C 
BRANCH   5   6
ATOM      6  C   UNL     1      33.336   4.325 -32.915  1.00  0.00     0.000 C 
BRANCH   6   7
ATOM      7  C   UNL     1      34.745   4.929 -32.801  1.00  0.00     0.000 C 
BRANCH   7   8
ATOM      8  C   UNL     1      35.113   5.297 -31.354  1.00  0.00     0.006 C 
BRANCH   8   9
ATOM      9  C   UNL     1      35.322   6.805 -31.161  1.00  0.00     0.053 C 
BRANCH   9  10
ATOM     10  C   UNL     1      34.019   7.484 -30.867  1.00  0.00     0.041 C 
ATOM     11  O   UNL     1      33.796   8.649 -31.300  1.00  0.00    -0.550 OA
ATOM     12  O   UNL     1      33.064   6.837 -30.094  1.00  0.00    -0.550 OA
ENDBRANCH   9  10
ENDBRANCH   8   9
ENDBRANCH   7   8
ENDBRANCH   6   7
ENDBRANCH   5   6
ENDBRANCH   4   5
ENDBRANCH   3   4
ENDBRANCH   1   3
BRANCH   2  13
ATOM     13  C   UNL     1      33.345   0.026 -35.944  1.00  0.00     0.027 C 
BRANCH  13  14
ATOM     14  C   UNL     1      33.471  -0.290 -37.439  1.00  0.00     0.004 C 
BRANCH  14  15
ATOM     15  C   UNL     1      32.137  -0.108 -38.185  1.00  0.00     0.000 C 
BRANCH  15  16
ATOM     16  C   UNL     1      31.716  -1.368 -38.959  1.00  0.00     0.000 C 
BRANCH  16  17
ATOM     17  C   UNL     1      32.478  -2.620 -38.497  1.00  0.00    -0.000 C 
BRANCH  17  18
ATOM     18  C   UNL     1      31.607  -3.491 -37.578  1.00  0.00    -0.000 C 
BRANCH  18  19
ATOM     19  C   UNL     1      32.380  -4.007 -36.353  1.00  0.00    -0.003 C 
ATOM     20  C   UNL     1      33.889  -3.797 -36.474  1.00  0.00     0.004 C 
ENDBRANCH  18  19
ENDBRANCH  17  18
ENDBRANCH  16  17
ENDBRANCH  15  16
ENDBRANCH  14  15
ENDBRANCH  13  14
ENDBRANCH   2  13
TORSDOF 15
ENDMDL
MODEL 9
REMARK VINA RESULT:    -3.040      6.705     10.129
REMARK INTER + INTRA:          -8.589
REMARK INTER:                  -5.671
REMARK INTRA:                  -2.918
REMARK UNBOUND:                -2.883
REMARK SMILES CCCCCCCCC=CCCCCCCCC(=O)[O-]
REMARK SMILES IDX 10 1 9 2 11 3 12 4 13 5 14 6 15 7 16 8 17 9 18 10 19 11
REMARK SMILES IDX 20 12 8 13 7 14 6 15 5 16 4 17 3 18 2 19 1 20
REMARK H PARENT
REMARK Flexibility Score: inf
ROOT
ATOM      1  C   UNL     1      30.664   0.286 -34.986  1.00  0.00    -0.031 C 
ATOM      2  C   UNL     1      31.846  -0.295 -34.720  1.00  0.00    -0.031 C 
ENDROOT
BRANCH   1   3
ATOM      3  C   UNL     1      30.461   1.393 -35.988  1.00  0.00     0.027 C 
BRANCH   3   4
ATOM      4  C   UNL     1      29.686   0.878 -37.210  1.00  0.00     0.004 C 
BRANCH   4   5
ATOM      5  C   UNL     1      28.859  -0.379 -36.900  1.00  0.00     0.000 C 
BRANCH   5   6
ATOM      6  C   UNL     1      28.451  -1.140 -38.171  1.00  0.00     0.000 C 
BRANCH   6   7
ATOM      7  C   UNL     1      27.191  -1.984 -37.925  1.00  0.00     0.000 C 
BRANCH   7   8
ATOM      8  C   UNL     1      27.514  -3.376 -37.357  1.00  0.00     0.006 C 
BRANCH   8   9
ATOM      9  C   UNL     1      26.338  -3.990 -36.588  1.00  0.00     0.053 C 
BRANCH   9  10
ATOM     10  C   UNL     1      26.770  -4.427 -35.222  1.00  0.00     0.041 C 
ATOM     11  O   UNL     1      26.316  -5.492 -34.719  1.00  0.00    -0.550 OA
ATOM     12  O   UNL     1      27.657  -3.642 -34.496  1.00  0.00    -0.550 OA
ENDBRANCH   9  10
ENDBRANCH   8   9
ENDBRANCH   7   8
ENDBRANCH   6   7
ENDBRANCH   5   6
ENDBRANCH   4   5
ENDBRANCH   3   4
ENDBRANCH   1   3
BRANCH   2  13
ATOM     13  C   UNL     1      33.166   0.136 -35.313  1.00  0.00     0.027 C 
BRANCH  13  14
ATOM     14  C   UNL     1      33.603  -0.775 -36.466  1.00  0.00     0.004 C 
BRANCH  14  15
ATOM     15  C   UNL     1      33.181  -0.218 -37.837  1.00  0.00     0.000 C 
BRANCH  15  16
ATOM     16  C   UNL     1      32.309  -1.204 -38.632  1.00  0.00     0.000 C 
BRANCH  16  17
ATOM     17  C   UNL     1      32.613  -2.669 -38.282  1.00  0.00    -0.000 C 
BRANCH  17  18
ATOM     18  C   UNL     1      31.327  -3.439 -37.951  1.00  0.00    -0.000 C 
BRANCH  18  19
ATOM     19  C   UNL     1      30.989  -3.403 -36.452  1.00  0.00    -0.003 C 
ATOM     20  C   UNL     1      32.039  -4.108 -35.593  1.00  0.00     0.004 C 
ENDBRANCH  18  19
ENDBRANCH  17  18
ENDBRANCH  16  17
ENDBRANCH  15  16
ENDBRANCH  14  15
ENDBRANCH  13  14
ENDBRANCH   2  13
TORSDOF 15
ENDMDL
