MODEL 1
REMARK VINA RESULT:    -6.119      0.000      0.000
REMARK INTER + INTRA:          -6.979
REMARK INTER:                  -6.656
REMARK INTRA:                  -0.322
REMARK UNBOUND:                -0.322
REMARK SMILES C[C@@H]1[C@H](C)CC[C@]2(C(=O)[O-])CC[C@]3(C)C(=CC[C@H]4[C@]5(C)CC[C@H](O)C(C)(C)[C@@H]5CC[C@]43C)[C@H]12
REMARK SMILES IDX 7 1 6 2 11 3 33 4 5 5 12 6 15 7 2 8 3 9 13 10 16 11 1 12
REMARK SMILES IDX 4 13 14 14 31 15 17 16 18 17 30 18 32 19 19 20 29 21 28 22
REMARK SMILES IDX 21 23 20 24 25 25 22 26 23 27 26 28 27 29 8 30 9 31 10 32
REMARK SMILES IDX 24 33
REMARK H PARENT 24 34
REMARK Flexibility Score: inf
ROOT
ATOM      1  C   UNL     1       1.975   3.874   9.756  1.00  0.00     0.017 C 
ATOM      2  C   UNL     1       1.121   5.177   9.636  1.00  0.00     0.014 C 
ATOM      3  C   UNL     1       3.429   4.277  10.062  1.00  0.00     0.014 C 
ATOM      4  C   UNL     1       1.871   3.023   8.428  1.00  0.00     0.030 C 
ATOM      5  C   UNL     1      -0.235   4.919   8.979  1.00  0.00     0.004 C 
ATOM      6  C   UNL     1       4.406   3.088  10.008  1.00  0.00     0.013 C 
ATOM      7  C   UNL     1       3.071   2.092   8.141  1.00  0.00    -0.063 C 
ATOM      8  C   UNL     1       1.290   3.764   7.179  1.00  0.00    -0.003 C 
ATOM      9  C   UNL     1      -0.115   4.375   7.529  1.00  0.00    -0.011 C 
ATOM     10  C   UNL     1       4.517   2.385   8.613  1.00  0.00    -0.006 C 
ATOM     11  C   UNL     1       2.749   0.899   7.625  1.00  0.00    -0.027 C 
ATOM     12  C   UNL     1       2.277   4.734   6.503  1.00  0.00     0.008 C 
ATOM     13  C   UNL     1      -0.629   5.395   6.502  1.00  0.00     0.008 C 
ATOM     14  C   UNL     1       5.163   3.401   7.625  1.00  0.00     0.017 C 
ATOM     15  C   UNL     1       5.461   1.046   8.681  1.00  0.00    -0.020 C 
ATOM     16  C   UNL     1       3.456  -0.363   7.985  1.00  0.00     0.032 C 
ATOM     17  C   UNL     1       4.602  -0.223   9.043  1.00  0.00     0.006 C 
ATOM     18  C   UNL     1       6.137   0.713   7.313  1.00  0.00     0.008 C 
ATOM     19  C   UNL     1       6.607   1.296   9.707  1.00  0.00     0.012 C 
ATOM     20  C   UNL     1       5.398  -1.617   9.179  1.00  0.00    -0.025 C 
ATOM     21  C   UNL     1       6.975  -0.576   7.319  1.00  0.00     0.005 C 
ATOM     22  C   UNL     1       6.320  -1.870   7.911  1.00  0.00     0.003 C 
ATOM     23  C   UNL     1       6.189  -1.724  10.541  1.00  0.00     0.010 C 
ATOM     24  C   UNL     1       4.294  -2.742   9.266  1.00  0.00     0.012 C 
ATOM     25  C   UNL     1       7.407  -3.009   8.112  1.00  0.00    -0.006 C 
ATOM     26  C   UNL     1       7.711  -2.031  10.540  1.00  0.00     0.033 C 
ATOM     27  C   UNL     1       8.375  -2.678   9.296  1.00  0.00     0.120 C 
ATOM     28  C   UNL     1       8.223  -3.209   6.799  1.00  0.00     0.014 C 
ATOM     29  C   UNL     1       6.759  -4.394   8.390  1.00  0.00     0.014 C 
ENDROOT
BRANCH   1  30
ATOM     30  C   UNL     1       1.473   3.060  10.956  1.00  0.00     0.048 C 
ATOM     31  O   UNL     1       1.516   3.530  12.125  1.00  0.00    -0.550 OA
ATOM     32  O   UNL     1       0.858   1.824  10.760  1.00  0.00    -0.550 OA
ENDBRANCH   1  30
BRANCH  27  33
ATOM     33  O   UNL     1       9.435  -1.846   8.881  1.00  0.00    -0.393 OA
ATOM     34  H   UNL     1      10.090  -1.786   9.627  1.00  0.00     0.210 HD
ENDBRANCH  27  33
TORSDOF 2
ENDMDL
MODEL 2
REMARK VINA RESULT:    -5.808      4.498      6.942
REMARK INTER + INTRA:          -6.640
REMARK INTER:                  -6.364
REMARK INTRA:                  -0.276
REMARK UNBOUND:                -0.322
REMARK SMILES C[C@@H]1[C@H](C)CC[C@]2(C(=O)[O-])CC[C@]3(C)C(=CC[C@H]4[C@]5(C)CC[C@H](O)C(C)(C)[C@@H]5CC[C@]43C)[C@H]12
REMARK SMILES IDX 7 1 6 2 11 3 33 4 5 5 12 6 15 7 2 8 3 9 13 10 16 11 1 12
REMARK SMILES IDX 4 13 14 14 31 15 17 16 18 17 30 18 32 19 19 20 29 21 28 22
REMARK SMILES IDX 21 23 20 24 25 25 22 26 23 27 26 28 27 29 8 30 9 31 10 32
REMARK SMILES IDX 24 33
REMARK H PARENT 24 34
REMARK Flexibility Score: inf
ROOT
ATOM      1  C   UNL     1       0.782  -5.240   6.956  1.00  0.00     0.017 C 
ATOM      2  C   UNL     1      -0.598  -5.967   6.875  1.00  0.00     0.014 C 
ATOM      3  C   UNL     1       1.775  -6.169   7.678  1.00  0.00     0.014 C 
ATOM      4  C   UNL     1       0.631  -3.854   7.702  1.00  0.00     0.030 C 
ATOM      5  C   UNL     1      -1.736  -5.008   6.517  1.00  0.00     0.004 C 
ATOM      6  C   UNL     1       3.117  -5.485   7.994  1.00  0.00     0.013 C 
ATOM      7  C   UNL     1       1.910  -3.330   8.393  1.00  0.00    -0.063 C 
ATOM      8  C   UNL     1      -0.694  -3.645   8.506  1.00  0.00    -0.003 C 
ATOM      9  C   UNL     1      -1.930  -3.879   7.566  1.00  0.00    -0.011 C 
ATOM     10  C   UNL     1       3.022  -4.251   8.954  1.00  0.00    -0.006 C 
ATOM     11  C   UNL     1       2.101  -2.007   8.299  1.00  0.00    -0.027 C 
ATOM     12  C   UNL     1      -0.742  -4.395   9.851  1.00  0.00     0.008 C 
ATOM     13  C   UNL     1      -3.266  -4.028   8.310  1.00  0.00     0.008 C 
ATOM     14  C   UNL     1       2.570  -4.776  10.349  1.00  0.00     0.017 C 
ATOM     15  C   UNL     1       4.468  -3.496   9.119  1.00  0.00    -0.020 C 
ATOM     16  C   UNL     1       3.445  -1.388   8.121  1.00  0.00     0.032 C 
ATOM     17  C   UNL     1       4.646  -2.387   8.017  1.00  0.00     0.006 C 
ATOM     18  C   UNL     1       4.608  -2.751  10.485  1.00  0.00     0.008 C 
ATOM     19  C   UNL     1       5.598  -4.569   9.068  1.00  0.00     0.012 C 
ATOM     20  C   UNL     1       6.038  -1.576   8.029  1.00  0.00    -0.025 C 
ATOM     21  C   UNL     1       5.924  -1.973  10.648  1.00  0.00     0.005 C 
ATOM     22  C   UNL     1       6.359  -1.022   9.482  1.00  0.00     0.003 C 
ATOM     23  C   UNL     1       7.227  -2.419   7.420  1.00  0.00     0.010 C 
ATOM     24  C   UNL     1       5.848  -0.370   7.030  1.00  0.00     0.012 C 
ATOM     25  C   UNL     1       7.858  -0.540   9.679  1.00  0.00    -0.006 C 
ATOM     26  C   UNL     1       8.527  -2.642   8.238  1.00  0.00     0.033 C 
ATOM     27  C   UNL     1       8.875  -1.702   9.422  1.00  0.00     0.120 C 
ATOM     28  C   UNL     1       8.054   0.028  11.118  1.00  0.00     0.014 C 
ATOM     29  C   UNL     1       8.224   0.640   8.736  1.00  0.00     0.014 C 
ENDROOT
BRANCH   1  30
ATOM     30  C   UNL     1       1.317  -5.028   5.534  1.00  0.00     0.048 C 
ATOM     31  O   UNL     1       1.280  -3.892   4.987  1.00  0.00    -0.550 OA
ATOM     32  O   UNL     1       1.953  -6.069   4.859  1.00  0.00    -0.550 OA
ENDBRANCH   1  30
BRANCH  27  33
ATOM     33  O   UNL     1       9.059  -2.493  10.574  1.00  0.00    -0.393 OA
ATOM     34  H   UNL     1       9.725  -2.039  11.156  1.00  0.00     0.210 HD
ENDBRANCH  27  33
TORSDOF 2
ENDMDL
MODEL 3
REMARK VINA RESULT:    -5.691     12.364     14.214
REMARK INTER + INTRA:          -6.513
REMARK INTER:                  -6.187
REMARK INTRA:                  -0.326
REMARK UNBOUND:                -0.322
REMARK SMILES C[C@@H]1[C@H](C)CC[C@]2(C(=O)[O-])CC[C@]3(C)C(=CC[C@H]4[C@]5(C)CC[C@H](O)C(C)(C)[C@@H]5CC[C@]43C)[C@H]12
REMARK SMILES IDX 7 1 6 2 11 3 33 4 5 5 12 6 15 7 2 8 3 9 13 10 16 11 1 12
REMARK SMILES IDX 4 13 14 14 31 15 17 16 18 17 30 18 32 19 19 20 29 21 28 22
REMARK SMILES IDX 21 23 20 24 25 25 22 26 23 27 26 28 27 29 8 30 9 31 10 32
REMARK SMILES IDX 24 33
REMARK H PARENT 24 34
REMARK Flexibility Score: inf
ROOT
ATOM      1  C   UNL     1       2.677  -0.556  -5.108  1.00  0.00     0.017 C 
ATOM      2  C   UNL     1       1.325  -1.339  -5.070  1.00  0.00     0.014 C 
ATOM      3  C   UNL     1       3.619  -1.268  -6.096  1.00  0.00     0.014 C 
ATOM      4  C   UNL     1       3.305  -0.472  -3.659  1.00  0.00     0.030 C 
ATOM      5  C   UNL     1       0.464  -0.947  -3.868  1.00  0.00     0.004 C 
ATOM      6  C   UNL     1       5.051  -0.705  -6.071  1.00  0.00     0.013 C 
ATOM      7  C   UNL     1       4.841  -0.307  -3.610  1.00  0.00    -0.063 C 
ATOM      8  C   UNL     1       2.705  -1.444  -2.591  1.00  0.00    -0.003 C 
ATOM      9  C   UNL     1       1.148  -1.248  -2.507  1.00  0.00    -0.011 C 
ATOM     10  C   UNL     1       5.797  -0.848  -4.702  1.00  0.00    -0.006 C 
ATOM     11  C   UNL     1       5.289   0.518  -2.656  1.00  0.00    -0.027 C 
ATOM     12  C   UNL     1       3.175  -2.905  -2.730  1.00  0.00     0.008 C 
ATOM     13  C   UNL     1       0.415  -2.363  -1.745  1.00  0.00     0.008 C 
ATOM     14  C   UNL     1       6.025  -2.369  -4.449  1.00  0.00     0.017 C 
ATOM     15  C   UNL     1       7.253  -0.095  -4.720  1.00  0.00    -0.020 C 
ATOM     16  C   UNL     1       6.447   1.436  -2.850  1.00  0.00     0.032 C 
ATOM     17  C   UNL     1       7.108   1.407  -4.270  1.00  0.00     0.006 C 
ATOM     18  C   UNL     1       8.275  -0.730  -3.724  1.00  0.00     0.008 C 
ATOM     19  C   UNL     1       7.865  -0.228  -6.148  1.00  0.00     0.012 C 
ATOM     20  C   UNL     1       8.455   2.292  -4.268  1.00  0.00    -0.025 C 
ATOM     21  C   UNL     1       9.630  -0.007  -3.662  1.00  0.00     0.005 C 
ATOM     22  C   UNL     1       9.620   1.549  -3.484  1.00  0.00     0.003 C 
ATOM     23  C   UNL     1       8.881   2.734  -5.722  1.00  0.00     0.010 C 
ATOM     24  C   UNL     1       8.090   3.637  -3.528  1.00  0.00     0.012 C 
ATOM     25  C   UNL     1      11.065   2.154  -3.739  1.00  0.00    -0.006 C 
ATOM     26  C   UNL     1      10.307   2.419  -6.249  1.00  0.00     0.033 C 
ATOM     27  C   UNL     1      11.453   2.098  -5.254  1.00  0.00     0.120 C 
ATOM     28  C   UNL     1      12.125   1.387  -2.890  1.00  0.00     0.014 C 
ATOM     29  C   UNL     1      11.173   3.631  -3.267  1.00  0.00     0.014 C 
ENDROOT
BRANCH   1  30
ATOM     30  C   UNL     1       2.421   0.850  -5.664  1.00  0.00     0.048 C 
ATOM     31  O   UNL     1       2.044   1.019  -6.856  1.00  0.00    -0.550 OA
ATOM     32  O   UNL     1       2.496   1.963  -4.828  1.00  0.00    -0.550 OA
ENDBRANCH   1  30
BRANCH  27  33
ATOM     33  O   UNL     1      12.000   0.845  -5.602  1.00  0.00    -0.393 OA
ATOM     34  H   UNL     1      12.969   0.859  -5.375  1.00  0.00     0.210 HD
ENDBRANCH  27  33
TORSDOF 2
ENDMDL
MODEL 4
REMARK VINA RESULT:    -5.691     12.303     14.106
REMARK INTER + INTRA:          -6.513
REMARK INTER:                  -6.239
REMARK INTRA:                  -0.274
REMARK UNBOUND:                -0.322
REMARK SMILES C[C@@H]1[C@H](C)CC[C@]2(C(=O)[O-])CC[C@]3(C)C(=CC[C@H]4[C@]5(C)CC[C@H](O)C(C)(C)[C@@H]5CC[C@]43C)[C@H]12
REMARK SMILES IDX 7 1 6 2 11 3 33 4 5 5 12 6 15 7 2 8 3 9 13 10 16 11 1 12
REMARK SMILES IDX 4 13 14 14 31 15 17 16 18 17 30 18 32 19 19 20 29 21 28 22
REMARK SMILES IDX 21 23 20 24 25 25 22 26 23 27 26 28 27 29 8 30 9 31 10 32
REMARK SMILES IDX 24 33
REMARK H PARENT 24 34
REMARK Flexibility Score: inf
ROOT
ATOM      1  C   UNL     1       1.905  -3.050  -2.680  1.00  0.00     0.017 C 
ATOM      2  C   UNL     1       0.406  -3.440  -2.481  1.00  0.00     0.014 C 
ATOM      3  C   UNL     1       2.113  -1.632  -2.118  1.00  0.00     0.014 C 
ATOM      4  C   UNL     1       2.299  -3.137  -4.208  1.00  0.00     0.030 C 
ATOM      5  C   UNL     1       0.009  -4.655  -3.321  1.00  0.00     0.004 C 
ATOM      6  C   UNL     1       3.507  -1.060  -2.434  1.00  0.00     0.013 C 
ATOM      7  C   UNL     1       3.476  -2.234  -4.642  1.00  0.00    -0.063 C 
ATOM      8  C   UNL     1       1.111  -3.216  -5.222  1.00  0.00    -0.003 C 
ATOM      9  C   UNL     1       0.170  -4.418  -4.848  1.00  0.00    -0.011 C 
ATOM     10  C   UNL     1       3.824  -0.889  -3.958  1.00  0.00    -0.006 C 
ATOM     11  C   UNL     1       4.314  -2.787  -5.530  1.00  0.00    -0.027 C 
ATOM     12  C   UNL     1       0.395  -1.874  -5.464  1.00  0.00     0.008 C 
ATOM     13  C   UNL     1      -1.191  -4.395  -5.559  1.00  0.00     0.008 C 
ATOM     14  C   UNL     1       2.870   0.210  -4.515  1.00  0.00     0.017 C 
ATOM     15  C   UNL     1       5.373  -0.416  -4.208  1.00  0.00    -0.020 C 
ATOM     16  C   UNL     1       5.788  -2.569  -5.504  1.00  0.00     0.032 C 
ATOM     17  C   UNL     1       6.322  -1.665  -4.342  1.00  0.00     0.006 C 
ATOM     18  C   UNL     1       5.554   0.388  -5.535  1.00  0.00     0.008 C 
ATOM     19  C   UNL     1       5.800   0.528  -3.043  1.00  0.00     0.012 C 
ATOM     20  C   UNL     1       7.889  -1.360  -4.560  1.00  0.00    -0.025 C 
ATOM     21  C   UNL     1       7.006   0.788  -5.839  1.00  0.00     0.005 C 
ATOM     22  C   UNL     1       8.106  -0.322  -5.742  1.00  0.00     0.003 C 
ATOM     23  C   UNL     1       8.604  -0.920  -3.222  1.00  0.00     0.010 C 
ATOM     24  C   UNL     1       8.554  -2.740  -4.935  1.00  0.00     0.012 C 
ATOM     25  C   UNL     1       9.558   0.317  -5.790  1.00  0.00    -0.006 C 
ATOM     26  C   UNL     1       9.398   0.413  -3.161  1.00  0.00     0.033 C 
ATOM     27  C   UNL     1       9.891   1.088  -4.468  1.00  0.00     0.120 C 
ATOM     28  C   UNL     1       9.680   1.280  -7.011  1.00  0.00     0.014 C 
ATOM     29  C   UNL     1      10.662  -0.751  -6.018  1.00  0.00     0.014 C 
ENDROOT
BRANCH   1  30
ATOM     30  C   UNL     1       2.779  -3.997  -1.846  1.00  0.00     0.048 C 
ATOM     31  O   UNL     1       2.485  -4.268  -0.649  1.00  0.00    -0.550 OA
ATOM     32  O   UNL     1       3.856  -4.661  -2.431  1.00  0.00    -0.550 OA
ENDBRANCH   1  30
BRANCH  27  33
ATOM     33  O   UNL     1       9.393   2.406  -4.498  1.00  0.00    -0.393 OA
ATOM     34  H   UNL     1       8.833   2.542  -3.687  1.00  0.00     0.210 HD
ENDBRANCH  27  33
TORSDOF 2
ENDMDL
MODEL 5
REMARK VINA RESULT:    -5.355      8.237     12.140
REMARK INTER + INTRA:          -6.147
REMARK INTER:                  -5.822
REMARK INTRA:                  -0.325
REMARK UNBOUND:                -0.322
REMARK SMILES C[C@@H]1[C@H](C)CC[C@]2(C(=O)[O-])CC[C@]3(C)C(=CC[C@H]4[C@]5(C)CC[C@H](O)C(C)(C)[C@@H]5CC[C@]43C)[C@H]12
REMARK SMILES IDX 7 1 6 2 11 3 33 4 5 5 12 6 15 7 2 8 3 9 13 10 16 11 1 12
REMARK SMILES IDX 4 13 14 14 31 15 17 16 18 17 30 18 32 19 19 20 29 21 28 22
REMARK SMILES IDX 21 23 20 24 25 25 22 26 23 27 26 28 27 29 8 30 9 31 10 32
REMARK SMILES IDX 24 33
REMARK H PARENT 24 34
REMARK Flexibility Score: inf
ROOT
ATOM      1  C   UNL     1       2.489  -8.735   2.331  1.00  0.00     0.017 C 
ATOM      2  C   UNL     1       3.239  -9.326   1.094  1.00  0.00     0.014 C 
ATOM      3  C   UNL     1       1.058  -9.300   2.343  1.00  0.00     0.014 C 
ATOM      4  C   UNL     1       2.493  -7.155   2.275  1.00  0.00     0.030 C 
ATOM      5  C   UNL     1       4.524  -8.560   0.778  1.00  0.00     0.004 C 
ATOM      6  C   UNL     1       0.160  -8.638   3.404  1.00  0.00     0.013 C 
ATOM      7  C   UNL     1       1.331  -6.461   3.020  1.00  0.00    -0.063 C 
ATOM      8  C   UNL     1       2.878  -6.516   0.900  1.00  0.00    -0.003 C 
ATOM      9  C   UNL     1       4.272  -7.067   0.428  1.00  0.00    -0.011 C 
ATOM     10  C   UNL     1      -0.067  -7.100   3.215  1.00  0.00    -0.006 C 
ATOM     11  C   UNL     1       1.667  -5.341   3.673  1.00  0.00    -0.027 C 
ATOM     12  C   UNL     1       1.759  -6.570  -0.158  1.00  0.00     0.008 C 
ATOM     13  C   UNL     1       4.597  -6.774  -1.044  1.00  0.00     0.008 C 
ATOM     14  C   UNL     1      -0.886  -6.905   1.904  1.00  0.00     0.017 C 
ATOM     15  C   UNL     1      -0.908  -6.451   4.463  1.00  0.00    -0.020 C 
ATOM     16  C   UNL     1       1.089  -4.961   4.993  1.00  0.00     0.032 C 
ATOM     17  C   UNL     1       0.066  -5.977   5.605  1.00  0.00     0.006 C 
ATOM     18  C   UNL     1      -1.716  -5.179   4.051  1.00  0.00     0.008 C 
ATOM     19  C   UNL     1      -1.943  -7.503   4.967  1.00  0.00     0.012 C 
ATOM     20  C   UNL     1      -0.618  -5.344   6.919  1.00  0.00    -0.025 C 
ATOM     21  C   UNL     1      -2.463  -4.502   5.211  1.00  0.00     0.005 C 
ATOM     22  C   UNL     1      -1.663  -4.214   6.526  1.00  0.00     0.003 C 
ATOM     23  C   UNL     1      -1.238  -6.449   7.862  1.00  0.00     0.010 C 
ATOM     24  C   UNL     1       0.558  -4.712   7.760  1.00  0.00     0.012 C 
ATOM     25  C   UNL     1      -2.643  -3.797   7.702  1.00  0.00    -0.006 C 
ATOM     26  C   UNL     1      -2.727  -6.363   8.293  1.00  0.00     0.033 C 
ATOM     27  C   UNL     1      -3.488  -5.014   8.207  1.00  0.00     0.120 C 
ATOM     28  C   UNL     1      -3.592  -2.653   7.228  1.00  0.00     0.014 C 
ATOM     29  C   UNL     1      -1.881  -3.200   8.918  1.00  0.00     0.014 C 
ENDROOT
BRANCH   1  30
ATOM     30  C   UNL     1       3.178  -9.227   3.611  1.00  0.00     0.048 C 
ATOM     31  O   UNL     1       3.158 -10.447   3.932  1.00  0.00    -0.550 OA
ATOM     32  O   UNL     1       3.933  -8.349   4.388  1.00  0.00    -0.550 OA
ENDBRANCH   1  30
BRANCH  27  33
ATOM     33  O   UNL     1      -4.640  -5.207   7.418  1.00  0.00    -0.393 OA
ATOM     34  H   UNL     1      -5.160  -5.959   7.811  1.00  0.00     0.210 HD
ENDBRANCH  27  33
TORSDOF 2
ENDMDL
MODEL 6
REMARK VINA RESULT:    -5.307     11.665     13.281
REMARK INTER + INTRA:          -6.095
REMARK INTER:                  -5.844
REMARK INTRA:                  -0.251
REMARK UNBOUND:                -0.322
REMARK SMILES C[C@@H]1[C@H](C)CC[C@]2(C(=O)[O-])CC[C@]3(C)C(=CC[C@H]4[C@]5(C)CC[C@H](O)C(C)(C)[C@@H]5CC[C@]43C)[C@H]12
REMARK SMILES IDX 7 1 6 2 11 3 33 4 5 5 12 6 15 7 2 8 3 9 13 10 16 11 1 12
REMARK SMILES IDX 4 13 14 14 31 15 17 16 18 17 30 18 32 19 19 20 29 21 28 22
REMARK SMILES IDX 21 23 20 24 25 25 22 26 23 27 26 28 27 29 8 30 9 31 10 32
REMARK SMILES IDX 24 33
REMARK H PARENT 24 34
REMARK Flexibility Score: inf
ROOT
ATOM      1  C   UNL     1       2.765   0.123  -4.590  1.00  0.00     0.017 C 
ATOM      2  C   UNL     1       2.277   1.418  -5.315  1.00  0.00     0.014 C 
ATOM      3  C   UNL     1       3.277  -0.863  -5.657  1.00  0.00     0.014 C 
ATOM      4  C   UNL     1       1.595  -0.502  -3.730  1.00  0.00     0.030 C 
ATOM      5  C   UNL     1       1.421   2.301  -4.405  1.00  0.00     0.004 C 
ATOM      6  C   UNL     1       3.601  -2.254  -5.083  1.00  0.00     0.013 C 
ATOM      7  C   UNL     1       1.696  -2.023  -3.478  1.00  0.00    -0.063 C 
ATOM      8  C   UNL     1       0.156   0.028  -4.039  1.00  0.00    -0.003 C 
ATOM      9  C   UNL     1       0.127   1.594  -3.916  1.00  0.00    -0.011 C 
ATOM     10  C   UNL     1       2.385  -3.011  -4.452  1.00  0.00    -0.006 C 
ATOM     11  C   UNL     1       1.325  -2.417  -2.252  1.00  0.00    -0.027 C 
ATOM     12  C   UNL     1      -0.464  -0.540  -5.330  1.00  0.00     0.008 C 
ATOM     13  C   UNL     1      -1.129   2.247  -4.512  1.00  0.00     0.008 C 
ATOM     14  C   UNL     1       1.390  -3.342  -5.604  1.00  0.00     0.017 C 
ATOM     15  C   UNL     1       2.845  -4.412  -3.736  1.00  0.00    -0.020 C 
ATOM     16  C   UNL     1       2.011  -3.509  -1.505  1.00  0.00     0.032 C 
ATOM     17  C   UNL     1       3.233  -4.167  -2.230  1.00  0.00     0.006 C 
ATOM     18  C   UNL     1       1.704  -5.478  -3.703  1.00  0.00     0.008 C 
ATOM     19  C   UNL     1       4.019  -5.028  -4.556  1.00  0.00     0.012 C 
ATOM     20  C   UNL     1       3.740  -5.450  -1.398  1.00  0.00    -0.025 C 
ATOM     21  C   UNL     1       2.077  -6.781  -2.977  1.00  0.00     0.005 C 
ATOM     22  C   UNL     1       2.730  -6.665  -1.558  1.00  0.00     0.003 C 
ATOM     23  C   UNL     1       5.228  -5.842  -1.752  1.00  0.00     0.010 C 
ATOM     24  C   UNL     1       3.792  -4.997   0.113  1.00  0.00     0.012 C 
ATOM     25  C   UNL     1       3.315  -8.065  -1.093  1.00  0.00    -0.006 C 
ATOM     26  C   UNL     1       5.569  -7.284  -2.214  1.00  0.00     0.033 C 
ATOM     27  C   UNL     1       4.596  -8.453  -1.906  1.00  0.00     0.120 C 
ATOM     28  C   UNL     1       2.232  -9.177  -1.245  1.00  0.00     0.014 C 
ATOM     29  C   UNL     1       3.681  -8.074   0.418  1.00  0.00     0.014 C 
ENDROOT
BRANCH   1  30
ATOM     30  C   UNL     1       3.960   0.475  -3.695  1.00  0.00     0.048 C 
ATOM     31  O   UNL     1       4.017   0.077  -2.500  1.00  0.00    -0.550 OA
ATOM     32  O   UNL     1       5.059   1.154  -4.221  1.00  0.00    -0.550 OA
ENDBRANCH   1  30
BRANCH  27  33
ATOM     33  O   UNL     1       4.264  -9.083  -3.123  1.00  0.00    -0.393 OA
ATOM     34  H   UNL     1       3.393  -9.547  -3.002  1.00  0.00     0.210 HD
ENDBRANCH  27  33
TORSDOF 2
ENDMDL
MODEL 7
REMARK VINA RESULT:    -5.273     12.435     14.281
REMARK INTER + INTRA:          -6.058
REMARK INTER:                  -5.733
REMARK INTRA:                  -0.324
REMARK UNBOUND:                -0.322
REMARK SMILES C[C@@H]1[C@H](C)CC[C@]2(C(=O)[O-])CC[C@]3(C)C(=CC[C@H]4[C@]5(C)CC[C@H](O)C(C)(C)[C@@H]5CC[C@]43C)[C@H]12
REMARK SMILES IDX 7 1 6 2 11 3 33 4 5 5 12 6 15 7 2 8 3 9 13 10 16 11 1 12
REMARK SMILES IDX 4 13 14 14 31 15 17 16 18 17 30 18 32 19 19 20 29 21 28 22
REMARK SMILES IDX 21 23 20 24 25 25 22 26 23 27 26 28 27 29 8 30 9 31 10 32
REMARK SMILES IDX 24 33
REMARK H PARENT 24 34
REMARK Flexibility Score: inf
ROOT
ATOM      1  C   UNL     1       0.744  -2.280  -4.826  1.00  0.00     0.017 C 
ATOM      2  C   UNL     1      -0.484  -3.244  -4.758  1.00  0.00     0.014 C 
ATOM      3  C   UNL     1       1.649  -2.733  -5.986  1.00  0.00     0.014 C 
ATOM      4  C   UNL     1       1.519  -2.277  -3.448  1.00  0.00     0.030 C 
ATOM      5  C   UNL     1      -1.243  -3.119  -3.436  1.00  0.00     0.004 C 
ATOM      6  C   UNL     1       2.991  -1.981  -6.030  1.00  0.00     0.013 C 
ATOM      7  C   UNL     1       3.017  -1.905  -3.530  1.00  0.00    -0.063 C 
ATOM      8  C   UNL     1       1.175  -3.441  -2.462  1.00  0.00    -0.003 C 
ATOM      9  C   UNL     1      -0.374  -3.477  -2.199  1.00  0.00    -0.011 C 
ATOM     10  C   UNL     1       3.902  -2.176  -4.771  1.00  0.00    -0.006 C 
ATOM     11  C   UNL     1       3.464  -1.141  -2.524  1.00  0.00    -0.027 C 
ATOM     12  C   UNL     1       1.808  -4.795  -2.836  1.00  0.00     0.008 C 
ATOM     13  C   UNL     1      -0.867  -4.764  -1.522  1.00  0.00     0.008 C 
ATOM     14  C   UNL     1       4.348  -3.669  -4.743  1.00  0.00     0.017 C 
ATOM     15  C   UNL     1       5.238  -1.229  -4.834  1.00  0.00    -0.020 C 
ATOM     16  C   UNL     1       4.465  -0.054  -2.711  1.00  0.00     0.032 C 
ATOM     17  C   UNL     1       4.957   0.175  -4.180  1.00  0.00     0.006 C 
ATOM     18  C   UNL     1       6.441  -1.826  -4.036  1.00  0.00     0.008 C 
ATOM     19  C   UNL     1       5.694  -1.108  -6.321  1.00  0.00     0.012 C 
ATOM     20  C   UNL     1       6.171   1.234  -4.195  1.00  0.00    -0.025 C 
ATOM     21  C   UNL     1       7.691  -0.931  -4.014  1.00  0.00     0.005 C 
ATOM     22  C   UNL     1       7.504   0.576  -3.634  1.00  0.00     0.003 C 
ATOM     23  C   UNL     1       6.367   1.898  -5.614  1.00  0.00     0.010 C 
ATOM     24  C   UNL     1       5.727   2.420  -3.254  1.00  0.00     0.012 C 
ATOM     25  C   UNL     1       8.821   1.404  -3.949  1.00  0.00    -0.006 C 
ATOM     26  C   UNL     1       7.751   1.849  -6.316  1.00  0.00     0.033 C 
ATOM     27  C   UNL     1       9.036   1.579  -5.490  1.00  0.00     0.120 C 
ATOM     28  C   UNL     1      10.060   0.700  -3.316  1.00  0.00     0.014 C 
ATOM     29  C   UNL     1       8.795   2.816  -3.302  1.00  0.00     0.014 C 
ENDROOT
BRANCH   1  30
ATOM     30  C   UNL     1       0.249  -0.869  -5.166  1.00  0.00     0.048 C 
ATOM     31  O   UNL     1      -0.257  -0.611  -6.292  1.00  0.00    -0.550 OA
ATOM     32  O   UNL     1       0.251   0.132  -4.195  1.00  0.00    -0.550 OA
ENDBRANCH   1  30
BRANCH  27  33
ATOM     33  O   UNL     1       9.694   0.465  -6.050  1.00  0.00    -0.393 OA
ATOM     34  H   UNL     1      10.034   0.727  -6.947  1.00  0.00     0.210 HD
ENDBRANCH  27  33
TORSDOF 2
ENDMDL
MODEL 8
REMARK VINA RESULT:    -5.252     12.592     14.505
REMARK INTER + INTRA:          -6.035
REMARK INTER:                  -6.143
REMARK INTRA:                   0.108
REMARK UNBOUND:                -0.322
REMARK SMILES C[C@@H]1[C@H](C)CC[C@]2(C(=O)[O-])CC[C@]3(C)C(=CC[C@H]4[C@]5(C)CC[C@H](O)C(C)(C)[C@@H]5CC[C@]43C)[C@H]12
REMARK SMILES IDX 7 1 6 2 11 3 33 4 5 5 12 6 15 7 2 8 3 9 13 10 16 11 1 12
REMARK SMILES IDX 4 13 14 14 31 15 17 16 18 17 30 18 32 19 19 20 29 21 28 22
REMARK SMILES IDX 21 23 20 24 25 25 22 26 23 27 26 28 27 29 8 30 9 31 10 32
REMARK SMILES IDX 24 33
REMARK H PARENT 24 34
REMARK Flexibility Score: inf
ROOT
ATOM      1  C   UNL     1      -3.213   4.148  -4.184  1.00  0.00     0.017 C 
ATOM      2  C   UNL     1      -4.209   5.316  -4.471  1.00  0.00     0.014 C 
ATOM      3  C   UNL     1      -1.791   4.734  -4.114  1.00  0.00     0.014 C 
ATOM      4  C   UNL     1      -3.332   3.036  -5.301  1.00  0.00     0.030 C 
ATOM      5  C   UNL     1      -5.580   4.808  -4.923  1.00  0.00     0.004 C 
ATOM      6  C   UNL     1      -0.699   3.652  -4.033  1.00  0.00     0.013 C 
ATOM      7  C   UNL     1      -2.066   2.177  -5.521  1.00  0.00    -0.063 C 
ATOM      8  C   UNL     1      -4.091   3.448  -6.605  1.00  0.00    -0.003 C 
ATOM      9  C   UNL     1      -5.520   3.990  -6.242  1.00  0.00    -0.011 C 
ATOM     10  C   UNL     1      -0.627   2.688  -5.266  1.00  0.00    -0.006 C 
ATOM     11  C   UNL     1      -2.299   0.879  -5.756  1.00  0.00    -0.027 C 
ATOM     12  C   UNL     1      -3.273   4.343  -7.557  1.00  0.00     0.008 C 
ATOM     13  C   UNL     1      -6.224   4.727  -7.391  1.00  0.00     0.008 C 
ATOM     14  C   UNL     1      -0.178   3.533  -6.495  1.00  0.00     0.017 C 
ATOM     15  C   UNL     1       0.458   1.482  -5.032  1.00  0.00    -0.020 C 
ATOM     16  C   UNL     1      -1.432  -0.213  -5.229  1.00  0.00     0.032 C 
ATOM     17  C   UNL     1      -0.225   0.243  -4.342  1.00  0.00     0.006 C 
ATOM     18  C   UNL     1       1.053   0.936  -6.370  1.00  0.00     0.008 C 
ATOM     19  C   UNL     1       1.652   2.040  -4.198  1.00  0.00     0.012 C 
ATOM     20  C   UNL     1       0.725  -1.016  -4.016  1.00  0.00    -0.025 C 
ATOM     21  C   UNL     1       2.023  -0.243  -6.195  1.00  0.00     0.005 C 
ATOM     22  C   UNL     1       1.563  -1.440  -5.297  1.00  0.00     0.003 C 
ATOM     23  C   UNL     1       1.632  -0.768  -2.747  1.00  0.00     0.010 C 
ATOM     24  C   UNL     1      -0.239  -2.192  -3.597  1.00  0.00     0.012 C 
ATOM     25  C   UNL     1       2.779  -2.412  -4.987  1.00  0.00    -0.006 C 
ATOM     26  C   UNL     1       3.173  -0.931  -2.843  1.00  0.00     0.033 C 
ATOM     27  C   UNL     1       3.800  -1.758  -3.996  1.00  0.00     0.120 C 
ATOM     28  C   UNL     1       3.502  -2.805  -6.312  1.00  0.00     0.014 C 
ATOM     29  C   UNL     1       2.311  -3.762  -4.377  1.00  0.00     0.014 C 
ENDROOT
BRANCH   1  30
ATOM     30  C   UNL     1      -3.524   3.557  -2.803  1.00  0.00     0.048 C 
ATOM     31  O   UNL     1      -3.028   2.456  -2.440  1.00  0.00    -0.550 OA
ATOM     32  O   UNL     1      -4.278   4.282  -1.881  1.00  0.00    -0.550 OA
ENDBRANCH   1  30
BRANCH  27  33
ATOM     33  O   UNL     1       4.726  -0.939  -4.674  1.00  0.00    -0.393 OA
ATOM     34  H   UNL     1       4.976  -1.393  -5.523  1.00  0.00     0.210 HD
ENDBRANCH  27  33
TORSDOF 2
ENDMDL
MODEL 9
REMARK VINA RESULT:    -5.238      7.970     12.070
REMARK INTER + INTRA:          -6.019
REMARK INTER:                  -5.698
REMARK INTRA:                  -0.321
REMARK UNBOUND:                -0.322
REMARK SMILES C[C@@H]1[C@H](C)CC[C@]2(C(=O)[O-])CC[C@]3(C)C(=CC[C@H]4[C@]5(C)CC[C@H](O)C(C)(C)[C@@H]5CC[C@]43C)[C@H]12
REMARK SMILES IDX 7 1 6 2 11 3 33 4 5 5 12 6 15 7 2 8 3 9 13 10 16 11 1 12
REMARK SMILES IDX 4 13 14 14 31 15 17 16 18 17 30 18 32 19 19 20 29 21 28 22
REMARK SMILES IDX 21 23 20 24 25 25 22 26 23 27 26 28 27 29 8 30 9 31 10 32
REMARK SMILES IDX 24 33
REMARK H PARENT 24 34
REMARK Flexibility Score: inf
ROOT
ATOM      1  C   UNL     1       7.310  -7.997   7.595  1.00  0.00     0.017 C 
ATOM      2  C   UNL     1       8.554  -8.558   8.356  1.00  0.00     0.014 C 
ATOM      3  C   UNL     1       6.410  -7.272   8.612  1.00  0.00     0.014 C 
ATOM      4  C   UNL     1       6.539  -9.167   6.862  1.00  0.00     0.030 C 
ATOM      5  C   UNL     1       9.315  -9.597   7.530  1.00  0.00     0.004 C 
ATOM      6  C   UNL     1       5.055  -6.847   8.018  1.00  0.00     0.013 C 
ATOM      7  C   UNL     1       5.035  -8.915   6.612  1.00  0.00    -0.063 C 
ATOM      8  C   UNL     1       6.906 -10.620   7.309  1.00  0.00    -0.003 C 
ATOM      9  C   UNL     1       8.456 -10.843   7.179  1.00  0.00    -0.011 C 
ATOM     10  C   UNL     1       4.151  -8.024   7.519  1.00  0.00    -0.006 C 
ATOM     11  C   UNL     1       4.578  -9.358   5.433  1.00  0.00    -0.027 C 
ATOM     12  C   UNL     1       6.295 -11.039   8.660  1.00  0.00     0.008 C 
ATOM     13  C   UNL     1       8.972 -12.100   7.894  1.00  0.00     0.008 C 
ATOM     14  C   UNL     1       3.730  -8.854   8.768  1.00  0.00     0.017 C 
ATOM     15  C   UNL     1       2.799  -7.477   6.771  1.00  0.00    -0.020 C 
ATOM     16  C   UNL     1       3.557  -8.628   4.628  1.00  0.00     0.032 C 
ATOM     17  C   UNL     1       3.058  -7.271   5.232  1.00  0.00     0.006 C 
ATOM     18  C   UNL     1       1.609  -8.485   6.860  1.00  0.00     0.008 C 
ATOM     19  C   UNL     1       2.337  -6.164   7.473  1.00  0.00     0.012 C 
ATOM     20  C   UNL     1       1.826  -6.704   4.362  1.00  0.00    -0.025 C 
ATOM     21  C   UNL     1       0.344  -8.037   6.110  1.00  0.00     0.005 C 
ATOM     22  C   UNL     1       0.506  -7.545   4.633  1.00  0.00     0.003 C 
ATOM     23  C   UNL     1       1.615  -5.152   4.567  1.00  0.00     0.010 C 
ATOM     24  C   UNL     1       2.253  -6.855   2.851  1.00  0.00     0.012 C 
ATOM     25  C   UNL     1      -0.825  -6.850   4.121  1.00  0.00    -0.006 C 
ATOM     26  C   UNL     1       0.230  -4.602   5.004  1.00  0.00     0.033 C 
ATOM     27  C   UNL     1      -1.048  -5.459   4.804  1.00  0.00     0.120 C 
ATOM     28  C   UNL     1      -2.051  -7.776   4.390  1.00  0.00     0.014 C 
ATOM     29  C   UNL     1      -0.821  -6.637   2.581  1.00  0.00     0.014 C 
ENDROOT
BRANCH   1  30
ATOM     30  C   UNL     1       7.781  -6.946   6.581  1.00  0.00     0.048 C 
ATOM     31  O   UNL     1       8.389  -5.908   6.957  1.00  0.00    -0.550 OA
ATOM     32  O   UNL     1       7.638  -7.174   5.213  1.00  0.00    -0.550 OA
ENDBRANCH   1  30
BRANCH  27  33
ATOM     33  O   UNL     1      -1.689  -5.593   6.053  1.00  0.00    -0.393 OA
ATOM     34  H   UNL     1      -1.013  -5.901   6.714  1.00  0.00     0.210 HD
ENDBRANCH  27  33
TORSDOF 2
ENDMDL
