MODEL 1
REMARK VINA RESULT:    -2.509      0.000      0.000
REMARK INTER + INTRA:         -11.974
REMARK INTER:                  -6.324
REMARK INTRA:                  -5.651
REMARK UNBOUND:                -5.651
REMARK SMILES CCCCCCCCCCCCCCCCCCCCCCCCCCCC(=O)[O-]
REMARK SMILES IDX 15 1 16 2 17 3 18 4 19 5 20 6 21 7 22 8 23 9 24 10 25 11
REMARK SMILES IDX 26 12 27 13 28 14 29 15 30 16 14 17 13 18 12 19 11 20 10 21
REMARK SMILES IDX 9 22 8 23 7 24 6 25 5 26 4 27 3 28 2 29 1 30
REMARK H PARENT
REMARK Flexibility Score: inf
ROOT
ATOM      1  C   UNL     1      97.040  61.888 227.572  1.00  0.00     0.000 C 
ENDROOT
BRANCH   1   2
ATOM      2  C   UNL     1      97.207  62.020 229.093  1.00  0.00     0.000 C 
BRANCH   2   3
ATOM      3  C   UNL     1      97.213  63.482 229.571  1.00  0.00     0.000 C 
BRANCH   3   4
ATOM      4  C   UNL     1      97.768  64.451 228.513  1.00  0.00     0.000 C 
BRANCH   4   5
ATOM      5  C   UNL     1      96.924  65.728 228.381  1.00  0.00     0.000 C 
BRANCH   5   6
ATOM      6  C   UNL     1      95.430  65.429 228.158  1.00  0.00     0.000 C 
BRANCH   6   7
ATOM      7  C   UNL     1      95.162  64.786 226.780  1.00  0.00     0.000 C 
BRANCH   7   8
ATOM      8  C   UNL     1      95.120  65.800 225.620  1.00  0.00     0.000 C 
BRANCH   8   9
ATOM      9  C   UNL     1      95.856  65.356 224.344  1.00  0.00     0.000 C 
BRANCH   9  10
ATOM     10  C   UNL     1      96.608  64.029 224.525  1.00  0.00     0.000 C 
BRANCH  10  11
ATOM     11  C   UNL     1      98.124  64.240 224.412  1.00  0.00     0.000 C 
BRANCH  11  12
ATOM     12  C   UNL     1      98.553  65.540 225.103  1.00  0.00     0.006 C 
BRANCH  12  13
ATOM     13  C   UNL     1      99.534  66.329 224.231  1.00  0.00     0.053 C 
BRANCH  13  14
ATOM     14  C   UNL     1     100.842  65.609 224.115  1.00  0.00     0.041 C 
ATOM     15  O   UNL     1     101.018  64.760 223.201  1.00  0.00    -0.550 OA
ATOM     16  O   UNL     1     101.858  65.850 225.032  1.00  0.00    -0.550 OA
ENDBRANCH  13  14
ENDBRANCH  12  13
ENDBRANCH  11  12
ENDBRANCH  10  11
ENDBRANCH   9  10
ENDBRANCH   8   9
ENDBRANCH   7   8
ENDBRANCH   6   7
ENDBRANCH   5   6
ENDBRANCH   4   5
ENDBRANCH   3   4
ENDBRANCH   2   3
ENDBRANCH   1   2
BRANCH   1  17
ATOM     17  C   UNL     1      97.285  60.443 227.113  1.00  0.00     0.000 C 
BRANCH  17  18
ATOM     18  C   UNL     1      97.205  59.437 228.273  1.00  0.00     0.000 C 
BRANCH  18  19
ATOM     19  C   UNL     1      98.204  58.278 228.115  1.00  0.00     0.000 C 
BRANCH  19  20
ATOM     20  C   UNL     1      99.655  58.714 228.373  1.00  0.00     0.000 C 
BRANCH  20  21
ATOM     21  C   UNL     1      99.866  59.228 229.807  1.00  0.00     0.000 C 
BRANCH  21  22
ATOM     22  C   UNL     1     100.626  60.565 229.854  1.00  0.00    -0.000 C 
BRANCH  22  23
ATOM     23  C   UNL     1     101.062  61.116 228.481  1.00  0.00    -0.000 C 
BRANCH  23  24
ATOM     24  C   UNL     1     100.776  62.611 228.249  1.00  0.00    -0.000 C 
BRANCH  24  25
ATOM     25  C   UNL     1     100.743  62.990 226.759  1.00  0.00    -0.000 C 
BRANCH  25  26
ATOM     26  C   UNL     1     100.380  61.804 225.846  1.00  0.00    -0.000 C 
BRANCH  26  27
ATOM     27  C   UNL     1     101.391  61.513 224.722  1.00  0.00    -0.000 C 
BRANCH  27  28
ATOM     28  C   UNL     1     102.757  62.184 224.955  1.00  0.00    -0.000 C 
BRANCH  28  29
ATOM     29  C   UNL     1     103.757  61.256 225.659  1.00  0.00    -0.003 C 
ATOM     30  C   UNL     1     103.292  59.802 225.694  1.00  0.00     0.004 C 
ENDBRANCH  28  29
ENDBRANCH  27  28
ENDBRANCH  26  27
ENDBRANCH  25  26
ENDBRANCH  24  25
ENDBRANCH  23  24
ENDBRANCH  22  23
ENDBRANCH  21  22
ENDBRANCH  20  21
ENDBRANCH  19  20
ENDBRANCH  18  19
ENDBRANCH  17  18
ENDBRANCH   1  17
TORSDOF 26
ENDMDL
MODEL 2
REMARK VINA RESULT:    -2.495      2.724      5.608
REMARK INTER + INTRA:         -11.938
REMARK INTER:                  -6.257
REMARK INTRA:                  -5.680
REMARK UNBOUND:                -5.651
REMARK SMILES CCCCCCCCCCCCCCCCCCCCCCCCCCCC(=O)[O-]
REMARK SMILES IDX 15 1 16 2 17 3 18 4 19 5 20 6 21 7 22 8 23 9 24 10 25 11
REMARK SMILES IDX 26 12 27 13 28 14 29 15 30 16 14 17 13 18 12 19 11 20 10 21
REMARK SMILES IDX 9 22 8 23 7 24 6 25 5 26 4 27 3 28 2 29 1 30
REMARK H PARENT
REMARK Flexibility Score: inf
ROOT
ATOM      1  C   UNL     1      97.258  63.723 224.778  1.00  0.00     0.000 C 
ENDROOT
BRANCH   1   2
ATOM      2  C   UNL     1      96.108  64.523 224.148  1.00  0.00     0.000 C 
BRANCH   2   3
ATOM      3  C   UNL     1      94.944  64.768 225.122  1.00  0.00     0.000 C 
BRANCH   3   4
ATOM      4  C   UNL     1      95.419  65.191 226.522  1.00  0.00     0.000 C 
BRANCH   4   5
ATOM      5  C   UNL     1      95.633  66.708 226.640  1.00  0.00     0.000 C 
BRANCH   5   6
ATOM      6  C   UNL     1      96.936  67.067 227.378  1.00  0.00     0.000 C 
BRANCH   6   7
ATOM      7  C   UNL     1      97.351  65.979 228.393  1.00  0.00     0.000 C 
BRANCH   7   8
ATOM      8  C   UNL     1      98.820  65.531 228.256  1.00  0.00     0.000 C 
BRANCH   8   9
ATOM      9  C   UNL     1      99.023  64.013 228.113  1.00  0.00     0.000 C 
BRANCH   9  10
ATOM     10  C   UNL     1      97.770  63.208 228.492  1.00  0.00     0.000 C 
BRANCH  10  11
ATOM     11  C   UNL     1      98.119  61.734 228.732  1.00  0.00     0.000 C 
BRANCH  11  12
ATOM     12  C   UNL     1      96.975  60.815 228.285  1.00  0.00     0.006 C 
BRANCH  12  13
ATOM     13  C   UNL     1      97.270  60.193 226.917  1.00  0.00     0.053 C 
BRANCH  13  14
ATOM     14  C   UNL     1      97.099  58.706 226.959  1.00  0.00     0.041 C 
ATOM     15  O   UNL     1      97.106  58.100 228.063  1.00  0.00    -0.550 OA
ATOM     16  O   UNL     1      96.964  57.984 225.780  1.00  0.00    -0.550 OA
ENDBRANCH  13  14
ENDBRANCH  12  13
ENDBRANCH  11  12
ENDBRANCH  10  11
ENDBRANCH   9  10
ENDBRANCH   8   9
ENDBRANCH   7   8
ENDBRANCH   6   7
ENDBRANCH   5   6
ENDBRANCH   4   5
ENDBRANCH   3   4
ENDBRANCH   2   3
ENDBRANCH   1   2
BRANCH   1  17
ATOM     17  C   UNL     1      98.603  64.436 224.576  1.00  0.00     0.000 C 
BRANCH  17  18
ATOM     18  C   UNL     1      98.433  65.926 224.239  1.00  0.00     0.000 C 
BRANCH  18  19
ATOM     19  C   UNL     1      99.577  66.790 224.799  1.00  0.00     0.000 C 
BRANCH  19  20
ATOM     20  C   UNL     1     100.837  65.967 225.109  1.00  0.00     0.000 C 
BRANCH  20  21
ATOM     21  C   UNL     1     101.634  66.541 226.293  1.00  0.00     0.000 C 
BRANCH  21  22
ATOM     22  C   UNL     1     103.124  66.159 226.247  1.00  0.00    -0.000 C 
BRANCH  22  23
ATOM     23  C   UNL     1     103.580  65.177 227.346  1.00  0.00    -0.000 C 
BRANCH  23  24
ATOM     24  C   UNL     1     102.992  63.758 227.246  1.00  0.00    -0.000 C 
BRANCH  24  25
ATOM     25  C   UNL     1     103.993  62.733 226.687  1.00  0.00    -0.000 C 
BRANCH  25  26
ATOM     26  C   UNL     1     103.731  62.382 225.210  1.00  0.00    -0.000 C 
BRANCH  26  27
ATOM     27  C   UNL     1     102.372  62.850 224.660  1.00  0.00    -0.000 C 
BRANCH  27  28
ATOM     28  C   UNL     1     101.355  61.704 224.519  1.00  0.00    -0.000 C 
BRANCH  28  29
ATOM     29  C   UNL     1     100.498  61.517 225.779  1.00  0.00    -0.003 C 
ATOM     30  C   UNL     1     100.979  60.363 226.656  1.00  0.00     0.004 C 
ENDBRANCH  28  29
ENDBRANCH  27  28
ENDBRANCH  26  27
ENDBRANCH  25  26
ENDBRANCH  24  25
ENDBRANCH  23  24
ENDBRANCH  22  23
ENDBRANCH  21  22
ENDBRANCH  20  21
ENDBRANCH  19  20
ENDBRANCH  18  19
ENDBRANCH  17  18
ENDBRANCH   1  17
TORSDOF 26
ENDMDL
MODEL 3
REMARK VINA RESULT:    -2.481      2.843      7.025
REMARK INTER + INTRA:         -11.902
REMARK INTER:                  -5.570
REMARK INTRA:                  -6.333
REMARK UNBOUND:                -5.651
REMARK SMILES CCCCCCCCCCCCCCCCCCCCCCCCCCCC(=O)[O-]
REMARK SMILES IDX 15 1 16 2 17 3 18 4 19 5 20 6 21 7 22 8 23 9 24 10 25 11
REMARK SMILES IDX 26 12 27 13 28 14 29 15 30 16 14 17 13 18 12 19 11 20 10 21
REMARK SMILES IDX 9 22 8 23 7 24 6 25 5 26 4 27 3 28 2 29 1 30
REMARK H PARENT
REMARK Flexibility Score: inf
ROOT
ATOM      1  C   UNL     1      97.311  63.329 225.827  1.00  0.00     0.000 C 
ENDROOT
BRANCH   1   2
ATOM      2  C   UNL     1      98.240  63.993 226.855  1.00  0.00     0.000 C 
BRANCH   2   3
ATOM      3  C   UNL     1      99.062  65.149 226.263  1.00  0.00     0.000 C 
BRANCH   3   4
ATOM      4  C   UNL     1     100.394  65.370 227.000  1.00  0.00     0.000 C 
BRANCH   4   5
ATOM      5  C   UNL     1     101.611  65.254 226.070  1.00  0.00     0.000 C 
BRANCH   5   6
ATOM      6  C   UNL     1     101.320  64.408 224.816  1.00  0.00     0.000 C 
BRANCH   6   7
ATOM      7  C   UNL     1     101.928  62.992 224.913  1.00  0.00     0.000 C 
BRANCH   7   8
ATOM      8  C   UNL     1     100.878  61.863 224.883  1.00  0.00     0.000 C 
BRANCH   8   9
ATOM      9  C   UNL     1     100.589  61.212 226.246  1.00  0.00     0.000 C 
BRANCH   9  10
ATOM     10  C   UNL     1     101.487  61.756 227.367  1.00  0.00     0.000 C 
BRANCH  10  11
ATOM     11  C   UNL     1     100.689  61.948 228.663  1.00  0.00     0.000 C 
BRANCH  11  12
ATOM     12  C   UNL     1      99.344  61.215 228.597  1.00  0.00     0.006 C 
BRANCH  12  13
ATOM     13  C   UNL     1      98.663  61.187 229.969  1.00  0.00     0.053 C 
BRANCH  13  14
ATOM     14  C   UNL     1      97.200  60.897 229.833  1.00  0.00     0.041 C 
ATOM     15  O   UNL     1      96.723  60.563 228.716  1.00  0.00    -0.550 OA
ATOM     16  O   UNL     1      96.357  61.026 230.930  1.00  0.00    -0.550 OA
ENDBRANCH  13  14
ENDBRANCH  12  13
ENDBRANCH  11  12
ENDBRANCH  10  11
ENDBRANCH   9  10
ENDBRANCH   8   9
ENDBRANCH   7   8
ENDBRANCH   6   7
ENDBRANCH   5   6
ENDBRANCH   4   5
ENDBRANCH   3   4
ENDBRANCH   2   3
ENDBRANCH   1   2
BRANCH   1  17
ATOM     17  C   UNL     1      97.421  64.019 224.459  1.00  0.00     0.000 C 
BRANCH  17  18
ATOM     18  C   UNL     1      96.076  64.583 223.974  1.00  0.00     0.000 C 
BRANCH  18  19
ATOM     19  C   UNL     1      95.110  64.879 225.135  1.00  0.00     0.000 C 
BRANCH  19  20
ATOM     20  C   UNL     1      94.811  66.379 225.283  1.00  0.00     0.000 C 
BRANCH  20  21
ATOM     21  C   UNL     1      95.984  67.150 225.914  1.00  0.00     0.000 C 
BRANCH  21  22
ATOM     22  C   UNL     1      95.708  67.565 227.370  1.00  0.00    -0.000 C 
BRANCH  22  23
ATOM     23  C   UNL     1      96.305  66.627 228.439  1.00  0.00    -0.000 C 
BRANCH  23  24
ATOM     24  C   UNL     1      95.367  65.514 228.938  1.00  0.00    -0.000 C 
BRANCH  24  25
ATOM     25  C   UNL     1      96.107  64.410 229.711  1.00  0.00    -0.000 C 
BRANCH  25  26
ATOM     26  C   UNL     1      96.525  64.846 231.128  1.00  0.00    -0.000 C 
BRANCH  26  27
ATOM     27  C   UNL     1      97.983  64.528 231.505  1.00  0.00    -0.000 C 
BRANCH  27  28
ATOM     28  C   UNL     1      98.979  64.853 230.377  1.00  0.00    -0.000 C 
BRANCH  28  29
ATOM     29  C   UNL     1      99.926  66.005 230.739  1.00  0.00    -0.003 C 
ATOM     30  C   UNL     1      99.563  67.312 230.037  1.00  0.00     0.004 C 
ENDBRANCH  28  29
ENDBRANCH  27  28
ENDBRANCH  26  27
ENDBRANCH  25  26
ENDBRANCH  24  25
ENDBRANCH  23  24
ENDBRANCH  22  23
ENDBRANCH  21  22
ENDBRANCH  20  21
ENDBRANCH  19  20
ENDBRANCH  18  19
ENDBRANCH  17  18
ENDBRANCH   1  17
TORSDOF 26
ENDMDL
MODEL 4
REMARK VINA RESULT:    -2.423      7.487     10.263
REMARK INTER + INTRA:         -11.757
REMARK INTER:                  -6.449
REMARK INTRA:                  -5.309
REMARK UNBOUND:                -5.651
REMARK SMILES CCCCCCCCCCCCCCCCCCCCCCCCCCCC(=O)[O-]
REMARK SMILES IDX 15 1 16 2 17 3 18 4 19 5 20 6 21 7 22 8 23 9 24 10 25 11
REMARK SMILES IDX 26 12 27 13 28 14 29 15 30 16 14 17 13 18 12 19 11 20 10 21
REMARK SMILES IDX 9 22 8 23 7 24 6 25 5 26 4 27 3 28 2 29 1 30
REMARK H PARENT
REMARK Flexibility Score: inf
ROOT
ATOM      1  C   UNL     1      98.487  56.504 220.825  1.00  0.00     0.000 C 
ENDROOT
BRANCH   1   2
ATOM      2  C   UNL     1      99.094  55.197 221.358  1.00  0.00     0.000 C 
BRANCH   2   3
ATOM      3  C   UNL     1      98.614  53.956 220.588  1.00  0.00     0.000 C 
BRANCH   3   4
ATOM      4  C   UNL     1      97.124  53.653 220.818  1.00  0.00     0.000 C 
BRANCH   4   5
ATOM      5  C   UNL     1      96.355  53.440 219.504  1.00  0.00     0.000 C 
BRANCH   5   6
ATOM      6  C   UNL     1      95.413  54.612 219.172  1.00  0.00     0.000 C 
BRANCH   6   7
ATOM      7  C   UNL     1      96.078  55.649 218.242  1.00  0.00     0.000 C 
BRANCH   7   8
ATOM      8  C   UNL     1      97.176  55.056 217.337  1.00  0.00     0.000 C 
BRANCH   8   9
ATOM      9  C   UNL     1      97.955  56.088 216.503  1.00  0.00     0.000 C 
BRANCH   9  10
ATOM     10  C   UNL     1      98.980  56.873 217.336  1.00  0.00     0.000 C 
BRANCH  10  11
ATOM     11  C   UNL     1      98.520  58.320 217.548  1.00  0.00     0.000 C 
BRANCH  11  12
ATOM     12  C   UNL     1      99.714  59.247 217.806  1.00  0.00     0.006 C 
BRANCH  12  13
ATOM     13  C   UNL     1     101.023  58.454 217.875  1.00  0.00     0.053 C 
BRANCH  13  14
ATOM     14  C   UNL     1     101.801  58.815 219.102  1.00  0.00     0.041 C 
ATOM     15  O   UNL     1     101.353  58.524 220.243  1.00  0.00    -0.550 OA
ATOM     16  O   UNL     1     103.006  59.500 218.991  1.00  0.00    -0.550 OA
ENDBRANCH  13  14
ENDBRANCH  12  13
ENDBRANCH  11  12
ENDBRANCH  10  11
ENDBRANCH   9  10
ENDBRANCH   8   9
ENDBRANCH   7   8
ENDBRANCH   6   7
ENDBRANCH   5   6
ENDBRANCH   4   5
ENDBRANCH   3   4
ENDBRANCH   2   3
ENDBRANCH   1   2
BRANCH   1  17
ATOM     17  C   UNL     1      97.712  57.242 221.927  1.00  0.00     0.000 C 
BRANCH  17  18
ATOM     18  C   UNL     1      96.208  57.339 221.623  1.00  0.00     0.000 C 
BRANCH  18  19
ATOM     19  C   UNL     1      95.371  57.617 222.884  1.00  0.00     0.000 C 
BRANCH  19  20
ATOM     20  C   UNL     1      94.753  56.339 223.473  1.00  0.00     0.000 C 
BRANCH  20  21
ATOM     21  C   UNL     1      94.252  55.376 222.384  1.00  0.00     0.000 C 
BRANCH  21  22
ATOM     22  C   UNL     1      93.921  53.977 222.934  1.00  0.00    -0.000 C 
BRANCH  22  23
ATOM     23  C   UNL     1      94.041  53.833 224.465  1.00  0.00    -0.000 C 
BRANCH  23  24
ATOM     24  C   UNL     1      94.933  52.677 224.951  1.00  0.00    -0.000 C 
BRANCH  24  25
ATOM     25  C   UNL     1      96.321  52.673 224.288  1.00  0.00    -0.000 C 
BRANCH  25  26
ATOM     26  C   UNL     1      97.394  53.380 225.138  1.00  0.00    -0.000 C 
BRANCH  26  27
ATOM     27  C   UNL     1      97.652  54.852 224.769  1.00  0.00    -0.000 C 
BRANCH  27  28
ATOM     28  C   UNL     1      97.503  55.806 225.968  1.00  0.00    -0.000 C 
BRANCH  28  29
ATOM     29  C   UNL     1      97.893  57.251 225.625  1.00  0.00    -0.003 C 
ATOM     30  C   UNL     1      96.876  58.273 226.126  1.00  0.00     0.004 C 
ENDBRANCH  28  29
ENDBRANCH  27  28
ENDBRANCH  26  27
ENDBRANCH  25  26
ENDBRANCH  24  25
ENDBRANCH  23  24
ENDBRANCH  22  23
ENDBRANCH  21  22
ENDBRANCH  20  21
ENDBRANCH  19  20
ENDBRANCH  18  19
ENDBRANCH  17  18
ENDBRANCH   1  17
TORSDOF 26
ENDMDL
MODEL 5
REMARK VINA RESULT:    -2.410      6.996     10.054
REMARK INTER + INTRA:         -11.724
REMARK INTER:                  -5.958
REMARK INTRA:                  -5.766
REMARK UNBOUND:                -5.651
REMARK SMILES CCCCCCCCCCCCCCCCCCCCCCCCCCCC(=O)[O-]
REMARK SMILES IDX 15 1 16 2 17 3 18 4 19 5 20 6 21 7 22 8 23 9 24 10 25 11
REMARK SMILES IDX 26 12 27 13 28 14 29 15 30 16 14 17 13 18 12 19 11 20 10 21
REMARK SMILES IDX 9 22 8 23 7 24 6 25 5 26 4 27 3 28 2 29 1 30
REMARK H PARENT
REMARK Flexibility Score: inf
ROOT
ATOM      1  C   UNL     1      97.126  52.997 221.102  1.00  0.00     0.000 C 
ENDROOT
BRANCH   1   2
ATOM      2  C   UNL     1      98.092  54.191 221.128  1.00  0.00     0.000 C 
BRANCH   2   3
ATOM      3  C   UNL     1      97.820  55.208 220.008  1.00  0.00     0.000 C 
BRANCH   3   4
ATOM      4  C   UNL     1      97.605  56.635 220.539  1.00  0.00     0.000 C 
BRANCH   4   5
ATOM      5  C   UNL     1      98.377  56.903 221.842  1.00  0.00     0.000 C 
BRANCH   5   6
ATOM      6  C   UNL     1      99.810  57.406 221.588  1.00  0.00     0.000 C 
BRANCH   6   7
ATOM      7  C   UNL     1     100.828  56.790 222.572  1.00  0.00     0.000 C 
BRANCH   7   8
ATOM      8  C   UNL     1     101.782  55.769 221.919  1.00  0.00     0.000 C 
BRANCH   8   9
ATOM      9  C   UNL     1     102.190  56.099 220.473  1.00  0.00     0.000 C 
BRANCH   9  10
ATOM     10  C   UNL     1     101.717  55.041 219.466  1.00  0.00     0.000 C 
BRANCH  10  11
ATOM     11  C   UNL     1     100.872  55.680 218.357  1.00  0.00     0.000 C 
BRANCH  11  12
ATOM     12  C   UNL     1     101.334  57.114 218.067  1.00  0.00     0.006 C 
BRANCH  12  13
ATOM     13  C   UNL     1     100.174  57.974 217.557  1.00  0.00     0.053 C 
BRANCH  13  14
ATOM     14  C   UNL     1      99.983  59.179 218.425  1.00  0.00     0.041 C 
ATOM     15  O   UNL     1      98.822  59.580 218.704  1.00  0.00    -0.550 OA
ATOM     16  O   UNL     1     101.085  59.880 218.901  1.00  0.00    -0.550 OA
ENDBRANCH  13  14
ENDBRANCH  12  13
ENDBRANCH  11  12
ENDBRANCH  10  11
ENDBRANCH   9  10
ENDBRANCH   8   9
ENDBRANCH   7   8
ENDBRANCH   6   7
ENDBRANCH   5   6
ENDBRANCH   4   5
ENDBRANCH   3   4
ENDBRANCH   2   3
ENDBRANCH   1   2
BRANCH   1  17
ATOM     17  C   UNL     1      95.970  53.245 220.121  1.00  0.00     0.000 C 
BRANCH  17  18
ATOM     18  C   UNL     1      94.620  52.751 220.665  1.00  0.00     0.000 C 
BRANCH  18  19
ATOM     19  C   UNL     1      94.256  53.400 222.012  1.00  0.00     0.000 C 
BRANCH  19  20
ATOM     20  C   UNL     1      94.283  54.935 221.950  1.00  0.00     0.000 C 
BRANCH  20  21
ATOM     21  C   UNL     1      95.099  55.553 223.099  1.00  0.00     0.000 C 
BRANCH  21  22
ATOM     22  C   UNL     1      94.935  57.081 223.189  1.00  0.00    -0.000 C 
BRANCH  22  23
ATOM     23  C   UNL     1      95.684  57.748 224.361  1.00  0.00    -0.000 C 
BRANCH  23  24
ATOM     24  C   UNL     1      96.356  56.780 225.351  1.00  0.00    -0.000 C 
BRANCH  24  25
ATOM     25  C   UNL     1      97.849  57.081 225.563  1.00  0.00    -0.000 C 
BRANCH  25  26
ATOM     26  C   UNL     1      98.731  55.820 225.493  1.00  0.00    -0.000 C 
BRANCH  26  27
ATOM     27  C   UNL     1      98.139  54.655 224.681  1.00  0.00    -0.000 C 
BRANCH  27  28
ATOM     28  C   UNL     1      97.840  53.414 225.542  1.00  0.00    -0.000 C 
BRANCH  28  29
ATOM     29  C   UNL     1      96.423  52.867 225.317  1.00  0.00    -0.003 C 
ATOM     30  C   UNL     1      96.408  51.598 224.467  1.00  0.00     0.004 C 
ENDBRANCH  28  29
ENDBRANCH  27  28
ENDBRANCH  26  27
ENDBRANCH  25  26
ENDBRANCH  24  25
ENDBRANCH  23  24
ENDBRANCH  22  23
ENDBRANCH  21  22
ENDBRANCH  20  21
ENDBRANCH  19  20
ENDBRANCH  18  19
ENDBRANCH  17  18
ENDBRANCH   1  17
TORSDOF 26
ENDMDL
MODEL 6
REMARK VINA RESULT:    -2.405      3.148      7.090
REMARK INTER + INTRA:         -11.712
REMARK INTER:                  -6.435
REMARK INTRA:                  -5.277
REMARK UNBOUND:                -5.651
REMARK SMILES CCCCCCCCCCCCCCCCCCCCCCCCCCCC(=O)[O-]
REMARK SMILES IDX 15 1 16 2 17 3 18 4 19 5 20 6 21 7 22 8 23 9 24 10 25 11
REMARK SMILES IDX 26 12 27 13 28 14 29 15 30 16 14 17 13 18 12 19 11 20 10 21
REMARK SMILES IDX 9 22 8 23 7 24 6 25 5 26 4 27 3 28 2 29 1 30
REMARK H PARENT
REMARK Flexibility Score: inf
ROOT
ATOM      1  C   UNL     1     101.007  61.628 224.828  1.00  0.00     0.000 C 
ENDROOT
BRANCH   1   2
ATOM      2  C   UNL     1     102.083  60.702 225.414  1.00  0.00     0.000 C 
BRANCH   2   3
ATOM      3  C   UNL     1     101.493  59.530 226.217  1.00  0.00     0.000 C 
BRANCH   3   4
ATOM      4  C   UNL     1     100.817  59.984 227.522  1.00  0.00     0.000 C 
BRANCH   4   5
ATOM      5  C   UNL     1      99.696  59.032 227.969  1.00  0.00     0.000 C 
BRANCH   5   6
ATOM      6  C   UNL     1      98.464  59.781 228.510  1.00  0.00     0.000 C 
BRANCH   6   7
ATOM      7  C   UNL     1      97.389  59.999 227.423  1.00  0.00     0.000 C 
BRANCH   7   8
ATOM      8  C   UNL     1      97.637  59.190 226.135  1.00  0.00     0.000 C 
BRANCH   8   9
ATOM      9  C   UNL     1      96.803  57.903 226.007  1.00  0.00     0.000 C 
BRANCH   9  10
ATOM     10  C   UNL     1      97.602  56.734 225.413  1.00  0.00     0.000 C 
BRANCH  10  11
ATOM     11  C   UNL     1      98.883  57.235 224.734  1.00  0.00     0.000 C 
BRANCH  11  12
ATOM     12  C   UNL     1      99.002  56.687 223.306  1.00  0.00     0.006 C 
BRANCH  12  13
ATOM     13  C   UNL     1      97.621  56.380 222.718  1.00  0.00     0.053 C 
BRANCH  13  14
ATOM     14  C   UNL     1      97.192  57.460 221.774  1.00  0.00     0.041 C 
ATOM     15  O   UNL     1      97.998  57.908 220.917  1.00  0.00    -0.550 OA
ATOM     16  O   UNL     1      95.911  57.994 221.858  1.00  0.00    -0.550 OA
ENDBRANCH  13  14
ENDBRANCH  12  13
ENDBRANCH  11  12
ENDBRANCH  10  11
ENDBRANCH   9  10
ENDBRANCH   8   9
ENDBRANCH   7   8
ENDBRANCH   6   7
ENDBRANCH   5   6
ENDBRANCH   4   5
ENDBRANCH   3   4
ENDBRANCH   2   3
ENDBRANCH   1   2
BRANCH   1  17
ATOM     17  C   UNL     1     101.633  62.909 224.257  1.00  0.00     0.000 C 
BRANCH  17  18
ATOM     18  C   UNL     1     100.586  63.995 223.964  1.00  0.00     0.000 C 
BRANCH  18  19
ATOM     19  C   UNL     1     100.855  65.296 224.740  1.00  0.00     0.000 C 
BRANCH  19  20
ATOM     20  C   UNL     1      99.870  66.416 224.369  1.00  0.00     0.000 C 
BRANCH  20  21
ATOM     21  C   UNL     1      98.892  66.738 225.512  1.00  0.00     0.000 C 
BRANCH  21  22
ATOM     22  C   UNL     1      97.419  66.616 225.086  1.00  0.00    -0.000 C 
BRANCH  22  23
ATOM     23  C   UNL     1      97.151  65.614 223.945  1.00  0.00    -0.000 C 
BRANCH  23  24
ATOM     24  C   UNL     1      96.396  64.336 224.353  1.00  0.00    -0.000 C 
BRANCH  24  25
ATOM     25  C   UNL     1      97.210  63.436 225.298  1.00  0.00    -0.000 C 
BRANCH  25  26
ATOM     26  C   UNL     1      96.709  63.485 226.753  1.00  0.00    -0.000 C 
BRANCH  26  27
ATOM     27  C   UNL     1      97.785  63.814 227.803  1.00  0.00    -0.000 C 
BRANCH  27  28
ATOM     28  C   UNL     1      99.194  63.360 227.380  1.00  0.00    -0.000 C 
BRANCH  28  29
ATOM     29  C   UNL     1     100.229  63.524 228.503  1.00  0.00    -0.003 C 
ATOM     30  C   UNL     1     101.662  63.603 227.980  1.00  0.00     0.004 C 
ENDBRANCH  28  29
ENDBRANCH  27  28
ENDBRANCH  26  27
ENDBRANCH  25  26
ENDBRANCH  24  25
ENDBRANCH  23  24
ENDBRANCH  22  23
ENDBRANCH  21  22
ENDBRANCH  20  21
ENDBRANCH  19  20
ENDBRANCH  18  19
ENDBRANCH  17  18
ENDBRANCH   1  17
TORSDOF 26
ENDMDL
MODEL 7
REMARK VINA RESULT:    -2.401      1.728      6.273
REMARK INTER + INTRA:         -11.702
REMARK INTER:                  -6.218
REMARK INTRA:                  -5.483
REMARK UNBOUND:                -5.651
REMARK SMILES CCCCCCCCCCCCCCCCCCCCCCCCCCCC(=O)[O-]
REMARK SMILES IDX 15 1 16 2 17 3 18 4 19 5 20 6 21 7 22 8 23 9 24 10 25 11
REMARK SMILES IDX 26 12 27 13 28 14 29 15 30 16 14 17 13 18 12 19 11 20 10 21
REMARK SMILES IDX 9 22 8 23 7 24 6 25 5 26 4 27 3 28 2 29 1 30
REMARK H PARENT
REMARK Flexibility Score: inf
ROOT
ATOM      1  C   UNL     1      96.987  61.240 227.575  1.00  0.00     0.000 C 
ENDROOT
BRANCH   1   2
ATOM      2  C   UNL     1      98.313  60.692 227.025  1.00  0.00     0.000 C 
BRANCH   2   3
ATOM      3  C   UNL     1      98.669  59.306 227.589  1.00  0.00     0.000 C 
BRANCH   3   4
ATOM      4  C   UNL     1      97.673  58.216 227.158  1.00  0.00     0.000 C 
BRANCH   4   5
ATOM      5  C   UNL     1      97.943  57.697 225.736  1.00  0.00     0.000 C 
BRANCH   5   6
ATOM      6  C   UNL     1      99.351  57.093 225.584  1.00  0.00     0.000 C 
BRANCH   6   7
ATOM      7  C   UNL     1     100.201  57.848 224.540  1.00  0.00     0.000 C 
BRANCH   7   8
ATOM      8  C   UNL     1     101.549  58.357 225.089  1.00  0.00     0.000 C 
BRANCH   8   9
ATOM      9  C   UNL     1     101.588  59.858 225.422  1.00  0.00     0.000 C 
BRANCH   9  10
ATOM     10  C   UNL     1     102.361  60.161 226.714  1.00  0.00     0.000 C 
BRANCH  10  11
ATOM     11  C   UNL     1     101.929  61.508 227.306  1.00  0.00     0.000 C 
BRANCH  11  12
ATOM     12  C   UNL     1     101.420  62.455 226.212  1.00  0.00     0.006 C 
BRANCH  12  13
ATOM     13  C   UNL     1     102.066  63.839 226.337  1.00  0.00     0.053 C 
BRANCH  13  14
ATOM     14  C   UNL     1     103.410  63.861 225.675  1.00  0.00     0.041 C 
ATOM     15  O   UNL     1     103.630  63.140 224.666  1.00  0.00    -0.550 OA
ATOM     16  O   UNL     1     104.430  64.653 226.190  1.00  0.00    -0.550 OA
ENDBRANCH  13  14
ENDBRANCH  12  13
ENDBRANCH  11  12
ENDBRANCH  10  11
ENDBRANCH   9  10
ENDBRANCH   8   9
ENDBRANCH   7   8
ENDBRANCH   6   7
ENDBRANCH   5   6
ENDBRANCH   4   5
ENDBRANCH   3   4
ENDBRANCH   2   3
ENDBRANCH   1   2
BRANCH   1  17
ATOM     17  C   UNL     1      97.235  62.336 228.622  1.00  0.00     0.000 C 
BRANCH  17  18
ATOM     18  C   UNL     1      98.667  62.892 228.563  1.00  0.00     0.000 C 
BRANCH  18  19
ATOM     19  C   UNL     1      98.699  64.431 228.550  1.00  0.00     0.000 C 
BRANCH  19  20
ATOM     20  C   UNL     1      97.327  65.050 228.857  1.00  0.00     0.000 C 
BRANCH  20  21
ATOM     21  C   UNL     1      97.102  66.376 228.111  1.00  0.00     0.000 C 
BRANCH  21  22
ATOM     22  C   UNL     1      95.827  66.366 227.250  1.00  0.00    -0.000 C 
BRANCH  22  23
ATOM     23  C   UNL     1      95.426  64.983 226.696  1.00  0.00    -0.000 C 
BRANCH  23  24
ATOM     24  C   UNL     1      94.941  64.974 225.235  1.00  0.00    -0.000 C 
BRANCH  24  25
ATOM     25  C   UNL     1      96.072  64.700 224.230  1.00  0.00    -0.000 C 
BRANCH  25  26
ATOM     26  C   UNL     1      97.040  63.597 224.701  1.00  0.00    -0.000 C 
BRANCH  26  27
ATOM     27  C   UNL     1      98.474  64.071 224.997  1.00  0.00    -0.000 C 
BRANCH  27  28
ATOM     28  C   UNL     1      98.862  65.337 224.212  1.00  0.00    -0.000 C 
BRANCH  28  29
ATOM     29  C   UNL     1      99.173  66.528 225.130  1.00  0.00    -0.003 C 
ATOM     30  C   UNL     1      98.531  67.828 224.649  1.00  0.00     0.004 C 
ENDBRANCH  28  29
ENDBRANCH  27  28
ENDBRANCH  26  27
ENDBRANCH  25  26
ENDBRANCH  24  25
ENDBRANCH  23  24
ENDBRANCH  22  23
ENDBRANCH  21  22
ENDBRANCH  20  21
ENDBRANCH  19  20
ENDBRANCH  18  19
ENDBRANCH  17  18
ENDBRANCH   1  17
TORSDOF 26
ENDMDL
MODEL 8
REMARK VINA RESULT:    -2.384      8.933     11.909
REMARK INTER + INTRA:         -11.659
REMARK INTER:                  -6.469
REMARK INTRA:                  -5.190
REMARK UNBOUND:                -5.651
REMARK SMILES CCCCCCCCCCCCCCCCCCCCCCCCCCCC(=O)[O-]
REMARK SMILES IDX 15 1 16 2 17 3 18 4 19 5 20 6 21 7 22 8 23 9 24 10 25 11
REMARK SMILES IDX 26 12 27 13 28 14 29 15 30 16 14 17 13 18 12 19 11 20 10 21
REMARK SMILES IDX 9 22 8 23 7 24 6 25 5 26 4 27 3 28 2 29 1 30
REMARK H PARENT
REMARK Flexibility Score: inf
ROOT
ATOM      1  C   UNL     1     101.824  57.431 220.142  1.00  0.00     0.000 C 
ENDROOT
BRANCH   1   2
ATOM      2  C   UNL     1     101.277  56.174 219.449  1.00  0.00     0.000 C 
BRANCH   2   3
ATOM      3  C   UNL     1      99.879  55.775 219.949  1.00  0.00     0.000 C 
BRANCH   3   4
ATOM      4  C   UNL     1      99.290  56.791 220.942  1.00  0.00     0.000 C 
BRANCH   4   5
ATOM      5  C   UNL     1      98.128  57.599 220.342  1.00  0.00     0.000 C 
BRANCH   5   6
ATOM      6  C   UNL     1      96.765  57.212 220.942  1.00  0.00     0.000 C 
BRANCH   6   7
ATOM      7  C   UNL     1      95.978  56.246 220.030  1.00  0.00     0.000 C 
BRANCH   7   8
ATOM      8  C   UNL     1      95.305  55.084 220.790  1.00  0.00     0.000 C 
BRANCH   8   9
ATOM      9  C   UNL     1      96.262  54.220 221.628  1.00  0.00     0.000 C 
BRANCH   9  10
ATOM     10  C   UNL     1      95.813  54.083 223.090  1.00  0.00     0.000 C 
BRANCH  10  11
ATOM     11  C   UNL     1      94.525  54.875 223.343  1.00  0.00     0.000 C 
BRANCH  11  12
ATOM     12  C   UNL     1      94.631  55.707 224.628  1.00  0.00     0.006 C 
BRANCH  12  13
ATOM     13  C   UNL     1      95.645  56.843 224.467  1.00  0.00     0.053 C 
BRANCH  13  14
ATOM     14  C   UNL     1      96.500  56.972 225.689  1.00  0.00     0.041 C 
ATOM     15  O   UNL     1      96.353  56.172 226.651  1.00  0.00    -0.550 OA
ATOM     16  O   UNL     1      97.439  57.993 225.782  1.00  0.00    -0.550 OA
ENDBRANCH  13  14
ENDBRANCH  12  13
ENDBRANCH  11  12
ENDBRANCH  10  11
ENDBRANCH   9  10
ENDBRANCH   8   9
ENDBRANCH   7   8
ENDBRANCH   6   7
ENDBRANCH   5   6
ENDBRANCH   4   5
ENDBRANCH   3   4
ENDBRANCH   2   3
ENDBRANCH   1   2
BRANCH   1  17
ATOM     17  C   UNL     1     102.256  58.485 219.113  1.00  0.00     0.000 C 
BRANCH  17  18
ATOM     18  C   UNL     1     101.385  58.462 217.846  1.00  0.00     0.000 C 
BRANCH  18  19
ATOM     19  C   UNL     1     100.118  59.322 217.988  1.00  0.00     0.000 C 
BRANCH  19  20
ATOM     20  C   UNL     1      98.970  58.830 217.092  1.00  0.00     0.000 C 
BRANCH  20  21
ATOM     21  C   UNL     1      99.168  57.376 216.632  1.00  0.00     0.000 C 
BRANCH  21  22
ATOM     22  C   UNL     1      97.908  56.514 216.824  1.00  0.00    -0.000 C 
BRANCH  22  23
ATOM     23  C   UNL     1      97.907  55.180 216.051  1.00  0.00    -0.000 C 
BRANCH  23  24
ATOM     24  C   UNL     1      98.395  53.956 216.847  1.00  0.00    -0.000 C 
BRANCH  24  25
ATOM     25  C   UNL     1      97.517  53.650 218.072  1.00  0.00    -0.000 C 
BRANCH  25  26
ATOM     26  C   UNL     1      96.561  52.464 217.845  1.00  0.00    -0.000 C 
BRANCH  26  27
ATOM     27  C   UNL     1      95.064  52.802 217.957  1.00  0.00    -0.000 C 
BRANCH  27  28
ATOM     28  C   UNL     1      94.323  52.704 216.612  1.00  0.00    -0.000 C 
BRANCH  28  29
ATOM     29  C   UNL     1      94.405  54.003 215.797  1.00  0.00    -0.003 C 
ATOM     30  C   UNL     1      94.345  55.254 216.671  1.00  0.00     0.004 C 
ENDBRANCH  28  29
ENDBRANCH  27  28
ENDBRANCH  26  27
ENDBRANCH  25  26
ENDBRANCH  24  25
ENDBRANCH  23  24
ENDBRANCH  22  23
ENDBRANCH  21  22
ENDBRANCH  20  21
ENDBRANCH  19  20
ENDBRANCH  18  19
ENDBRANCH  17  18
ENDBRANCH   1  17
TORSDOF 26
ENDMDL
MODEL 9
REMARK VINA RESULT:    -2.373      7.132      9.725
REMARK INTER + INTRA:         -11.631
REMARK INTER:                  -6.081
REMARK INTRA:                  -5.550
REMARK UNBOUND:                -5.651
REMARK SMILES CCCCCCCCCCCCCCCCCCCCCCCCCCCC(=O)[O-]
REMARK SMILES IDX 15 1 16 2 17 3 18 4 19 5 20 6 21 7 22 8 23 9 24 10 25 11
REMARK SMILES IDX 26 12 27 13 28 14 29 15 30 16 14 17 13 18 12 19 11 20 10 21
REMARK SMILES IDX 9 22 8 23 7 24 6 25 5 26 4 27 3 28 2 29 1 30
REMARK H PARENT
REMARK Flexibility Score: inf
ROOT
ATOM      1  C   UNL     1      98.187  53.757 222.109  1.00  0.00     0.000 C 
ENDROOT
BRANCH   1   2
ATOM      2  C   UNL     1      96.934  53.716 222.998  1.00  0.00     0.000 C 
BRANCH   2   3
ATOM      3  C   UNL     1      95.631  53.605 222.191  1.00  0.00     0.000 C 
BRANCH   3   4
ATOM      4  C   UNL     1      94.482  54.427 222.801  1.00  0.00     0.000 C 
BRANCH   4   5
ATOM      5  C   UNL     1      94.427  54.321 224.333  1.00  0.00     0.000 C 
BRANCH   5   6
ATOM      6  C   UNL     1      94.556  55.689 225.027  1.00  0.00     0.000 C 
BRANCH   6   7
ATOM      7  C   UNL     1      94.894  56.820 224.030  1.00  0.00     0.000 C 
BRANCH   7   8
ATOM      8  C   UNL     1      96.168  57.607 224.397  1.00  0.00     0.000 C 
BRANCH   8   9
ATOM      9  C   UNL     1      97.276  56.773 225.063  1.00  0.00     0.000 C 
BRANCH   9  10
ATOM     10  C   UNL     1      98.324  57.640 225.776  1.00  0.00     0.000 C 
BRANCH  10  11
ATOM     11  C   UNL     1      99.743  57.143 225.472  1.00  0.00     0.000 C 
BRANCH  11  12
ATOM     12  C   UNL     1     100.549  58.202 224.710  1.00  0.00     0.006 C 
BRANCH  12  13
ATOM     13  C   UNL     1     102.048  58.064 224.994  1.00  0.00     0.053 C 
BRANCH  13  14
ATOM     14  C   UNL     1     102.604  56.840 224.334  1.00  0.00     0.041 C 
ATOM     15  O   UNL     1     102.436  56.655 223.100  1.00  0.00    -0.550 OA
ATOM     16  O   UNL     1     103.281  55.887 225.086  1.00  0.00    -0.550 OA
ENDBRANCH  13  14
ENDBRANCH  12  13
ENDBRANCH  11  12
ENDBRANCH  10  11
ENDBRANCH   9  10
ENDBRANCH   8   9
ENDBRANCH   7   8
ENDBRANCH   6   7
ENDBRANCH   5   6
ENDBRANCH   4   5
ENDBRANCH   3   4
ENDBRANCH   2   3
ENDBRANCH   1   2
BRANCH   1  17
ATOM     17  C   UNL     1      99.136  54.883 222.545  1.00  0.00     0.000 C 
BRANCH  17  18
ATOM     18  C   UNL     1      99.447  55.864 221.404  1.00  0.00     0.000 C 
BRANCH  18  19
ATOM     19  C   UNL     1      98.814  57.248 221.629  1.00  0.00     0.000 C 
BRANCH  19  20
ATOM     20  C   UNL     1      97.807  57.621 220.530  1.00  0.00     0.000 C 
BRANCH  20  21
ATOM     21  C   UNL     1      96.477  56.862 220.673  1.00  0.00     0.000 C 
BRANCH  21  22
ATOM     22  C   UNL     1      96.021  56.208 219.356  1.00  0.00    -0.000 C 
BRANCH  22  23
ATOM     23  C   UNL     1      96.775  54.918 218.974  1.00  0.00    -0.000 C 
BRANCH  23  24
ATOM     24  C   UNL     1      97.851  55.081 217.886  1.00  0.00    -0.000 C 
BRANCH  24  25
ATOM     25  C   UNL     1      97.321  55.770 216.618  1.00  0.00    -0.000 C 
BRANCH  25  26
ATOM     26  C   UNL     1      98.310  56.797 216.034  1.00  0.00    -0.000 C 
BRANCH  26  27
ATOM     27  C   UNL     1      98.811  57.858 217.030  1.00  0.00    -0.000 C 
BRANCH  27  28
ATOM     28  C   UNL     1     100.345  57.983 217.053  1.00  0.00    -0.000 C 
BRANCH  28  29
ATOM     29  C   UNL     1     100.954  57.532 218.388  1.00  0.00    -0.003 C 
ATOM     30  C   UNL     1     101.415  58.703 219.253  1.00  0.00     0.004 C 
ENDBRANCH  28  29
ENDBRANCH  27  28
ENDBRANCH  26  27
ENDBRANCH  25  26
ENDBRANCH  24  25
ENDBRANCH  23  24
ENDBRANCH  22  23
ENDBRANCH  21  22
ENDBRANCH  20  21
ENDBRANCH  19  20
ENDBRANCH  18  19
ENDBRANCH  17  18
ENDBRANCH   1  17
TORSDOF 26
ENDMDL
