MODEL 1
REMARK VINA RESULT:    -5.230      0.000      0.000
REMARK INTER + INTRA:          -7.882
REMARK INTER:                  -7.676
REMARK INTRA:                  -0.206
REMARK UNBOUND:                -0.206
REMARK SMILES O=c1c(O[C@H]2O[C@@H](CO)[C@H](O)[C@@H](O)[C@H]2O)c(-c2ccc(O)c(O)c2)oc2cc(O)cc(O)c12
REMARK SMILES IDX 4 1 3 2 16 3 25 4 2 5 26 6 1 7 33 8 27 9 31 10 28 11 30 12
REMARK SMILES IDX 17 13 18 14 19 15 20 16 24 17 22 18 21 19 23 21 32 23 29 25
REMARK SMILES IDX 5 27 14 28 6 29 12 30 7 31 10 32 15 33 13 35 8 37 9 38 11 40
REMARK H PARENT 21 20 23 22 32 24 29 26 15 34 13 36 9 39 11 41
REMARK Flexibility Score: inf
ROOT
ATOM      1  O   UNL     1      47.659  34.328 101.186  1.00  0.00    -0.454 OA
ENDROOT
BRANCH   1   2
ATOM      2  C   UNL     1      47.265  35.651 100.921  1.00  0.00     0.214 A 
ATOM      3  C   UNL     1      46.944  36.119  99.629  1.00  0.00     0.180 A 
ATOM      4  O   UNL     1      46.667  37.403  99.443  1.00  0.00    -0.452 OA
ATOM      5  C   UNL     1      47.204  36.548 101.993  1.00  0.00     0.239 A 
ATOM      6  C   UNL     1      46.639  38.296 100.424  1.00  0.00     0.146 A 
ATOM      7  O   UNL     1      47.418  36.102 103.150  1.00  0.00    -0.285 OA
ATOM      8  C   UNL     1      46.915  37.916 101.765  1.00  0.00     0.111 A 
ATOM      9  C   UNL     1      46.314  39.617 100.110  1.00  0.00     0.094 A 
ATOM     10  C   UNL     1      46.872  38.925 102.778  1.00  0.00     0.134 A 
ATOM     11  C   UNL     1      46.243  40.585 101.112  1.00  0.00     0.123 A 
ATOM     12  C   UNL     1      46.516  40.235 102.432  1.00  0.00     0.093 A 
BRANCH   3  13
ATOM     13  C   UNL     1      46.854  35.229  98.458  1.00  0.00     0.025 A 
ATOM     14  C   UNL     1      47.576  34.027  98.439  1.00  0.00     0.016 A 
ATOM     15  C   UNL     1      47.505  33.183  97.328  1.00  0.00     0.051 A 
ATOM     16  C   UNL     1      46.730  33.542  96.216  1.00  0.00     0.157 A 
ATOM     17  C   UNL     1      46.105  35.604  97.332  1.00  0.00     0.062 A 
ATOM     18  C   UNL     1      46.034  34.759  96.216  1.00  0.00     0.158 A 
BRANCH  16  19
ATOM     19  O   UNL     1      46.652  32.701  95.109  1.00  0.00    -0.504 OA
ATOM     20  H   UNL     1      46.449  33.060  94.183  1.00  0.00     0.293 HD
ENDBRANCH  16  19
BRANCH  18  21
ATOM     21  O   UNL     1      45.276  35.119  95.104  1.00  0.00    -0.504 OA
ATOM     22  H   UNL     1      44.639  34.466  94.663  1.00  0.00     0.293 HD
ENDBRANCH  18  21
ENDBRANCH   3  13
BRANCH  10  23
ATOM     23  O   UNL     1      47.180  38.708 104.125  1.00  0.00    -0.507 OA
ATOM     24  H   UNL     1      46.728  38.048 104.736  1.00  0.00     0.293 HD
ENDBRANCH  10  23
BRANCH  11  25
ATOM     25  O   UNL     1      45.901  41.901 100.805  1.00  0.00    -0.508 OA
ATOM     26  H   UNL     1      45.949  42.637 101.501  1.00  0.00     0.293 HD
ENDBRANCH  11  25
ENDBRANCH   1   2
BRANCH   1  27
ATOM     27  C   UNL     1      46.762  33.231 101.383  1.00  0.00     0.339 C 
ATOM     28  C   UNL     1      46.645  32.909 102.894  1.00  0.00     0.214 C 
ATOM     29  O   UNL     1      47.228  32.091 100.686  1.00  0.00    -0.332 OA
ATOM     30  C   UNL     1      46.364  31.400 103.145  1.00  0.00     0.180 C 
ATOM     31  C   UNL     1      46.195  31.122 100.587  1.00  0.00     0.179 C 
ATOM     32  C   UNL     1      45.569  30.765 101.977  1.00  0.00     0.177 C 
BRANCH  28  33
ATOM     33  O   UNL     1      47.771  33.340 103.622  1.00  0.00    -0.384 OA
ATOM     34  H   UNL     1      48.570  33.224 103.045  1.00  0.00     0.211 HD
ENDBRANCH  28  33
BRANCH  30  35
ATOM     35  O   UNL     1      47.546  30.676 103.397  1.00  0.00    -0.387 OA
ATOM     36  H   UNL     1      47.295  29.750 103.645  1.00  0.00     0.211 HD
ENDBRANCH  30  35
BRANCH  31  37
ATOM     37  C   UNL     1      46.768  29.879  99.888  1.00  0.00     0.191 C 
BRANCH  37  38
ATOM     38  O   UNL     1      46.608  29.967  98.497  1.00  0.00    -0.394 OA
ATOM     39  H   UNL     1      45.943  30.684  98.333  1.00  0.00     0.210 HD
ENDBRANCH  37  38
ENDBRANCH  31  37
BRANCH  32  40
ATOM     40  O   UNL     1      44.242  31.232 102.010  1.00  0.00    -0.387 OA
ATOM     41  H   UNL     1      43.795  30.899 101.188  1.00  0.00     0.211 HD
ENDBRANCH  32  40
ENDBRANCH   1  27
TORSDOF 12
ENDMDL
MODEL 2
REMARK VINA RESULT:    -3.979      1.192      2.205
REMARK INTER + INTRA:          -6.046
REMARK INTER:                  -5.860
REMARK INTRA:                  -0.186
REMARK UNBOUND:                -0.206
REMARK SMILES O=c1c(O[C@H]2O[C@@H](CO)[C@H](O)[C@@H](O)[C@H]2O)c(-c2ccc(O)c(O)c2)oc2cc(O)cc(O)c12
REMARK SMILES IDX 4 1 3 2 16 3 25 4 2 5 26 6 1 7 33 8 27 9 31 10 28 11 30 12
REMARK SMILES IDX 17 13 18 14 19 15 20 16 24 17 22 18 21 19 23 21 32 23 29 25
REMARK SMILES IDX 5 27 14 28 6 29 12 30 7 31 10 32 15 33 13 35 8 37 9 38 11 40
REMARK H PARENT 21 20 23 22 32 24 29 26 15 34 13 36 9 39 11 41
REMARK Flexibility Score: inf
ROOT
ATOM      1  O   UNL     1      48.041  33.660 100.064  1.00  0.00    -0.454 OA
ENDROOT
BRANCH   1   2
ATOM      2  C   UNL     1      47.534  34.958 100.250  1.00  0.00     0.214 A 
ATOM      3  C   UNL     1      46.929  35.708  99.218  1.00  0.00     0.180 A 
ATOM      4  O   UNL     1      46.555  36.960  99.446  1.00  0.00    -0.452 OA
ATOM      5  C   UNL     1      47.653  35.537 101.519  1.00  0.00     0.239 A 
ATOM      6  C   UNL     1      46.687  37.562 100.621  1.00  0.00     0.146 A 
ATOM      7  O   UNL     1      48.125  34.832 102.448  1.00  0.00    -0.285 OA
ATOM      8  C   UNL     1      47.254  36.880 101.731  1.00  0.00     0.111 A 
ATOM      9  C   UNL     1      46.238  38.878 100.747  1.00  0.00     0.094 A 
ATOM     10  C   UNL     1      47.373  37.583 102.971  1.00  0.00     0.134 A 
ATOM     11  C   UNL     1      46.328  39.542 101.970  1.00  0.00     0.123 A 
ATOM     12  C   UNL     1      46.888  38.894 103.069  1.00  0.00     0.093 A 
BRANCH   3  13
ATOM     13  C   UNL     1      46.642  35.145  97.888  1.00  0.00     0.025 A 
ATOM     14  C   UNL     1      46.289  33.794  97.762  1.00  0.00     0.016 A 
ATOM     15  C   UNL     1      46.027  33.249  96.503  1.00  0.00     0.051 A 
ATOM     16  C   UNL     1      46.137  34.045  95.354  1.00  0.00     0.157 A 
ATOM     17  C   UNL     1      46.784  35.933  96.734  1.00  0.00     0.062 A 
ATOM     18  C   UNL     1      46.523  35.387  95.469  1.00  0.00     0.158 A 
BRANCH  16  19
ATOM     19  O   UNL     1      45.870  33.508  94.096  1.00  0.00    -0.504 OA
ATOM     20  H   UNL     1      45.814  32.507  93.947  1.00  0.00     0.293 HD
ENDBRANCH  16  19
BRANCH  18  21
ATOM     21  O   UNL     1      46.645  36.171  94.324  1.00  0.00    -0.504 OA
ATOM     22  H   UNL     1      47.322  35.953  93.602  1.00  0.00     0.293 HD
ENDBRANCH  18  21
ENDBRANCH   3  13
BRANCH  10  23
ATOM     23  O   UNL     1      47.965  37.060 104.125  1.00  0.00    -0.507 OA
ATOM     24  H   UNL     1      48.035  37.524 105.016  1.00  0.00     0.293 HD
ENDBRANCH  10  23
BRANCH  11  25
ATOM     25  O   UNL     1      45.865  40.849 102.105  1.00  0.00    -0.508 OA
ATOM     26  H   UNL     1      45.308  41.291 101.382  1.00  0.00     0.293 HD
ENDBRANCH  11  25
ENDBRANCH   1   2
BRANCH   1  27
ATOM     27  C   UNL     1      47.795  32.554 100.938  1.00  0.00     0.339 C 
ATOM     28  C   UNL     1      48.103  31.223 100.205  1.00  0.00     0.214 C 
ATOM     29  O   UNL     1      46.446  32.563 101.365  1.00  0.00    -0.332 OA
ATOM     30  C   UNL     1      47.209  30.059 100.718  1.00  0.00     0.180 C 
ATOM     31  C   UNL     1      46.279  31.698 102.479  1.00  0.00     0.179 C 
ATOM     32  C   UNL     1      46.816  30.253 102.204  1.00  0.00     0.177 C 
BRANCH  28  33
ATOM     33  O   UNL     1      48.011  31.350  98.805  1.00  0.00    -0.384 OA
ATOM     34  H   UNL     1      48.909  31.598  98.462  1.00  0.00     0.211 HD
ENDBRANCH  28  33
BRANCH  30  35
ATOM     35  O   UNL     1      46.065  29.877  99.917  1.00  0.00    -0.387 OA
ATOM     36  H   UNL     1      45.577  29.081 100.250  1.00  0.00     0.211 HD
ENDBRANCH  30  35
BRANCH  31  37
ATOM     37  C   UNL     1      44.791  31.687 102.860  1.00  0.00     0.191 C 
BRANCH  37  38
ATOM     38  O   UNL     1      44.042  30.943 101.936  1.00  0.00    -0.394 OA
ATOM     39  H   UNL     1      44.218  29.986 102.133  1.00  0.00     0.210 HD
ENDBRANCH  37  38
ENDBRANCH  31  37
BRANCH  32  40
ATOM     40  O   UNL     1      47.942  30.025 103.017  1.00  0.00    -0.387 OA
ATOM     41  H   UNL     1      47.606  29.793 103.922  1.00  0.00     0.211 HD
ENDBRANCH  32  40
ENDBRANCH   1  27
TORSDOF 12
ENDMDL
