MODEL 1
REMARK VINA RESULT:    -4.671      0.000      0.000
REMARK INTER + INTRA:         -10.524
REMARK INTER:                  -8.494
REMARK INTRA:                  -2.029
REMARK UNBOUND:                -2.029
REMARK SMILES CCCCCCCCCCCCCCCC(=O)[O-]
REMARK SMILES IDX 9 1 10 2 11 3 12 4 13 5 14 6 15 7 16 8 17 9 18 10 8 11 7 12
REMARK SMILES IDX 6 13 5 14 4 15 3 16 2 17 1 18
REMARK H PARENT
REMARK Flexibility Score: inf
ROOT
ATOM      1  C   UNL     1     -26.366 -30.435 -11.626  1.00  0.00     0.000 C 
ENDROOT
BRANCH   1   2
ATOM      2  C   UNL     1     -25.632 -31.021 -10.407  1.00  0.00     0.000 C 
BRANCH   2   3
ATOM      3  C   UNL     1     -24.185 -31.429 -10.729  1.00  0.00     0.000 C 
BRANCH   3   4
ATOM      4  C   UNL     1     -23.965 -31.714 -12.223  1.00  0.00     0.000 C 
BRANCH   4   5
ATOM      5  C   UNL     1     -22.483 -31.993 -12.515  1.00  0.00     0.000 C 
BRANCH   5   6
ATOM      6  C   UNL     1     -22.061 -33.420 -12.130  1.00  0.00     0.006 C 
BRANCH   6   7
ATOM      7  C   UNL     1     -21.538 -34.225 -13.327  1.00  0.00     0.053 C 
BRANCH   7   8
ATOM      8  C   UNL     1     -20.654 -35.338 -12.862  1.00  0.00     0.041 C 
ATOM      9  O   UNL     1     -20.877 -35.907 -11.760  1.00  0.00    -0.550 OA
ATOM     10  O   UNL     1     -19.553 -35.715 -13.620  1.00  0.00    -0.550 OA
ENDBRANCH   7   8
ENDBRANCH   6   7
ENDBRANCH   5   6
ENDBRANCH   4   5
ENDBRANCH   3   4
ENDBRANCH   2   3
ENDBRANCH   1   2
BRANCH   1  11
ATOM     11  C   UNL     1     -27.888 -30.641 -11.553  1.00  0.00     0.000 C 
BRANCH  11  12
ATOM     12  C   UNL     1     -28.444 -31.377 -12.785  1.00  0.00    -0.000 C 
BRANCH  12  13
ATOM     13  C   UNL     1     -27.536 -32.532 -13.241  1.00  0.00    -0.000 C 
BRANCH  13  14
ATOM     14  C   UNL     1     -28.260 -33.891 -13.237  1.00  0.00    -0.000 C 
BRANCH  14  15
ATOM     15  C   UNL     1     -27.636 -34.892 -12.251  1.00  0.00    -0.000 C 
BRANCH  15  16
ATOM     16  C   UNL     1     -26.399 -34.322 -11.536  1.00  0.00    -0.000 C 
BRANCH  16  17
ATOM     17  C   UNL     1     -25.214 -35.301 -11.542  1.00  0.00    -0.003 C 
ATOM     18  C   UNL     1     -24.909 -35.856 -12.932  1.00  0.00     0.004 C 
ENDBRANCH  16  17
ENDBRANCH  15  16
ENDBRANCH  14  15
ENDBRANCH  13  14
ENDBRANCH  12  13
ENDBRANCH  11  12
ENDBRANCH   1  11
TORSDOF 14
ENDMDL
MODEL 2
REMARK VINA RESULT:    -4.614      1.451      3.636
REMARK INTER + INTRA:         -10.420
REMARK INTER:                  -8.518
REMARK INTRA:                  -1.902
REMARK UNBOUND:                -2.029
REMARK SMILES CCCCCCCCCCCCCCCC(=O)[O-]
REMARK SMILES IDX 9 1 10 2 11 3 12 4 13 5 14 6 15 7 16 8 17 9 18 10 8 11 7 12
REMARK SMILES IDX 6 13 5 14 4 15 3 16 2 17 1 18
REMARK H PARENT
REMARK Flexibility Score: inf
ROOT
ATOM      1  C   UNL     1     -27.699 -34.777 -13.086  1.00  0.00     0.000 C 
ENDROOT
BRANCH   1   2
ATOM      2  C   UNL     1     -27.251 -34.690 -11.617  1.00  0.00     0.000 C 
BRANCH   2   3
ATOM      3  C   UNL     1     -25.730 -34.843 -11.452  1.00  0.00     0.000 C 
BRANCH   3   4
ATOM      4  C   UNL     1     -25.086 -35.650 -12.589  1.00  0.00     0.000 C 
BRANCH   4   5
ATOM      5  C   UNL     1     -23.560 -35.476 -12.588  1.00  0.00     0.000 C 
BRANCH   5   6
ATOM      6  C   UNL     1     -23.131 -34.000 -12.610  1.00  0.00     0.006 C 
BRANCH   6   7
ATOM      7  C   UNL     1     -21.609 -33.826 -12.541  1.00  0.00     0.053 C 
BRANCH   7   8
ATOM      8  C   UNL     1     -21.094 -33.225 -13.810  1.00  0.00     0.041 C 
ATOM      9  O   UNL     1     -21.013 -31.974 -13.932  1.00  0.00    -0.550 OA
ATOM     10  O   UNL     1     -20.749 -34.044 -14.877  1.00  0.00    -0.550 OA
ENDBRANCH   7   8
ENDBRANCH   6   7
ENDBRANCH   5   6
ENDBRANCH   4   5
ENDBRANCH   3   4
ENDBRANCH   2   3
ENDBRANCH   1   2
BRANCH   1  11
ATOM     11  C   UNL     1     -27.687 -33.410 -13.789  1.00  0.00     0.000 C 
BRANCH  11  12
ATOM     12  C   UNL     1     -28.445 -32.331 -12.994  1.00  0.00    -0.000 C 
BRANCH  12  13
ATOM     13  C   UNL     1     -27.562 -31.117 -12.660  1.00  0.00    -0.000 C 
BRANCH  13  14
ATOM     14  C   UNL     1     -27.722 -30.650 -11.202  1.00  0.00    -0.000 C 
BRANCH  14  15
ATOM     15  C   UNL     1     -26.402 -30.702 -10.415  1.00  0.00    -0.000 C 
BRANCH  15  16
ATOM     16  C   UNL     1     -25.299 -31.472 -11.163  1.00  0.00    -0.000 C 
BRANCH  16  17
ATOM     17  C   UNL     1     -24.049 -30.614 -11.411  1.00  0.00    -0.003 C 
ATOM     18  C   UNL     1     -23.868 -30.238 -12.881  1.00  0.00     0.004 C 
ENDBRANCH  16  17
ENDBRANCH  15  16
ENDBRANCH  14  15
ENDBRANCH  13  14
ENDBRANCH  12  13
ENDBRANCH  11  12
ENDBRANCH   1  11
TORSDOF 14
ENDMDL
MODEL 3
REMARK VINA RESULT:    -4.499      1.930      5.061
REMARK INTER + INTRA:         -10.210
REMARK INTER:                  -8.785
REMARK INTRA:                  -1.425
REMARK UNBOUND:                -2.029
REMARK SMILES CCCCCCCCCCCCCCCC(=O)[O-]
REMARK SMILES IDX 9 1 10 2 11 3 12 4 13 5 14 6 15 7 16 8 17 9 18 10 8 11 7 12
REMARK SMILES IDX 6 13 5 14 4 15 3 16 2 17 1 18
REMARK H PARENT
REMARK Flexibility Score: inf
ROOT
ATOM      1  C   UNL     1     -25.590 -31.509 -10.413  1.00  0.00     0.000 C 
ENDROOT
BRANCH   1   2
ATOM      2  C   UNL     1     -26.851 -30.697 -10.759  1.00  0.00     0.000 C 
BRANCH   2   3
ATOM      3  C   UNL     1     -27.041 -30.518 -12.275  1.00  0.00     0.000 C 
BRANCH   3   4
ATOM      4  C   UNL     1     -26.976 -31.845 -13.045  1.00  0.00     0.000 C 
BRANCH   4   5
ATOM      5  C   UNL     1     -28.287 -32.631 -12.894  1.00  0.00     0.000 C 
BRANCH   5   6
ATOM      6  C   UNL     1     -28.059 -34.086 -12.453  1.00  0.00     0.006 C 
BRANCH   6   7
ATOM      7  C   UNL     1     -27.107 -34.844 -13.385  1.00  0.00     0.053 C 
BRANCH   7   8
ATOM      8  C   UNL     1     -25.922 -35.348 -12.625  1.00  0.00     0.041 C 
ATOM      9  O   UNL     1     -25.094 -36.119 -13.179  1.00  0.00    -0.550 OA
ATOM     10  O   UNL     1     -25.756 -35.006 -11.289  1.00  0.00    -0.550 OA
ENDBRANCH   7   8
ENDBRANCH   6   7
ENDBRANCH   5   6
ENDBRANCH   4   5
ENDBRANCH   3   4
ENDBRANCH   2   3
ENDBRANCH   1   2
BRANCH   1  11
ATOM     11  C   UNL     1     -24.293 -30.772 -10.787  1.00  0.00     0.000 C 
BRANCH  11  12
ATOM     12  C   UNL     1     -23.143 -31.737 -11.128  1.00  0.00    -0.000 C 
BRANCH  12  13
ATOM     13  C   UNL     1     -23.476 -32.652 -12.318  1.00  0.00    -0.000 C 
BRANCH  13  14
ATOM     14  C   UNL     1     -22.404 -33.732 -12.554  1.00  0.00    -0.000 C 
BRANCH  14  15
ATOM     15  C   UNL     1     -21.445 -33.376 -13.701  1.00  0.00    -0.000 C 
BRANCH  15  16
ATOM     16  C   UNL     1     -20.424 -34.492 -13.983  1.00  0.00    -0.000 C 
BRANCH  16  17
ATOM     17  C   UNL     1     -20.403 -35.562 -12.881  1.00  0.00    -0.003 C 
ATOM     18  C   UNL     1     -19.037 -36.231 -12.729  1.00  0.00     0.004 C 
ENDBRANCH  16  17
ENDBRANCH  15  16
ENDBRANCH  14  15
ENDBRANCH  13  14
ENDBRANCH  12  13
ENDBRANCH  11  12
ENDBRANCH   1  11
TORSDOF 14
ENDMDL
MODEL 4
REMARK VINA RESULT:    -4.431      2.375      5.608
REMARK INTER + INTRA:         -10.087
REMARK INTER:                  -8.440
REMARK INTRA:                  -1.647
REMARK UNBOUND:                -2.029
REMARK SMILES CCCCCCCCCCCCCCCC(=O)[O-]
REMARK SMILES IDX 9 1 10 2 11 3 12 4 13 5 14 6 15 7 16 8 17 9 18 10 8 11 7 12
REMARK SMILES IDX 6 13 5 14 4 15 3 16 2 17 1 18
REMARK H PARENT
REMARK Flexibility Score: inf
ROOT
ATOM      1  C   UNL     1     -23.503 -31.850 -11.193  1.00  0.00     0.000 C 
ENDROOT
BRANCH   1   2
ATOM      2  C   UNL     1     -24.971 -32.310 -11.220  1.00  0.00     0.000 C 
BRANCH   2   3
ATOM      3  C   UNL     1     -25.899 -31.374 -10.427  1.00  0.00     0.000 C 
BRANCH   3   4
ATOM      4  C   UNL     1     -27.240 -31.125 -11.133  1.00  0.00     0.000 C 
BRANCH   4   5
ATOM      5  C   UNL     1     -27.160 -31.520 -12.615  1.00  0.00     0.000 C 
BRANCH   5   6
ATOM      6  C   UNL     1     -28.246 -32.529 -13.020  1.00  0.00     0.006 C 
BRANCH   6   7
ATOM      7  C   UNL     1     -27.683 -33.717 -13.810  1.00  0.00     0.053 C 
BRANCH   7   8
ATOM      8  C   UNL     1     -27.138 -34.753 -12.878  1.00  0.00     0.041 C 
ATOM      9  O   UNL     1     -27.569 -34.832 -11.697  1.00  0.00    -0.550 OA
ATOM     10  O   UNL     1     -26.119 -35.598 -13.297  1.00  0.00    -0.550 OA
ENDBRANCH   7   8
ENDBRANCH   6   7
ENDBRANCH   5   6
ENDBRANCH   4   5
ENDBRANCH   3   4
ENDBRANCH   2   3
ENDBRANCH   1   2
BRANCH   1  11
ATOM     11  C   UNL     1     -22.994 -31.421 -12.578  1.00  0.00     0.000 C 
BRANCH  11  12
ATOM     12  C   UNL     1     -21.464 -31.529 -12.705  1.00  0.00    -0.000 C 
BRANCH  12  13
ATOM     13  C   UNL     1     -20.989 -31.476 -14.166  1.00  0.00    -0.000 C 
BRANCH  13  14
ATOM     14  C   UNL     1     -20.105 -32.678 -14.547  1.00  0.00    -0.000 C 
BRANCH  14  15
ATOM     15  C   UNL     1     -20.848 -34.019 -14.437  1.00  0.00    -0.000 C 
BRANCH  15  16
ATOM     16  C   UNL     1     -20.186 -34.978 -13.432  1.00  0.00    -0.000 C 
BRANCH  16  17
ATOM     17  C   UNL     1     -21.180 -35.514 -12.389  1.00  0.00    -0.003 C 
ATOM     18  C   UNL     1     -22.626 -35.129 -12.694  1.00  0.00     0.004 C 
ENDBRANCH  16  17
ENDBRANCH  15  16
ENDBRANCH  14  15
ENDBRANCH  13  14
ENDBRANCH  12  13
ENDBRANCH  11  12
ENDBRANCH   1  11
TORSDOF 14
ENDMDL
MODEL 5
REMARK VINA RESULT:    -4.427      2.845      6.584
REMARK INTER + INTRA:         -10.080
REMARK INTER:                  -8.844
REMARK INTRA:                  -1.236
REMARK UNBOUND:                -2.029
REMARK SMILES CCCCCCCCCCCCCCCC(=O)[O-]
REMARK SMILES IDX 9 1 10 2 11 3 12 4 13 5 14 6 15 7 16 8 17 9 18 10 8 11 7 12
REMARK SMILES IDX 6 13 5 14 4 15 3 16 2 17 1 18
REMARK H PARENT
REMARK Flexibility Score: inf
ROOT
ATOM      1  C   UNL     1     -24.663 -35.565 -12.611  1.00  0.00     0.000 C 
ENDROOT
BRANCH   1   2
ATOM      2  C   UNL     1     -25.330 -34.348 -11.946  1.00  0.00     0.000 C 
BRANCH   2   3
ATOM      3  C   UNL     1     -26.696 -34.687 -11.327  1.00  0.00     0.000 C 
BRANCH   3   4
ATOM      4  C   UNL     1     -27.865 -34.445 -12.294  1.00  0.00     0.000 C 
BRANCH   4   5
ATOM      5  C   UNL     1     -27.547 -33.294 -13.260  1.00  0.00     0.000 C 
BRANCH   5   6
ATOM      6  C   UNL     1     -28.444 -32.066 -13.036  1.00  0.00     0.006 C 
BRANCH   6   7
ATOM      7  C   UNL     1     -27.650 -30.754 -12.994  1.00  0.00     0.053 C 
BRANCH   7   8
ATOM      8  C   UNL     1     -26.533 -30.851 -12.004  1.00  0.00     0.041 C 
ATOM      9  O   UNL     1     -25.335 -30.788 -12.392  1.00  0.00    -0.550 OA
ATOM     10  O   UNL     1     -26.811 -31.060 -10.660  1.00  0.00    -0.550 OA
ENDBRANCH   7   8
ENDBRANCH   6   7
ENDBRANCH   5   6
ENDBRANCH   4   5
ENDBRANCH   3   4
ENDBRANCH   2   3
ENDBRANCH   1   2
BRANCH   1  11
ATOM     11  C   UNL     1     -23.131 -35.451 -12.649  1.00  0.00     0.000 C 
BRANCH  11  12
ATOM     12  C   UNL     1     -22.649 -33.991 -12.728  1.00  0.00    -0.000 C 
BRANCH  12  13
ATOM     13  C   UNL     1     -21.385 -33.834 -13.589  1.00  0.00    -0.000 C 
BRANCH  13  14
ATOM     14  C   UNL     1     -20.643 -35.166 -13.804  1.00  0.00    -0.000 C 
BRANCH  14  15
ATOM     15  C   UNL     1     -19.355 -35.268 -12.971  1.00  0.00    -0.000 C 
BRANCH  15  16
ATOM     16  C   UNL     1     -19.501 -36.225 -11.775  1.00  0.00    -0.000 C 
BRANCH  16  17
ATOM     17  C   UNL     1     -19.035 -35.591 -10.455  1.00  0.00    -0.003 C 
ATOM     18  C   UNL     1     -19.437 -36.410  -9.229  1.00  0.00     0.004 C 
ENDBRANCH  16  17
ENDBRANCH  15  16
ENDBRANCH  14  15
ENDBRANCH  13  14
ENDBRANCH  12  13
ENDBRANCH  11  12
ENDBRANCH   1  11
TORSDOF 14
ENDMDL
MODEL 6
REMARK VINA RESULT:    -4.377      2.762      6.133
REMARK INTER + INTRA:          -9.989
REMARK INTER:                  -8.532
REMARK INTRA:                  -1.456
REMARK UNBOUND:                -2.029
REMARK SMILES CCCCCCCCCCCCCCCC(=O)[O-]
REMARK SMILES IDX 9 1 10 2 11 3 12 4 13 5 14 6 15 7 16 8 17 9 18 10 8 11 7 12
REMARK SMILES IDX 6 13 5 14 4 15 3 16 2 17 1 18
REMARK H PARENT
REMARK Flexibility Score: inf
ROOT
ATOM      1  C   UNL     1     -26.071 -34.797 -12.115  1.00  0.00     0.000 C 
ENDROOT
BRANCH   1   2
ATOM      2  C   UNL     1     -26.719 -35.069 -13.484  1.00  0.00     0.000 C 
BRANCH   2   3
ATOM      3  C   UNL     1     -27.945 -34.179 -13.745  1.00  0.00     0.000 C 
BRANCH   3   4
ATOM      4  C   UNL     1     -28.250 -33.227 -12.579  1.00  0.00     0.000 C 
BRANCH   4   5
ATOM      5  C   UNL     1     -28.598 -31.823 -13.094  1.00  0.00     0.000 C 
BRANCH   5   6
ATOM      6  C   UNL     1     -27.729 -30.725 -12.460  1.00  0.00     0.006 C 
BRANCH   6   7
ATOM      7  C   UNL     1     -26.229 -31.021 -12.572  1.00  0.00     0.053 C 
BRANCH   7   8
ATOM      8  C   UNL     1     -25.575 -30.924 -11.230  1.00  0.00     0.041 C 
ATOM      9  O   UNL     1     -26.209 -31.250 -10.191  1.00  0.00    -0.550 OA
ATOM     10  O   UNL     1     -24.284 -30.426 -11.120  1.00  0.00    -0.550 OA
ENDBRANCH   7   8
ENDBRANCH   6   7
ENDBRANCH   5   6
ENDBRANCH   4   5
ENDBRANCH   3   4
ENDBRANCH   2   3
ENDBRANCH   1   2
BRANCH   1  11
ATOM     11  C   UNL     1     -24.792 -35.620 -11.893  1.00  0.00     0.000 C 
BRANCH  11  12
ATOM     12  C   UNL     1     -23.590 -35.065 -12.679  1.00  0.00    -0.000 C 
BRANCH  12  13
ATOM     13  C   UNL     1     -23.382 -33.558 -12.451  1.00  0.00    -0.000 C 
BRANCH  13  14
ATOM     14  C   UNL     1     -22.046 -33.050 -13.023  1.00  0.00    -0.000 C 
BRANCH  14  15
ATOM     15  C   UNL     1     -21.218 -34.167 -13.678  1.00  0.00    -0.000 C 
BRANCH  15  16
ATOM     16  C   UNL     1     -20.442 -33.679 -14.913  1.00  0.00    -0.000 C 
BRANCH  16  17
ATOM     17  C   UNL     1     -20.398 -32.146 -15.012  1.00  0.00    -0.003 C 
ATOM     18  C   UNL     1     -20.745 -31.631 -16.409  1.00  0.00     0.004 C 
ENDBRANCH  16  17
ENDBRANCH  15  16
ENDBRANCH  14  15
ENDBRANCH  13  14
ENDBRANCH  12  13
ENDBRANCH  11  12
ENDBRANCH   1  11
TORSDOF 14
ENDMDL
MODEL 7
REMARK VINA RESULT:    -4.355      2.846      5.720
REMARK INTER + INTRA:          -9.949
REMARK INTER:                  -8.449
REMARK INTRA:                  -1.500
REMARK UNBOUND:                -2.029
REMARK SMILES CCCCCCCCCCCCCCCC(=O)[O-]
REMARK SMILES IDX 9 1 10 2 11 3 12 4 13 5 14 6 15 7 16 8 17 9 18 10 8 11 7 12
REMARK SMILES IDX 6 13 5 14 4 15 3 16 2 17 1 18
REMARK H PARENT
REMARK Flexibility Score: inf
ROOT
ATOM      1  C   UNL     1     -24.859 -32.237 -11.147  1.00  0.00     0.000 C 
ENDROOT
BRANCH   1   2
ATOM      2  C   UNL     1     -24.964 -30.737 -11.476  1.00  0.00     0.000 C 
BRANCH   2   3
ATOM      3  C   UNL     1     -26.413 -30.222 -11.431  1.00  0.00     0.000 C 
BRANCH   3   4
ATOM      4  C   UNL     1     -27.102 -30.261 -12.803  1.00  0.00     0.000 C 
BRANCH   4   5
ATOM      5  C   UNL     1     -28.414 -31.057 -12.736  1.00  0.00     0.000 C 
BRANCH   5   6
ATOM      6  C   UNL     1     -28.183 -32.569 -12.590  1.00  0.00     0.006 C 
BRANCH   6   7
ATOM      7  C   UNL     1     -27.713 -33.224 -13.894  1.00  0.00     0.053 C 
BRANCH   7   8
ATOM      8  C   UNL     1     -27.805 -34.714 -13.794  1.00  0.00     0.041 C 
ATOM      9  O   UNL     1     -27.880 -35.269 -12.665  1.00  0.00    -0.550 OA
ATOM     10  O   UNL     1     -27.759 -35.492 -14.942  1.00  0.00    -0.550 OA
ENDBRANCH   7   8
ENDBRANCH   6   7
ENDBRANCH   5   6
ENDBRANCH   4   5
ENDBRANCH   3   4
ENDBRANCH   2   3
ENDBRANCH   1   2
BRANCH   1  11
ATOM     11  C   UNL     1     -24.129 -33.030 -12.242  1.00  0.00     0.000 C 
BRANCH  11  12
ATOM     12  C   UNL     1     -24.506 -34.523 -12.241  1.00  0.00    -0.000 C 
BRANCH  12  13
ATOM     13  C   UNL     1     -23.318 -35.431 -12.601  1.00  0.00    -0.000 C 
BRANCH  13  14
ATOM     14  C   UNL     1     -21.960 -34.728 -12.427  1.00  0.00    -0.000 C 
BRANCH  14  15
ATOM     15  C   UNL     1     -20.832 -35.412 -13.217  1.00  0.00    -0.000 C 
BRANCH  15  16
ATOM     16  C   UNL     1     -20.200 -34.483 -14.268  1.00  0.00    -0.000 C 
BRANCH  16  17
ATOM     17  C   UNL     1     -20.970 -33.162 -14.423  1.00  0.00    -0.003 C 
ATOM     18  C   UNL     1     -20.551 -32.373 -15.663  1.00  0.00     0.004 C 
ENDBRANCH  16  17
ENDBRANCH  15  16
ENDBRANCH  14  15
ENDBRANCH  13  14
ENDBRANCH  12  13
ENDBRANCH  11  12
ENDBRANCH   1  11
TORSDOF 14
ENDMDL
MODEL 8
REMARK VINA RESULT:    -4.307      2.077      3.958
REMARK INTER + INTRA:          -9.861
REMARK INTER:                  -8.129
REMARK INTRA:                  -1.732
REMARK UNBOUND:                -2.029
REMARK SMILES CCCCCCCCCCCCCCCC(=O)[O-]
REMARK SMILES IDX 9 1 10 2 11 3 12 4 13 5 14 6 15 7 16 8 17 9 18 10 8 11 7 12
REMARK SMILES IDX 6 13 5 14 4 15 3 16 2 17 1 18
REMARK H PARENT
REMARK Flexibility Score: inf
ROOT
ATOM      1  C   UNL     1     -26.071 -34.877 -12.400  1.00  0.00     0.000 C 
ENDROOT
BRANCH   1   2
ATOM      2  C   UNL     1     -24.958 -35.875 -12.764  1.00  0.00     0.000 C 
BRANCH   2   3
ATOM      3  C   UNL     1     -23.554 -35.257 -12.666  1.00  0.00     0.000 C 
BRANCH   3   4
ATOM      4  C   UNL     1     -23.585 -33.733 -12.479  1.00  0.00     0.000 C 
BRANCH   4   5
ATOM      5  C   UNL     1     -22.209 -33.116 -12.769  1.00  0.00     0.000 C 
BRANCH   5   6
ATOM      6  C   UNL     1     -21.421 -33.897 -13.833  1.00  0.00     0.006 C 
BRANCH   6   7
ATOM      7  C   UNL     1     -20.199 -33.126 -14.347  1.00  0.00     0.053 C 
BRANCH   7   8
ATOM      8  C   UNL     1     -20.628 -31.982 -15.210  1.00  0.00     0.041 C 
ATOM      9  O   UNL     1     -20.818 -32.155 -16.444  1.00  0.00    -0.550 OA
ATOM     10  O   UNL     1     -20.771 -30.714 -14.663  1.00  0.00    -0.550 OA
ENDBRANCH   7   8
ENDBRANCH   6   7
ENDBRANCH   5   6
ENDBRANCH   4   5
ENDBRANCH   3   4
ENDBRANCH   2   3
ENDBRANCH   1   2
BRANCH   1  11
ATOM     11  C   UNL     1     -27.254 -34.930 -13.379  1.00  0.00     0.000 C 
BRANCH  11  12
ATOM     12  C   UNL     1     -27.887 -33.546 -13.616  1.00  0.00    -0.000 C 
BRANCH  12  13
ATOM     13  C   UNL     1     -27.053 -32.406 -13.010  1.00  0.00    -0.000 C 
BRANCH  13  14
ATOM     14  C   UNL     1     -27.897 -31.442 -12.155  1.00  0.00    -0.000 C 
BRANCH  14  15
ATOM     15  C   UNL     1     -27.073 -30.739 -11.065  1.00  0.00    -0.000 C 
BRANCH  15  16
ATOM     16  C   UNL     1     -25.936 -31.622 -10.524  1.00  0.00    -0.000 C 
BRANCH  16  17
ATOM     17  C   UNL     1     -24.609 -30.858 -10.392  1.00  0.00    -0.003 C 
ATOM     18  C   UNL     1     -24.230 -30.103 -11.666  1.00  0.00     0.004 C 
ENDBRANCH  16  17
ENDBRANCH  15  16
ENDBRANCH  14  15
ENDBRANCH  13  14
ENDBRANCH  12  13
ENDBRANCH  11  12
ENDBRANCH   1  11
TORSDOF 14
ENDMDL
MODEL 9
REMARK VINA RESULT:    -4.215      3.087      6.350
REMARK INTER + INTRA:          -9.695
REMARK INTER:                  -7.966
REMARK INTRA:                  -1.729
REMARK UNBOUND:                -2.029
REMARK SMILES CCCCCCCCCCCCCCCC(=O)[O-]
REMARK SMILES IDX 9 1 10 2 11 3 12 4 13 5 14 6 15 7 16 8 17 9 18 10 8 11 7 12
REMARK SMILES IDX 6 13 5 14 4 15 3 16 2 17 1 18
REMARK H PARENT
REMARK Flexibility Score: inf
ROOT
ATOM      1  C   UNL     1     -24.387 -33.192 -11.749  1.00  0.00     0.000 C 
ENDROOT
BRANCH   1   2
ATOM      2  C   UNL     1     -23.906 -34.360 -12.629  1.00  0.00     0.000 C 
BRANCH   2   3
ATOM      3  C   UNL     1     -24.892 -35.540 -12.635  1.00  0.00     0.000 C 
BRANCH   3   4
ATOM      4  C   UNL     1     -26.309 -35.135 -12.202  1.00  0.00     0.000 C 
BRANCH   4   5
ATOM      5  C   UNL     1     -27.239 -35.010 -13.418  1.00  0.00     0.000 C 
BRANCH   5   6
ATOM      6  C   UNL     1     -27.598 -33.551 -13.743  1.00  0.00     0.006 C 
BRANCH   6   7
ATOM      7  C   UNL     1     -28.324 -32.851 -12.588  1.00  0.00     0.053 C 
BRANCH   7   8
ATOM      8  C   UNL     1     -27.716 -31.509 -12.326  1.00  0.00     0.041 C 
ATOM      9  O   UNL     1     -27.898 -30.937 -11.218  1.00  0.00    -0.550 OA
ATOM     10  O   UNL     1     -26.991 -30.868 -13.321  1.00  0.00    -0.550 OA
ENDBRANCH   7   8
ENDBRANCH   6   7
ENDBRANCH   5   6
ENDBRANCH   4   5
ENDBRANCH   3   4
ENDBRANCH   2   3
ENDBRANCH   1   2
BRANCH   1  11
ATOM     11  C   UNL     1     -23.857 -31.833 -12.232  1.00  0.00     0.000 C 
BRANCH  11  12
ATOM     12  C   UNL     1     -22.350 -31.660 -11.971  1.00  0.00    -0.000 C 
BRANCH  12  13
ATOM     13  C   UNL     1     -21.529 -31.602 -13.270  1.00  0.00    -0.000 C 
BRANCH  13  14
ATOM     14  C   UNL     1     -20.057 -32.001 -13.061  1.00  0.00    -0.000 C 
BRANCH  14  15
ATOM     15  C   UNL     1     -19.589 -33.082 -14.049  1.00  0.00    -0.000 C 
BRANCH  15  16
ATOM     16  C   UNL     1     -20.656 -34.165 -14.285  1.00  0.00    -0.000 C 
BRANCH  16  17
ATOM     17  C   UNL     1     -20.326 -35.483 -13.567  1.00  0.00    -0.003 C 
ATOM     18  C   UNL     1     -20.448 -35.376 -12.047  1.00  0.00     0.004 C 
ENDBRANCH  16  17
ENDBRANCH  15  16
ENDBRANCH  14  15
ENDBRANCH  13  14
ENDBRANCH  12  13
ENDBRANCH  11  12
ENDBRANCH   1  11
TORSDOF 14
ENDMDL
