MODEL 1
REMARK VINA RESULT:    -5.394      0.000      0.000
REMARK INTER + INTRA:          -5.966
REMARK INTER:                  -6.340
REMARK INTRA:                   0.374
REMARK UNBOUND:                 0.374
REMARK SMILES O=c1c(O)c(-c2ccc(O)cc2)oc2cc(O)cc(O)c12
REMARK SMILES IDX 5 1 3 2 2 3 1 4 21 5 19 6 18 7 16 8 15 9 14 10 13 11 6 12
REMARK SMILES IDX 7 13 8 14 9 15 12 16 11 17 10 18 4 20 20 22 17 24
REMARK H PARENT 10 19 4 21 20 23 17 25
REMARK Flexibility Score: inf
ROOT
ATOM      1  C   UNL     1       4.578  11.602   7.986  1.00  0.00     0.180 A 
ATOM      2  C   UNL     1       4.888  10.883   6.816  1.00  0.00     0.208 A 
ATOM      3  C   UNL     1       6.232  10.765   6.428  1.00  0.00     0.238 A 
ATOM      4  O   UNL     1       6.521  10.133   5.375  1.00  0.00    -0.285 OA
ATOM      5  C   UNL     1       7.240  11.348   7.223  1.00  0.00     0.111 A 
ATOM      6  C   UNL     1       8.618  11.271   6.905  1.00  0.00     0.134 A 
ATOM      7  C   UNL     1       9.562  11.869   7.753  1.00  0.00     0.093 A 
ATOM      8  C   UNL     1       9.157  12.540   8.909  1.00  0.00     0.123 A 
ATOM      9  C   UNL     1       7.798  12.619   9.228  1.00  0.00     0.094 A 
ATOM     10  C   UNL     1       6.842  12.030   8.395  1.00  0.00     0.146 A 
ATOM     11  O   UNL     1       5.556  12.125   8.719  1.00  0.00    -0.452 OA
ENDROOT
BRANCH   1  12
ATOM     12  C   UNL     1       3.184  11.787   8.450  1.00  0.00     0.021 A 
ATOM     13  C   UNL     1       2.860  12.909   9.231  1.00  0.00     0.016 A 
ATOM     14  C   UNL     1       1.546  13.115   9.662  1.00  0.00     0.047 A 
ATOM     15  C   UNL     1       0.537  12.212   9.306  1.00  0.00     0.115 A 
ATOM     16  C   UNL     1       2.163  10.894   8.079  1.00  0.00     0.016 A 
ATOM     17  C   UNL     1       0.849  11.104   8.511  1.00  0.00     0.047 A 
BRANCH  15  18
ATOM     18  O   UNL     1      -0.775  12.406   9.729  1.00  0.00    -0.508 OA
ATOM     19  H   UNL     1      -1.396  13.047   9.250  1.00  0.00     0.293 HD
ENDBRANCH  15  18
ENDBRANCH   1  12
BRANCH   2  20
ATOM     20  O   UNL     1       3.874  10.273   6.072  1.00  0.00    -0.502 OA
ATOM     21  H   UNL     1       3.492   9.368   6.316  1.00  0.00     0.293 HD
ENDBRANCH   2  20
BRANCH   6  22
ATOM     22  O   UNL     1       9.055  10.608   5.757  1.00  0.00    -0.507 OA
ATOM     23  H   UNL     1       8.534  10.645   4.890  1.00  0.00     0.293 HD
ENDBRANCH   6  22
BRANCH   8  24
ATOM     24  O   UNL     1      10.115  13.125   9.734  1.00  0.00    -0.508 OA
ATOM     25  H   UNL     1      10.907  13.628   9.352  1.00  0.00     0.293 HD
ENDBRANCH   8  24
TORSDOF 5
ENDMDL
MODEL 2
REMARK VINA RESULT:    -5.217      1.972      3.506
REMARK INTER + INTRA:          -5.758
REMARK INTER:                  -5.467
REMARK INTRA:                  -0.291
REMARK UNBOUND:                 0.374
REMARK SMILES O=c1c(O)c(-c2ccc(O)cc2)oc2cc(O)cc(O)c12
REMARK SMILES IDX 5 1 3 2 2 3 1 4 21 5 19 6 18 7 16 8 15 9 14 10 13 11 6 12
REMARK SMILES IDX 7 13 8 14 9 15 12 16 11 17 10 18 4 20 20 22 17 24
REMARK H PARENT 10 19 4 21 20 23 17 25
REMARK Flexibility Score: inf
ROOT
ATOM      1  C   UNL     1       5.470  11.894   8.012  1.00  0.00     0.180 A 
ATOM      2  C   UNL     1       6.589  12.413   8.690  1.00  0.00     0.208 A 
ATOM      3  C   UNL     1       7.766  12.661   7.966  1.00  0.00     0.238 A 
ATOM      4  O   UNL     1       8.779  13.117   8.565  1.00  0.00    -0.285 OA
ATOM      5  C   UNL     1       7.798  12.407   6.580  1.00  0.00     0.111 A 
ATOM      6  C   UNL     1       8.942  12.635   5.777  1.00  0.00     0.134 A 
ATOM      7  C   UNL     1       8.891  12.365   4.401  1.00  0.00     0.093 A 
ATOM      8  C   UNL     1       7.723  11.875   3.814  1.00  0.00     0.123 A 
ATOM      9  C   UNL     1       6.590  11.648   4.601  1.00  0.00     0.094 A 
ATOM     10  C   UNL     1       6.621  11.909   5.974  1.00  0.00     0.146 A 
ATOM     11  O   UNL     1       5.532  11.680   6.701  1.00  0.00    -0.452 OA
ENDROOT
BRANCH   1  12
ATOM     12  C   UNL     1       4.200  11.587   8.708  1.00  0.00     0.021 A 
ATOM     13  C   UNL     1       4.008  10.311   9.264  1.00  0.00     0.016 A 
ATOM     14  C   UNL     1       2.825  10.006   9.944  1.00  0.00     0.047 A 
ATOM     15  C   UNL     1       1.827  10.976  10.092  1.00  0.00     0.115 A 
ATOM     16  C   UNL     1       3.201  12.563   8.877  1.00  0.00     0.016 A 
ATOM     17  C   UNL     1       2.020  12.255   9.560  1.00  0.00     0.047 A 
BRANCH  15  18
ATOM     18  O   UNL     1       0.644  10.684  10.767  1.00  0.00    -0.508 OA
ATOM     19  H   UNL     1      -0.164  11.292  10.703  1.00  0.00     0.293 HD
ENDBRANCH  15  18
ENDBRANCH   1  12
BRANCH   2  20
ATOM     20  O   UNL     1       6.516  12.703  10.055  1.00  0.00    -0.502 OA
ATOM     21  H   UNL     1       5.643  12.684  10.567  1.00  0.00     0.293 HD
ENDBRANCH   2  20
BRANCH   6  22
ATOM     22  O   UNL     1      10.125  13.124   6.333  1.00  0.00    -0.507 OA
ATOM     23  H   UNL     1      10.817  13.607   5.774  1.00  0.00     0.293 HD
ENDBRANCH   6  22
BRANCH   8  24
ATOM     24  O   UNL     1       7.699  11.616   2.445  1.00  0.00    -0.508 OA
ATOM     25  H   UNL     1       6.917  11.901   1.866  1.00  0.00     0.293 HD
ENDBRANCH   8  24
TORSDOF 5
ENDMDL
MODEL 3
REMARK VINA RESULT:    -4.484      2.138      6.567
REMARK INTER + INTRA:          -4.897
REMARK INTER:                  -4.633
REMARK INTRA:                  -0.263
REMARK UNBOUND:                 0.374
REMARK SMILES O=c1c(O)c(-c2ccc(O)cc2)oc2cc(O)cc(O)c12
REMARK SMILES IDX 5 1 3 2 2 3 1 4 21 5 19 6 18 7 16 8 15 9 14 10 13 11 6 12
REMARK SMILES IDX 7 13 8 14 9 15 12 16 11 17 10 18 4 20 20 22 17 24
REMARK H PARENT 10 19 4 21 20 23 17 25
REMARK Flexibility Score: inf
ROOT
ATOM      1  C   UNL     1       5.165  11.373   7.662  1.00  0.00     0.180 A 
ATOM      2  C   UNL     1       5.319  10.193   8.414  1.00  0.00     0.208 A 
ATOM      3  C   UNL     1       4.305   9.824   9.312  1.00  0.00     0.238 A 
ATOM      4  O   UNL     1       4.437   8.774  10.000  1.00  0.00    -0.285 OA
ATOM      5  C   UNL     1       3.152  10.626   9.429  1.00  0.00     0.111 A 
ATOM      6  C   UNL     1       2.082  10.322  10.306  1.00  0.00     0.134 A 
ATOM      7  C   UNL     1       0.963  11.166  10.357  1.00  0.00     0.093 A 
ATOM      8  C   UNL     1       0.891  12.304   9.550  1.00  0.00     0.123 A 
ATOM      9  C   UNL     1       1.944  12.609   8.681  1.00  0.00     0.094 A 
ATOM     10  C   UNL     1       3.068  11.781   8.617  1.00  0.00     0.146 A 
ATOM     11  O   UNL     1       4.057  12.097   7.787  1.00  0.00    -0.452 OA
ENDROOT
BRANCH   1  12
ATOM     12  C   UNL     1       6.199  11.840   6.709  1.00  0.00     0.021 A 
ATOM     13  C   UNL     1       7.336  12.506   7.196  1.00  0.00     0.016 A 
ATOM     14  C   UNL     1       8.334  12.936   6.316  1.00  0.00     0.047 A 
ATOM     15  C   UNL     1       8.215  12.693   4.942  1.00  0.00     0.115 A 
ATOM     16  C   UNL     1       6.095  11.581   5.330  1.00  0.00     0.016 A 
ATOM     17  C   UNL     1       7.096  12.012   4.453  1.00  0.00     0.047 A 
BRANCH  15  18
ATOM     18  O   UNL     1       9.203  13.117   4.056  1.00  0.00    -0.508 OA
ATOM     19  H   UNL     1       8.983  13.713   3.267  1.00  0.00     0.293 HD
ENDBRANCH  15  18
ENDBRANCH   1  12
BRANCH   2  20
ATOM     20  O   UNL     1       6.450   9.390   8.245  1.00  0.00    -0.502 OA
ATOM     21  H   UNL     1       6.585   8.528   8.759  1.00  0.00     0.293 HD
ENDBRANCH   2  20
BRANCH   6  22
ATOM     22  O   UNL     1       2.123   9.193  11.125  1.00  0.00    -0.507 OA
ATOM     23  H   UNL     1       2.938   8.593  11.165  1.00  0.00     0.293 HD
ENDBRANCH   6  22
BRANCH   8  24
ATOM     24  O   UNL     1      -0.233  13.125   9.619  1.00  0.00    -0.508 OA
ATOM     25  H   UNL     1      -0.315  13.850  10.321  1.00  0.00     0.293 HD
ENDBRANCH   8  24
TORSDOF 5
ENDMDL
MODEL 4
REMARK VINA RESULT:    -3.152      2.557      7.023
REMARK INTER + INTRA:          -3.331
REMARK INTER:                  -3.806
REMARK INTRA:                   0.475
REMARK UNBOUND:                 0.374
REMARK SMILES O=c1c(O)c(-c2ccc(O)cc2)oc2cc(O)cc(O)c12
REMARK SMILES IDX 5 1 3 2 2 3 1 4 21 5 19 6 18 7 16 8 15 9 14 10 13 11 6 12
REMARK SMILES IDX 7 13 8 14 9 15 12 16 11 17 10 18 4 20 20 22 17 24
REMARK H PARENT 10 19 4 21 20 23 17 25
REMARK Flexibility Score: inf
ROOT
ATOM      1  C   UNL     1       6.967  11.877   6.073  1.00  0.00     0.180 A 
ATOM      2  C   UNL     1       7.424  12.074   7.390  1.00  0.00     0.208 A 
ATOM      3  C   UNL     1       6.562  11.781   8.458  1.00  0.00     0.238 A 
ATOM      4  O   UNL     1       6.957  11.964   9.643  1.00  0.00    -0.285 OA
ATOM      5  C   UNL     1       5.271  11.278   8.194  1.00  0.00     0.111 A 
ATOM      6  C   UNL     1       4.344  10.953   9.214  1.00  0.00     0.134 A 
ATOM      7  C   UNL     1       3.081  10.448   8.870  1.00  0.00     0.093 A 
ATOM      8  C   UNL     1       2.729  10.262   7.531  1.00  0.00     0.123 A 
ATOM      9  C   UNL     1       3.641  10.582   6.520  1.00  0.00     0.094 A 
ATOM     10  C   UNL     1       4.903  11.087   6.843  1.00  0.00     0.146 A 
ATOM     11  O   UNL     1       5.749  11.387   5.862  1.00  0.00    -0.452 OA
ENDROOT
BRANCH   1  12
ATOM     12  C   UNL     1       7.809  12.182   4.894  1.00  0.00     0.021 A 
ATOM     13  C   UNL     1       7.334  11.874   3.608  1.00  0.00     0.016 A 
ATOM     14  C   UNL     1       8.103  12.173   2.479  1.00  0.00     0.047 A 
ATOM     15  C   UNL     1       9.349  12.797   2.620  1.00  0.00     0.115 A 
ATOM     16  C   UNL     1       9.053  12.826   5.028  1.00  0.00     0.016 A 
ATOM     17  C   UNL     1       9.819  13.125   3.896  1.00  0.00     0.047 A 
BRANCH  15  18
ATOM     18  O   UNL     1      10.125  13.099   1.504  1.00  0.00    -0.508 OA
ATOM     19  H   UNL     1       9.779  13.705   0.769  1.00  0.00     0.293 HD
ENDBRANCH  15  18
ENDBRANCH   1  12
BRANCH   2  20
ATOM     20  O   UNL     1       8.725  12.527   7.626  1.00  0.00    -0.502 OA
ATOM     21  H   UNL     1       8.927  13.294   8.256  1.00  0.00     0.293 HD
ENDBRANCH   2  20
BRANCH   6  22
ATOM     22  O   UNL     1       4.666  11.127  10.561  1.00  0.00    -0.507 OA
ATOM     23  H   UNL     1       5.475  11.661  10.850  1.00  0.00     0.293 HD
ENDBRANCH   6  22
BRANCH   8  24
ATOM     24  O   UNL     1       1.468   9.759   7.217  1.00  0.00    -0.508 OA
ATOM     25  H   UNL     1       0.687  10.373   7.021  1.00  0.00     0.293 HD
ENDBRANCH   8  24
TORSDOF 5
ENDMDL
