MODEL 1
REMARK VINA RESULT:    -6.835      0.000      0.000
REMARK INTER + INTRA:          -8.464
REMARK INTER:                  -8.234
REMARK INTRA:                  -0.230
REMARK UNBOUND:                -0.230
REMARK SMILES O=c1c(O)c(-c2ccc(O)c(O)c2)oc2cc(O)cc(O)c12
REMARK SMILES IDX 5 1 3 2 2 3 1 4 22 5 20 6 19 7 17 8 16 9 15 10 14 11 6 12
REMARK SMILES IDX 7 13 8 14 9 15 13 16 11 17 10 18 12 20 4 22 21 24 18 26
REMARK H PARENT 10 19 12 21 4 23 21 25 18 27
REMARK Flexibility Score: inf
ROOT
ATOM      1  C   UNL     1      -1.822   4.652  -1.576  1.00  0.00     0.180 A 
ATOM      2  C   UNL     1      -2.418   5.666  -0.806  1.00  0.00     0.208 A 
ATOM      3  C   UNL     1      -1.633   6.366   0.124  1.00  0.00     0.238 A 
ATOM      4  O   UNL     1      -2.185   7.235   0.848  1.00  0.00    -0.285 OA
ATOM      5  C   UNL     1      -0.258   6.056   0.262  1.00  0.00     0.111 A 
ATOM      6  C   UNL     1       0.640   6.727   1.144  1.00  0.00     0.134 A 
ATOM      7  C   UNL     1       1.948   6.250   1.293  1.00  0.00     0.093 A 
ATOM      8  C   UNL     1       2.408   5.165   0.544  1.00  0.00     0.123 A 
ATOM      9  C   UNL     1       1.556   4.540  -0.364  1.00  0.00     0.094 A 
ATOM     10  C   UNL     1       0.235   4.970  -0.508  1.00  0.00     0.146 A 
ATOM     11  O   UNL     1      -0.547   4.340  -1.377  1.00  0.00    -0.452 OA
ENDROOT
BRANCH   1  12
ATOM     12  C   UNL     1      -2.578   3.887  -2.593  1.00  0.00     0.025 A 
ATOM     13  C   UNL     1      -2.956   2.552  -2.371  1.00  0.00     0.016 A 
ATOM     14  C   UNL     1      -3.692   1.856  -3.336  1.00  0.00     0.051 A 
ATOM     15  C   UNL     1      -4.071   2.485  -4.526  1.00  0.00     0.157 A 
ATOM     16  C   UNL     1      -2.978   4.522  -3.780  1.00  0.00     0.062 A 
ATOM     17  C   UNL     1      -3.716   3.826  -4.749  1.00  0.00     0.158 A 
BRANCH  15  18
ATOM     18  O   UNL     1      -4.801   1.766  -5.470  1.00  0.00    -0.504 OA
ATOM     19  H   UNL     1      -5.403   2.220  -6.146  1.00  0.00     0.293 HD
ENDBRANCH  15  18
BRANCH  17  20
ATOM     20  O   UNL     1      -4.097   4.462  -5.930  1.00  0.00    -0.504 OA
ATOM     21  H   UNL     1      -3.743   4.163  -6.832  1.00  0.00     0.293 HD
ENDBRANCH  17  20
ENDBRANCH   1  12
BRANCH   2  22
ATOM     22  O   UNL     1      -3.781   5.942  -0.943  1.00  0.00    -0.502 OA
ATOM     23  H   UNL     1      -4.467   5.220  -1.131  1.00  0.00     0.293 HD
ENDBRANCH   2  22
BRANCH   6  24
ATOM     24  O   UNL     1       0.308   7.876   1.870  1.00  0.00    -0.507 OA
ATOM     25  H   UNL     1      -0.507   8.446   1.703  1.00  0.00     0.293 HD
ENDBRANCH   6  24
BRANCH   8  26
ATOM     26  O   UNL     1       3.715   4.705   0.687  1.00  0.00    -0.508 OA
ATOM     27  H   UNL     1       4.470   5.069   0.116  1.00  0.00     0.293 HD
ENDBRANCH   8  26
TORSDOF 6
ENDMDL
MODEL 2
REMARK VINA RESULT:    -6.781      2.853      7.150
REMARK INTER + INTRA:          -8.399
REMARK INTER:                  -8.149
REMARK INTRA:                  -0.250
REMARK UNBOUND:                -0.230
REMARK SMILES O=c1c(O)c(-c2ccc(O)c(O)c2)oc2cc(O)cc(O)c12
REMARK SMILES IDX 5 1 3 2 2 3 1 4 22 5 20 6 19 7 17 8 16 9 15 10 14 11 6 12
REMARK SMILES IDX 7 13 8 14 9 15 13 16 11 17 10 18 12 20 4 22 21 24 18 26
REMARK H PARENT 10 19 12 21 4 23 21 25 18 27
REMARK Flexibility Score: inf
ROOT
ATOM      1  C   UNL     1       1.028   4.271  -2.814  1.00  0.00     0.180 A 
ATOM      2  C   UNL     1       1.760   4.973  -3.787  1.00  0.00     0.208 A 
ATOM      3  C   UNL     1       1.071   5.591  -4.843  1.00  0.00     0.238 A 
ATOM      4  O   UNL     1       1.735   6.171  -5.741  1.00  0.00    -0.285 OA
ATOM      5  C   UNL     1      -0.342   5.514  -4.903  1.00  0.00     0.111 A 
ATOM      6  C   UNL     1      -1.145   6.136  -5.905  1.00  0.00     0.134 A 
ATOM      7  C   UNL     1      -2.523   5.885  -5.941  1.00  0.00     0.093 A 
ATOM      8  C   UNL     1      -3.133   5.086  -4.972  1.00  0.00     0.123 A 
ATOM      9  C   UNL     1      -2.366   4.522  -3.955  1.00  0.00     0.094 A 
ATOM     10  C   UNL     1      -0.985   4.725  -3.914  1.00  0.00     0.146 A 
ATOM     11  O   UNL     1      -0.289   4.161  -2.934  1.00  0.00    -0.452 OA
ENDROOT
BRANCH   1  12
ATOM     12  C   UNL     1       1.682   3.614  -1.659  1.00  0.00     0.025 A 
ATOM     13  C   UNL     1       1.844   2.218  -1.608  1.00  0.00     0.016 A 
ATOM     14  C   UNL     1       2.487   1.621  -0.519  1.00  0.00     0.051 A 
ATOM     15  C   UNL     1       2.987   2.406   0.525  1.00  0.00     0.157 A 
ATOM     16  C   UNL     1       2.203   4.400  -0.619  1.00  0.00     0.062 A 
ATOM     17  C   UNL     1       2.848   3.803   0.474  1.00  0.00     0.158 A 
BRANCH  15  18
ATOM     18  O   UNL     1       3.620   1.782   1.598  1.00  0.00    -0.504 OA
ATOM     19  H   UNL     1       4.429   1.185   1.474  1.00  0.00     0.293 HD
ENDBRANCH  15  18
BRANCH  17  20
ATOM     20  O   UNL     1       3.351   4.592   1.508  1.00  0.00    -0.504 OA
ATOM     21  H   UNL     1       3.217   5.597   1.522  1.00  0.00     0.293 HD
ENDBRANCH  17  20
ENDBRANCH   1  12
BRANCH   2  22
ATOM     22  O   UNL     1       3.155   5.018  -3.721  1.00  0.00    -0.502 OA
ATOM     23  H   UNL     1       3.706   4.264  -3.329  1.00  0.00     0.293 HD
ENDBRANCH   2  22
BRANCH   6  24
ATOM     24  O   UNL     1      -0.648   7.025  -6.863  1.00  0.00    -0.507 OA
ATOM     25  H   UNL     1       0.188   6.876  -7.407  1.00  0.00     0.293 HD
ENDBRANCH   6  24
BRANCH   8  26
ATOM     26  O   UNL     1      -4.506   4.852  -5.005  1.00  0.00    -0.508 OA
ATOM     27  H   UNL     1      -4.991   4.428  -4.222  1.00  0.00     0.293 HD
ENDBRANCH   8  26
TORSDOF 6
ENDMDL
MODEL 3
REMARK VINA RESULT:    -6.778      2.063      6.956
REMARK INTER + INTRA:          -8.395
REMARK INTER:                  -8.205
REMARK INTRA:                  -0.190
REMARK UNBOUND:                -0.230
REMARK SMILES O=c1c(O)c(-c2ccc(O)c(O)c2)oc2cc(O)cc(O)c12
REMARK SMILES IDX 5 1 3 2 2 3 1 4 22 5 20 6 19 7 17 8 16 9 15 10 14 11 6 12
REMARK SMILES IDX 7 13 8 14 9 15 13 16 11 17 10 18 12 20 4 22 21 24 18 26
REMARK H PARENT 10 19 12 21 4 23 21 25 18 27
REMARK Flexibility Score: inf
ROOT
ATOM      1  C   UNL     1      -2.459   6.492  -1.741  1.00  0.00     0.180 A 
ATOM      2  C   UNL     1      -2.713   7.073  -2.996  1.00  0.00     0.208 A 
ATOM      3  C   UNL     1      -3.098   6.246  -4.064  1.00  0.00     0.238 A 
ATOM      4  O   UNL     1      -3.271   6.764  -5.198  1.00  0.00    -0.285 OA
ATOM      5  C   UNL     1      -3.241   4.852  -3.860  1.00  0.00     0.111 A 
ATOM      6  C   UNL     1      -3.664   3.925  -4.859  1.00  0.00     0.134 A 
ATOM      7  C   UNL     1      -3.644   2.552  -4.582  1.00  0.00     0.093 A 
ATOM      8  C   UNL     1      -3.278   2.079  -3.320  1.00  0.00     0.123 A 
ATOM      9  C   UNL     1      -2.920   2.979  -2.320  1.00  0.00     0.094 A 
ATOM     10  C   UNL     1      -2.895   4.351  -2.577  1.00  0.00     0.146 A 
ATOM     11  O   UNL     1      -2.538   5.175  -1.599  1.00  0.00    -0.452 OA
ENDROOT
BRANCH   1  12
ATOM     12  C   UNL     1      -2.073   7.301  -0.563  1.00  0.00     0.025 A 
ATOM     13  C   UNL     1      -2.950   8.248  -0.007  1.00  0.00     0.016 A 
ATOM     14  C   UNL     1      -2.574   8.983   1.121  1.00  0.00     0.051 A 
ATOM     15  C   UNL     1      -1.326   8.775   1.717  1.00  0.00     0.157 A 
ATOM     16  C   UNL     1      -0.829   7.080   0.050  1.00  0.00     0.062 A 
ATOM     17  C   UNL     1      -0.449   7.817   1.182  1.00  0.00     0.158 A 
BRANCH  15  18
ATOM     18  O   UNL     1      -0.978   9.525   2.839  1.00  0.00    -0.504 OA
ATOM     19  H   UNL     1      -0.018   9.779   3.041  1.00  0.00     0.293 HD
ENDBRANCH  15  18
BRANCH  17  20
ATOM     20  O   UNL     1       0.793   7.599   1.775  1.00  0.00    -0.504 OA
ATOM     21  H   UNL     1       0.876   7.321   2.746  1.00  0.00     0.293 HD
ENDBRANCH  17  20
ENDBRANCH   1  12
BRANCH   2  22
ATOM     22  O   UNL     1      -2.545   8.448  -3.182  1.00  0.00    -0.502 OA
ATOM     23  H   UNL     1      -3.307   9.057  -3.456  1.00  0.00     0.293 HD
ENDBRANCH   2  22
BRANCH   6  24
ATOM     24  O   UNL     1      -4.137   4.301  -6.120  1.00  0.00    -0.507 OA
ATOM     25  H   UNL     1      -4.347   3.660  -6.870  1.00  0.00     0.293 HD
ENDBRANCH   6  24
BRANCH   8  26
ATOM     26  O   UNL     1      -3.274   0.712  -3.048  1.00  0.00    -0.508 OA
ATOM     27  H   UNL     1      -3.662   0.040  -3.701  1.00  0.00     0.293 HD
ENDBRANCH   8  26
TORSDOF 6
ENDMDL
MODEL 4
REMARK VINA RESULT:    -6.765      3.224      5.028
REMARK INTER + INTRA:          -8.380
REMARK INTER:                  -8.204
REMARK INTRA:                  -0.176
REMARK UNBOUND:                -0.230
REMARK SMILES O=c1c(O)c(-c2ccc(O)c(O)c2)oc2cc(O)cc(O)c12
REMARK SMILES IDX 5 1 3 2 2 3 1 4 22 5 20 6 19 7 17 8 16 9 15 10 14 11 6 12
REMARK SMILES IDX 7 13 8 14 9 15 13 16 11 17 10 18 12 20 4 22 21 24 18 26
REMARK H PARENT 10 19 12 21 4 23 21 25 18 27
REMARK Flexibility Score: inf
ROOT
ATOM      1  C   UNL     1      -1.312   6.216  -1.193  1.00  0.00     0.180 A 
ATOM      2  C   UNL     1      -0.264   7.131  -0.989  1.00  0.00     0.208 A 
ATOM      3  C   UNL     1       0.962   6.918  -1.639  1.00  0.00     0.238 A 
ATOM      4  O   UNL     1       1.913   7.709  -1.410  1.00  0.00    -0.285 OA
ATOM      5  C   UNL     1       1.120   5.803  -2.498  1.00  0.00     0.111 A 
ATOM      6  C   UNL     1       2.305   5.512  -3.238  1.00  0.00     0.134 A 
ATOM      7  C   UNL     1       2.395   4.312  -3.955  1.00  0.00     0.093 A 
ATOM      8  C   UNL     1       1.318   3.424  -4.009  1.00  0.00     0.123 A 
ATOM      9  C   UNL     1       0.136   3.727  -3.337  1.00  0.00     0.094 A 
ATOM     10  C   UNL     1       0.030   4.899  -2.585  1.00  0.00     0.146 A 
ATOM     11  O   UNL     1      -1.111   5.146  -1.952  1.00  0.00    -0.452 OA
ENDROOT
BRANCH   1  12
ATOM     12  C   UNL     1      -2.640   6.386  -0.561  1.00  0.00     0.025 A 
ATOM     13  C   UNL     1      -3.454   7.493  -0.859  1.00  0.00     0.016 A 
ATOM     14  C   UNL     1      -4.716   7.620  -0.270  1.00  0.00     0.051 A 
ATOM     15  C   UNL     1      -5.188   6.642   0.611  1.00  0.00     0.157 A 
ATOM     16  C   UNL     1      -3.126   5.396   0.307  1.00  0.00     0.062 A 
ATOM     17  C   UNL     1      -4.391   5.522   0.899  1.00  0.00     0.158 A 
BRANCH  15  18
ATOM     18  O   UNL     1      -6.448   6.798   1.185  1.00  0.00    -0.504 OA
ATOM     19  H   UNL     1      -7.275   6.977   0.628  1.00  0.00     0.293 HD
ENDBRANCH  15  18
BRANCH  17  20
ATOM     20  O   UNL     1      -4.858   4.539   1.770  1.00  0.00    -0.504 OA
ATOM     21  H   UNL     1      -4.873   4.682   2.774  1.00  0.00     0.293 HD
ENDBRANCH  17  20
ENDBRANCH   1  12
BRANCH   2  22
ATOM     22  O   UNL     1      -0.435   8.212  -0.120  1.00  0.00    -0.502 OA
ATOM     23  H   UNL     1      -1.044   8.992  -0.335  1.00  0.00     0.293 HD
ENDBRANCH   2  22
BRANCH   6  24
ATOM     24  O   UNL     1       3.402   6.375  -3.326  1.00  0.00    -0.507 OA
ATOM     25  H   UNL     1       3.652   7.060  -2.629  1.00  0.00     0.293 HD
ENDBRANCH   6  24
BRANCH   8  26
ATOM     26  O   UNL     1       1.410   2.239  -4.735  1.00  0.00    -0.508 OA
ATOM     27  H   UNL     1       1.719   1.375  -4.304  1.00  0.00     0.293 HD
ENDBRANCH   8  26
TORSDOF 6
ENDMDL
MODEL 5
REMARK VINA RESULT:    -6.730      3.817      5.964
REMARK INTER + INTRA:          -8.338
REMARK INTER:                  -8.151
REMARK INTRA:                  -0.187
REMARK UNBOUND:                -0.230
REMARK SMILES O=c1c(O)c(-c2ccc(O)c(O)c2)oc2cc(O)cc(O)c12
REMARK SMILES IDX 5 1 3 2 2 3 1 4 22 5 20 6 19 7 17 8 16 9 15 10 14 11 6 12
REMARK SMILES IDX 7 13 8 14 9 15 13 16 11 17 10 18 12 20 4 22 21 24 18 26
REMARK H PARENT 10 19 12 21 4 23 21 25 18 27
REMARK Flexibility Score: inf
ROOT
ATOM      1  C   UNL     1       0.773   5.922  -3.314  1.00  0.00     0.180 A 
ATOM      2  C   UNL     1      -0.080   6.995  -3.626  1.00  0.00     0.208 A 
ATOM      3  C   UNL     1      -1.315   7.098  -2.966  1.00  0.00     0.238 A 
ATOM      4  O   UNL     1      -2.098   8.029  -3.289  1.00  0.00    -0.285 OA
ATOM      5  C   UNL     1      -1.675   6.136  -1.991  1.00  0.00     0.111 A 
ATOM      6  C   UNL     1      -2.884   6.165  -1.232  1.00  0.00     0.134 A 
ATOM      7  C   UNL     1      -3.195   5.091  -0.388  1.00  0.00     0.093 A 
ATOM      8  C   UNL     1      -2.310   4.022  -0.227  1.00  0.00     0.123 A 
ATOM      9  C   UNL     1      -1.101   4.014  -0.919  1.00  0.00     0.094 A 
ATOM     10  C   UNL     1      -0.779   5.053  -1.795  1.00  0.00     0.146 A 
ATOM     11  O   UNL     1       0.379   5.002  -2.443  1.00  0.00    -0.452 OA
ENDROOT
BRANCH   1  12
ATOM     12  C   UNL     1       2.101   5.761  -3.949  1.00  0.00     0.025 A 
ATOM     13  C   UNL     1       3.124   6.704  -3.753  1.00  0.00     0.016 A 
ATOM     14  C   UNL     1       4.378   6.518  -4.343  1.00  0.00     0.051 A 
ATOM     15  C   UNL     1       4.633   5.385  -5.124  1.00  0.00     0.157 A 
ATOM     16  C   UNL     1       2.365   4.615  -4.716  1.00  0.00     0.062 A 
ATOM     17  C   UNL     1       3.623   4.427  -5.309  1.00  0.00     0.158 A 
BRANCH  15  18
ATOM     18  O   UNL     1       5.891   5.229  -5.701  1.00  0.00    -0.504 OA
ATOM     19  H   UNL     1       6.313   4.318  -5.836  1.00  0.00     0.293 HD
ENDBRANCH  15  18
BRANCH  17  20
ATOM     20  O   UNL     1       3.871   3.292  -6.079  1.00  0.00    -0.504 OA
ATOM     21  H   UNL     1       4.808   3.051  -6.384  1.00  0.00     0.293 HD
ENDBRANCH  17  20
ENDBRANCH   1  12
BRANCH   2  22
ATOM     22  O   UNL     1       0.285   7.921  -4.608  1.00  0.00    -0.502 OA
ATOM     23  H   UNL     1       0.922   7.692  -5.361  1.00  0.00     0.293 HD
ENDBRANCH   2  22
BRANCH   6  24
ATOM     24  O   UNL     1      -3.791   7.228  -1.250  1.00  0.00    -0.507 OA
ATOM     25  H   UNL     1      -3.697   8.073  -0.706  1.00  0.00     0.293 HD
ENDBRANCH   6  24
BRANCH   8  26
ATOM     26  O   UNL     1      -2.620   2.965   0.625  1.00  0.00    -0.508 OA
ATOM     27  H   UNL     1      -3.326   3.056   1.347  1.00  0.00     0.293 HD
ENDBRANCH   8  26
TORSDOF 6
ENDMDL
MODEL 6
REMARK VINA RESULT:    -6.679      4.782      6.472
REMARK INTER + INTRA:          -8.276
REMARK INTER:                  -7.987
REMARK INTRA:                  -0.289
REMARK UNBOUND:                -0.230
REMARK SMILES O=c1c(O)c(-c2ccc(O)c(O)c2)oc2cc(O)cc(O)c12
REMARK SMILES IDX 5 1 3 2 2 3 1 4 22 5 20 6 19 7 17 8 16 9 15 10 14 11 6 12
REMARK SMILES IDX 7 13 8 14 9 15 13 16 11 17 10 18 12 20 4 22 21 24 18 26
REMARK H PARENT 10 19 12 21 4 23 21 25 18 27
REMARK Flexibility Score: inf
ROOT
ATOM      1  C   UNL     1       1.750   6.054  -3.957  1.00  0.00     0.180 A 
ATOM      2  C   UNL     1       2.121   4.715  -4.172  1.00  0.00     0.208 A 
ATOM      3  C   UNL     1       1.928   3.781  -3.142  1.00  0.00     0.238 A 
ATOM      4  O   UNL     1       2.312   2.596  -3.320  1.00  0.00    -0.285 OA
ATOM      5  C   UNL     1       1.350   4.192  -1.916  1.00  0.00     0.111 A 
ATOM      6  C   UNL     1       1.071   3.323  -0.819  1.00  0.00     0.134 A 
ATOM      7  C   UNL     1       0.619   3.863   0.392  1.00  0.00     0.093 A 
ATOM      8  C   UNL     1       0.375   5.231   0.524  1.00  0.00     0.123 A 
ATOM      9  C   UNL     1       0.588   6.080  -0.560  1.00  0.00     0.094 A 
ATOM     10  C   UNL     1       1.073   5.577  -1.769  1.00  0.00     0.146 A 
ATOM     11  O   UNL     1       1.272   6.421  -2.775  1.00  0.00    -0.452 OA
ENDROOT
BRANCH   1  12
ATOM     12  C   UNL     1       1.901   7.091  -5.003  1.00  0.00     0.025 A 
ATOM     13  C   UNL     1       1.008   7.171  -6.086  1.00  0.00     0.016 A 
ATOM     14  C   UNL     1       1.155   8.175  -7.049  1.00  0.00     0.051 A 
ATOM     15  C   UNL     1       2.182   9.117  -6.939  1.00  0.00     0.157 A 
ATOM     16  C   UNL     1       2.918   8.050  -4.884  1.00  0.00     0.062 A 
ATOM     17  C   UNL     1       3.067   9.057  -5.850  1.00  0.00     0.158 A 
BRANCH  15  18
ATOM     18  O   UNL     1       2.305  10.103  -7.916  1.00  0.00    -0.504 OA
ATOM     19  H   UNL     1       1.853  11.005  -7.830  1.00  0.00     0.293 HD
ENDBRANCH  15  18
BRANCH  17  20
ATOM     20  O   UNL     1       4.089   9.998  -5.729  1.00  0.00    -0.504 OA
ATOM     21  H   UNL     1       5.024   9.732  -5.440  1.00  0.00     0.293 HD
ENDBRANCH  17  20
ENDBRANCH   1  12
BRANCH   2  22
ATOM     22  O   UNL     1       2.710   4.334  -5.381  1.00  0.00    -0.502 OA
ATOM     23  H   UNL     1       3.025   5.008  -6.069  1.00  0.00     0.293 HD
ENDBRANCH   2  22
BRANCH   6  24
ATOM     24  O   UNL     1       1.193   1.932  -0.876  1.00  0.00    -0.507 OA
ATOM     25  H   UNL     1       0.488   1.306  -1.234  1.00  0.00     0.293 HD
ENDBRANCH   6  24
BRANCH   8  26
ATOM     26  O   UNL     1      -0.088   5.758   1.727  1.00  0.00    -0.508 OA
ATOM     27  H   UNL     1       0.485   6.377   2.290  1.00  0.00     0.293 HD
ENDBRANCH   8  26
TORSDOF 6
ENDMDL
MODEL 7
REMARK VINA RESULT:    -6.676      1.267      3.073
REMARK INTER + INTRA:          -8.272
REMARK INTER:                  -8.011
REMARK INTRA:                  -0.261
REMARK UNBOUND:                -0.230
REMARK SMILES O=c1c(O)c(-c2ccc(O)c(O)c2)oc2cc(O)cc(O)c12
REMARK SMILES IDX 5 1 3 2 2 3 1 4 22 5 20 6 19 7 17 8 16 9 15 10 14 11 6 12
REMARK SMILES IDX 7 13 8 14 9 15 13 16 11 17 10 18 12 20 4 22 21 24 18 26
REMARK H PARENT 10 19 12 21 4 23 21 25 18 27
REMARK Flexibility Score: inf
ROOT
ATOM      1  C   UNL     1      -1.847   4.870  -1.708  1.00  0.00     0.180 A 
ATOM      2  C   UNL     1      -0.490   4.631  -1.428  1.00  0.00     0.208 A 
ATOM      3  C   UNL     1       0.164   5.444  -0.487  1.00  0.00     0.238 A 
ATOM      4  O   UNL     1       1.392   5.260  -0.281  1.00  0.00    -0.285 OA
ATOM      5  C   UNL     1      -0.549   6.473   0.173  1.00  0.00     0.111 A 
ATOM      6  C   UNL     1       0.003   7.330   1.171  1.00  0.00     0.134 A 
ATOM      7  C   UNL     1      -0.758   8.399   1.662  1.00  0.00     0.093 A 
ATOM      8  C   UNL     1      -2.073   8.601   1.237  1.00  0.00     0.123 A 
ATOM      9  C   UNL     1      -2.640   7.735   0.306  1.00  0.00     0.094 A 
ATOM     10  C   UNL     1      -1.895   6.682  -0.229  1.00  0.00     0.146 A 
ATOM     11  O   UNL     1      -2.470   5.885  -1.121  1.00  0.00    -0.452 OA
ENDROOT
BRANCH   1  12
ATOM     12  C   UNL     1      -2.611   4.042  -2.668  1.00  0.00     0.025 A 
ATOM     13  C   UNL     1      -2.996   2.727  -2.354  1.00  0.00     0.016 A 
ATOM     14  C   UNL     1      -3.739   1.971  -3.266  1.00  0.00     0.051 A 
ATOM     15  C   UNL     1      -4.118   2.519  -4.496  1.00  0.00     0.157 A 
ATOM     16  C   UNL     1      -3.011   4.595  -3.895  1.00  0.00     0.062 A 
ATOM     17  C   UNL     1      -3.756   3.838  -4.812  1.00  0.00     0.158 A 
BRANCH  15  18
ATOM     18  O   UNL     1      -4.856   1.740  -5.386  1.00  0.00    -0.504 OA
ATOM     19  H   UNL     1      -4.416   1.088  -6.024  1.00  0.00     0.293 HD
ENDBRANCH  15  18
BRANCH  17  20
ATOM     20  O   UNL     1      -4.136   4.394  -6.032  1.00  0.00    -0.504 OA
ATOM     21  H   UNL     1      -5.095   4.350  -6.360  1.00  0.00     0.293 HD
ENDBRANCH  17  20
ENDBRANCH   1  12
BRANCH   2  22
ATOM     22  O   UNL     1       0.201   3.624  -2.106  1.00  0.00    -0.502 OA
ATOM     23  H   UNL     1       1.212   3.560  -2.104  1.00  0.00     0.293 HD
ENDBRANCH   2  22
BRANCH   6  24
ATOM     24  O   UNL     1       1.273   7.159   1.731  1.00  0.00    -0.507 OA
ATOM     25  H   UNL     1       1.509   6.458   2.417  1.00  0.00     0.293 HD
ENDBRANCH   6  24
BRANCH   8  26
ATOM     26  O   UNL     1      -2.828   9.658   1.741  1.00  0.00    -0.508 OA
ATOM     27  H   UNL     1      -3.609  10.046   1.223  1.00  0.00     0.293 HD
ENDBRANCH   8  26
TORSDOF 6
ENDMDL
MODEL 8
REMARK VINA RESULT:    -6.654      3.729      5.374
REMARK INTER + INTRA:          -8.246
REMARK INTER:                  -7.960
REMARK INTRA:                  -0.286
REMARK UNBOUND:                -0.230
REMARK SMILES O=c1c(O)c(-c2ccc(O)c(O)c2)oc2cc(O)cc(O)c12
REMARK SMILES IDX 5 1 3 2 2 3 1 4 22 5 20 6 19 7 17 8 16 9 15 10 14 11 6 12
REMARK SMILES IDX 7 13 8 14 9 15 13 16 11 17 10 18 12 20 4 22 21 24 18 26
REMARK H PARENT 10 19 12 21 4 23 21 25 18 27
REMARK Flexibility Score: inf
ROOT
ATOM      1  C   UNL     1       0.859   5.134  -3.333  1.00  0.00     0.180 A 
ATOM      2  C   UNL     1      -0.320   5.471  -4.021  1.00  0.00     0.208 A 
ATOM      3  C   UNL     1      -1.242   6.336  -3.410  1.00  0.00     0.238 A 
ATOM      4  O   UNL     1      -2.320   6.591  -4.008  1.00  0.00    -0.285 OA
ATOM      5  C   UNL     1      -0.967   6.867  -2.126  1.00  0.00     0.111 A 
ATOM      6  C   UNL     1      -1.811   7.783  -1.430  1.00  0.00     0.134 A 
ATOM      7  C   UNL     1      -1.503   8.140  -0.111  1.00  0.00     0.093 A 
ATOM      8  C   UNL     1      -0.348   7.664   0.512  1.00  0.00     0.123 A 
ATOM      9  C   UNL     1       0.513   6.815  -0.180  1.00  0.00     0.094 A 
ATOM     10  C   UNL     1       0.215   6.413  -1.483  1.00  0.00     0.146 A 
ATOM     11  O   UNL     1       1.057   5.595  -2.104  1.00  0.00    -0.452 OA
ENDROOT
BRANCH   1  12
ATOM     12  C   UNL     1       1.889   4.247  -3.921  1.00  0.00     0.025 A 
ATOM     13  C   UNL     1       1.729   2.851  -3.936  1.00  0.00     0.016 A 
ATOM     14  C   UNL     1       2.702   2.035  -4.520  1.00  0.00     0.051 A 
ATOM     15  C   UNL     1       3.839   2.599  -5.107  1.00  0.00     0.157 A 
ATOM     16  C   UNL     1       3.021   4.811  -4.530  1.00  0.00     0.062 A 
ATOM     17  C   UNL     1       4.000   3.994  -5.115  1.00  0.00     0.158 A 
BRANCH  15  18
ATOM     18  O   UNL     1       4.794   1.759  -5.678  1.00  0.00    -0.504 OA
ATOM     19  H   UNL     1       5.066   0.883  -5.249  1.00  0.00     0.293 HD
ENDBRANCH  15  18
BRANCH  17  20
ATOM     20  O   UNL     1       5.127   4.564  -5.705  1.00  0.00    -0.504 OA
ATOM     21  H   UNL     1       5.807   5.081  -5.161  1.00  0.00     0.293 HD
ENDBRANCH  17  20
ENDBRANCH   1  12
BRANCH   2  22
ATOM     22  O   UNL     1      -0.582   4.919  -5.278  1.00  0.00    -0.502 OA
ATOM     23  H   UNL     1      -0.897   5.477  -6.063  1.00  0.00     0.293 HD
ENDBRANCH   2  22
BRANCH   6  24
ATOM     24  O   UNL     1      -2.938   8.388  -1.994  1.00  0.00    -0.507 OA
ATOM     25  H   UNL     1      -2.922   9.232  -2.547  1.00  0.00     0.293 HD
ENDBRANCH   6  24
BRANCH   8  26
ATOM     26  O   UNL     1      -0.041   8.035   1.820  1.00  0.00    -0.508 OA
ATOM     27  H   UNL     1      -0.237   8.968   2.166  1.00  0.00     0.293 HD
ENDBRANCH   8  26
TORSDOF 6
ENDMDL
MODEL 9
REMARK VINA RESULT:    -6.593      1.693      6.951
REMARK INTER + INTRA:          -8.173
REMARK INTER:                  -7.924
REMARK INTRA:                  -0.249
REMARK UNBOUND:                -0.230
REMARK SMILES O=c1c(O)c(-c2ccc(O)c(O)c2)oc2cc(O)cc(O)c12
REMARK SMILES IDX 5 1 3 2 2 3 1 4 22 5 20 6 19 7 17 8 16 9 15 10 14 11 6 12
REMARK SMILES IDX 7 13 8 14 9 15 13 16 11 17 10 18 12 20 4 22 21 24 18 26
REMARK H PARENT 10 19 12 21 4 23 21 25 18 27
REMARK Flexibility Score: inf
ROOT
ATOM      1  C   UNL     1      -0.698   4.162  -1.698  1.00  0.00     0.180 A 
ATOM      2  C   UNL     1      -1.605   3.102  -1.522  1.00  0.00     0.208 A 
ATOM      3  C   UNL     1      -2.637   2.926  -2.459  1.00  0.00     0.238 A 
ATOM      4  O   UNL     1      -3.477   2.010  -2.267  1.00  0.00    -0.285 OA
ATOM      5  C   UNL     1      -2.738   3.801  -3.568  1.00  0.00     0.111 A 
ATOM      6  C   UNL     1      -3.719   3.692  -4.599  1.00  0.00     0.134 A 
ATOM      7  C   UNL     1      -3.806   4.690  -5.578  1.00  0.00     0.093 A 
ATOM      8  C   UNL     1      -2.907   5.758  -5.599  1.00  0.00     0.123 A 
ATOM      9  C   UNL     1      -1.909   5.842  -4.631  1.00  0.00     0.094 A 
ATOM     10  C   UNL     1      -1.819   4.882  -3.621  1.00  0.00     0.146 A 
ATOM     11  O   UNL     1      -0.859   5.004  -2.711  1.00  0.00    -0.452 OA
ENDROOT
BRANCH   1  12
ATOM     12  C   UNL     1       0.429   4.397  -0.766  1.00  0.00     0.025 A 
ATOM     13  C   UNL     1       1.535   3.531  -0.725  1.00  0.00     0.016 A 
ATOM     14  C   UNL     1       2.600   3.786   0.145  1.00  0.00     0.051 A 
ATOM     15  C   UNL     1       2.582   4.912   0.974  1.00  0.00     0.157 A 
ATOM     16  C   UNL     1       0.423   5.537   0.052  1.00  0.00     0.062 A 
ATOM     17  C   UNL     1       1.490   5.795   0.926  1.00  0.00     0.158 A 
BRANCH  15  18
ATOM     18  O   UNL     1       3.656   5.138   1.833  1.00  0.00    -0.504 OA
ATOM     19  H   UNL     1       4.616   5.126   1.510  1.00  0.00     0.293 HD
ENDBRANCH  15  18
BRANCH  17  20
ATOM     20  O   UNL     1       1.469   6.923   1.744  1.00  0.00    -0.504 OA
ATOM     21  H   UNL     1       1.126   6.882   2.697  1.00  0.00     0.293 HD
ENDBRANCH  17  20
ENDBRANCH   1  12
BRANCH   2  22
ATOM     22  O   UNL     1      -1.500   2.264  -0.409  1.00  0.00    -0.502 OA
ATOM     23  H   UNL     1      -1.007   1.379  -0.439  1.00  0.00     0.293 HD
ENDBRANCH   2  22
BRANCH   6  24
ATOM     24  O   UNL     1      -4.604   2.617  -4.723  1.00  0.00    -0.507 OA
ATOM     25  H   UNL     1      -5.081   2.359  -5.573  1.00  0.00     0.293 HD
ENDBRANCH   6  24
BRANCH   8  26
ATOM     26  O   UNL     1      -2.991   6.739  -6.584  1.00  0.00    -0.508 OA
ATOM     27  H   UNL     1      -3.238   6.510  -7.541  1.00  0.00     0.293 HD
ENDBRANCH   8  26
TORSDOF 6
ENDMDL
