MODEL 1
REMARK VINA RESULT:    -3.073      0.000      0.000
REMARK INTER + INTRA:          -7.342
REMARK INTER:                  -5.228
REMARK INTRA:                  -2.114
REMARK UNBOUND:                -2.114
REMARK SMILES CCCCCCCCCCCCCC(=O)[O-]
REMARK SMILES IDX 8 1 9 2 10 3 11 4 12 5 13 6 14 7 15 8 16 9 7 10 6 11 5 12
REMARK SMILES IDX 4 13 3 14 2 15 1 16
REMARK H PARENT
REMARK Flexibility Score: inf
ROOT
ATOM      1  C   UNL     1      43.914  30.638   5.487  1.00  0.00     0.000 C 
ENDROOT
BRANCH   1   2
ATOM      2  C   UNL     1      44.125  31.262   4.098  1.00  0.00     0.000 C 
BRANCH   2   3
ATOM      3  C   UNL     1      43.994  32.795   4.114  1.00  0.00     0.000 C 
BRANCH   3   4
ATOM      4  C   UNL     1      43.770  33.384   2.711  1.00  0.00     0.000 C 
BRANCH   4   5
ATOM      5  C   UNL     1      43.587  32.300   1.635  1.00  0.00     0.006 C 
BRANCH   5   6
ATOM      6  C   UNL     1      43.486  32.896   0.224  1.00  0.00     0.053 C 
BRANCH   6   7
ATOM      7  C   UNL     1      42.154  32.622  -0.403  1.00  0.00     0.041 C 
ATOM      8  O   UNL     1      42.089  32.159  -1.573  1.00  0.00    -0.550 OA
ATOM      9  O   UNL     1      40.985  32.905   0.290  1.00  0.00    -0.550 OA
ENDBRANCH   6   7
ENDBRANCH   5   6
ENDBRANCH   4   5
ENDBRANCH   3   4
ENDBRANCH   2   3
ENDBRANCH   1   2
BRANCH   1  10
ATOM     10  C   UNL     1      42.640  29.778   5.561  1.00  0.00     0.000 C 
BRANCH  10  11
ATOM     11  C   UNL     1      41.866  29.752   4.231  1.00  0.00    -0.000 C 
BRANCH  11  12
ATOM     12  C   UNL     1      40.482  30.411   4.336  1.00  0.00    -0.000 C 
BRANCH  12  13
ATOM     13  C   UNL     1      40.430  31.707   3.513  1.00  0.00    -0.000 C 
BRANCH  13  14
ATOM     14  C   UNL     1      40.323  32.963   4.393  1.00  0.00    -0.000 C 
BRANCH  14  15
ATOM     15  C   UNL     1      40.183  32.631   5.885  1.00  0.00    -0.003 C 
ATOM     16  C   UNL     1      41.335  33.225   6.691  1.00  0.00     0.004 C 
ENDBRANCH  14  15
ENDBRANCH  13  14
ENDBRANCH  12  13
ENDBRANCH  11  12
ENDBRANCH  10  11
ENDBRANCH   1  10
TORSDOF 12
ENDMDL
MODEL 2
REMARK VINA RESULT:    -2.866     16.917     19.215
REMARK INTER + INTRA:          -6.991
REMARK INTER:                  -5.464
REMARK INTRA:                  -1.527
REMARK UNBOUND:                -2.114
REMARK SMILES CCCCCCCCCCCCCC(=O)[O-]
REMARK SMILES IDX 8 1 9 2 10 3 11 4 12 5 13 6 14 7 15 8 16 9 7 10 6 11 5 12
REMARK SMILES IDX 4 13 3 14 2 15 1 16
REMARK H PARENT
REMARK Flexibility Score: inf
ROOT
ATOM      1  C   UNL     1      24.327  38.740   0.881  1.00  0.00     0.000 C 
ENDROOT
BRANCH   1   2
ATOM      2  C   UNL     1      24.235  39.315   2.303  1.00  0.00     0.000 C 
BRANCH   2   3
ATOM      3  C   UNL     1      24.315  40.852   2.325  1.00  0.00     0.000 C 
BRANCH   3   4
ATOM      4  C   UNL     1      24.245  41.427   3.750  1.00  0.00     0.000 C 
BRANCH   4   5
ATOM      5  C   UNL     1      25.467  42.295   4.099  1.00  0.00     0.006 C 
BRANCH   5   6
ATOM      6  C   UNL     1      25.146  43.340   5.176  1.00  0.00     0.053 C 
BRANCH   6   7
ATOM      7  C   UNL     1      26.151  44.450   5.194  1.00  0.00     0.041 C 
ATOM      8  O   UNL     1      27.372  44.201   5.009  1.00  0.00    -0.550 OA
ATOM      9  O   UNL     1      25.746  45.754   5.445  1.00  0.00    -0.550 OA
ENDBRANCH   6   7
ENDBRANCH   5   6
ENDBRANCH   4   5
ENDBRANCH   3   4
ENDBRANCH   2   3
ENDBRANCH   1   2
BRANCH   1  10
ATOM     10  C   UNL     1      24.973  39.723  -0.112  1.00  0.00     0.000 C 
BRANCH  10  11
ATOM     11  C   UNL     1      26.094  39.074  -0.942  1.00  0.00    -0.000 C 
BRANCH  11  12
ATOM     12  C   UNL     1      27.491  39.325  -0.353  1.00  0.00    -0.000 C 
BRANCH  12  13
ATOM     13  C   UNL     1      27.962  38.118   0.472  1.00  0.00    -0.000 C 
BRANCH  13  14
ATOM     14  C   UNL     1      27.886  38.369   1.987  1.00  0.00    -0.000 C 
BRANCH  14  15
ATOM     15  C   UNL     1      27.889  39.863   2.340  1.00  0.00    -0.003 C 
ATOM     16  C   UNL     1      28.404  40.091   3.759  1.00  0.00     0.004 C 
ENDBRANCH  14  15
ENDBRANCH  13  14
ENDBRANCH  12  13
ENDBRANCH  11  12
ENDBRANCH  10  11
ENDBRANCH   1  10
TORSDOF 12
ENDMDL
MODEL 3
REMARK VINA RESULT:    -2.864     17.371     19.531
REMARK INTER + INTRA:          -6.986
REMARK INTER:                  -5.884
REMARK INTRA:                  -1.102
REMARK UNBOUND:                -2.114
REMARK SMILES CCCCCCCCCCCCCC(=O)[O-]
REMARK SMILES IDX 8 1 9 2 10 3 11 4 12 5 13 6 14 7 15 8 16 9 7 10 6 11 5 12
REMARK SMILES IDX 4 13 3 14 2 15 1 16
REMARK H PARENT
REMARK Flexibility Score: inf
ROOT
ATOM      1  C   UNL     1      24.226  40.193   4.633  1.00  0.00     0.000 C 
ENDROOT
BRANCH   1   2
ATOM      2  C   UNL     1      24.251  41.213   5.782  1.00  0.00     0.000 C 
BRANCH   2   3
ATOM      3  C   UNL     1      24.180  42.667   5.283  1.00  0.00     0.000 C 
BRANCH   3   4
ATOM      4  C   UNL     1      25.124  43.604   6.055  1.00  0.00     0.000 C 
BRANCH   4   5
ATOM      5  C   UNL     1      26.104  44.350   5.132  1.00  0.00     0.006 C 
BRANCH   5   6
ATOM      6  C   UNL     1      26.438  43.544   3.870  1.00  0.00     0.053 C 
BRANCH   6   7
ATOM      7  C   UNL     1      27.673  42.715   4.048  1.00  0.00     0.041 C 
ATOM      8  O   UNL     1      27.580  41.508   4.395  1.00  0.00    -0.550 OA
ATOM      9  O   UNL     1      28.926  43.282   3.861  1.00  0.00    -0.550 OA
ENDBRANCH   6   7
ENDBRANCH   5   6
ENDBRANCH   4   5
ENDBRANCH   3   4
ENDBRANCH   2   3
ENDBRANCH   1   2
BRANCH   1  10
ATOM     10  C   UNL     1      24.219  40.864   3.248  1.00  0.00     0.000 C 
BRANCH  10  11
ATOM     11  C   UNL     1      24.471  39.865   2.105  1.00  0.00    -0.000 C 
BRANCH  11  12
ATOM     12  C   UNL     1      25.832  40.073   1.424  1.00  0.00    -0.000 C 
BRANCH  12  13
ATOM     13  C   UNL     1      25.990  39.133   0.219  1.00  0.00    -0.000 C 
BRANCH  13  14
ATOM     14  C   UNL     1      25.447  39.742  -1.084  1.00  0.00    -0.000 C 
BRANCH  14  15
ATOM     15  C   UNL     1      26.561  40.132  -2.065  1.00  0.00    -0.003 C 
ATOM     16  C   UNL     1      27.855  39.385  -1.751  1.00  0.00     0.004 C 
ENDBRANCH  14  15
ENDBRANCH  13  14
ENDBRANCH  12  13
ENDBRANCH  11  12
ENDBRANCH  10  11
ENDBRANCH   1  10
TORSDOF 12
ENDMDL
MODEL 4
REMARK VINA RESULT:    -2.832     17.797     20.102
REMARK INTER + INTRA:          -6.932
REMARK INTER:                  -5.970
REMARK INTRA:                  -0.962
REMARK UNBOUND:                -2.114
REMARK SMILES CCCCCCCCCCCCCC(=O)[O-]
REMARK SMILES IDX 8 1 9 2 10 3 11 4 12 5 13 6 14 7 15 8 16 9 7 10 6 11 5 12
REMARK SMILES IDX 4 13 3 14 2 15 1 16
REMARK H PARENT
REMARK Flexibility Score: inf
ROOT
ATOM      1  C   UNL     1      24.516  41.465   3.251  1.00  0.00     0.000 C 
ENDROOT
BRANCH   1   2
ATOM      2  C   UNL     1      25.974  41.941   3.360  1.00  0.00     0.000 C 
BRANCH   2   3
ATOM      3  C   UNL     1      26.121  43.196   4.238  1.00  0.00     0.000 C 
BRANCH   3   4
ATOM      4  C   UNL     1      25.383  43.069   5.581  1.00  0.00     0.000 C 
BRANCH   4   5
ATOM      5  C   UNL     1      25.265  44.412   6.323  1.00  0.00     0.006 C 
BRANCH   5   6
ATOM      6  C   UNL     1      26.021  45.538   5.604  1.00  0.00     0.053 C 
BRANCH   6   7
ATOM      7  C   UNL     1      27.216  45.995   6.384  1.00  0.00     0.041 C 
ATOM      8  O   UNL     1      27.127  46.985   7.156  1.00  0.00    -0.550 OA
ATOM      9  O   UNL     1      28.435  45.346   6.235  1.00  0.00    -0.550 OA
ENDBRANCH   6   7
ENDBRANCH   5   6
ENDBRANCH   4   5
ENDBRANCH   3   4
ENDBRANCH   2   3
ENDBRANCH   1   2
BRANCH   1  10
ATOM     10  C   UNL     1      24.346  39.988   3.649  1.00  0.00     0.000 C 
BRANCH  10  11
ATOM     11  C   UNL     1      24.387  39.041   2.437  1.00  0.00    -0.000 C 
BRANCH  11  12
ATOM     12  C   UNL     1      23.880  39.705   1.147  1.00  0.00    -0.000 C 
BRANCH  12  13
ATOM     13  C   UNL     1      24.951  39.651   0.048  1.00  0.00    -0.000 C 
BRANCH  13  14
ATOM     14  C   UNL     1      26.256  38.991   0.523  1.00  0.00    -0.000 C 
BRANCH  14  15
ATOM     15  C   UNL     1      27.436  39.266  -0.420  1.00  0.00    -0.003 C 
ATOM     16  C   UNL     1      26.948  39.735  -1.788  1.00  0.00     0.004 C 
ENDBRANCH  14  15
ENDBRANCH  13  14
ENDBRANCH  12  13
ENDBRANCH  11  12
ENDBRANCH  10  11
ENDBRANCH   1  10
TORSDOF 12
ENDMDL
MODEL 5
REMARK VINA RESULT:    -2.831      3.546      6.354
REMARK INTER + INTRA:          -6.930
REMARK INTER:                  -5.517
REMARK INTRA:                  -1.413
REMARK UNBOUND:                -2.114
REMARK SMILES CCCCCCCCCCCCCC(=O)[O-]
REMARK SMILES IDX 8 1 9 2 10 3 11 4 12 5 13 6 14 7 15 8 16 9 7 10 6 11 5 12
REMARK SMILES IDX 4 13 3 14 2 15 1 16
REMARK H PARENT
REMARK Flexibility Score: inf
ROOT
ATOM      1  C   UNL     1      40.313  31.534   4.309  1.00  0.00     0.000 C 
ENDROOT
BRANCH   1   2
ATOM      2  C   UNL     1      40.401  30.002   4.226  1.00  0.00     0.000 C 
BRANCH   2   3
ATOM      3  C   UNL     1      41.846  29.486   4.353  1.00  0.00     0.000 C 
BRANCH   3   4
ATOM      4  C   UNL     1      42.458  29.775   5.734  1.00  0.00     0.000 C 
BRANCH   4   5
ATOM      5  C   UNL     1      43.034  28.515   6.403  1.00  0.00     0.006 C 
BRANCH   5   6
ATOM      6  C   UNL     1      42.026  27.357   6.420  1.00  0.00     0.053 C 
BRANCH   6   7
ATOM      7  C   UNL     1      40.944  27.574   7.432  1.00  0.00     0.041 C 
ATOM      8  O   UNL     1      41.197  27.470   8.661  1.00  0.00    -0.550 OA
ATOM      9  O   UNL     1      39.650  27.861   7.018  1.00  0.00    -0.550 OA
ENDBRANCH   6   7
ENDBRANCH   5   6
ENDBRANCH   4   5
ENDBRANCH   3   4
ENDBRANCH   2   3
ENDBRANCH   1   2
BRANCH   1  10
ATOM     10  C   UNL     1      40.745  32.222   3.002  1.00  0.00     0.000 C 
BRANCH  10  11
ATOM     11  C   UNL     1      41.831  33.289   3.227  1.00  0.00    -0.000 C 
BRANCH  11  12
ATOM     12  C   UNL     1      43.250  32.701   3.226  1.00  0.00    -0.000 C 
BRANCH  12  13
ATOM     13  C   UNL     1      43.583  32.079   1.862  1.00  0.00    -0.000 C 
BRANCH  13  14
ATOM     14  C   UNL     1      43.560  33.108   0.720  1.00  0.00    -0.000 C 
BRANCH  14  15
ATOM     15  C   UNL     1      42.672  32.671  -0.453  1.00  0.00    -0.003 C 
ATOM     16  C   UNL     1      41.387  33.494  -0.507  1.00  0.00     0.004 C 
ENDBRANCH  14  15
ENDBRANCH  13  14
ENDBRANCH  12  13
ENDBRANCH  11  12
ENDBRANCH  10  11
ENDBRANCH   1  10
TORSDOF 12
ENDMDL
MODEL 6
REMARK VINA RESULT:    -2.815      1.550      2.204
REMARK INTER + INTRA:          -6.903
REMARK INTER:                  -5.312
REMARK INTRA:                  -1.590
REMARK UNBOUND:                -2.114
REMARK SMILES CCCCCCCCCCCCCC(=O)[O-]
REMARK SMILES IDX 8 1 9 2 10 3 11 4 12 5 13 6 14 7 15 8 16 9 7 10 6 11 5 12
REMARK SMILES IDX 4 13 3 14 2 15 1 16
REMARK H PARENT
REMARK Flexibility Score: inf
ROOT
ATOM      1  C   UNL     1      44.088  31.497   3.697  1.00  0.00     0.000 C 
ENDROOT
BRANCH   1   2
ATOM      2  C   UNL     1      43.382  31.838   2.376  1.00  0.00     0.000 C 
BRANCH   2   3
ATOM      3  C   UNL     1      43.916  33.133   1.738  1.00  0.00     0.000 C 
BRANCH   3   4
ATOM      4  C   UNL     1      43.460  33.306   0.279  1.00  0.00     0.000 C 
BRANCH   4   5
ATOM      5  C   UNL     1      42.201  32.486  -0.050  1.00  0.00     0.006 C 
BRANCH   5   6
ATOM      6  C   UNL     1      41.643  32.815  -1.441  1.00  0.00     0.053 C 
BRANCH   6   7
ATOM      7  C   UNL     1      40.234  33.319  -1.373  1.00  0.00     0.041 C 
ATOM      8  O   UNL     1      39.323  32.740  -2.021  1.00  0.00    -0.550 OA
ATOM      9  O   UNL     1      39.932  34.444  -0.618  1.00  0.00    -0.550 OA
ENDBRANCH   6   7
ENDBRANCH   5   6
ENDBRANCH   4   5
ENDBRANCH   3   4
ENDBRANCH   2   3
ENDBRANCH   1   2
BRANCH   1  10
ATOM     10  C   UNL     1      43.145  30.833   4.716  1.00  0.00     0.000 C 
BRANCH  10  11
ATOM     11  C   UNL     1      41.995  30.064   4.044  1.00  0.00    -0.000 C 
BRANCH  11  12
ATOM     12  C   UNL     1      40.694  30.109   4.859  1.00  0.00    -0.000 C 
BRANCH  12  13
ATOM     13  C   UNL     1      39.544  30.692   4.024  1.00  0.00    -0.000 C 
BRANCH  13  14
ATOM     14  C   UNL     1      39.442  32.222   4.144  1.00  0.00    -0.000 C 
BRANCH  14  15
ATOM     15  C   UNL     1      39.832  32.945   2.847  1.00  0.00    -0.003 C 
ATOM     16  C   UNL     1      40.661  34.192   3.142  1.00  0.00     0.004 C 
ENDBRANCH  14  15
ENDBRANCH  13  14
ENDBRANCH  12  13
ENDBRANCH  11  12
ENDBRANCH  10  11
ENDBRANCH   1  10
TORSDOF 12
ENDMDL
MODEL 7
REMARK VINA RESULT:    -2.804     16.784     18.589
REMARK INTER + INTRA:          -6.886
REMARK INTER:                  -5.371
REMARK INTRA:                  -1.514
REMARK UNBOUND:                -2.114
REMARK SMILES CCCCCCCCCCCCCC(=O)[O-]
REMARK SMILES IDX 8 1 9 2 10 3 11 4 12 5 13 6 14 7 15 8 16 9 7 10 6 11 5 12
REMARK SMILES IDX 4 13 3 14 2 15 1 16
REMARK H PARENT
REMARK Flexibility Score: inf
ROOT
ATOM      1  C   UNL     1      27.050  40.718   3.044  1.00  0.00     0.000 C 
ENDROOT
BRANCH   1   2
ATOM      2  C   UNL     1      26.244  39.450   3.367  1.00  0.00     0.000 C 
BRANCH   2   3
ATOM      3  C   UNL     1      24.853  39.450   2.708  1.00  0.00     0.000 C 
BRANCH   3   4
ATOM      4  C   UNL     1      24.799  40.318   1.440  1.00  0.00     0.000 C 
BRANCH   4   5
ATOM      5  C   UNL     1      24.702  39.481   0.152  1.00  0.00     0.006 C 
BRANCH   5   6
ATOM      6  C   UNL     1      25.705  39.941  -0.914  1.00  0.00     0.053 C 
BRANCH   6   7
ATOM      7  C   UNL     1      26.944  39.100  -0.915  1.00  0.00     0.041 C 
ATOM      8  O   UNL     1      27.102  38.207  -1.788  1.00  0.00    -0.550 OA
ATOM      9  O   UNL     1      27.911  39.282   0.066  1.00  0.00    -0.550 OA
ENDBRANCH   6   7
ENDBRANCH   5   6
ENDBRANCH   4   5
ENDBRANCH   3   4
ENDBRANCH   2   3
ENDBRANCH   1   2
BRANCH   1  10
ATOM     10  C   UNL     1      28.193  40.962   4.045  1.00  0.00     0.000 C 
BRANCH  10  11
ATOM     11  C   UNL     1      28.221  42.408   4.570  1.00  0.00    -0.000 C 
BRANCH  11  12
ATOM     12  C   UNL     1      27.352  43.360   3.734  1.00  0.00    -0.000 C 
BRANCH  12  13
ATOM     13  C   UNL     1      26.060  43.721   4.482  1.00  0.00    -0.000 C 
BRANCH  13  14
ATOM     14  C   UNL     1      26.023  43.152   5.910  1.00  0.00    -0.000 C 
BRANCH  14  15
ATOM     15  C   UNL     1      24.772  42.303   6.176  1.00  0.00    -0.003 C 
ATOM     16  C   UNL     1      23.915  42.178   4.920  1.00  0.00     0.004 C 
ENDBRANCH  14  15
ENDBRANCH  13  14
ENDBRANCH  12  13
ENDBRANCH  11  12
ENDBRANCH  10  11
ENDBRANCH   1  10
TORSDOF 12
ENDMDL
MODEL 8
REMARK VINA RESULT:    -2.794     16.726     18.864
REMARK INTER + INTRA:          -6.868
REMARK INTER:                  -5.627
REMARK INTRA:                  -1.241
REMARK UNBOUND:                -2.114
REMARK SMILES CCCCCCCCCCCCCC(=O)[O-]
REMARK SMILES IDX 8 1 9 2 10 3 11 4 12 5 13 6 14 7 15 8 16 9 7 10 6 11 5 12
REMARK SMILES IDX 4 13 3 14 2 15 1 16
REMARK H PARENT
REMARK Flexibility Score: inf
ROOT
ATOM      1  C   UNL     1      24.115  40.902   4.185  1.00  0.00     0.000 C 
ENDROOT
BRANCH   1   2
ATOM      2  C   UNL     1      24.279  41.107   2.671  1.00  0.00     0.000 C 
BRANCH   2   3
ATOM      3  C   UNL     1      24.944  39.903   1.980  1.00  0.00     0.000 C 
BRANCH   3   4
ATOM      4  C   UNL     1      24.287  39.557   0.633  1.00  0.00     0.000 C 
BRANCH   4   5
ATOM      5  C   UNL     1      25.305  39.466  -0.517  1.00  0.00     0.006 C 
BRANCH   5   6
ATOM      6  C   UNL     1      26.752  39.595  -0.021  1.00  0.00     0.053 C 
BRANCH   6   7
ATOM      7  C   UNL     1      27.724  38.956  -0.964  1.00  0.00     0.041 C 
ATOM      8  O   UNL     1      28.220  37.830  -0.695  1.00  0.00    -0.550 OA
ATOM      9  O   UNL     1      28.106  39.616  -2.125  1.00  0.00    -0.550 OA
ENDBRANCH   6   7
ENDBRANCH   5   6
ENDBRANCH   4   5
ENDBRANCH   3   4
ENDBRANCH   2   3
ENDBRANCH   1   2
BRANCH   1  10
ATOM     10  C   UNL     1      23.878  42.223   4.938  1.00  0.00     0.000 C 
BRANCH  10  11
ATOM     11  C   UNL     1      24.552  42.245   6.321  1.00  0.00    -0.000 C 
BRANCH  11  12
ATOM     12  C   UNL     1      26.006  42.738   6.265  1.00  0.00    -0.000 C 
BRANCH  12  13
ATOM     13  C   UNL     1      26.183  43.795   5.165  1.00  0.00    -0.000 C 
BRANCH  13  14
ATOM     14  C   UNL     1      27.015  43.281   3.978  1.00  0.00    -0.000 C 
BRANCH  14  15
ATOM     15  C   UNL     1      28.126  42.313   4.409  1.00  0.00    -0.003 C 
ATOM     16  C   UNL     1      28.041  41.000   3.636  1.00  0.00     0.004 C 
ENDBRANCH  14  15
ENDBRANCH  13  14
ENDBRANCH  12  13
ENDBRANCH  11  12
ENDBRANCH  10  11
ENDBRANCH   1  10
TORSDOF 12
ENDMDL
MODEL 9
REMARK VINA RESULT:    -2.757      3.112      6.077
REMARK INTER + INTRA:          -6.805
REMARK INTER:                  -5.795
REMARK INTRA:                  -1.009
REMARK UNBOUND:                -2.114
REMARK SMILES CCCCCCCCCCCCCC(=O)[O-]
REMARK SMILES IDX 8 1 9 2 10 3 11 4 12 5 13 6 14 7 15 8 16 9 7 10 6 11 5 12
REMARK SMILES IDX 4 13 3 14 2 15 1 16
REMARK H PARENT
REMARK Flexibility Score: inf
ROOT
ATOM      1  C   UNL     1      40.538  30.901   4.531  1.00  0.00     0.000 C 
ENDROOT
BRANCH   1   2
ATOM      2  C   UNL     1      41.168  29.499   4.552  1.00  0.00     0.000 C 
BRANCH   2   3
ATOM      3  C   UNL     1      41.248  28.909   5.971  1.00  0.00     0.000 C 
BRANCH   3   4
ATOM      4  C   UNL     1      42.597  28.228   6.253  1.00  0.00     0.000 C 
BRANCH   4   5
ATOM      5  C   UNL     1      43.774  29.219   6.255  1.00  0.00     0.006 C 
BRANCH   5   6
ATOM      6  C   UNL     1      43.984  29.866   7.630  1.00  0.00     0.053 C 
BRANCH   6   7
ATOM      7  C   UNL     1      43.716  31.340   7.601  1.00  0.00     0.041 C 
ATOM      8  O   UNL     1      43.814  31.979   6.520  1.00  0.00    -0.550 OA
ATOM      9  O   UNL     1      43.388  32.013   8.770  1.00  0.00    -0.550 OA
ENDBRANCH   6   7
ENDBRANCH   5   6
ENDBRANCH   4   5
ENDBRANCH   3   4
ENDBRANCH   2   3
ENDBRANCH   1   2
BRANCH   1  10
ATOM     10  C   UNL     1      41.486  31.966   3.950  1.00  0.00     0.000 C 
BRANCH  10  11
ATOM     11  C   UNL     1      42.635  31.351   3.132  1.00  0.00    -0.000 C 
BRANCH  11  12
ATOM     12  C   UNL     1      43.765  32.353   2.850  1.00  0.00    -0.000 C 
BRANCH  12  13
ATOM     13  C   UNL     1      43.863  32.658   1.348  1.00  0.00    -0.000 C 
BRANCH  13  14
ATOM     14  C   UNL     1      42.499  32.599   0.641  1.00  0.00    -0.000 C 
BRANCH  14  15
ATOM     15  C   UNL     1      42.565  33.081  -0.815  1.00  0.00    -0.003 C 
ATOM     16  C   UNL     1      41.827  32.122  -1.745  1.00  0.00     0.004 C 
ENDBRANCH  14  15
ENDBRANCH  13  14
ENDBRANCH  12  13
ENDBRANCH  11  12
ENDBRANCH  10  11
ENDBRANCH   1  10
TORSDOF 12
ENDMDL
