MODEL 1
REMARK VINA RESULT:    -4.752      0.000      0.000
REMARK INTER + INTRA:          -9.013
REMARK INTER:                  -8.086
REMARK INTRA:                  -0.927
REMARK UNBOUND:                -0.927
REMARK SMILES CCCCCCCCCCCCCC(=O)[O-]
REMARK SMILES IDX 8 1 9 2 10 3 11 4 12 5 13 6 14 7 15 8 16 9 7 10 6 11 5 12
REMARK SMILES IDX 4 13 3 14 2 15 1 16
REMARK H PARENT
REMARK Flexibility Score: inf
ROOT
ATOM      1  C   UNL     1       5.334  51.862   1.475  1.00  0.00     0.000 C 
ENDROOT
BRANCH   1   2
ATOM      2  C   UNL     1       3.893  51.322   1.461  1.00  0.00     0.000 C 
BRANCH   2   3
ATOM      3  C   UNL     1       3.084  51.832   0.257  1.00  0.00     0.000 C 
BRANCH   3   4
ATOM      4  C   UNL     1       2.276  50.718  -0.430  1.00  0.00     0.000 C 
BRANCH   4   5
ATOM      5  C   UNL     1       2.264  50.843  -1.965  1.00  0.00     0.006 C 
BRANCH   5   6
ATOM      6  C   UNL     1       3.020  52.072  -2.497  1.00  0.00     0.053 C 
BRANCH   6   7
ATOM      7  C   UNL     1       3.952  51.737  -3.621  1.00  0.00     0.041 C 
ATOM      8  O   UNL     1       5.199  51.784  -3.449  1.00  0.00    -0.550 OA
ATOM      9  O   UNL     1       3.444  51.339  -4.852  1.00  0.00    -0.550 OA
ENDBRANCH   6   7
ENDBRANCH   5   6
ENDBRANCH   4   5
ENDBRANCH   3   4
ENDBRANCH   2   3
ENDBRANCH   1   2
BRANCH   1  10
ATOM     10  C   UNL     1       5.777  52.397   0.104  1.00  0.00     0.000 C 
BRANCH  10  11
ATOM     11  C   UNL     1       7.295  52.622   0.017  1.00  0.00    -0.000 C 
BRANCH  11  12
ATOM     12  C   UNL     1       7.819  52.286  -1.385  1.00  0.00    -0.000 C 
BRANCH  12  13
ATOM     13  C   UNL     1       9.141  51.507  -1.306  1.00  0.00    -0.000 C 
BRANCH  13  14
ATOM     14  C   UNL     1       9.916  51.770  -0.003  1.00  0.00    -0.000 C 
BRANCH  14  15
ATOM     15  C   UNL     1      11.331  52.343  -0.196  1.00  0.00    -0.003 C 
ATOM     16  C   UNL     1      11.626  52.730  -1.645  1.00  0.00     0.004 C 
ENDBRANCH  14  15
ENDBRANCH  13  14
ENDBRANCH  12  13
ENDBRANCH  11  12
ENDBRANCH  10  11
ENDBRANCH   1  10
TORSDOF 12
ENDMDL
MODEL 2
REMARK VINA RESULT:    -4.688      2.014      5.103
REMARK INTER + INTRA:          -8.904
REMARK INTER:                  -7.001
REMARK INTRA:                  -1.902
REMARK UNBOUND:                -0.927
REMARK SMILES CCCCCCCCCCCCCC(=O)[O-]
REMARK SMILES IDX 8 1 9 2 10 3 11 4 12 5 13 6 14 7 15 8 16 9 7 10 6 11 5 12
REMARK SMILES IDX 4 13 3 14 2 15 1 16
REMARK H PARENT
REMARK Flexibility Score: inf
ROOT
ATOM      1  C   UNL     1       5.733  52.844   0.319  1.00  0.00     0.000 C 
ENDROOT
BRANCH   1   2
ATOM      2  C   UNL     1       7.213  52.648  -0.056  1.00  0.00     0.000 C 
BRANCH   2   3
ATOM      3  C   UNL     1       7.462  52.797  -1.566  1.00  0.00     0.000 C 
BRANCH   3   4
ATOM      4  C   UNL     1       6.371  53.622  -2.270  1.00  0.00     0.000 C 
BRANCH   4   5
ATOM      5  C   UNL     1       5.901  52.993  -3.594  1.00  0.00     0.006 C 
BRANCH   5   6
ATOM      6  C   UNL     1       5.214  51.627  -3.427  1.00  0.00     0.053 C 
BRANCH   6   7
ATOM      7  C   UNL     1       3.992  51.484  -4.283  1.00  0.00     0.041 C 
ATOM      8  O   UNL     1       2.909  51.079  -3.783  1.00  0.00    -0.550 OA
ATOM      9  O   UNL     1       4.040  51.832  -5.627  1.00  0.00    -0.550 OA
ENDBRANCH   6   7
ENDBRANCH   5   6
ENDBRANCH   4   5
ENDBRANCH   3   4
ENDBRANCH   2   3
ENDBRANCH   1   2
BRANCH   1  10
ATOM     10  C   UNL     1       5.284  51.912   1.456  1.00  0.00     0.000 C 
BRANCH  10  11
ATOM     11  C   UNL     1       3.810  51.496   1.335  1.00  0.00    -0.000 C 
BRANCH  11  12
ATOM     12  C   UNL     1       3.422  51.273  -0.133  1.00  0.00    -0.000 C 
BRANCH  12  13
ATOM     13  C   UNL     1       1.992  51.764  -0.405  1.00  0.00    -0.000 C 
BRANCH  13  14
ATOM     14  C   UNL     1       1.875  53.299  -0.412  1.00  0.00    -0.000 C 
BRANCH  14  15
ATOM     15  C   UNL     1       2.740  54.007  -1.469  1.00  0.00    -0.003 C 
ATOM     16  C   UNL     1       3.312  55.338  -0.980  1.00  0.00     0.004 C 
ENDBRANCH  14  15
ENDBRANCH  13  14
ENDBRANCH  12  13
ENDBRANCH  11  12
ENDBRANCH  10  11
ENDBRANCH   1  10
TORSDOF 12
ENDMDL
MODEL 3
REMARK VINA RESULT:    -4.674      2.776      6.321
REMARK INTER + INTRA:          -8.880
REMARK INTER:                  -7.717
REMARK INTRA:                  -1.163
REMARK UNBOUND:                -0.927
REMARK SMILES CCCCCCCCCCCCCC(=O)[O-]
REMARK SMILES IDX 8 1 9 2 10 3 11 4 12 5 13 6 14 7 15 8 16 9 7 10 6 11 5 12
REMARK SMILES IDX 4 13 3 14 2 15 1 16
REMARK H PARENT
REMARK Flexibility Score: inf
ROOT
ATOM      1  C   UNL     1       4.962  51.569   1.492  1.00  0.00     0.000 C 
ENDROOT
BRANCH   1   2
ATOM      2  C   UNL     1       5.902  52.530   0.742  1.00  0.00     0.000 C 
BRANCH   2   3
ATOM      3  C   UNL     1       5.694  52.487  -0.780  1.00  0.00     0.000 C 
BRANCH   3   4
ATOM      4  C   UNL     1       7.008  52.284  -1.554  1.00  0.00     0.000 C 
BRANCH   4   5
ATOM      5  C   UNL     1       8.259  52.501  -0.683  1.00  0.00     0.006 C 
BRANCH   5   6
ATOM      6  C   UNL     1       9.504  51.747  -1.180  1.00  0.00     0.053 C 
BRANCH   6   7
ATOM      7  C   UNL     1      10.711  52.628  -1.285  1.00  0.00     0.041 C 
ATOM      8  O   UNL     1      11.842  52.131  -1.532  1.00  0.00    -0.550 OA
ATOM      9  O   UNL     1      10.582  54.004  -1.144  1.00  0.00    -0.550 OA
ENDBRANCH   6   7
ENDBRANCH   5   6
ENDBRANCH   4   5
ENDBRANCH   3   4
ENDBRANCH   2   3
ENDBRANCH   1   2
BRANCH   1  10
ATOM     10  C   UNL     1       3.481  51.820   1.171  1.00  0.00     0.000 C 
BRANCH  10  11
ATOM     11  C   UNL     1       2.739  50.541   0.754  1.00  0.00    -0.000 C 
BRANCH  11  12
ATOM     12  C   UNL     1       1.876  50.789  -0.490  1.00  0.00    -0.000 C 
BRANCH  12  13
ATOM     13  C   UNL     1       2.134  52.188  -1.070  1.00  0.00    -0.000 C 
BRANCH  13  14
ATOM     14  C   UNL     1       2.026  52.231  -2.605  1.00  0.00    -0.000 C 
BRANCH  14  15
ATOM     15  C   UNL     1       2.676  51.041  -3.332  1.00  0.00    -0.003 C 
ATOM     16  C   UNL     1       3.946  51.426  -4.091  1.00  0.00     0.004 C 
ENDBRANCH  14  15
ENDBRANCH  13  14
ENDBRANCH  12  13
ENDBRANCH  11  12
ENDBRANCH  10  11
ENDBRANCH   1  10
TORSDOF 12
ENDMDL
MODEL 4
REMARK VINA RESULT:    -4.637      1.056      1.823
REMARK INTER + INTRA:          -8.818
REMARK INTER:                  -7.540
REMARK INTRA:                  -1.278
REMARK UNBOUND:                -0.927
REMARK SMILES CCCCCCCCCCCCCC(=O)[O-]
REMARK SMILES IDX 8 1 9 2 10 3 11 4 12 5 13 6 14 7 15 8 16 9 7 10 6 11 5 12
REMARK SMILES IDX 4 13 3 14 2 15 1 16
REMARK H PARENT
REMARK Flexibility Score: inf
ROOT
ATOM      1  C   UNL     1       3.753  51.977   1.194  1.00  0.00     0.000 C 
ENDROOT
BRANCH   1   2
ATOM      2  C   UNL     1       3.012  50.657   1.471  1.00  0.00     0.000 C 
BRANCH   2   3
ATOM      3  C   UNL     1       2.192  50.177   0.262  1.00  0.00     0.000 C 
BRANCH   3   4
ATOM      4  C   UNL     1       1.876  51.310  -0.729  1.00  0.00     0.000 C 
BRANCH   4   5
ATOM      5  C   UNL     1       2.355  51.008  -2.161  1.00  0.00     0.006 C 
BRANCH   5   6
ATOM      6  C   UNL     1       2.402  52.243  -3.077  1.00  0.00     0.053 C 
BRANCH   6   7
ATOM      7  C   UNL     1       3.578  52.231  -4.005  1.00  0.00     0.041 C 
ATOM      8  O   UNL     1       4.059  51.138  -4.409  1.00  0.00    -0.550 OA
ATOM      9  O   UNL     1       4.124  53.427  -4.453  1.00  0.00    -0.550 OA
ENDBRANCH   6   7
ENDBRANCH   5   6
ENDBRANCH   4   5
ENDBRANCH   3   4
ENDBRANCH   2   3
ENDBRANCH   1   2
BRANCH   1  10
ATOM     10  C   UNL     1       5.256  51.886   1.500  1.00  0.00     0.000 C 
BRANCH  10  11
ATOM     11  C   UNL     1       6.121  52.592   0.444  1.00  0.00    -0.000 C 
BRANCH  11  12
ATOM     12  C   UNL     1       5.708  52.172  -0.972  1.00  0.00    -0.000 C 
BRANCH  12  13
ATOM     13  C   UNL     1       6.722  52.671  -2.012  1.00  0.00    -0.000 C 
BRANCH  13  14
ATOM     14  C   UNL     1       8.135  52.860  -1.430  1.00  0.00    -0.000 C 
BRANCH  14  15
ATOM     15  C   UNL     1       8.983  51.578  -1.363  1.00  0.00    -0.003 C 
ATOM     16  C   UNL     1       9.994  51.588  -0.217  1.00  0.00     0.004 C 
ENDBRANCH  14  15
ENDBRANCH  13  14
ENDBRANCH  12  13
ENDBRANCH  11  12
ENDBRANCH  10  11
ENDBRANCH   1  10
TORSDOF 12
ENDMDL
MODEL 5
REMARK VINA RESULT:    -4.606      3.060      4.719
REMARK INTER + INTRA:          -8.765
REMARK INTER:                  -7.179
REMARK INTRA:                  -1.585
REMARK UNBOUND:                -0.927
REMARK SMILES CCCCCCCCCCCCCC(=O)[O-]
REMARK SMILES IDX 8 1 9 2 10 3 11 4 12 5 13 6 14 7 15 8 16 9 7 10 6 11 5 12
REMARK SMILES IDX 4 13 3 14 2 15 1 16
REMARK H PARENT
REMARK Flexibility Score: inf
ROOT
ATOM      1  C   UNL     1       1.875  52.278  -0.377  1.00  0.00     0.000 C 
ENDROOT
BRANCH   1   2
ATOM      2  C   UNL     1       2.019  50.840   0.155  1.00  0.00     0.000 C 
BRANCH   2   3
ATOM      3  C   UNL     1       3.081  50.724   1.260  1.00  0.00     0.000 C 
BRANCH   3   4
ATOM      4  C   UNL     1       3.865  52.032   1.471  1.00  0.00     0.000 C 
BRANCH   4   5
ATOM      5  C   UNL     1       5.383  51.860   1.283  1.00  0.00     0.006 C 
BRANCH   5   6
ATOM      6  C   UNL     1       6.186  53.159   1.469  1.00  0.00     0.053 C 
BRANCH   6   7
ATOM      7  C   UNL     1       7.508  52.931   2.137  1.00  0.00     0.041 C 
ATOM      8  O   UNL     1       8.459  53.738   1.956  1.00  0.00    -0.550 OA
ATOM      9  O   UNL     1       7.682  51.846   2.987  1.00  0.00    -0.550 OA
ENDBRANCH   6   7
ENDBRANCH   5   6
ENDBRANCH   4   5
ENDBRANCH   3   4
ENDBRANCH   2   3
ENDBRANCH   1   2
BRANCH   1  10
ATOM     10  C   UNL     1       1.984  52.355  -1.908  1.00  0.00     0.000 C 
BRANCH  10  11
ATOM     11  C   UNL     1       3.348  51.880  -2.431  1.00  0.00    -0.000 C 
BRANCH  11  12
ATOM     12  C   UNL     1       4.422  52.954  -2.213  1.00  0.00    -0.000 C 
BRANCH  12  13
ATOM     13  C   UNL     1       5.679  52.652  -3.044  1.00  0.00    -0.000 C 
BRANCH  13  14
ATOM     14  C   UNL     1       6.730  51.838  -2.268  1.00  0.00    -0.000 C 
BRANCH  14  15
ATOM     15  C   UNL     1       7.876  52.669  -1.666  1.00  0.00    -0.003 C 
ATOM     16  C   UNL     1       9.086  51.823  -1.273  1.00  0.00     0.004 C 
ENDBRANCH  14  15
ENDBRANCH  13  14
ENDBRANCH  12  13
ENDBRANCH  11  12
ENDBRANCH  10  11
ENDBRANCH   1  10
TORSDOF 12
ENDMDL
MODEL 6
REMARK VINA RESULT:    -4.595      3.127      4.735
REMARK INTER + INTRA:          -8.746
REMARK INTER:                  -7.377
REMARK INTRA:                  -1.369
REMARK UNBOUND:                -0.927
REMARK SMILES CCCCCCCCCCCCCC(=O)[O-]
REMARK SMILES IDX 8 1 9 2 10 3 11 4 12 5 13 6 14 7 15 8 16 9 7 10 6 11 5 12
REMARK SMILES IDX 4 13 3 14 2 15 1 16
REMARK H PARENT
REMARK Flexibility Score: inf
ROOT
ATOM      1  C   UNL     1       2.512  51.459  -1.536  1.00  0.00     0.000 C 
ENDROOT
BRANCH   1   2
ATOM      2  C   UNL     1       2.173  50.464  -0.412  1.00  0.00     0.000 C 
BRANCH   2   3
ATOM      3  C   UNL     1       2.895  50.795   0.905  1.00  0.00     0.000 C 
BRANCH   3   4
ATOM      4  C   UNL     1       4.134  51.681   0.697  1.00  0.00     0.000 C 
BRANCH   4   5
ATOM      5  C   UNL     1       4.039  53.032   1.431  1.00  0.00     0.006 C 
BRANCH   5   6
ATOM      6  C   UNL     1       3.825  54.235   0.497  1.00  0.00     0.053 C 
BRANCH   6   7
ATOM      7  C   UNL     1       4.486  55.483   1.000  1.00  0.00     0.041 C 
ATOM      8  O   UNL     1       5.430  55.411   1.832  1.00  0.00    -0.550 OA
ATOM      9  O   UNL     1       4.083  56.724   0.526  1.00  0.00    -0.550 OA
ENDBRANCH   6   7
ENDBRANCH   5   6
ENDBRANCH   4   5
ENDBRANCH   3   4
ENDBRANCH   2   3
ENDBRANCH   1   2
BRANCH   1  10
ATOM     10  C   UNL     1       2.323  50.855  -2.936  1.00  0.00     0.000 C 
BRANCH  10  11
ATOM     11  C   UNL     1       2.976  51.702  -4.040  1.00  0.00    -0.000 C 
BRANCH  11  12
ATOM     12  C   UNL     1       4.466  51.365  -4.180  1.00  0.00    -0.000 C 
BRANCH  12  13
ATOM     13  C   UNL     1       5.340  52.474  -3.575  1.00  0.00    -0.000 C 
BRANCH  13  14
ATOM     14  C   UNL     1       6.144  52.003  -2.350  1.00  0.00    -0.000 C 
BRANCH  14  15
ATOM     15  C   UNL     1       7.197  53.004  -1.844  1.00  0.00    -0.003 C 
ATOM     16  C   UNL     1       7.541  52.816  -0.367  1.00  0.00     0.004 C 
ENDBRANCH  14  15
ENDBRANCH  13  14
ENDBRANCH  12  13
ENDBRANCH  11  12
ENDBRANCH  10  11
ENDBRANCH   1  10
TORSDOF 12
ENDMDL
MODEL 7
REMARK VINA RESULT:    -4.594      2.706      4.032
REMARK INTER + INTRA:          -8.745
REMARK INTER:                  -6.982
REMARK INTRA:                  -1.763
REMARK UNBOUND:                -0.927
REMARK SMILES CCCCCCCCCCCCCC(=O)[O-]
REMARK SMILES IDX 8 1 9 2 10 3 11 4 12 5 13 6 14 7 15 8 16 9 7 10 6 11 5 12
REMARK SMILES IDX 4 13 3 14 2 15 1 16
REMARK H PARENT
REMARK Flexibility Score: inf
ROOT
ATOM      1  C   UNL     1       3.714  51.828   1.490  1.00  0.00     0.000 C 
ENDROOT
BRANCH   1   2
ATOM      2  C   UNL     1       3.050  50.448   1.647  1.00  0.00     0.000 C 
BRANCH   2   3
ATOM      3  C   UNL     1       1.951  50.200   0.601  1.00  0.00     0.000 C 
BRANCH   3   4
ATOM      4  C   UNL     1       1.904  51.293  -0.482  1.00  0.00     0.000 C 
BRANCH   4   5
ATOM      5  C   UNL     1       2.177  50.750  -1.897  1.00  0.00     0.006 C 
BRANCH   5   6
ATOM      6  C   UNL     1       1.878  51.757  -3.020  1.00  0.00     0.053 C 
BRANCH   6   7
ATOM      7  C   UNL     1       2.917  51.745  -4.100  1.00  0.00     0.041 C 
ATOM      8  O   UNL     1       4.019  51.162  -3.916  1.00  0.00    -0.550 OA
ATOM      9  O   UNL     1       2.656  52.348  -5.324  1.00  0.00    -0.550 OA
ENDBRANCH   6   7
ENDBRANCH   5   6
ENDBRANCH   4   5
ENDBRANCH   3   4
ENDBRANCH   2   3
ENDBRANCH   1   2
BRANCH   1  10
ATOM     10  C   UNL     1       5.248  51.753   1.525  1.00  0.00     0.000 C 
BRANCH  10  11
ATOM     11  C   UNL     1       5.914  52.761   0.576  1.00  0.00    -0.000 C 
BRANCH  11  12
ATOM     12  C   UNL     1       5.463  52.530  -0.872  1.00  0.00    -0.000 C 
BRANCH  12  13
ATOM     13  C   UNL     1       4.558  53.673  -1.356  1.00  0.00    -0.000 C 
BRANCH  13  14
ATOM     14  C   UNL     1       4.630  54.918  -0.454  1.00  0.00    -0.000 C 
BRANCH  14  15
ATOM     15  C   UNL     1       3.360  55.193   0.370  1.00  0.00    -0.003 C 
ATOM     16  C   UNL     1       2.074  55.025  -0.439  1.00  0.00     0.004 C 
ENDBRANCH  14  15
ENDBRANCH  13  14
ENDBRANCH  12  13
ENDBRANCH  11  12
ENDBRANCH  10  11
ENDBRANCH   1  10
TORSDOF 12
ENDMDL
MODEL 8
REMARK VINA RESULT:    -4.563      3.331      5.195
REMARK INTER + INTRA:          -8.691
REMARK INTER:                  -6.996
REMARK INTRA:                  -1.694
REMARK UNBOUND:                -0.927
REMARK SMILES CCCCCCCCCCCCCC(=O)[O-]
REMARK SMILES IDX 8 1 9 2 10 3 11 4 12 5 13 6 14 7 15 8 16 9 7 10 6 11 5 12
REMARK SMILES IDX 4 13 3 14 2 15 1 16
REMARK H PARENT
REMARK Flexibility Score: inf
ROOT
ATOM      1  C   UNL     1       2.254  50.483  -0.422  1.00  0.00     0.000 C 
ENDROOT
BRANCH   1   2
ATOM      2  C   UNL     1       2.813  51.197   0.821  1.00  0.00     0.000 C 
BRANCH   2   3
ATOM      3  C   UNL     1       4.324  51.462   0.718  1.00  0.00     0.000 C 
BRANCH   3   4
ATOM      4  C   UNL     1       4.646  52.919   0.341  1.00  0.00     0.000 C 
BRANCH   4   5
ATOM      5  C   UNL     1       3.675  53.933   0.972  1.00  0.00     0.006 C 
BRANCH   5   6
ATOM      6  C   UNL     1       3.307  55.104   0.045  1.00  0.00     0.053 C 
BRANCH   6   7
ATOM      7  C   UNL     1       4.009  56.376   0.414  1.00  0.00     0.041 C 
ATOM      8  O   UNL     1       3.501  57.491   0.119  1.00  0.00    -0.550 OA
ATOM      9  O   UNL     1       5.209  56.332   1.113  1.00  0.00    -0.550 OA
ENDBRANCH   6   7
ENDBRANCH   5   6
ENDBRANCH   4   5
ENDBRANCH   3   4
ENDBRANCH   2   3
ENDBRANCH   1   2
BRANCH   1  10
ATOM     10  C   UNL     1       2.066  51.433  -1.615  1.00  0.00     0.000 C 
BRANCH  10  11
ATOM     11  C   UNL     1       2.213  50.722  -2.969  1.00  0.00    -0.000 C 
BRANCH  11  12
ATOM     12  C   UNL     1       3.072  51.551  -3.933  1.00  0.00    -0.000 C 
BRANCH  12  13
ATOM     13  C   UNL     1       3.564  52.842  -3.261  1.00  0.00    -0.000 C 
BRANCH  13  14
ATOM     14  C   UNL     1       5.087  53.035  -3.374  1.00  0.00    -0.000 C 
BRANCH  14  15
ATOM     15  C   UNL     1       5.924  51.800  -2.996  1.00  0.00    -0.003 C 
ATOM     16  C   UNL     1       7.120  52.139  -2.107  1.00  0.00     0.004 C 
ENDBRANCH  14  15
ENDBRANCH  13  14
ENDBRANCH  12  13
ENDBRANCH  11  12
ENDBRANCH  10  11
ENDBRANCH   1  10
TORSDOF 12
ENDMDL
MODEL 9
REMARK VINA RESULT:    -4.522      3.465      4.561
REMARK INTER + INTRA:          -8.622
REMARK INTER:                  -6.650
REMARK INTRA:                  -1.972
REMARK UNBOUND:                -0.927
REMARK SMILES CCCCCCCCCCCCCC(=O)[O-]
REMARK SMILES IDX 8 1 9 2 10 3 11 4 12 5 13 6 14 7 15 8 16 9 7 10 6 11 5 12
REMARK SMILES IDX 4 13 3 14 2 15 1 16
REMARK H PARENT
REMARK Flexibility Score: inf
ROOT
ATOM      1  C   UNL     1       3.726  51.850   1.526  1.00  0.00     0.000 C 
ENDROOT
BRANCH   1   2
ATOM      2  C   UNL     1       3.225  51.011   0.337  1.00  0.00     0.000 C 
BRANCH   2   3
ATOM      3  C   UNL     1       1.875  51.508  -0.206  1.00  0.00     0.000 C 
BRANCH   3   4
ATOM      4  C   UNL     1       2.030  52.632  -1.245  1.00  0.00     0.000 C 
BRANCH   4   5
ATOM      5  C   UNL     1       1.907  54.039  -0.632  1.00  0.00     0.006 C 
BRANCH   5   6
ATOM      6  C   UNL     1       3.055  54.989  -1.014  1.00  0.00     0.053 C 
BRANCH   6   7
ATOM      7  C   UNL     1       3.265  56.077  -0.005  1.00  0.00     0.041 C 
ATOM      8  O   UNL     1       2.338  56.888   0.258  1.00  0.00    -0.550 OA
ATOM      9  O   UNL     1       4.475  56.176   0.671  1.00  0.00    -0.550 OA
ENDBRANCH   6   7
ENDBRANCH   5   6
ENDBRANCH   4   5
ENDBRANCH   3   4
ENDBRANCH   2   3
ENDBRANCH   1   2
BRANCH   1  10
ATOM     10  C   UNL     1       4.996  52.648   1.192  1.00  0.00     0.000 C 
BRANCH  10  11
ATOM     11  C   UNL     1       5.640  52.211  -0.133  1.00  0.00    -0.000 C 
BRANCH  11  12
ATOM     12  C   UNL     1       6.326  53.395  -0.825  1.00  0.00    -0.000 C 
BRANCH  12  13
ATOM     13  C   UNL     1       6.213  53.280  -2.353  1.00  0.00    -0.000 C 
BRANCH  13  14
ATOM     14  C   UNL     1       5.911  51.847  -2.827  1.00  0.00    -0.000 C 
BRANCH  14  15
ATOM     15  C   UNL     1       5.008  51.753  -4.068  1.00  0.00    -0.003 C 
ATOM     16  C   UNL     1       4.103  52.973  -4.244  1.00  0.00     0.004 C 
ENDBRANCH  14  15
ENDBRANCH  13  14
ENDBRANCH  12  13
ENDBRANCH  11  12
ENDBRANCH  10  11
ENDBRANCH   1  10
TORSDOF 12
ENDMDL
