MODEL 1
REMARK VINA RESULT:    -3.899      0.000      0.000
REMARK INTER + INTRA:          -8.841
REMARK INTER:                  -7.547
REMARK INTRA:                  -1.295
REMARK UNBOUND:                -1.295
REMARK SMILES CCCCCCCCCCCCCCCCCC(=O)[O-]
REMARK SMILES IDX 10 1 11 2 12 3 13 4 14 5 15 6 16 7 17 8 18 9 19 10 20 11
REMARK SMILES IDX 9 12 8 13 7 14 6 15 5 16 4 17 3 18 2 19 1 20
REMARK H PARENT
REMARK Flexibility Score: inf
ROOT
ATOM      1  C   UNL     1     132.792 143.819 136.637  1.00  0.00     0.000 C 
ENDROOT
BRANCH   1   2
ATOM      2  C   UNL     1     131.436 143.538 135.970  1.00  0.00     0.000 C 
BRANCH   2   3
ATOM      3  C   UNL     1     131.292 144.223 134.601  1.00  0.00     0.000 C 
BRANCH   3   4
ATOM      4  C   UNL     1     132.610 144.878 134.133  1.00  0.00     0.000 C 
BRANCH   4   5
ATOM      5  C   UNL     1     132.920 144.643 132.643  1.00  0.00     0.000 C 
BRANCH   5   6
ATOM      6  C   UNL     1     133.786 143.404 132.349  1.00  0.00     0.000 C 
BRANCH   6   7
ATOM      7  C   UNL     1     133.001 142.096 132.139  1.00  0.00     0.006 C 
BRANCH   7   8
ATOM      8  C   UNL     1     131.616 142.320 131.517  1.00  0.00     0.053 C 
BRANCH   8   9
ATOM      9  C   UNL     1     131.716 142.393 130.026  1.00  0.00     0.041 C 
ATOM     10  O   UNL     1     131.846 141.341 129.347  1.00  0.00    -0.550 OA
ATOM     11  O   UNL     1     131.614 143.621 129.383  1.00  0.00    -0.550 OA
ENDBRANCH   8   9
ENDBRANCH   7   8
ENDBRANCH   6   7
ENDBRANCH   5   6
ENDBRANCH   4   5
ENDBRANCH   3   4
ENDBRANCH   2   3
ENDBRANCH   1   2
BRANCH   1  12
ATOM     12  C   UNL     1     132.729 143.739 138.170  1.00  0.00     0.000 C 
BRANCH  12  13
ATOM     13  C   UNL     1     131.290 143.511 138.649  1.00  0.00    -0.000 C 
BRANCH  13  14
ATOM     14  C   UNL     1     131.263 143.020 140.103  1.00  0.00    -0.000 C 
BRANCH  14  15
ATOM     15  C   UNL     1     130.537 141.672 140.271  1.00  0.00    -0.000 C 
BRANCH  15  16
ATOM     16  C   UNL     1     129.517 141.333 139.167  1.00  0.00    -0.000 C 
BRANCH  16  17
ATOM     17  C   UNL     1     129.239 139.825 139.049  1.00  0.00    -0.000 C 
BRANCH  17  18
ATOM     18  C   UNL     1     129.992 138.994 140.103  1.00  0.00    -0.000 C 
BRANCH  18  19
ATOM     19  C   UNL     1     129.115 138.027 140.919  1.00  0.00    -0.003 C 
ATOM     20  C   UNL     1     128.245 137.125 140.045  1.00  0.00     0.004 C 
ENDBRANCH  18  19
ENDBRANCH  17  18
ENDBRANCH  16  17
ENDBRANCH  15  16
ENDBRANCH  14  15
ENDBRANCH  13  14
ENDBRANCH  12  13
ENDBRANCH   1  12
TORSDOF 16
ENDMDL
MODEL 2
REMARK VINA RESULT:    -3.895      5.535      7.058
REMARK INTER + INTRA:          -8.833
REMARK INTER:                  -6.614
REMARK INTRA:                  -2.219
REMARK UNBOUND:                -1.295
REMARK SMILES CCCCCCCCCCCCCCCCCC(=O)[O-]
REMARK SMILES IDX 10 1 11 2 12 3 13 4 14 5 15 6 16 7 17 8 18 9 19 10 20 11
REMARK SMILES IDX 9 12 8 13 7 14 6 15 5 16 4 17 3 18 2 19 1 20
REMARK H PARENT
REMARK Flexibility Score: inf
ROOT
ATOM      1  C   UNL     1     132.786 144.638 140.698  1.00  0.00     0.000 C 
ENDROOT
BRANCH   1   2
ATOM      2  C   UNL     1     131.710 144.372 139.634  1.00  0.00     0.000 C 
BRANCH   2   3
ATOM      3  C   UNL     1     132.253 143.611 138.413  1.00  0.00     0.000 C 
BRANCH   3   4
ATOM      4  C   UNL     1     132.217 142.080 138.614  1.00  0.00     0.000 C 
BRANCH   4   5
ATOM      5  C   UNL     1     130.959 141.412 138.029  1.00  0.00     0.000 C 
BRANCH   5   6
ATOM      6  C   UNL     1     129.793 141.247 139.022  1.00  0.00     0.000 C 
BRANCH   6   7
ATOM      7  C   UNL     1     129.860 139.984 139.900  1.00  0.00     0.006 C 
BRANCH   7   8
ATOM      8  C   UNL     1     129.204 138.761 139.245  1.00  0.00     0.053 C 
BRANCH   8   9
ATOM      9  C   UNL     1     128.707 137.810 140.289  1.00  0.00     0.041 C 
ATOM     10  O   UNL     1     129.521 137.210 141.038  1.00  0.00    -0.550 OA
ATOM     11  O   UNL     1     127.341 137.628 140.467  1.00  0.00    -0.550 OA
ENDBRANCH   8   9
ENDBRANCH   7   8
ENDBRANCH   6   7
ENDBRANCH   5   6
ENDBRANCH   4   5
ENDBRANCH   3   4
ENDBRANCH   2   3
ENDBRANCH   1   2
BRANCH   1  12
ATOM     12  C   UNL     1     132.539 143.865 142.003  1.00  0.00     0.000 C 
BRANCH  12  13
ATOM     13  C   UNL     1     131.154 143.205 141.994  1.00  0.00    -0.000 C 
BRANCH  13  14
ATOM     14  C   UNL     1     131.132 141.956 142.887  1.00  0.00    -0.000 C 
BRANCH  14  15
ATOM     15  C   UNL     1     132.318 141.009 142.629  1.00  0.00    -0.000 C 
BRANCH  15  16
ATOM     16  C   UNL     1     132.102 139.550 143.074  1.00  0.00    -0.000 C 
BRANCH  16  17
ATOM     17  C   UNL     1     130.662 139.270 143.535  1.00  0.00    -0.000 C 
BRANCH  17  18
ATOM     18  C   UNL     1     130.598 138.366 144.779  1.00  0.00    -0.000 C 
BRANCH  18  19
ATOM     19  C   UNL     1     130.137 139.065 146.071  1.00  0.00    -0.003 C 
ATOM     20  C   UNL     1     129.422 140.390 145.812  1.00  0.00     0.004 C 
ENDBRANCH  18  19
ENDBRANCH  17  18
ENDBRANCH  16  17
ENDBRANCH  15  16
ENDBRANCH  14  15
ENDBRANCH  13  14
ENDBRANCH  12  13
ENDBRANCH   1  12
TORSDOF 16
ENDMDL
MODEL 3
REMARK VINA RESULT:    -3.845      5.909      8.486
REMARK INTER + INTRA:          -8.736
REMARK INTER:                  -6.153
REMARK INTRA:                  -2.583
REMARK UNBOUND:                -1.295
REMARK SMILES CCCCCCCCCCCCCCCCCC(=O)[O-]
REMARK SMILES IDX 10 1 11 2 12 3 13 4 14 5 15 6 16 7 17 8 18 9 19 10 20 11
REMARK SMILES IDX 9 12 8 13 7 14 6 15 5 16 4 17 3 18 2 19 1 20
REMARK H PARENT
REMARK Flexibility Score: inf
ROOT
ATOM      1  C   UNL     1     131.308 141.961 137.873  1.00  0.00     0.000 C 
ENDROOT
BRANCH   1   2
ATOM      2  C   UNL     1     129.783 141.931 138.062  1.00  0.00     0.000 C 
BRANCH   2   3
ATOM      3  C   UNL     1     129.339 140.960 139.169  1.00  0.00     0.000 C 
BRANCH   3   4
ATOM      4  C   UNL     1     129.974 139.562 139.011  1.00  0.00     0.000 C 
BRANCH   4   5
ATOM      5  C   UNL     1     128.976 138.406 139.207  1.00  0.00     0.000 C 
BRANCH   5   6
ATOM      6  C   UNL     1     128.707 138.024 140.675  1.00  0.00     0.000 C 
BRANCH   6   7
ATOM      7  C   UNL     1     129.899 137.382 141.408  1.00  0.00     0.006 C 
BRANCH   7   8
ATOM      8  C   UNL     1     130.498 138.288 142.492  1.00  0.00     0.053 C 
BRANCH   8   9
ATOM      9  C   UNL     1     131.187 137.470 143.539  1.00  0.00     0.041 C 
ATOM     10  O   UNL     1     132.144 136.716 143.225  1.00  0.00    -0.550 OA
ATOM     11  O   UNL     1     130.804 137.583 144.871  1.00  0.00    -0.550 OA
ENDBRANCH   8   9
ENDBRANCH   7   8
ENDBRANCH   6   7
ENDBRANCH   5   6
ENDBRANCH   4   5
ENDBRANCH   3   4
ENDBRANCH   2   3
ENDBRANCH   1   2
BRANCH   1  12
ATOM     12  C   UNL     1     131.873 143.389 137.812  1.00  0.00     0.000 C 
BRANCH  12  13
ATOM     13  C   UNL     1     133.357 143.407 138.198  1.00  0.00    -0.000 C 
BRANCH  13  14
ATOM     14  C   UNL     1     133.597 144.296 139.428  1.00  0.00    -0.000 C 
BRANCH  14  15
ATOM     15  C   UNL     1     132.292 144.735 140.118  1.00  0.00    -0.000 C 
BRANCH  15  16
ATOM     16  C   UNL     1     132.086 144.184 141.542  1.00  0.00    -0.000 C 
BRANCH  16  17
ATOM     17  C   UNL     1     131.305 142.860 141.566  1.00  0.00    -0.000 C 
BRANCH  17  18
ATOM     18  C   UNL     1     132.161 141.669 142.035  1.00  0.00    -0.000 C 
BRANCH  18  19
ATOM     19  C   UNL     1     132.782 140.828 140.906  1.00  0.00    -0.003 C 
ATOM     20  C   UNL     1     134.308 140.782 140.963  1.00  0.00     0.004 C 
ENDBRANCH  18  19
ENDBRANCH  17  18
ENDBRANCH  16  17
ENDBRANCH  15  16
ENDBRANCH  14  15
ENDBRANCH  13  14
ENDBRANCH  12  13
ENDBRANCH   1  12
TORSDOF 16
ENDMDL
MODEL 4
REMARK VINA RESULT:    -3.822      5.562      7.626
REMARK INTER + INTRA:          -8.691
REMARK INTER:                  -5.800
REMARK INTRA:                  -2.891
REMARK UNBOUND:                -1.295
REMARK SMILES CCCCCCCCCCCCCCCCCC(=O)[O-]
REMARK SMILES IDX 10 1 11 2 12 3 13 4 14 5 15 6 16 7 17 8 18 9 19 10 20 11
REMARK SMILES IDX 9 12 8 13 7 14 6 15 5 16 4 17 3 18 2 19 1 20
REMARK H PARENT
REMARK Flexibility Score: inf
ROOT
ATOM      1  C   UNL     1     131.587 143.860 140.572  1.00  0.00     0.000 C 
ENDROOT
BRANCH   1   2
ATOM      2  C   UNL     1     131.500 143.683 139.048  1.00  0.00     0.000 C 
BRANCH   2   3
ATOM      3  C   UNL     1     130.787 142.383 138.639  1.00  0.00     0.000 C 
BRANCH   3   4
ATOM      4  C   UNL     1     131.696 141.455 137.803  1.00  0.00     0.000 C 
BRANCH   4   5
ATOM      5  C   UNL     1     131.305 139.969 137.889  1.00  0.00     0.000 C 
BRANCH   5   6
ATOM      6  C   UNL     1     130.843 139.500 139.282  1.00  0.00     0.000 C 
BRANCH   6   7
ATOM      7  C   UNL     1     129.387 139.003 139.351  1.00  0.00     0.006 C 
BRANCH   7   8
ATOM      8  C   UNL     1     129.055 138.294 140.671  1.00  0.00     0.053 C 
BRANCH   8   9
ATOM      9  C   UNL     1     128.276 137.043 140.414  1.00  0.00     0.041 C 
ATOM     10  O   UNL     1     127.050 137.106 140.137  1.00  0.00    -0.550 OA
ATOM     11  O   UNL     1     128.919 135.810 140.427  1.00  0.00    -0.550 OA
ENDBRANCH   8   9
ENDBRANCH   7   8
ENDBRANCH   6   7
ENDBRANCH   5   6
ENDBRANCH   4   5
ENDBRANCH   3   4
ENDBRANCH   2   3
ENDBRANCH   1   2
BRANCH   1  12
ATOM     12  C   UNL     1     130.799 142.788 141.342  1.00  0.00     0.000 C 
BRANCH  12  13
ATOM     13  C   UNL     1     131.061 142.893 142.850  1.00  0.00    -0.000 C 
BRANCH  13  14
ATOM     14  C   UNL     1     131.476 141.536 143.434  1.00  0.00    -0.000 C 
BRANCH  14  15
ATOM     15  C   UNL     1     131.854 140.505 142.355  1.00  0.00    -0.000 C 
BRANCH  15  16
ATOM     16  C   UNL     1     133.366 140.296 142.147  1.00  0.00    -0.000 C 
BRANCH  16  17
ATOM     17  C   UNL     1     133.869 140.852 140.804  1.00  0.00    -0.000 C 
BRANCH  17  18
ATOM     18  C   UNL     1     134.866 142.014 140.973  1.00  0.00    -0.000 C 
BRANCH  18  19
ATOM     19  C   UNL     1     135.040 142.519 142.416  1.00  0.00    -0.003 C 
ATOM     20  C   UNL     1     134.655 143.987 142.588  1.00  0.00     0.004 C 
ENDBRANCH  18  19
ENDBRANCH  17  18
ENDBRANCH  16  17
ENDBRANCH  15  16
ENDBRANCH  14  15
ENDBRANCH  13  14
ENDBRANCH  12  13
ENDBRANCH   1  12
TORSDOF 16
ENDMDL
MODEL 5
REMARK VINA RESULT:    -3.793      5.953      9.886
REMARK INTER + INTRA:          -8.636
REMARK INTER:                  -6.625
REMARK INTRA:                  -2.012
REMARK UNBOUND:                -1.295
REMARK SMILES CCCCCCCCCCCCCCCCCC(=O)[O-]
REMARK SMILES IDX 10 1 11 2 12 3 13 4 14 5 15 6 16 7 17 8 18 9 19 10 20 11
REMARK SMILES IDX 9 12 8 13 7 14 6 15 5 16 4 17 3 18 2 19 1 20
REMARK H PARENT
REMARK Flexibility Score: inf
ROOT
ATOM      1  C   UNL     1     129.775 140.268 138.570  1.00  0.00     0.000 C 
ENDROOT
BRANCH   1   2
ATOM      2  C   UNL     1     128.738 139.616 139.497  1.00  0.00     0.000 C 
BRANCH   2   3
ATOM      3  C   UNL     1     128.878 138.085 139.567  1.00  0.00     0.000 C 
BRANCH   3   4
ATOM      4  C   UNL     1     129.181 137.590 140.997  1.00  0.00     0.000 C 
BRANCH   4   5
ATOM      5  C   UNL     1     130.417 138.256 141.631  1.00  0.00     0.000 C 
BRANCH   5   6
ATOM      6  C   UNL     1     130.370 138.380 143.166  1.00  0.00     0.000 C 
BRANCH   6   7
ATOM      7  C   UNL     1     131.167 139.562 143.747  1.00  0.00     0.006 C 
BRANCH   7   8
ATOM      8  C   UNL     1     131.102 139.637 145.278  1.00  0.00     0.053 C 
BRANCH   8   9
ATOM      9  C   UNL     1     129.736 140.053 145.726  1.00  0.00     0.041 C 
ATOM     10  O   UNL     1     129.340 141.233 145.539  1.00  0.00    -0.550 OA
ATOM     11  O   UNL     1     128.880 139.120 146.301  1.00  0.00    -0.550 OA
ENDBRANCH   8   9
ENDBRANCH   7   8
ENDBRANCH   6   7
ENDBRANCH   5   6
ENDBRANCH   4   5
ENDBRANCH   3   4
ENDBRANCH   2   3
ENDBRANCH   1   2
BRANCH   1  12
ATOM     12  C   UNL     1     130.400 141.535 139.173  1.00  0.00     0.000 C 
BRANCH  12  13
ATOM     13  C   UNL     1     131.594 141.184 140.070  1.00  0.00    -0.000 C 
BRANCH  13  14
ATOM     14  C   UNL     1     131.792 142.242 141.165  1.00  0.00    -0.000 C 
BRANCH  14  15
ATOM     15  C   UNL     1     131.453 143.668 140.694  1.00  0.00    -0.000 C 
BRANCH  15  16
ATOM     16  C   UNL     1     132.640 144.650 140.665  1.00  0.00    -0.000 C 
BRANCH  16  17
ATOM     17  C   UNL     1     132.992 145.125 139.245  1.00  0.00    -0.000 C 
BRANCH  17  18
ATOM     18  C   UNL     1     133.578 144.004 138.368  1.00  0.00    -0.000 C 
BRANCH  18  19
ATOM     19  C   UNL     1     132.761 143.667 137.108  1.00  0.00    -0.003 C 
ATOM     20  C   UNL     1     133.006 142.247 136.598  1.00  0.00     0.004 C 
ENDBRANCH  18  19
ENDBRANCH  17  18
ENDBRANCH  16  17
ENDBRANCH  15  16
ENDBRANCH  14  15
ENDBRANCH  13  14
ENDBRANCH  12  13
ENDBRANCH   1  12
TORSDOF 16
ENDMDL
MODEL 6
REMARK VINA RESULT:    -3.785      4.212      8.193
REMARK INTER + INTRA:          -8.620
REMARK INTER:                  -7.115
REMARK INTRA:                  -1.505
REMARK UNBOUND:                -1.295
REMARK SMILES CCCCCCCCCCCCCCCCCC(=O)[O-]
REMARK SMILES IDX 10 1 11 2 12 3 13 4 14 5 15 6 16 7 17 8 18 9 19 10 20 11
REMARK SMILES IDX 9 12 8 13 7 14 6 15 5 16 4 17 3 18 2 19 1 20
REMARK H PARENT
REMARK Flexibility Score: inf
ROOT
ATOM      1  C   UNL     1     133.295 144.529 138.835  1.00  0.00     0.000 C 
ENDROOT
BRANCH   1   2
ATOM      2  C   UNL     1     131.888 144.427 139.443  1.00  0.00     0.000 C 
BRANCH   2   3
ATOM      3  C   UNL     1     131.845 143.547 140.704  1.00  0.00     0.000 C 
BRANCH   3   4
ATOM      4  C   UNL     1     130.863 142.364 140.559  1.00  0.00     0.000 C 
BRANCH   4   5
ATOM      5  C   UNL     1     131.391 141.231 139.660  1.00  0.00     0.000 C 
BRANCH   5   6
ATOM      6  C   UNL     1     130.378 140.697 138.630  1.00  0.00     0.000 C 
BRANCH   6   7
ATOM      7  C   UNL     1     129.100 140.083 139.232  1.00  0.00     0.006 C 
BRANCH   7   8
ATOM      8  C   UNL     1     129.036 138.558 139.077  1.00  0.00     0.053 C 
BRANCH   8   9
ATOM      9  C   UNL     1     128.599 137.919 140.357  1.00  0.00     0.041 C 
ATOM     10  O   UNL     1     127.524 137.264 140.405  1.00  0.00    -0.550 OA
ATOM     11  O   UNL     1     129.407 138.002 141.486  1.00  0.00    -0.550 OA
ENDBRANCH   8   9
ENDBRANCH   7   8
ENDBRANCH   6   7
ENDBRANCH   5   6
ENDBRANCH   4   5
ENDBRANCH   3   4
ENDBRANCH   2   3
ENDBRANCH   1   2
BRANCH   1  12
ATOM     12  C   UNL     1     133.299 144.356 137.308  1.00  0.00     0.000 C 
BRANCH  12  13
ATOM     13  C   UNL     1     132.122 143.484 136.853  1.00  0.00    -0.000 C 
BRANCH  13  14
ATOM     14  C   UNL     1     131.773 143.752 135.382  1.00  0.00    -0.000 C 
BRANCH  14  15
ATOM     15  C   UNL     1     132.740 144.740 134.703  1.00  0.00    -0.000 C 
BRANCH  15  16
ATOM     16  C   UNL     1     133.623 144.137 133.594  1.00  0.00    -0.000 C 
BRANCH  16  17
ATOM     17  C   UNL     1     133.722 142.604 133.672  1.00  0.00    -0.000 C 
BRANCH  17  18
ATOM     18  C   UNL     1     133.251 141.907 132.382  1.00  0.00    -0.000 C 
BRANCH  18  19
ATOM     19  C   UNL     1     132.055 142.574 131.681  1.00  0.00    -0.003 C 
ATOM     20  C   UNL     1     131.112 141.570 131.019  1.00  0.00     0.004 C 
ENDBRANCH  18  19
ENDBRANCH  17  18
ENDBRANCH  16  17
ENDBRANCH  15  16
ENDBRANCH  14  15
ENDBRANCH  13  14
ENDBRANCH  12  13
ENDBRANCH   1  12
TORSDOF 16
ENDMDL
MODEL 7
REMARK VINA RESULT:    -3.782      5.132      6.960
REMARK INTER + INTRA:          -8.615
REMARK INTER:                  -5.750
REMARK INTRA:                  -2.865
REMARK UNBOUND:                -1.295
REMARK SMILES CCCCCCCCCCCCCCCCCC(=O)[O-]
REMARK SMILES IDX 10 1 11 2 12 3 13 4 14 5 15 6 16 7 17 8 18 9 19 10 20 11
REMARK SMILES IDX 9 12 8 13 7 14 6 15 5 16 4 17 3 18 2 19 1 20
REMARK H PARENT
REMARK Flexibility Score: inf
ROOT
ATOM      1  C   UNL     1     131.570 142.079 138.175  1.00  0.00     0.000 C 
ENDROOT
BRANCH   1   2
ATOM      2  C   UNL     1     132.102 143.508 138.365  1.00  0.00     0.000 C 
BRANCH   2   3
ATOM      3  C   UNL     1     131.405 144.256 139.514  1.00  0.00     0.000 C 
BRANCH   3   4
ATOM      4  C   UNL     1     132.037 143.940 140.887  1.00  0.00     0.000 C 
BRANCH   4   5
ATOM      5  C   UNL     1     131.099 143.167 141.834  1.00  0.00     0.000 C 
BRANCH   5   6
ATOM      6  C   UNL     1     131.447 141.677 142.015  1.00  0.00     0.000 C 
BRANCH   6   7
ATOM      7  C   UNL     1     132.953 141.356 142.013  1.00  0.00     0.006 C 
BRANCH   7   8
ATOM      8  C   UNL     1     133.375 140.463 140.839  1.00  0.00     0.053 C 
BRANCH   8   9
ATOM      9  C   UNL     1     134.708 140.890 140.308  1.00  0.00     0.041 C 
ATOM     10  O   UNL     1     135.620 140.041 140.126  1.00  0.00    -0.550 OA
ATOM     11  O   UNL     1     134.924 142.220 139.964  1.00  0.00    -0.550 OA
ENDBRANCH   8   9
ENDBRANCH   7   8
ENDBRANCH   6   7
ENDBRANCH   5   6
ENDBRANCH   4   5
ENDBRANCH   3   4
ENDBRANCH   2   3
ENDBRANCH   1   2
BRANCH   1  12
ATOM     12  C   UNL     1     130.044 142.031 137.994  1.00  0.00     0.000 C 
BRANCH  12  13
ATOM     13  C   UNL     1     129.394 141.141 139.061  1.00  0.00    -0.000 C 
BRANCH  13  14
ATOM     14  C   UNL     1     130.079 139.769 139.128  1.00  0.00    -0.000 C 
BRANCH  14  15
ATOM     15  C   UNL     1     129.102 138.621 139.443  1.00  0.00    -0.000 C 
BRANCH  15  16
ATOM     16  C   UNL     1     129.200 138.049 140.870  1.00  0.00    -0.000 C 
BRANCH  16  17
ATOM     17  C   UNL     1     130.619 138.137 141.457  1.00  0.00    -0.000 C 
BRANCH  17  18
ATOM     18  C   UNL     1     130.702 137.617 142.904  1.00  0.00    -0.000 C 
BRANCH  18  19
ATOM     19  C   UNL     1     130.323 138.641 143.988  1.00  0.00    -0.003 C 
ATOM     20  C   UNL     1     131.531 139.177 144.754  1.00  0.00     0.004 C 
ENDBRANCH  18  19
ENDBRANCH  17  18
ENDBRANCH  16  17
ENDBRANCH  15  16
ENDBRANCH  14  15
ENDBRANCH  13  14
ENDBRANCH  12  13
ENDBRANCH   1  12
TORSDOF 16
ENDMDL
MODEL 8
REMARK VINA RESULT:    -3.729      6.128      9.410
REMARK INTER + INTRA:          -8.512
REMARK INTER:                  -5.898
REMARK INTRA:                  -2.614
REMARK UNBOUND:                -1.295
REMARK SMILES CCCCCCCCCCCCCCCCCC(=O)[O-]
REMARK SMILES IDX 10 1 11 2 12 3 13 4 14 5 15 6 16 7 17 8 18 9 19 10 20 11
REMARK SMILES IDX 9 12 8 13 7 14 6 15 5 16 4 17 3 18 2 19 1 20
REMARK H PARENT
REMARK Flexibility Score: inf
ROOT
ATOM      1  C   UNL     1     130.733 141.067 138.441  1.00  0.00     0.000 C 
ENDROOT
BRANCH   1   2
ATOM      2  C   UNL     1     129.699 140.536 139.446  1.00  0.00     0.000 C 
BRANCH   2   3
ATOM      3  C   UNL     1     129.160 139.145 139.068  1.00  0.00     0.000 C 
BRANCH   3   4
ATOM      4  C   UNL     1     129.060 138.205 140.288  1.00  0.00     0.000 C 
BRANCH   4   5
ATOM      5  C   UNL     1     130.317 138.215 141.178  1.00  0.00     0.000 C 
BRANCH   5   6
ATOM      6  C   UNL     1     130.037 138.262 142.692  1.00  0.00     0.000 C 
BRANCH   6   7
ATOM      7  C   UNL     1     131.292 138.263 143.585  1.00  0.00     0.006 C 
BRANCH   7   8
ATOM      8  C   UNL     1     131.097 139.036 144.896  1.00  0.00     0.053 C 
BRANCH   8   9
ATOM      9  C   UNL     1     132.368 139.057 145.687  1.00  0.00     0.041 C 
ATOM     10  O   UNL     1     132.429 138.479 146.803  1.00  0.00    -0.550 OA
ATOM     11  O   UNL     1     133.500 139.672 145.164  1.00  0.00    -0.550 OA
ENDBRANCH   8   9
ENDBRANCH   7   8
ENDBRANCH   6   7
ENDBRANCH   5   6
ENDBRANCH   4   5
ENDBRANCH   3   4
ENDBRANCH   2   3
ENDBRANCH   1   2
BRANCH   1  12
ATOM     12  C   UNL     1     130.225 142.282 137.649  1.00  0.00     0.000 C 
BRANCH  12  13
ATOM     13  C   UNL     1     131.334 143.326 137.475  1.00  0.00    -0.000 C 
BRANCH  13  14
ATOM     14  C   UNL     1     132.244 143.377 138.711  1.00  0.00    -0.000 C 
BRANCH  14  15
ATOM     15  C   UNL     1     131.781 144.404 139.760  1.00  0.00    -0.000 C 
BRANCH  15  16
ATOM     16  C   UNL     1     131.977 143.978 141.227  1.00  0.00    -0.000 C 
BRANCH  16  17
ATOM     17  C   UNL     1     130.912 142.978 141.709  1.00  0.00    -0.000 C 
BRANCH  17  18
ATOM     18  C   UNL     1     131.509 141.816 142.524  1.00  0.00    -0.000 C 
BRANCH  18  19
ATOM     19  C   UNL     1     132.987 141.505 142.230  1.00  0.00    -0.003 C 
ATOM     20  C   UNL     1     133.173 140.469 141.123  1.00  0.00     0.004 C 
ENDBRANCH  18  19
ENDBRANCH  17  18
ENDBRANCH  16  17
ENDBRANCH  15  16
ENDBRANCH  14  15
ENDBRANCH  13  14
ENDBRANCH  12  13
ENDBRANCH   1  12
TORSDOF 16
ENDMDL
MODEL 9
REMARK VINA RESULT:    -3.710      6.225     10.189
REMARK INTER + INTRA:          -8.474
REMARK INTER:                  -6.023
REMARK INTRA:                  -2.451
REMARK UNBOUND:                -1.295
REMARK SMILES CCCCCCCCCCCCCCCCCC(=O)[O-]
REMARK SMILES IDX 10 1 11 2 12 3 13 4 14 5 15 6 16 7 17 8 18 9 19 10 20 11
REMARK SMILES IDX 9 12 8 13 7 14 6 15 5 16 4 17 3 18 2 19 1 20
REMARK H PARENT
REMARK Flexibility Score: inf
ROOT
ATOM      1  C   UNL     1     132.033 139.635 141.153  1.00  0.00     0.000 C 
ENDROOT
BRANCH   1   2
ATOM      2  C   UNL     1     131.631 138.218 141.592  1.00  0.00     0.000 C 
BRANCH   2   3
ATOM      3  C   UNL     1     130.544 138.217 142.681  1.00  0.00     0.000 C 
BRANCH   3   4
ATOM      4  C   UNL     1     131.018 137.531 143.980  1.00  0.00     0.000 C 
BRANCH   4   5
ATOM      5  C   UNL     1     130.581 138.266 145.261  1.00  0.00     0.000 C 
BRANCH   5   6
ATOM      6  C   UNL     1     129.577 139.413 145.038  1.00  0.00     0.000 C 
BRANCH   6   7
ATOM      7  C   UNL     1     129.758 140.625 145.971  1.00  0.00     0.006 C 
BRANCH   7   8
ATOM      8  C   UNL     1     131.187 140.759 146.513  1.00  0.00     0.053 C 
BRANCH   8   9
ATOM      9  C   UNL     1     132.017 141.606 145.600  1.00  0.00     0.041 C 
ATOM     10  O   UNL     1     131.618 142.750 145.259  1.00  0.00    -0.550 OA
ATOM     11  O   UNL     1     133.258 141.151 145.169  1.00  0.00    -0.550 OA
ENDBRANCH   8   9
ENDBRANCH   7   8
ENDBRANCH   6   7
ENDBRANCH   5   6
ENDBRANCH   4   5
ENDBRANCH   3   4
ENDBRANCH   2   3
ENDBRANCH   1   2
BRANCH   1  12
ATOM     12  C   UNL     1     131.491 140.726 142.091  1.00  0.00     0.000 C 
BRANCH  12  13
ATOM     13  C   UNL     1     132.156 142.077 141.801  1.00  0.00    -0.000 C 
BRANCH  13  14
ATOM     14  C   UNL     1     131.107 143.152 141.482  1.00  0.00    -0.000 C 
BRANCH  14  15
ATOM     15  C   UNL     1     131.478 144.012 140.261  1.00  0.00    -0.000 C 
BRANCH  15  16
ATOM     16  C   UNL     1     132.485 143.371 139.287  1.00  0.00    -0.000 C 
BRANCH  16  17
ATOM     17  C   UNL     1     131.933 143.230 137.859  1.00  0.00    -0.000 C 
BRANCH  17  18
ATOM     18  C   UNL     1     130.494 142.684 137.825  1.00  0.00    -0.000 C 
BRANCH  18  19
ATOM     19  C   UNL     1     130.355 141.189 138.165  1.00  0.00    -0.003 C 
ATOM     20  C   UNL     1     129.221 140.901 139.147  1.00  0.00     0.004 C 
ENDBRANCH  18  19
ENDBRANCH  17  18
ENDBRANCH  16  17
ENDBRANCH  15  16
ENDBRANCH  14  15
ENDBRANCH  13  14
ENDBRANCH  12  13
ENDBRANCH   1  12
TORSDOF 16
ENDMDL
