MODEL 1
REMARK VINA RESULT:    -3.539      0.000      0.000
REMARK INTER + INTRA:         -12.820
REMARK INTER:                  -8.919
REMARK INTRA:                  -3.901
REMARK UNBOUND:                -3.901
REMARK SMILES CCCCCCCCCCCCCCCCCCCCCCCCCCCC(=O)[O-]
REMARK SMILES IDX 15 1 16 2 17 3 18 4 19 5 20 6 21 7 22 8 23 9 24 10 25 11
REMARK SMILES IDX 26 12 27 13 28 14 29 15 30 16 14 17 13 18 12 19 11 20 10 21
REMARK SMILES IDX 9 22 8 23 7 24 6 25 5 26 4 27 3 28 2 29 1 30
REMARK H PARENT
REMARK Flexibility Score: inf
ROOT
ATOM      1  C   UNL     1       0.067  13.158  30.947  1.00  0.00     0.000 C 
ENDROOT
BRANCH   1   2
ATOM      2  C   UNL     1       0.479  12.540  32.291  1.00  0.00     0.000 C 
BRANCH   2   3
ATOM      3  C   UNL     1       0.026  13.374  33.498  1.00  0.00     0.000 C 
BRANCH   3   4
ATOM      4  C   UNL     1       0.723  12.905  34.783  1.00  0.00     0.000 C 
BRANCH   4   5
ATOM      5  C   UNL     1       1.901  11.952  34.517  1.00  0.00     0.000 C 
BRANCH   5   6
ATOM      6  C   UNL     1       1.776  10.561  35.165  1.00  0.00     0.000 C 
BRANCH   6   7
ATOM      7  C   UNL     1       1.261   9.490  34.189  1.00  0.00     0.000 C 
BRANCH   7   8
ATOM      8  C   UNL     1       2.338   8.448  33.843  1.00  0.00     0.000 C 
BRANCH   8   9
ATOM      9  C   UNL     1       2.348   8.083  32.348  1.00  0.00     0.000 C 
BRANCH   9  10
ATOM     10  C   UNL     1       1.770   9.213  31.467  1.00  0.00     0.000 C 
BRANCH  10  11
ATOM     11  C   UNL     1       1.775   8.890  29.963  1.00  0.00     0.000 C 
BRANCH  11  12
ATOM     12  C   UNL     1       1.633   7.388  29.673  1.00  0.00     0.006 C 
BRANCH  12  13
ATOM     13  C   UNL     1       2.652   6.897  28.636  1.00  0.00     0.053 C 
BRANCH  13  14
ATOM     14  C   UNL     1       3.300   5.612  29.057  1.00  0.00     0.041 C 
ATOM     15  O   UNL     1       4.555   5.522  29.108  1.00  0.00    -0.550 OA
ATOM     16  O   UNL     1       2.515   4.506  29.362  1.00  0.00    -0.550 OA
ENDBRANCH  13  14
ENDBRANCH  12  13
ENDBRANCH  11  12
ENDBRANCH  10  11
ENDBRANCH   9  10
ENDBRANCH   8   9
ENDBRANCH   7   8
ENDBRANCH   6   7
ENDBRANCH   5   6
ENDBRANCH   4   5
ENDBRANCH   3   4
ENDBRANCH   2   3
ENDBRANCH   1   2
BRANCH   1  17
ATOM     17  C   UNL     1      -0.125  12.109  29.840  1.00  0.00     0.000 C 
BRANCH  17  18
ATOM     18  C   UNL     1       0.939  12.263  28.741  1.00  0.00     0.000 C 
BRANCH  18  19
ATOM     19  C   UNL     1       0.429  13.063  27.524  1.00  0.00     0.000 C 
BRANCH  19  20
ATOM     20  C   UNL     1       1.000  14.492  27.423  1.00  0.00     0.000 C 
BRANCH  20  21
ATOM     21  C   UNL     1       2.481  14.582  27.018  1.00  0.00     0.000 C 
BRANCH  21  22
ATOM     22  C   UNL     1       2.751  14.028  25.611  1.00  0.00    -0.000 C 
BRANCH  22  23
ATOM     23  C   UNL     1       2.205  14.972  24.532  1.00  0.00    -0.000 C 
BRANCH  23  24
ATOM     24  C   UNL     1       1.426  14.189  23.464  1.00  0.00    -0.000 C 
BRANCH  24  25
ATOM     25  C   UNL     1       0.964  12.811  23.960  1.00  0.00    -0.000 C 
BRANCH  25  26
ATOM     26  C   UNL     1       1.337  11.676  22.993  1.00  0.00    -0.000 C 
BRANCH  26  27
ATOM     27  C   UNL     1       1.681  10.394  23.764  1.00  0.00    -0.000 C 
BRANCH  27  28
ATOM     28  C   UNL     1       0.943  10.286  25.111  1.00  0.00    -0.000 C 
BRANCH  28  29
ATOM     29  C   UNL     1       1.780   9.694  26.260  1.00  0.00    -0.003 C 
ATOM     30  C   UNL     1       3.128  10.393  26.441  1.00  0.00     0.004 C 
ENDBRANCH  28  29
ENDBRANCH  27  28
ENDBRANCH  26  27
ENDBRANCH  25  26
ENDBRANCH  24  25
ENDBRANCH  23  24
ENDBRANCH  22  23
ENDBRANCH  21  22
ENDBRANCH  20  21
ENDBRANCH  19  20
ENDBRANCH  18  19
ENDBRANCH  17  18
ENDBRANCH   1  17
TORSDOF 26
ENDMDL
MODEL 2
REMARK VINA RESULT:    -3.374     11.624     15.857
REMARK INTER + INTRA:         -12.404
REMARK INTER:                  -9.734
REMARK INTRA:                  -2.670
REMARK UNBOUND:                -3.901
REMARK SMILES CCCCCCCCCCCCCCCCCCCCCCCCCCCC(=O)[O-]
REMARK SMILES IDX 15 1 16 2 17 3 18 4 19 5 20 6 21 7 22 8 23 9 24 10 25 11
REMARK SMILES IDX 26 12 27 13 28 14 29 15 30 16 14 17 13 18 12 19 11 20 10 21
REMARK SMILES IDX 9 22 8 23 7 24 6 25 5 26 4 27 3 28 2 29 1 30
REMARK H PARENT
REMARK Flexibility Score: inf
ROOT
ATOM      1  C   UNL     1      10.553  19.156  17.735  1.00  0.00     0.000 C 
ENDROOT
BRANCH   1   2
ATOM      2  C   UNL     1      10.451  20.131  16.552  1.00  0.00     0.000 C 
BRANCH   2   3
ATOM      3  C   UNL     1      11.816  20.670  16.101  1.00  0.00     0.000 C 
BRANCH   3   4
ATOM      4  C   UNL     1      11.952  22.165  16.428  1.00  0.00     0.000 C 
BRANCH   4   5
ATOM      5  C   UNL     1      12.892  22.440  17.614  1.00  0.00     0.000 C 
BRANCH   5   6
ATOM      6  C   UNL     1      12.194  22.897  18.908  1.00  0.00     0.000 C 
BRANCH   6   7
ATOM      7  C   UNL     1      11.850  21.728  19.846  1.00  0.00     0.000 C 
BRANCH   7   8
ATOM      8  C   UNL     1      12.021  22.098  21.329  1.00  0.00     0.000 C 
BRANCH   8   9
ATOM      9  C   UNL     1      10.677  22.379  22.026  1.00  0.00     0.000 C 
BRANCH   9  10
ATOM     10  C   UNL     1       9.596  21.342  21.651  1.00  0.00     0.000 C 
BRANCH  10  11
ATOM     11  C   UNL     1       8.175  21.926  21.577  1.00  0.00     0.000 C 
BRANCH  11  12
ATOM     12  C   UNL     1       7.210  21.279  22.583  1.00  0.00     0.006 C 
BRANCH  12  13
ATOM     13  C   UNL     1       5.879  20.876  21.935  1.00  0.00     0.053 C 
BRANCH  13  14
ATOM     14  C   UNL     1       4.823  20.594  22.962  1.00  0.00     0.041 C 
ATOM     15  O   UNL     1       4.932  19.600  23.727  1.00  0.00    -0.550 OA
ATOM     16  O   UNL     1       3.703  21.413  23.049  1.00  0.00    -0.550 OA
ENDBRANCH  13  14
ENDBRANCH  12  13
ENDBRANCH  11  12
ENDBRANCH  10  11
ENDBRANCH   9  10
ENDBRANCH   8   9
ENDBRANCH   7   8
ENDBRANCH   6   7
ENDBRANCH   5   6
ENDBRANCH   4   5
ENDBRANCH   3   4
ENDBRANCH   2   3
ENDBRANCH   1   2
BRANCH   1  17
ATOM     17  C   UNL     1       9.190  18.852  18.377  1.00  0.00     0.000 C 
BRANCH  17  18
ATOM     18  C   UNL     1       8.287  20.096  18.376  1.00  0.00     0.000 C 
BRANCH  18  19
ATOM     19  C   UNL     1       6.789  19.747  18.501  1.00  0.00     0.000 C 
BRANCH  19  20
ATOM     20  C   UNL     1       5.944  20.142  17.273  1.00  0.00     0.000 C 
BRANCH  20  21
ATOM     21  C   UNL     1       4.737  19.234  16.986  1.00  0.00     0.000 C 
BRANCH  21  22
ATOM     22  C   UNL     1       3.532  19.536  17.890  1.00  0.00    -0.000 C 
BRANCH  22  23
ATOM     23  C   UNL     1       3.263  18.377  18.857  1.00  0.00    -0.000 C 
BRANCH  23  24
ATOM     24  C   UNL     1       1.860  17.793  18.635  1.00  0.00    -0.000 C 
BRANCH  24  25
ATOM     25  C   UNL     1       1.879  16.270  18.432  1.00  0.00    -0.000 C 
BRANCH  25  26
ATOM     26  C   UNL     1       2.918  15.823  17.392  1.00  0.00    -0.000 C 
BRANCH  26  27
ATOM     27  C   UNL     1       2.363  14.686  16.522  1.00  0.00    -0.000 C 
BRANCH  27  28
ATOM     28  C   UNL     1       2.300  13.338  17.262  1.00  0.00    -0.000 C 
BRANCH  28  29
ATOM     29  C   UNL     1       0.985  12.560  17.076  1.00  0.00    -0.003 C 
ATOM     30  C   UNL     1       0.326  12.172  18.400  1.00  0.00     0.004 C 
ENDBRANCH  28  29
ENDBRANCH  27  28
ENDBRANCH  26  27
ENDBRANCH  25  26
ENDBRANCH  24  25
ENDBRANCH  23  24
ENDBRANCH  22  23
ENDBRANCH  21  22
ENDBRANCH  20  21
ENDBRANCH  19  20
ENDBRANCH  18  19
ENDBRANCH  17  18
ENDBRANCH   1  17
TORSDOF 26
ENDMDL
MODEL 3
REMARK VINA RESULT:    -3.353      5.564     10.426
REMARK INTER + INTRA:         -12.350
REMARK INTER:                  -8.675
REMARK INTRA:                  -3.675
REMARK UNBOUND:                -3.901
REMARK SMILES CCCCCCCCCCCCCCCCCCCCCCCCCCCC(=O)[O-]
REMARK SMILES IDX 15 1 16 2 17 3 18 4 19 5 20 6 21 7 22 8 23 9 24 10 25 11
REMARK SMILES IDX 26 12 27 13 28 14 29 15 30 16 14 17 13 18 12 19 11 20 10 21
REMARK SMILES IDX 9 22 8 23 7 24 6 25 5 26 4 27 3 28 2 29 1 30
REMARK H PARENT
REMARK Flexibility Score: inf
ROOT
ATOM      1  C   UNL     1       7.841   6.339  34.007  1.00  0.00     0.000 C 
ENDROOT
BRANCH   1   2
ATOM      2  C   UNL     1       8.986   7.354  33.868  1.00  0.00     0.000 C 
BRANCH   2   3
ATOM      3  C   UNL     1      10.371   6.692  33.838  1.00  0.00     0.000 C 
BRANCH   3   4
ATOM      4  C   UNL     1      10.619   5.878  35.117  1.00  0.00     0.000 C 
BRANCH   4   5
ATOM      5  C   UNL     1      11.046   4.427  34.835  1.00  0.00     0.000 C 
BRANCH   5   6
ATOM      6  C   UNL     1      10.742   3.922  33.413  1.00  0.00     0.000 C 
BRANCH   6   7
ATOM      7  C   UNL     1      12.012   3.594  32.610  1.00  0.00     0.000 C 
BRANCH   7   8
ATOM      8  C   UNL     1      11.873   3.959  31.122  1.00  0.00     0.000 C 
BRANCH   8   9
ATOM      9  C   UNL     1      10.604   4.780  30.831  1.00  0.00     0.000 C 
BRANCH   9  10
ATOM     10  C   UNL     1       9.629   4.036  29.893  1.00  0.00     0.000 C 
BRANCH  10  11
ATOM     11  C   UNL     1       8.148   4.356  30.158  1.00  0.00     0.000 C 
BRANCH  11  12
ATOM     12  C   UNL     1       7.212   3.795  29.076  1.00  0.00     0.006 C 
BRANCH  12  13
ATOM     13  C   UNL     1       5.733   3.917  29.465  1.00  0.00     0.053 C 
BRANCH  13  14
ATOM     14  C   UNL     1       5.107   5.153  28.894  1.00  0.00     0.041 C 
ATOM     15  O   UNL     1       3.950   5.500  29.249  1.00  0.00    -0.550 OA
ATOM     16  O   UNL     1       5.792   5.904  27.945  1.00  0.00    -0.550 OA
ENDBRANCH  13  14
ENDBRANCH  12  13
ENDBRANCH  11  12
ENDBRANCH  10  11
ENDBRANCH   9  10
ENDBRANCH   8   9
ENDBRANCH   7   8
ENDBRANCH   6   7
ENDBRANCH   5   6
ENDBRANCH   4   5
ENDBRANCH   3   4
ENDBRANCH   2   3
ENDBRANCH   1   2
BRANCH   1  17
ATOM     17  C   UNL     1       7.144   6.410  35.375  1.00  0.00     0.000 C 
BRANCH  17  18
ATOM     18  C   UNL     1       6.987   5.009  35.990  1.00  0.00     0.000 C 
BRANCH  18  19
ATOM     19  C   UNL     1       6.832   3.903  34.925  1.00  0.00     0.000 C 
BRANCH  19  20
ATOM     20  C   UNL     1       5.379   3.670  34.463  1.00  0.00     0.000 C 
BRANCH  20  21
ATOM     21  C   UNL     1       5.082   4.056  33.004  1.00  0.00     0.000 C 
BRANCH  21  22
ATOM     22  C   UNL     1       3.812   4.907  32.857  1.00  0.00    -0.000 C 
BRANCH  22  23
ATOM     23  C   UNL     1       4.063   6.355  33.293  1.00  0.00    -0.000 C 
BRANCH  23  24
ATOM     24  C   UNL     1       3.194   6.720  34.507  1.00  0.00    -0.000 C 
BRANCH  24  25
ATOM     25  C   UNL     1       3.763   7.900  35.308  1.00  0.00    -0.000 C 
BRANCH  25  26
ATOM     26  C   UNL     1       2.793   9.090  35.382  1.00  0.00    -0.000 C 
BRANCH  26  27
ATOM     27  C   UNL     1       2.765   9.853  34.050  1.00  0.00    -0.000 C 
BRANCH  27  28
ATOM     28  C   UNL     1       3.038  11.360  34.213  1.00  0.00    -0.000 C 
BRANCH  28  29
ATOM     29  C   UNL     1       1.782  12.251  34.185  1.00  0.00    -0.003 C 
ATOM     30  C   UNL     1       0.764  11.817  33.130  1.00  0.00     0.004 C 
ENDBRANCH  28  29
ENDBRANCH  27  28
ENDBRANCH  26  27
ENDBRANCH  25  26
ENDBRANCH  24  25
ENDBRANCH  23  24
ENDBRANCH  22  23
ENDBRANCH  21  22
ENDBRANCH  20  21
ENDBRANCH  19  20
ENDBRANCH  18  19
ENDBRANCH  17  18
ENDBRANCH   1  17
TORSDOF 26
ENDMDL
MODEL 4
REMARK VINA RESULT:    -3.339      9.031     13.016
REMARK INTER + INTRA:         -12.315
REMARK INTER:                  -8.450
REMARK INTRA:                  -3.865
REMARK UNBOUND:                -3.901
REMARK SMILES CCCCCCCCCCCCCCCCCCCCCCCCCCCC(=O)[O-]
REMARK SMILES IDX 15 1 16 2 17 3 18 4 19 5 20 6 21 7 22 8 23 9 24 10 25 11
REMARK SMILES IDX 26 12 27 13 28 14 29 15 30 16 14 17 13 18 12 19 11 20 10 21
REMARK SMILES IDX 9 22 8 23 7 24 6 25 5 26 4 27 3 28 2 29 1 30
REMARK H PARENT
REMARK Flexibility Score: inf
ROOT
ATOM      1  C   UNL     1       2.366  17.045  22.617  1.00  0.00     0.000 C 
ENDROOT
BRANCH   1   2
ATOM      2  C   UNL     1       3.240  17.695  23.701  1.00  0.00     0.000 C 
BRANCH   2   3
ATOM      3  C   UNL     1       2.782  19.115  24.066  1.00  0.00     0.000 C 
BRANCH   3   4
ATOM      4  C   UNL     1       3.902  20.135  23.812  1.00  0.00     0.000 C 
BRANCH   4   5
ATOM      5  C   UNL     1       4.151  20.397  22.316  1.00  0.00     0.000 C 
BRANCH   5   6
ATOM      6  C   UNL     1       2.960  21.004  21.553  1.00  0.00     0.000 C 
BRANCH   6   7
ATOM      7  C   UNL     1       2.659  20.272  20.234  1.00  0.00     0.000 C 
BRANCH   7   8
ATOM      8  C   UNL     1       3.857  19.446  19.737  1.00  0.00     0.000 C 
BRANCH   8   9
ATOM      9  C   UNL     1       3.746  19.083  18.245  1.00  0.00     0.000 C 
BRANCH   9  10
ATOM     10  C   UNL     1       4.382  20.156  17.334  1.00  0.00     0.000 C 
BRANCH  10  11
ATOM     11  C   UNL     1       5.569  19.640  16.503  1.00  0.00     0.000 C 
BRANCH  11  12
ATOM     12  C   UNL     1       6.913  20.238  16.944  1.00  0.00     0.006 C 
BRANCH  12  13
ATOM     13  C   UNL     1       7.359  19.717  18.317  1.00  0.00     0.053 C 
BRANCH  13  14
ATOM     14  C   UNL     1       8.727  19.106  18.263  1.00  0.00     0.041 C 
ATOM     15  O   UNL     1       9.633  19.510  19.039  1.00  0.00    -0.550 OA
ATOM     16  O   UNL     1       9.008  18.112  17.333  1.00  0.00    -0.550 OA
ENDBRANCH  13  14
ENDBRANCH  12  13
ENDBRANCH  11  12
ENDBRANCH  10  11
ENDBRANCH   9  10
ENDBRANCH   8   9
ENDBRANCH   7   8
ENDBRANCH   6   7
ENDBRANCH   5   6
ENDBRANCH   4   5
ENDBRANCH   3   4
ENDBRANCH   2   3
ENDBRANCH   1   2
BRANCH   1  17
ATOM     17  C   UNL     1       1.007  17.741  22.448  1.00  0.00     0.000 C 
BRANCH  17  18
ATOM     18  C   UNL     1       0.413  17.467  21.057  1.00  0.00     0.000 C 
BRANCH  18  19
ATOM     19  C   UNL     1       1.050  16.244  20.366  1.00  0.00     0.000 C 
BRANCH  19  20
ATOM     20  C   UNL     1       1.309  16.433  18.857  1.00  0.00     0.000 C 
BRANCH  20  21
ATOM     21  C   UNL     1       2.492  15.633  18.286  1.00  0.00     0.000 C 
BRANCH  21  22
ATOM     22  C   UNL     1       2.619  15.760  16.761  1.00  0.00    -0.000 C 
BRANCH  22  23
ATOM     23  C   UNL     1       1.930  14.588  16.050  1.00  0.00    -0.000 C 
BRANCH  23  24
ATOM     24  C   UNL     1       2.026  13.306  16.890  1.00  0.00    -0.000 C 
BRANCH  24  25
ATOM     25  C   UNL     1       0.939  12.281  16.532  1.00  0.00    -0.000 C 
BRANCH  25  26
ATOM     26  C   UNL     1       0.170  11.775  17.762  1.00  0.00    -0.000 C 
BRANCH  26  27
ATOM     27  C   UNL     1       0.286  12.772  18.925  1.00  0.00    -0.000 C 
BRANCH  27  28
ATOM     28  C   UNL     1      -0.067  12.150  20.288  1.00  0.00    -0.000 C 
BRANCH  28  29
ATOM     29  C   UNL     1       0.677  12.762  21.489  1.00  0.00    -0.003 C 
ATOM     30  C   UNL     1       0.995  11.740  22.580  1.00  0.00     0.004 C 
ENDBRANCH  28  29
ENDBRANCH  27  28
ENDBRANCH  26  27
ENDBRANCH  25  26
ENDBRANCH  24  25
ENDBRANCH  23  24
ENDBRANCH  22  23
ENDBRANCH  21  22
ENDBRANCH  20  21
ENDBRANCH  19  20
ENDBRANCH  18  19
ENDBRANCH  17  18
ENDBRANCH   1  17
TORSDOF 26
ENDMDL
MODEL 5
REMARK VINA RESULT:    -3.333     11.425     16.304
REMARK INTER + INTRA:         -12.301
REMARK INTER:                  -8.808
REMARK INTRA:                  -3.493
REMARK UNBOUND:                -3.901
REMARK SMILES CCCCCCCCCCCCCCCCCCCCCCCCCCCC(=O)[O-]
REMARK SMILES IDX 15 1 16 2 17 3 18 4 19 5 20 6 21 7 22 8 23 9 24 10 25 11
REMARK SMILES IDX 26 12 27 13 28 14 29 15 30 16 14 17 13 18 12 19 11 20 10 21
REMARK SMILES IDX 9 22 8 23 7 24 6 25 5 26 4 27 3 28 2 29 1 30
REMARK H PARENT
REMARK Flexibility Score: inf
ROOT
ATOM      1  C   UNL     1       7.428  19.634  17.892  1.00  0.00     0.000 C 
ENDROOT
BRANCH   1   2
ATOM      2  C   UNL     1       8.628  18.994  17.177  1.00  0.00     0.000 C 
BRANCH   2   3
ATOM      3  C   UNL     1       9.970  19.324  17.847  1.00  0.00     0.000 C 
BRANCH   3   4
ATOM      4  C   UNL     1      10.951  19.941  16.839  1.00  0.00     0.000 C 
BRANCH   4   5
ATOM      5  C   UNL     1      10.425  21.240  16.204  1.00  0.00     0.000 C 
BRANCH   5   6
ATOM      6  C   UNL     1      11.348  22.462  16.358  1.00  0.00     0.000 C 
BRANCH   6   7
ATOM      7  C   UNL     1      12.677  22.124  17.054  1.00  0.00     0.000 C 
BRANCH   7   8
ATOM      8  C   UNL     1      12.825  22.835  18.410  1.00  0.00     0.000 C 
BRANCH   8   9
ATOM      9  C   UNL     1      12.039  22.133  19.533  1.00  0.00     0.000 C 
BRANCH   9  10
ATOM     10  C   UNL     1      10.860  22.990  20.044  1.00  0.00     0.000 C 
BRANCH  10  11
ATOM     11  C   UNL     1       9.478  22.440  19.652  1.00  0.00     0.000 C 
BRANCH  11  12
ATOM     12  C   UNL     1       8.849  21.566  20.747  1.00  0.00     0.006 C 
BRANCH  12  13
ATOM     13  C   UNL     1       7.319  21.683  20.779  1.00  0.00     0.053 C 
BRANCH  13  14
ATOM     14  C   UNL     1       6.758  21.284  22.111  1.00  0.00     0.041 C 
ATOM     15  O   UNL     1       7.380  21.562  23.170  1.00  0.00    -0.550 OA
ATOM     16  O   UNL     1       5.564  20.575  22.177  1.00  0.00    -0.550 OA
ENDBRANCH  13  14
ENDBRANCH  12  13
ENDBRANCH  11  12
ENDBRANCH  10  11
ENDBRANCH   9  10
ENDBRANCH   8   9
ENDBRANCH   7   8
ENDBRANCH   6   7
ENDBRANCH   5   6
ENDBRANCH   4   5
ENDBRANCH   3   4
ENDBRANCH   2   3
ENDBRANCH   1   2
BRANCH   1  17
ATOM     17  C   UNL     1       6.895  20.879  17.167  1.00  0.00     0.000 C 
BRANCH  17  18
ATOM     18  C   UNL     1       5.370  20.806  16.989  1.00  0.00     0.000 C 
BRANCH  18  19
ATOM     19  C   UNL     1       4.599  21.299  18.232  1.00  0.00     0.000 C 
BRANCH  19  20
ATOM     20  C   UNL     1       3.951  20.173  19.061  1.00  0.00     0.000 C 
BRANCH  20  21
ATOM     21  C   UNL     1       3.724  18.850  18.311  1.00  0.00     0.000 C 
BRANCH  21  22
ATOM     22  C   UNL     1       2.418  18.837  17.503  1.00  0.00    -0.000 C 
BRANCH  22  23
ATOM     23  C   UNL     1       2.643  18.258  16.100  1.00  0.00    -0.000 C 
BRANCH  23  24
ATOM     24  C   UNL     1       3.456  16.957  16.168  1.00  0.00    -0.000 C 
BRANCH  24  25
ATOM     25  C   UNL     1       2.603  15.711  15.888  1.00  0.00    -0.000 C 
BRANCH  25  26
ATOM     26  C   UNL     1       2.270  14.919  17.162  1.00  0.00    -0.000 C 
BRANCH  26  27
ATOM     27  C   UNL     1       2.486  13.415  16.941  1.00  0.00    -0.000 C 
BRANCH  27  28
ATOM     28  C   UNL     1       1.170  12.617  16.912  1.00  0.00    -0.000 C 
BRANCH  28  29
ATOM     29  C   UNL     1       0.121  13.063  17.947  1.00  0.00    -0.003 C 
ATOM     30  C   UNL     1       0.317  12.414  19.317  1.00  0.00     0.004 C 
ENDBRANCH  28  29
ENDBRANCH  27  28
ENDBRANCH  26  27
ENDBRANCH  25  26
ENDBRANCH  24  25
ENDBRANCH  23  24
ENDBRANCH  22  23
ENDBRANCH  21  22
ENDBRANCH  20  21
ENDBRANCH  19  20
ENDBRANCH  18  19
ENDBRANCH  17  18
ENDBRANCH   1  17
TORSDOF 26
ENDMDL
MODEL 6
REMARK VINA RESULT:    -3.314      4.908      9.703
REMARK INTER + INTRA:         -12.252
REMARK INTER:                  -8.745
REMARK INTRA:                  -3.507
REMARK UNBOUND:                -3.901
REMARK SMILES CCCCCCCCCCCCCCCCCCCCCCCCCCCC(=O)[O-]
REMARK SMILES IDX 15 1 16 2 17 3 18 4 19 5 20 6 21 7 22 8 23 9 24 10 25 11
REMARK SMILES IDX 26 12 27 13 28 14 29 15 30 16 14 17 13 18 12 19 11 20 10 21
REMARK SMILES IDX 9 22 8 23 7 24 6 25 5 26 4 27 3 28 2 29 1 30
REMARK H PARENT
REMARK Flexibility Score: inf
ROOT
ATOM      1  C   UNL     1       8.549   6.857  33.928  1.00  0.00     0.000 C 
ENDROOT
BRANCH   1   2
ATOM      2  C   UNL     1      10.052   6.551  34.018  1.00  0.00     0.000 C 
BRANCH   2   3
ATOM      3  C   UNL     1      10.377   5.444  35.031  1.00  0.00     0.000 C 
BRANCH   3   4
ATOM      4  C   UNL     1      10.622   4.104  34.320  1.00  0.00     0.000 C 
BRANCH   4   5
ATOM      5  C   UNL     1      11.613   4.215  33.148  1.00  0.00     0.000 C 
BRANCH   5   6
ATOM      6  C   UNL     1      11.143   3.568  31.833  1.00  0.00     0.000 C 
BRANCH   6   7
ATOM      7  C   UNL     1      10.525   4.581  30.854  1.00  0.00     0.000 C 
BRANCH   7   8
ATOM      8  C   UNL     1       9.109   4.177  30.410  1.00  0.00     0.000 C 
BRANCH   8   9
ATOM      9  C   UNL     1       8.098   4.200  31.571  1.00  0.00     0.000 C 
BRANCH   9  10
ATOM     10  C   UNL     1       6.677   3.803  31.115  1.00  0.00     0.000 C 
BRANCH  10  11
ATOM     11  C   UNL     1       5.934   4.919  30.361  1.00  0.00     0.000 C 
BRANCH  11  12
ATOM     12  C   UNL     1       5.462   4.485  28.964  1.00  0.00     0.006 C 
BRANCH  12  13
ATOM     13  C   UNL     1       5.919   5.458  27.868  1.00  0.00     0.053 C 
BRANCH  13  14
ATOM     14  C   UNL     1       4.835   6.423  27.493  1.00  0.00     0.041 C 
ATOM     15  O   UNL     1       3.627   6.068  27.538  1.00  0.00    -0.550 OA
ATOM     16  O   UNL     1       5.163   7.703  27.063  1.00  0.00    -0.550 OA
ENDBRANCH  13  14
ENDBRANCH  12  13
ENDBRANCH  11  12
ENDBRANCH  10  11
ENDBRANCH   9  10
ENDBRANCH   8   9
ENDBRANCH   7   8
ENDBRANCH   6   7
ENDBRANCH   5   6
ENDBRANCH   4   5
ENDBRANCH   3   4
ENDBRANCH   2   3
ENDBRANCH   1   2
BRANCH   1  17
ATOM     17  C   UNL     1       7.786   6.488  35.210  1.00  0.00     0.000 C 
BRANCH  17  18
ATOM     18  C   UNL     1       6.641   5.507  34.911  1.00  0.00     0.000 C 
BRANCH  18  19
ATOM     19  C   UNL     1       5.268   6.203  34.813  1.00  0.00     0.000 C 
BRANCH  19  20
ATOM     20  C   UNL     1       4.664   6.213  33.394  1.00  0.00     0.000 C 
BRANCH  20  21
ATOM     21  C   UNL     1       3.300   5.517  33.254  1.00  0.00     0.000 C 
BRANCH  21  22
ATOM     22  C   UNL     1       2.591   5.851  31.933  1.00  0.00    -0.000 C 
BRANCH  22  23
ATOM     23  C   UNL     1       1.867   7.200  32.021  1.00  0.00    -0.000 C 
BRANCH  23  24
ATOM     24  C   UNL     1       1.095   7.323  33.344  1.00  0.00    -0.000 C 
BRANCH  24  25
ATOM     25  C   UNL     1       1.425   8.617  34.102  1.00  0.00    -0.000 C 
BRANCH  25  26
ATOM     26  C   UNL     1       2.279   9.590  33.274  1.00  0.00    -0.000 C 
BRANCH  26  27
ATOM     27  C   UNL     1       2.987  10.603  34.184  1.00  0.00    -0.000 C 
BRANCH  27  28
ATOM     28  C   UNL     1       2.319  11.990  34.175  1.00  0.00    -0.000 C 
BRANCH  28  29
ATOM     29  C   UNL     1       1.182  12.152  33.149  1.00  0.00    -0.003 C 
ATOM     30  C   UNL     1       0.147  13.199  33.563  1.00  0.00     0.004 C 
ENDBRANCH  28  29
ENDBRANCH  27  28
ENDBRANCH  26  27
ENDBRANCH  25  26
ENDBRANCH  24  25
ENDBRANCH  23  24
ENDBRANCH  22  23
ENDBRANCH  21  22
ENDBRANCH  20  21
ENDBRANCH  19  20
ENDBRANCH  18  19
ENDBRANCH  17  18
ENDBRANCH   1  17
TORSDOF 26
ENDMDL
MODEL 7
REMARK VINA RESULT:    -3.307      9.877     15.580
REMARK INTER + INTRA:         -12.234
REMARK INTER:                  -6.849
REMARK INTRA:                  -5.385
REMARK UNBOUND:                -3.901
REMARK SMILES CCCCCCCCCCCCCCCCCCCCCCCCCCCC(=O)[O-]
REMARK SMILES IDX 15 1 16 2 17 3 18 4 19 5 20 6 21 7 22 8 23 9 24 10 25 11
REMARK SMILES IDX 26 12 27 13 28 14 29 15 30 16 14 17 13 18 12 19 11 20 10 21
REMARK SMILES IDX 9 22 8 23 7 24 6 25 5 26 4 27 3 28 2 29 1 30
REMARK H PARENT
REMARK Flexibility Score: inf
ROOT
ATOM      1  C   UNL     1       8.283  19.370  17.825  1.00  0.00     0.000 C 
ENDROOT
BRANCH   1   2
ATOM      2  C   UNL     1       7.388  20.245  18.716  1.00  0.00     0.000 C 
BRANCH   2   3
ATOM      3  C   UNL     1       7.322  21.705  18.246  1.00  0.00     0.000 C 
BRANCH   3   4
ATOM      4  C   UNL     1       5.887  22.246  18.332  1.00  0.00     0.000 C 
BRANCH   4   5
ATOM      5  C   UNL     1       5.165  22.258  16.973  1.00  0.00     0.000 C 
BRANCH   5   6
ATOM      6  C   UNL     1       4.044  21.214  16.820  1.00  0.00     0.000 C 
BRANCH   6   7
ATOM      7  C   UNL     1       4.540  19.886  16.224  1.00  0.00     0.000 C 
BRANCH   7   8
ATOM      8  C   UNL     1       4.178  18.678  17.104  1.00  0.00     0.000 C 
BRANCH   8   9
ATOM      9  C   UNL     1       3.971  19.064  18.580  1.00  0.00     0.000 C 
BRANCH   9  10
ATOM     10  C   UNL     1       2.762  18.338  19.210  1.00  0.00     0.000 C 
BRANCH  10  11
ATOM     11  C   UNL     1       2.430  18.809  20.636  1.00  0.00     0.000 C 
BRANCH  11  12
ATOM     12  C   UNL     1       2.219  17.645  21.616  1.00  0.00     0.006 C 
BRANCH  12  13
ATOM     13  C   UNL     1       2.236  18.107  23.080  1.00  0.00     0.053 C 
BRANCH  13  14
ATOM     14  C   UNL     1       3.450  17.611  23.806  1.00  0.00     0.041 C 
ATOM     15  O   UNL     1       3.568  16.387  24.081  1.00  0.00    -0.550 OA
ATOM     16  O   UNL     1       4.434  18.506  24.206  1.00  0.00    -0.550 OA
ENDBRANCH  13  14
ENDBRANCH  12  13
ENDBRANCH  11  12
ENDBRANCH  10  11
ENDBRANCH   9  10
ENDBRANCH   8   9
ENDBRANCH   7   8
ENDBRANCH   6   7
ENDBRANCH   5   6
ENDBRANCH   4   5
ENDBRANCH   3   4
ENDBRANCH   2   3
ENDBRANCH   1   2
BRANCH   1  17
ATOM     17  C   UNL     1       8.304  19.834  16.360  1.00  0.00     0.000 C 
BRANCH  17  18
ATOM     18  C   UNL     1       9.719  20.256  15.932  1.00  0.00     0.000 C 
BRANCH  18  19
ATOM     19  C   UNL     1      10.747  20.147  17.078  1.00  0.00     0.000 C 
BRANCH  19  20
ATOM     20  C   UNL     1      11.469  21.469  17.407  1.00  0.00     0.000 C 
BRANCH  20  21
ATOM     21  C   UNL     1      11.821  21.676  18.890  1.00  0.00     0.000 C 
BRANCH  21  22
ATOM     22  C   UNL     1      10.605  22.059  19.747  1.00  0.00    -0.000 C 
BRANCH  22  23
ATOM     23  C   UNL     1      10.271  20.953  20.756  1.00  0.00    -0.000 C 
BRANCH  23  24
ATOM     24  C   UNL     1       9.481  21.519  21.946  1.00  0.00    -0.000 C 
BRANCH  24  25
ATOM     25  C   UNL     1       8.662  22.764  21.574  1.00  0.00    -0.000 C 
BRANCH  25  26
ATOM     26  C   UNL     1       7.171  22.618  21.916  1.00  0.00    -0.000 C 
BRANCH  26  27
ATOM     27  C   UNL     1       6.839  21.167  22.295  1.00  0.00    -0.000 C 
BRANCH  27  28
ATOM     28  C   UNL     1       5.486  20.693  21.732  1.00  0.00    -0.000 C 
BRANCH  28  29
ATOM     29  C   UNL     1       4.383  21.768  21.711  1.00  0.00    -0.003 C 
ATOM     30  C   UNL     1       3.508  21.752  22.965  1.00  0.00     0.004 C 
ENDBRANCH  28  29
ENDBRANCH  27  28
ENDBRANCH  26  27
ENDBRANCH  25  26
ENDBRANCH  24  25
ENDBRANCH  23  24
ENDBRANCH  22  23
ENDBRANCH  21  22
ENDBRANCH  20  21
ENDBRANCH  19  20
ENDBRANCH  18  19
ENDBRANCH  17  18
ENDBRANCH   1  17
TORSDOF 26
ENDMDL
MODEL 8
REMARK VINA RESULT:    -3.275     11.055     15.614
REMARK INTER + INTRA:         -12.154
REMARK INTER:                  -7.823
REMARK INTRA:                  -4.330
REMARK UNBOUND:                -3.901
REMARK SMILES CCCCCCCCCCCCCCCCCCCCCCCCCCCC(=O)[O-]
REMARK SMILES IDX 15 1 16 2 17 3 18 4 19 5 20 6 21 7 22 8 23 9 24 10 25 11
REMARK SMILES IDX 26 12 27 13 28 14 29 15 30 16 14 17 13 18 12 19 11 20 10 21
REMARK SMILES IDX 9 22 8 23 7 24 6 25 5 26 4 27 3 28 2 29 1 30
REMARK H PARENT
REMARK Flexibility Score: inf
ROOT
ATOM      1  C   UNL     1       9.365  21.819  21.086  1.00  0.00     0.000 C 
ENDROOT
BRANCH   1   2
ATOM      2  C   UNL     1       8.748  22.085  22.467  1.00  0.00     0.000 C 
BRANCH   2   3
ATOM      3  C   UNL     1       7.226  22.279  22.415  1.00  0.00     0.000 C 
BRANCH   3   4
ATOM      4  C   UNL     1       6.508  20.940  22.187  1.00  0.00     0.000 C 
BRANCH   4   5
ATOM      5  C   UNL     1       5.857  20.834  20.797  1.00  0.00     0.000 C 
BRANCH   5   6
ATOM      6  C   UNL     1       5.799  22.151  20.001  1.00  0.00     0.000 C 
BRANCH   6   7
ATOM      7  C   UNL     1       4.395  22.778  19.984  1.00  0.00     0.000 C 
BRANCH   7   8
ATOM      8  C   UNL     1       3.308  21.792  20.443  1.00  0.00     0.000 C 
BRANCH   8   9
ATOM      9  C   UNL     1       2.477  22.336  21.619  1.00  0.00     0.000 C 
BRANCH   9  10
ATOM     10  C   UNL     1       3.341  23.113  22.635  1.00  0.00     0.000 C 
BRANCH  10  11
ATOM     11  C   UNL     1       3.048  22.753  24.102  1.00  0.00     0.000 C 
BRANCH  11  12
ATOM     12  C   UNL     1       3.807  21.504  24.574  1.00  0.00     0.006 C 
BRANCH  12  13
ATOM     13  C   UNL     1       2.926  20.248  24.561  1.00  0.00     0.053 C 
BRANCH  13  14
ATOM     14  C   UNL     1       3.531  19.151  23.738  1.00  0.00     0.041 C 
ATOM     15  O   UNL     1       4.500  18.483  24.186  1.00  0.00    -0.550 OA
ATOM     16  O   UNL     1       3.043  18.889  22.463  1.00  0.00    -0.550 OA
ENDBRANCH  13  14
ENDBRANCH  12  13
ENDBRANCH  11  12
ENDBRANCH  10  11
ENDBRANCH   9  10
ENDBRANCH   8   9
ENDBRANCH   7   8
ENDBRANCH   6   7
ENDBRANCH   5   6
ENDBRANCH   4   5
ENDBRANCH   3   4
ENDBRANCH   2   3
ENDBRANCH   1   2
BRANCH   1  17
ATOM     17  C   UNL     1      10.575  20.873  21.144  1.00  0.00     0.000 C 
BRANCH  17  18
ATOM     18  C   UNL     1      11.501  21.083  19.934  1.00  0.00     0.000 C 
BRANCH  18  19
ATOM     19  C   UNL     1      12.291  22.406  20.009  1.00  0.00     0.000 C 
BRANCH  19  20
ATOM     20  C   UNL     1      12.801  22.916  18.646  1.00  0.00     0.000 C 
BRANCH  20  21
ATOM     21  C   UNL     1      11.860  22.664  17.455  1.00  0.00     0.000 C 
BRANCH  21  22
ATOM     22  C   UNL     1      12.547  21.925  16.296  1.00  0.00    -0.000 C 
BRANCH  22  23
ATOM     23  C   UNL     1      11.995  20.502  16.145  1.00  0.00    -0.000 C 
BRANCH  23  24
ATOM     24  C   UNL     1      10.459  20.502  16.194  1.00  0.00    -0.000 C 
BRANCH  24  25
ATOM     25  C   UNL     1       9.900  19.521  17.234  1.00  0.00    -0.000 C 
BRANCH  25  26
ATOM     26  C   UNL     1       8.537  19.960  17.793  1.00  0.00    -0.000 C 
BRANCH  26  27
ATOM     27  C   UNL     1       7.391  19.360  16.965  1.00  0.00    -0.000 C 
BRANCH  27  28
ATOM     28  C   UNL     1       6.100  20.196  17.033  1.00  0.00    -0.000 C 
BRANCH  28  29
ATOM     29  C   UNL     1       4.808  19.415  16.726  1.00  0.00    -0.003 C 
ATOM     30  C   UNL     1       4.011  19.061  17.982  1.00  0.00     0.004 C 
ENDBRANCH  28  29
ENDBRANCH  27  28
ENDBRANCH  26  27
ENDBRANCH  25  26
ENDBRANCH  24  25
ENDBRANCH  23  24
ENDBRANCH  22  23
ENDBRANCH  21  22
ENDBRANCH  20  21
ENDBRANCH  19  20
ENDBRANCH  18  19
ENDBRANCH  17  18
ENDBRANCH   1  17
TORSDOF 26
ENDMDL
MODEL 9
REMARK VINA RESULT:    -3.210      6.130      9.956
REMARK INTER + INTRA:         -11.990
REMARK INTER:                  -7.727
REMARK INTRA:                  -4.263
REMARK UNBOUND:                -3.901
REMARK SMILES CCCCCCCCCCCCCCCCCCCCCCCCCCCC(=O)[O-]
REMARK SMILES IDX 15 1 16 2 17 3 18 4 19 5 20 6 21 7 22 8 23 9 24 10 25 11
REMARK SMILES IDX 26 12 27 13 28 14 29 15 30 16 14 17 13 18 12 19 11 20 10 21
REMARK SMILES IDX 9 22 8 23 7 24 6 25 5 26 4 27 3 28 2 29 1 30
REMARK H PARENT
REMARK Flexibility Score: inf
ROOT
ATOM      1  C   UNL     1      11.159   4.535  31.677  1.00  0.00     0.000 C 
ENDROOT
BRANCH   1   2
ATOM      2  C   UNL     1      11.298   3.343  32.637  1.00  0.00     0.000 C 
BRANCH   2   3
ATOM      3  C   UNL     1      12.717   3.195  33.205  1.00  0.00     0.000 C 
BRANCH   3   4
ATOM      4  C   UNL     1      12.693   3.165  34.741  1.00  0.00     0.000 C 
BRANCH   4   5
ATOM      5  C   UNL     1      11.313   3.504  35.329  1.00  0.00     0.000 C 
BRANCH   5   6
ATOM      6  C   UNL     1      11.218   4.874  36.025  1.00  0.00     0.000 C 
BRANCH   6   7
ATOM      7  C   UNL     1      10.485   5.926  35.177  1.00  0.00     0.000 C 
BRANCH   7   8
ATOM      8  C   UNL     1       9.130   5.417  34.656  1.00  0.00     0.000 C 
BRANCH   8   9
ATOM      9  C   UNL     1       8.502   6.367  33.619  1.00  0.00     0.000 C 
BRANCH   9  10
ATOM     10  C   UNL     1       7.287   5.734  32.908  1.00  0.00     0.000 C 
BRANCH  10  11
ATOM     11  C   UNL     1       6.666   4.553  33.673  1.00  0.00     0.000 C 
BRANCH  11  12
ATOM     12  C   UNL     1       5.173   4.755  33.976  1.00  0.00     0.006 C 
BRANCH  12  13
ATOM     13  C   UNL     1       4.861   6.186  34.433  1.00  0.00     0.053 C 
BRANCH  13  14
ATOM     14  C   UNL     1       3.460   6.310  34.953  1.00  0.00     0.041 C 
ATOM     15  O   UNL     1       3.045   7.413  35.399  1.00  0.00    -0.550 OA
ATOM     16  O   UNL     1       2.626   5.199  34.975  1.00  0.00    -0.550 OA
ENDBRANCH  13  14
ENDBRANCH  12  13
ENDBRANCH  11  12
ENDBRANCH  10  11
ENDBRANCH   9  10
ENDBRANCH   8   9
ENDBRANCH   7   8
ENDBRANCH   6   7
ENDBRANCH   5   6
ENDBRANCH   4   5
ENDBRANCH   3   4
ENDBRANCH   2   3
ENDBRANCH   1   2
BRANCH   1  17
ATOM     17  C   UNL     1       9.988   4.377  30.695  1.00  0.00     0.000 C 
BRANCH  17  18
ATOM     18  C   UNL     1       9.118   3.163  31.059  1.00  0.00     0.000 C 
BRANCH  18  19
ATOM     19  C   UNL     1       7.782   3.131  30.288  1.00  0.00     0.000 C 
BRANCH  19  20
ATOM     20  C   UNL     1       7.528   4.376  29.414  1.00  0.00     0.000 C 
BRANCH  20  21
ATOM     21  C   UNL     1       6.049   4.733  29.191  1.00  0.00     0.000 C 
BRANCH  21  22
ATOM     22  C   UNL     1       5.696   4.923  27.708  1.00  0.00    -0.000 C 
BRANCH  22  23
ATOM     23  C   UNL     1       4.955   6.246  27.482  1.00  0.00    -0.000 C 
BRANCH  23  24
ATOM     24  C   UNL     1       3.450   6.083  27.745  1.00  0.00    -0.000 C 
BRANCH  24  25
ATOM     25  C   UNL     1       2.697   7.421  27.724  1.00  0.00    -0.000 C 
BRANCH  25  26
ATOM     26  C   UNL     1       1.598   7.501  28.795  1.00  0.00    -0.000 C 
BRANCH  26  27
ATOM     27  C   UNL     1       2.077   8.310  30.009  1.00  0.00    -0.000 C 
BRANCH  27  28
ATOM     28  C   UNL     1       2.174   7.468  31.294  1.00  0.00    -0.000 C 
BRANCH  28  29
ATOM     29  C   UNL     1       3.132   6.265  31.207  1.00  0.00    -0.003 C 
ATOM     30  C   UNL     1       2.436   4.926  31.452  1.00  0.00     0.004 C 
ENDBRANCH  28  29
ENDBRANCH  27  28
ENDBRANCH  26  27
ENDBRANCH  25  26
ENDBRANCH  24  25
ENDBRANCH  23  24
ENDBRANCH  22  23
ENDBRANCH  21  22
ENDBRANCH  20  21
ENDBRANCH  19  20
ENDBRANCH  18  19
ENDBRANCH  17  18
ENDBRANCH   1  17
TORSDOF 26
ENDMDL
