MODEL 1
REMARK VINA RESULT:    -3.966      0.000      0.000
REMARK INTER + INTRA:         -15.692
REMARK INTER:                  -9.994
REMARK INTRA:                  -5.699
REMARK UNBOUND:                -5.699
REMARK SMILES CCCCCCCCCCCCCCCCCCCCCCCCCCCC(=O)[O-]
REMARK SMILES IDX 15 1 16 2 17 3 18 4 19 5 20 6 21 7 22 8 23 9 24 10 25 11
REMARK SMILES IDX 26 12 27 13 28 14 29 15 30 16 14 17 13 18 12 19 11 20 10 21
REMARK SMILES IDX 9 22 8 23 7 24 6 25 5 26 4 27 3 28 2 29 1 30
REMARK H PARENT
REMARK Flexibility Score: inf
ROOT
ATOM      1  C   UNL     1     -19.651  10.760  12.384  1.00  0.00     0.000 C 
ENDROOT
BRANCH   1   2
ATOM      2  C   UNL     1     -18.233  10.733  12.995  1.00  0.00     0.000 C 
BRANCH   2   3
ATOM      3  C   UNL     1     -18.224  10.638  14.531  1.00  0.00     0.000 C 
BRANCH   3   4
ATOM      4  C   UNL     1     -19.230  11.593  15.192  1.00  0.00     0.000 C 
BRANCH   4   5
ATOM      5  C   UNL     1     -18.578  12.525  16.224  1.00  0.00     0.000 C 
BRANCH   5   6
ATOM      6  C   UNL     1     -19.593  13.140  17.204  1.00  0.00     0.000 C 
BRANCH   6   7
ATOM      7  C   UNL     1     -21.052  12.934  16.759  1.00  0.00     0.000 C 
BRANCH   7   8
ATOM      8  C   UNL     1     -21.876  11.998  17.661  1.00  0.00     0.000 C 
BRANCH   8   9
ATOM      9  C   UNL     1     -21.003  11.145  18.593  1.00  0.00     0.000 C 
BRANCH   9  10
ATOM     10  C   UNL     1     -20.903   9.703  18.080  1.00  0.00     0.000 C 
BRANCH  10  11
ATOM     11  C   UNL     1     -19.439   9.241  18.014  1.00  0.00     0.000 C 
BRANCH  11  12
ATOM     12  C   UNL     1     -19.298   7.708  17.972  1.00  0.00     0.006 C 
BRANCH  12  13
ATOM     13  C   UNL     1     -18.738   7.088  19.262  1.00  0.00     0.053 C 
BRANCH  13  14
ATOM     14  C   UNL     1     -17.287   6.740  19.135  1.00  0.00     0.041 C 
ATOM     15  O   UNL     1     -16.570   7.322  18.280  1.00  0.00    -0.550 OA
ATOM     16  O   UNL     1     -16.721   5.794  19.980  1.00  0.00    -0.550 OA
ENDBRANCH  13  14
ENDBRANCH  12  13
ENDBRANCH  11  12
ENDBRANCH  10  11
ENDBRANCH   9  10
ENDBRANCH   8   9
ENDBRANCH   7   8
ENDBRANCH   6   7
ENDBRANCH   5   6
ENDBRANCH   4   5
ENDBRANCH   3   4
ENDBRANCH   2   3
ENDBRANCH   1   2
BRANCH   1  17
ATOM     17  C   UNL     1     -19.763   9.877  11.132  1.00  0.00     0.000 C 
BRANCH  17  18
ATOM     18  C   UNL     1     -20.971   8.937  11.227  1.00  0.00     0.000 C 
BRANCH  18  19
ATOM     19  C   UNL     1     -20.824   7.970  12.409  1.00  0.00     0.000 C 
BRANCH  19  20
ATOM     20  C   UNL     1     -22.042   8.053  13.340  1.00  0.00     0.000 C 
BRANCH  20  21
ATOM     21  C   UNL     1     -21.792   8.931  14.580  1.00  0.00     0.000 C 
BRANCH  21  22
ATOM     22  C   UNL     1     -22.599  10.243  14.623  1.00  0.00    -0.000 C 
BRANCH  22  23
ATOM     23  C   UNL     1     -23.627  10.356  13.488  1.00  0.00    -0.000 C 
BRANCH  23  24
ATOM     24  C   UNL     1     -23.392  11.627  12.659  1.00  0.00    -0.000 C 
BRANCH  24  25
ATOM     25  C   UNL     1     -22.636  12.717  13.439  1.00  0.00    -0.000 C 
BRANCH  25  26
ATOM     26  C   UNL     1     -21.568  13.474  12.625  1.00  0.00    -0.000 C 
BRANCH  26  27
ATOM     27  C   UNL     1     -20.976  14.719  13.316  1.00  0.00    -0.000 C 
BRANCH  27  28
ATOM     28  C   UNL     1     -19.440  14.737  13.420  1.00  0.00    -0.000 C 
BRANCH  28  29
ATOM     29  C   UNL     1     -18.920  15.809  14.388  1.00  0.00    -0.003 C 
ATOM     30  C   UNL     1     -20.024  16.278  15.330  1.00  0.00     0.004 C 
ENDBRANCH  28  29
ENDBRANCH  27  28
ENDBRANCH  26  27
ENDBRANCH  25  26
ENDBRANCH  24  25
ENDBRANCH  23  24
ENDBRANCH  22  23
ENDBRANCH  21  22
ENDBRANCH  20  21
ENDBRANCH  19  20
ENDBRANCH  18  19
ENDBRANCH  17  18
ENDBRANCH   1  17
TORSDOF 26
ENDMDL
MODEL 2
REMARK VINA RESULT:    -3.919      3.717      6.879
REMARK INTER + INTRA:         -15.574
REMARK INTER:                 -10.274
REMARK INTRA:                  -5.301
REMARK UNBOUND:                -5.699
REMARK SMILES CCCCCCCCCCCCCCCCCCCCCCCCCCCC(=O)[O-]
REMARK SMILES IDX 15 1 16 2 17 3 18 4 19 5 20 6 21 7 22 8 23 9 24 10 25 11
REMARK SMILES IDX 26 12 27 13 28 14 29 15 30 16 14 17 13 18 12 19 11 20 10 21
REMARK SMILES IDX 9 22 8 23 7 24 6 25 5 26 4 27 3 28 2 29 1 30
REMARK H PARENT
REMARK Flexibility Score: inf
ROOT
ATOM      1  C   UNL     1     -18.959  12.574  18.171  1.00  0.00     0.000 C 
ENDROOT
BRANCH   1   2
ATOM      2  C   UNL     1     -19.310  12.922  16.709  1.00  0.00     0.000 C 
BRANCH   2   3
ATOM      3  C   UNL     1     -18.093  13.340  15.864  1.00  0.00     0.000 C 
BRANCH   3   4
ATOM      4  C   UNL     1     -18.419  14.460  14.864  1.00  0.00     0.000 C 
BRANCH   4   5
ATOM      5  C   UNL     1     -19.152  13.949  13.614  1.00  0.00     0.000 C 
BRANCH   5   6
ATOM      6  C   UNL     1     -20.509  14.639  13.390  1.00  0.00     0.000 C 
BRANCH   6   7
ATOM      7  C   UNL     1     -21.638  14.028  14.239  1.00  0.00     0.000 C 
BRANCH   7   8
ATOM      8  C   UNL     1     -22.461  15.047  15.048  1.00  0.00     0.000 C 
BRANCH   8   9
ATOM      9  C   UNL     1     -22.105  15.051  16.542  1.00  0.00     0.000 C 
BRANCH   9  10
ATOM     10  C   UNL     1     -21.691  16.454  17.001  1.00  0.00     0.000 C 
BRANCH  10  11
ATOM     11  C   UNL     1     -20.168  16.548  17.186  1.00  0.00     0.000 C 
BRANCH  11  12
ATOM     12  C   UNL     1     -19.556  17.776  16.488  1.00  0.00     0.006 C 
BRANCH  12  13
ATOM     13  C   UNL     1     -19.745  17.797  14.963  1.00  0.00     0.053 C 
BRANCH  13  14
ATOM     14  C   UNL     1     -18.455  18.032  14.239  1.00  0.00     0.041 C 
ATOM     15  O   UNL     1     -17.538  18.700  14.783  1.00  0.00    -0.550 OA
ATOM     16  O   UNL     1     -18.257  17.488  12.977  1.00  0.00    -0.550 OA
ENDBRANCH  13  14
ENDBRANCH  12  13
ENDBRANCH  11  12
ENDBRANCH  10  11
ENDBRANCH   9  10
ENDBRANCH   8   9
ENDBRANCH   7   8
ENDBRANCH   6   7
ENDBRANCH   5   6
ENDBRANCH   4   5
ENDBRANCH   3   4
ENDBRANCH   2   3
ENDBRANCH   1   2
BRANCH   1  17
ATOM     17  C   UNL     1     -19.886  11.496  18.752  1.00  0.00     0.000 C 
BRANCH  17  18
ATOM     18  C   UNL     1     -21.229  11.468  18.012  1.00  0.00     0.000 C 
BRANCH  18  19
ATOM     19  C   UNL     1     -22.072  10.261  18.446  1.00  0.00     0.000 C 
BRANCH  19  20
ATOM     20  C   UNL     1     -21.806   9.052  17.537  1.00  0.00     0.000 C 
BRANCH  20  21
ATOM     21  C   UNL     1     -21.449   9.452  16.094  1.00  0.00     0.000 C 
BRANCH  21  22
ATOM     22  C   UNL     1     -20.217   8.739  15.505  1.00  0.00    -0.000 C 
BRANCH  22  23
ATOM     23  C   UNL     1     -19.145   9.712  14.994  1.00  0.00    -0.000 C 
BRANCH  23  24
ATOM     24  C   UNL     1     -19.713  10.629  13.901  1.00  0.00    -0.000 C 
BRANCH  24  25
ATOM     25  C   UNL     1     -19.088  10.369  12.519  1.00  0.00    -0.000 C 
BRANCH  25  26
ATOM     26  C   UNL     1     -20.091   9.979  11.415  1.00  0.00    -0.000 C 
BRANCH  26  27
ATOM     27  C   UNL     1     -20.782   8.614  11.608  1.00  0.00    -0.000 C 
BRANCH  27  28
ATOM     28  C   UNL     1     -22.245   8.687  12.081  1.00  0.00    -0.000 C 
BRANCH  28  29
ATOM     29  C   UNL     1     -22.873  10.071  11.865  1.00  0.00    -0.003 C 
ATOM     30  C   UNL     1     -23.403  10.643  13.176  1.00  0.00     0.004 C 
ENDBRANCH  28  29
ENDBRANCH  27  28
ENDBRANCH  26  27
ENDBRANCH  25  26
ENDBRANCH  24  25
ENDBRANCH  23  24
ENDBRANCH  22  23
ENDBRANCH  21  22
ENDBRANCH  20  21
ENDBRANCH  19  20
ENDBRANCH  18  19
ENDBRANCH  17  18
ENDBRANCH   1  17
TORSDOF 26
ENDMDL
MODEL 3
REMARK VINA RESULT:    -3.846      3.529      6.976
REMARK INTER + INTRA:         -15.391
REMARK INTER:                  -9.575
REMARK INTRA:                  -5.816
REMARK UNBOUND:                -5.699
REMARK SMILES CCCCCCCCCCCCCCCCCCCCCCCCCCCC(=O)[O-]
REMARK SMILES IDX 15 1 16 2 17 3 18 4 19 5 20 6 21 7 22 8 23 9 24 10 25 11
REMARK SMILES IDX 26 12 27 13 28 14 29 15 30 16 14 17 13 18 12 19 11 20 10 21
REMARK SMILES IDX 9 22 8 23 7 24 6 25 5 26 4 27 3 28 2 29 1 30
REMARK H PARENT
REMARK Flexibility Score: inf
ROOT
ATOM      1  C   UNL     1     -20.403   9.850  14.320  1.00  0.00     0.000 C 
ENDROOT
BRANCH   1   2
ATOM      2  C   UNL     1     -21.656  10.751  14.284  1.00  0.00     0.000 C 
BRANCH   2   3
ATOM      3  C   UNL     1     -22.308  10.848  12.894  1.00  0.00     0.000 C 
BRANCH   3   4
ATOM      4  C   UNL     1     -22.695  12.286  12.517  1.00  0.00     0.000 C 
BRANCH   4   5
ATOM      5  C   UNL     1     -21.494  13.244  12.509  1.00  0.00     0.000 C 
BRANCH   5   6
ATOM      6  C   UNL     1     -21.749  14.533  13.311  1.00  0.00     0.000 C 
BRANCH   6   7
ATOM      7  C   UNL     1     -22.390  14.265  14.684  1.00  0.00     0.000 C 
BRANCH   7   8
ATOM      8  C   UNL     1     -22.685  15.526  15.516  1.00  0.00     0.000 C 
BRANCH   8   9
ATOM      9  C   UNL     1     -21.909  15.564  16.841  1.00  0.00     0.000 C 
BRANCH   9  10
ATOM     10  C   UNL     1     -21.106  16.864  16.966  1.00  0.00     0.000 C 
BRANCH  10  11
ATOM     11  C   UNL     1     -19.653  16.661  16.512  1.00  0.00     0.000 C 
BRANCH  11  12
ATOM     12  C   UNL     1     -19.220  17.668  15.429  1.00  0.00     0.006 C 
BRANCH  12  13
ATOM     13  C   UNL     1     -19.781  17.372  14.029  1.00  0.00     0.053 C 
BRANCH  13  14
ATOM     14  C   UNL     1     -18.696  17.119  13.029  1.00  0.00     0.041 C 
ATOM     15  O   UNL     1     -17.897  18.040  12.716  1.00  0.00    -0.550 OA
ATOM     16  O   UNL     1     -18.549  15.858  12.465  1.00  0.00    -0.550 OA
ENDBRANCH  13  14
ENDBRANCH  12  13
ENDBRANCH  11  12
ENDBRANCH  10  11
ENDBRANCH   9  10
ENDBRANCH   8   9
ENDBRANCH   7   8
ENDBRANCH   6   7
ENDBRANCH   5   6
ENDBRANCH   4   5
ENDBRANCH   3   4
ENDBRANCH   2   3
ENDBRANCH   1   2
BRANCH   1  17
ATOM     17  C   UNL     1     -19.280  10.376  13.414  1.00  0.00     0.000 C 
BRANCH  17  18
ATOM     18  C   UNL     1     -18.223  11.131  14.230  1.00  0.00     0.000 C 
BRANCH  18  19
ATOM     19  C   UNL     1     -18.420  12.648  14.116  1.00  0.00     0.000 C 
BRANCH  19  20
ATOM     20  C   UNL     1     -18.242  13.328  15.481  1.00  0.00     0.000 C 
BRANCH  20  21
ATOM     21  C   UNL     1     -19.383  13.009  16.464  1.00  0.00     0.000 C 
BRANCH  21  22
ATOM     22  C   UNL     1     -18.999  13.080  17.955  1.00  0.00    -0.000 C 
BRANCH  22  23
ATOM     23  C   UNL     1     -19.450  11.849  18.753  1.00  0.00    -0.000 C 
BRANCH  23  24
ATOM     24  C   UNL     1     -19.472  10.597  17.864  1.00  0.00    -0.000 C 
BRANCH  24  25
ATOM     25  C   UNL     1     -20.723   9.728  18.086  1.00  0.00    -0.000 C 
BRANCH  25  26
ATOM     26  C   UNL     1     -21.961  10.492  18.597  1.00  0.00    -0.000 C 
BRANCH  26  27
ATOM     27  C   UNL     1     -22.851  11.109  17.499  1.00  0.00    -0.000 C 
BRANCH  27  28
ATOM     28  C   UNL     1     -23.407  12.508  17.823  1.00  0.00    -0.000 C 
BRANCH  28  29
ATOM     29  C   UNL     1     -24.885  12.665  17.440  1.00  0.00    -0.003 C 
ATOM     30  C   UNL     1     -25.115  12.292  15.979  1.00  0.00     0.004 C 
ENDBRANCH  28  29
ENDBRANCH  27  28
ENDBRANCH  26  27
ENDBRANCH  25  26
ENDBRANCH  24  25
ENDBRANCH  23  24
ENDBRANCH  22  23
ENDBRANCH  21  22
ENDBRANCH  20  21
ENDBRANCH  19  20
ENDBRANCH  18  19
ENDBRANCH  17  18
ENDBRANCH   1  17
TORSDOF 26
ENDMDL
MODEL 4
REMARK VINA RESULT:    -3.785      3.577      7.121
REMARK INTER + INTRA:         -15.236
REMARK INTER:                  -9.411
REMARK INTRA:                  -5.825
REMARK UNBOUND:                -5.699
REMARK SMILES CCCCCCCCCCCCCCCCCCCCCCCCCCCC(=O)[O-]
REMARK SMILES IDX 15 1 16 2 17 3 18 4 19 5 20 6 21 7 22 8 23 9 24 10 25 11
REMARK SMILES IDX 26 12 27 13 28 14 29 15 30 16 14 17 13 18 12 19 11 20 10 21
REMARK SMILES IDX 9 22 8 23 7 24 6 25 5 26 4 27 3 28 2 29 1 30
REMARK H PARENT
REMARK Flexibility Score: inf
ROOT
ATOM      1  C   UNL     1     -17.568  11.273  13.854  1.00  0.00     0.000 C 
ENDROOT
BRANCH   1   2
ATOM      2  C   UNL     1     -18.206  10.379  12.770  1.00  0.00     0.000 C 
BRANCH   2   3
ATOM      3  C   UNL     1     -19.680  10.715  12.481  1.00  0.00     0.000 C 
BRANCH   3   4
ATOM      4  C   UNL     1     -20.402   9.606  11.700  1.00  0.00     0.000 C 
BRANCH   4   5
ATOM      5  C   UNL     1     -21.924   9.808  11.646  1.00  0.00     0.000 C 
BRANCH   5   6
ATOM      6  C   UNL     1     -22.326  11.210  11.153  1.00  0.00     0.000 C 
BRANCH   6   7
ATOM      7  C   UNL     1     -23.417  11.858  12.023  1.00  0.00     0.000 C 
BRANCH   7   8
ATOM      8  C   UNL     1     -23.124  13.308  12.452  1.00  0.00     0.000 C 
BRANCH   8   9
ATOM      9  C   UNL     1     -21.624  13.638  12.459  1.00  0.00     0.000 C 
BRANCH   9  10
ATOM     10  C   UNL     1     -21.387  15.093  12.880  1.00  0.00     0.000 C 
BRANCH  10  11
ATOM     11  C   UNL     1     -21.977  15.369  14.271  1.00  0.00     0.000 C 
BRANCH  11  12
ATOM     12  C   UNL     1     -21.930  16.860  14.654  1.00  0.00     0.006 C 
BRANCH  12  13
ATOM     13  C   UNL     1     -21.192  17.152  15.971  1.00  0.00     0.053 C 
BRANCH  13  14
ATOM     14  C   UNL     1     -19.916  17.902  15.746  1.00  0.00     0.041 C 
ATOM     15  O   UNL     1     -19.124  17.545  14.836  1.00  0.00    -0.550 OA
ATOM     16  O   UNL     1     -19.616  19.014  16.524  1.00  0.00    -0.550 OA
ENDBRANCH  13  14
ENDBRANCH  12  13
ENDBRANCH  11  12
ENDBRANCH  10  11
ENDBRANCH   9  10
ENDBRANCH   8   9
ENDBRANCH   7   8
ENDBRANCH   6   7
ENDBRANCH   5   6
ENDBRANCH   4   5
ENDBRANCH   3   4
ENDBRANCH   2   3
ENDBRANCH   1   2
BRANCH   1  17
ATOM     17  C   UNL     1     -18.405  12.529  14.141  1.00  0.00     0.000 C 
BRANCH  17  18
ATOM     18  C   UNL     1     -17.959  13.201  15.445  1.00  0.00     0.000 C 
BRANCH  18  19
ATOM     19  C   UNL     1     -19.013  14.203  15.936  1.00  0.00     0.000 C 
BRANCH  19  20
ATOM     20  C   UNL     1     -19.554  13.799  17.315  1.00  0.00     0.000 C 
BRANCH  20  21
ATOM     21  C   UNL     1     -18.859  12.551  17.890  1.00  0.00     0.000 C 
BRANCH  21  22
ATOM     22  C   UNL     1     -19.769  11.620  18.715  1.00  0.00    -0.000 C 
BRANCH  22  23
ATOM     23  C   UNL     1     -19.777  10.174  18.198  1.00  0.00    -0.000 C 
BRANCH  23  24
ATOM     24  C   UNL     1     -19.683  10.139  16.666  1.00  0.00    -0.000 C 
BRANCH  24  25
ATOM     25  C   UNL     1     -21.062  10.113  15.984  1.00  0.00    -0.000 C 
BRANCH  25  26
ATOM     26  C   UNL     1     -21.515  11.460  15.386  1.00  0.00    -0.000 C 
BRANCH  26  27
ATOM     27  C   UNL     1     -22.865  11.991  15.909  1.00  0.00    -0.000 C 
BRANCH  27  28
ATOM     28  C   UNL     1     -23.582  11.068  16.911  1.00  0.00    -0.000 C 
BRANCH  28  29
ATOM     29  C   UNL     1     -23.429  11.534  18.366  1.00  0.00    -0.003 C 
ATOM     30  C   UNL     1     -23.188  10.351  19.298  1.00  0.00     0.004 C 
ENDBRANCH  28  29
ENDBRANCH  27  28
ENDBRANCH  26  27
ENDBRANCH  25  26
ENDBRANCH  24  25
ENDBRANCH  23  24
ENDBRANCH  22  23
ENDBRANCH  21  22
ENDBRANCH  20  21
ENDBRANCH  19  20
ENDBRANCH  18  19
ENDBRANCH  17  18
ENDBRANCH   1  17
TORSDOF 26
ENDMDL
MODEL 5
REMARK VINA RESULT:    -3.769      2.866      5.597
REMARK INTER + INTRA:         -15.197
REMARK INTER:                 -11.014
REMARK INTRA:                  -4.183
REMARK UNBOUND:                -5.699
REMARK SMILES CCCCCCCCCCCCCCCCCCCCCCCCCCCC(=O)[O-]
REMARK SMILES IDX 15 1 16 2 17 3 18 4 19 5 20 6 21 7 22 8 23 9 24 10 25 11
REMARK SMILES IDX 26 12 27 13 28 14 29 15 30 16 14 17 13 18 12 19 11 20 10 21
REMARK SMILES IDX 9 22 8 23 7 24 6 25 5 26 4 27 3 28 2 29 1 30
REMARK H PARENT
REMARK Flexibility Score: inf
ROOT
ATOM      1  C   UNL     1     -23.213  10.059  18.759  1.00  0.00     0.000 C 
ENDROOT
BRANCH   1   2
ATOM      2  C   UNL     1     -23.598   9.597  17.337  1.00  0.00     0.000 C 
BRANCH   2   3
ATOM      3  C   UNL     1     -23.544   8.071  17.147  1.00  0.00     0.000 C 
BRANCH   3   4
ATOM      4  C   UNL     1     -23.056   7.332  18.402  1.00  0.00     0.000 C 
BRANCH   4   5
ATOM      5  C   UNL     1     -23.770   5.988  18.618  1.00  0.00     0.000 C 
BRANCH   5   6
ATOM      6  C   UNL     1     -24.532   5.922  19.954  1.00  0.00     0.000 C 
BRANCH   6   7
ATOM      7  C   UNL     1     -24.379   4.563  20.661  1.00  0.00     0.000 C 
BRANCH   7   8
ATOM      8  C   UNL     1     -22.943   4.220  21.097  1.00  0.00     0.000 C 
BRANCH   8   9
ATOM      9  C   UNL     1     -22.321   3.087  20.268  1.00  0.00     0.000 C 
BRANCH   9  10
ATOM     10  C   UNL     1     -20.864   3.408  19.912  1.00  0.00     0.000 C 
BRANCH  10  11
ATOM     11  C   UNL     1     -20.512   4.857  20.279  1.00  0.00     0.000 C 
BRANCH  11  12
ATOM     12  C   UNL     1     -19.842   5.621  19.121  1.00  0.00     0.006 C 
BRANCH  12  13
ATOM     13  C   UNL     1     -18.713   6.569  19.557  1.00  0.00     0.053 C 
BRANCH  13  14
ATOM     14  C   UNL     1     -17.359   5.977  19.322  1.00  0.00     0.041 C 
ATOM     15  O   UNL     1     -16.937   5.809  18.148  1.00  0.00    -0.550 OA
ATOM     16  O   UNL     1     -16.551   5.638  20.399  1.00  0.00    -0.550 OA
ENDBRANCH  13  14
ENDBRANCH  12  13
ENDBRANCH  11  12
ENDBRANCH  10  11
ENDBRANCH   9  10
ENDBRANCH   8   9
ENDBRANCH   7   8
ENDBRANCH   6   7
ENDBRANCH   5   6
ENDBRANCH   4   5
ENDBRANCH   3   4
ENDBRANCH   2   3
ENDBRANCH   1   2
BRANCH   1  17
ATOM     17  C   UNL     1     -22.155  11.172  18.744  1.00  0.00     0.000 C 
BRANCH  17  18
ATOM     18  C   UNL     1     -21.149  10.960  17.607  1.00  0.00     0.000 C 
BRANCH  18  19
ATOM     19  C   UNL     1     -19.791  10.496  18.152  1.00  0.00     0.000 C 
BRANCH  19  20
ATOM     20  C   UNL     1     -19.165   9.437  17.234  1.00  0.00     0.000 C 
BRANCH  20  21
ATOM     21  C   UNL     1     -20.150   8.893  16.183  1.00  0.00     0.000 C 
BRANCH  21  22
ATOM     22  C   UNL     1     -19.837   9.290  14.728  1.00  0.00    -0.000 C 
BRANCH  22  23
ATOM     23  C   UNL     1     -18.463   9.958  14.569  1.00  0.00    -0.000 C 
BRANCH  23  24
ATOM     24  C   UNL     1     -18.564  11.220  13.699  1.00  0.00    -0.000 C 
BRANCH  24  25
ATOM     25  C   UNL     1     -20.019  11.613  13.385  1.00  0.00    -0.000 C 
BRANCH  25  26
ATOM     26  C   UNL     1     -20.468  12.964  13.977  1.00  0.00    -0.000 C 
BRANCH  26  27
ATOM     27  C   UNL     1     -19.494  14.138  13.749  1.00  0.00    -0.000 C 
BRANCH  27  28
ATOM     28  C   UNL     1     -18.710  14.583  14.997  1.00  0.00    -0.000 C 
BRANCH  28  29
ATOM     29  C   UNL     1     -18.913  13.645  16.195  1.00  0.00    -0.003 C 
ATOM     30  C   UNL     1     -19.578  14.377  17.357  1.00  0.00     0.004 C 
ENDBRANCH  28  29
ENDBRANCH  27  28
ENDBRANCH  26  27
ENDBRANCH  25  26
ENDBRANCH  24  25
ENDBRANCH  23  24
ENDBRANCH  22  23
ENDBRANCH  21  22
ENDBRANCH  20  21
ENDBRANCH  19  20
ENDBRANCH  18  19
ENDBRANCH  17  18
ENDBRANCH   1  17
TORSDOF 26
ENDMDL
MODEL 6
REMARK VINA RESULT:    -3.745      1.924      5.074
REMARK INTER + INTRA:         -15.137
REMARK INTER:                 -10.100
REMARK INTRA:                  -5.037
REMARK UNBOUND:                -5.699
REMARK SMILES CCCCCCCCCCCCCCCCCCCCCCCCCCCC(=O)[O-]
REMARK SMILES IDX 15 1 16 2 17 3 18 4 19 5 20 6 21 7 22 8 23 9 24 10 25 11
REMARK SMILES IDX 26 12 27 13 28 14 29 15 30 16 14 17 13 18 12 19 11 20 10 21
REMARK SMILES IDX 9 22 8 23 7 24 6 25 5 26 4 27 3 28 2 29 1 30
REMARK H PARENT
REMARK Flexibility Score: inf
ROOT
ATOM      1  C   UNL     1     -21.928  14.509  15.118  1.00  0.00     0.000 C 
ENDROOT
BRANCH   1   2
ATOM      2  C   UNL     1     -22.878  14.064  16.251  1.00  0.00     0.000 C 
BRANCH   2   3
ATOM      3  C   UNL     1     -22.822  12.555  16.547  1.00  0.00     0.000 C 
BRANCH   3   4
ATOM      4  C   UNL     1     -23.515  12.181  17.866  1.00  0.00     0.000 C 
BRANCH   4   5
ATOM      5  C   UNL     1     -23.912  10.698  17.931  1.00  0.00     0.000 C 
BRANCH   5   6
ATOM      6  C   UNL     1     -23.621   9.941  16.623  1.00  0.00     0.000 C 
BRANCH   6   7
ATOM      7  C   UNL     1     -23.167   8.489  16.861  1.00  0.00     0.000 C 
BRANCH   7   8
ATOM      8  C   UNL     1     -22.958   8.113  18.339  1.00  0.00     0.000 C 
BRANCH   8   9
ATOM      9  C   UNL     1     -22.709   6.611  18.544  1.00  0.00     0.000 C 
BRANCH   9  10
ATOM     10  C   UNL     1     -21.244   6.257  18.260  1.00  0.00     0.000 C 
BRANCH  10  11
ATOM     11  C   UNL     1     -20.865   4.917  18.908  1.00  0.00     0.000 C 
BRANCH  11  12
ATOM     12  C   UNL     1     -20.084   5.090  20.224  1.00  0.00     0.006 C 
BRANCH  12  13
ATOM     13  C   UNL     1     -18.637   4.572  20.175  1.00  0.00     0.053 C 
BRANCH  13  14
ATOM     14  C   UNL     1     -17.642   5.688  20.098  1.00  0.00     0.041 C 
ATOM     15  O   UNL     1     -16.409   5.442  20.161  1.00  0.00    -0.550 OA
ATOM     16  O   UNL     1     -18.076   6.996  19.927  1.00  0.00    -0.550 OA
ENDBRANCH  13  14
ENDBRANCH  12  13
ENDBRANCH  11  12
ENDBRANCH  10  11
ENDBRANCH   9  10
ENDBRANCH   8   9
ENDBRANCH   7   8
ENDBRANCH   6   7
ENDBRANCH   5   6
ENDBRANCH   4   5
ENDBRANCH   3   4
ENDBRANCH   2   3
ENDBRANCH   1   2
BRANCH   1  17
ATOM     17  C   UNL     1     -20.756  13.536  14.925  1.00  0.00     0.000 C 
BRANCH  17  18
ATOM     18  C   UNL     1     -19.415  14.228  15.198  1.00  0.00     0.000 C 
BRANCH  18  19
ATOM     19  C   UNL     1     -18.609  13.469  16.260  1.00  0.00     0.000 C 
BRANCH  19  20
ATOM     20  C   UNL     1     -19.341  13.473  17.610  1.00  0.00     0.000 C 
BRANCH  20  21
ATOM     21  C   UNL     1     -19.015  12.242  18.474  1.00  0.00     0.000 C 
BRANCH  21  22
ATOM     22  C   UNL     1     -20.014  11.075  18.352  1.00  0.00    -0.000 C 
BRANCH  22  23
ATOM     23  C   UNL     1     -19.491   9.922  17.484  1.00  0.00    -0.000 C 
BRANCH  23  24
ATOM     24  C   UNL     1     -19.959  10.075  16.029  1.00  0.00    -0.000 C 
BRANCH  24  25
ATOM     25  C   UNL     1     -18.812   9.924  15.014  1.00  0.00    -0.000 C 
BRANCH  25  26
ATOM     26  C   UNL     1     -18.971  10.757  13.727  1.00  0.00    -0.000 C 
BRANCH  26  27
ATOM     27  C   UNL     1     -19.707  10.048  12.572  1.00  0.00    -0.000 C 
BRANCH  27  28
ATOM     28  C   UNL     1     -21.045  10.690  12.164  1.00  0.00    -0.000 C 
BRANCH  28  29
ATOM     29  C   UNL     1     -22.124  10.561  13.248  1.00  0.00    -0.003 C 
ATOM     30  C   UNL     1     -23.265  11.544  13.005  1.00  0.00     0.004 C 
ENDBRANCH  28  29
ENDBRANCH  27  28
ENDBRANCH  26  27
ENDBRANCH  25  26
ENDBRANCH  24  25
ENDBRANCH  23  24
ENDBRANCH  22  23
ENDBRANCH  21  22
ENDBRANCH  20  21
ENDBRANCH  19  20
ENDBRANCH  18  19
ENDBRANCH  17  18
ENDBRANCH   1  17
TORSDOF 26
ENDMDL
MODEL 7
REMARK VINA RESULT:    -3.741      3.888      7.013
REMARK INTER + INTRA:         -15.127
REMARK INTER:                 -10.110
REMARK INTRA:                  -5.016
REMARK UNBOUND:                -5.699
REMARK SMILES CCCCCCCCCCCCCCCCCCCCCCCCCCCC(=O)[O-]
REMARK SMILES IDX 15 1 16 2 17 3 18 4 19 5 20 6 21 7 22 8 23 9 24 10 25 11
REMARK SMILES IDX 26 12 27 13 28 14 29 15 30 16 14 17 13 18 12 19 11 20 10 21
REMARK SMILES IDX 9 22 8 23 7 24 6 25 5 26 4 27 3 28 2 29 1 30
REMARK H PARENT
REMARK Flexibility Score: inf
ROOT
ATOM      1  C   UNL     1     -17.579  11.895  14.296  1.00  0.00     0.000 C 
ENDROOT
BRANCH   1   2
ATOM      2  C   UNL     1     -18.651  10.809  14.064  1.00  0.00     0.000 C 
BRANCH   2   3
ATOM      3  C   UNL     1     -18.819  10.412  12.587  1.00  0.00     0.000 C 
BRANCH   3   4
ATOM      4  C   UNL     1     -20.291  10.346  12.151  1.00  0.00     0.000 C 
BRANCH   4   5
ATOM      5  C   UNL     1     -21.218  11.169  13.058  1.00  0.00     0.000 C 
BRANCH   5   6
ATOM      6  C   UNL     1     -21.671  12.490  12.412  1.00  0.00     0.000 C 
BRANCH   6   7
ATOM      7  C   UNL     1     -20.896  13.710  12.940  1.00  0.00     0.000 C 
BRANCH   7   8
ATOM      8  C   UNL     1     -21.624  14.513  14.034  1.00  0.00     0.000 C 
BRANCH   8   9
ATOM      9  C   UNL     1     -21.892  15.970  13.628  1.00  0.00     0.000 C 
BRANCH   9  10
ATOM     10  C   UNL     1     -21.233  16.942  14.614  1.00  0.00     0.000 C 
BRANCH  10  11
ATOM     11  C   UNL     1     -20.071  16.269  15.360  1.00  0.00     0.000 C 
BRANCH  11  12
ATOM     12  C   UNL     1     -18.709  16.509  14.684  1.00  0.00     0.006 C 
BRANCH  12  13
ATOM     13  C   UNL     1     -18.420  17.980  14.345  1.00  0.00     0.053 C 
BRANCH  13  14
ATOM     14  C   UNL     1     -18.233  18.193  12.875  1.00  0.00     0.041 C 
ATOM     15  O   UNL     1     -18.718  17.374  12.050  1.00  0.00    -0.550 OA
ATOM     16  O   UNL     1     -17.548  19.310  12.414  1.00  0.00    -0.550 OA
ENDBRANCH  13  14
ENDBRANCH  12  13
ENDBRANCH  11  12
ENDBRANCH  10  11
ENDBRANCH   9  10
ENDBRANCH   8   9
ENDBRANCH   7   8
ENDBRANCH   6   7
ENDBRANCH   5   6
ENDBRANCH   4   5
ENDBRANCH   3   4
ENDBRANCH   2   3
ENDBRANCH   1   2
BRANCH   1  17
ATOM     17  C   UNL     1     -18.067  13.004  15.240  1.00  0.00     0.000 C 
BRANCH  17  18
ATOM     18  C   UNL     1     -19.238  12.517  16.103  1.00  0.00     0.000 C 
BRANCH  18  19
ATOM     19  C   UNL     1     -19.111  13.030  17.543  1.00  0.00     0.000 C 
BRANCH  19  20
ATOM     20  C   UNL     1     -19.429  11.918  18.552  1.00  0.00     0.000 C 
BRANCH  20  21
ATOM     21  C   UNL     1     -19.603  10.538  17.891  1.00  0.00     0.000 C 
BRANCH  21  22
ATOM     22  C   UNL     1     -21.014   9.932  18.007  1.00  0.00    -0.000 C 
BRANCH  22  23
ATOM     23  C   UNL     1     -21.961  10.773  18.874  1.00  0.00    -0.000 C 
BRANCH  23  24
ATOM     24  C   UNL     1     -23.213  11.181  18.084  1.00  0.00    -0.000 C 
BRANCH  24  25
ATOM     25  C   UNL     1     -23.066  10.947  16.570  1.00  0.00    -0.000 C 
BRANCH  25  26
ATOM     26  C   UNL     1     -23.528  12.121  15.684  1.00  0.00    -0.000 C 
BRANCH  26  27
ATOM     27  C   UNL     1     -24.785  12.863  16.180  1.00  0.00    -0.000 C 
BRANCH  27  28
ATOM     28  C   UNL     1     -24.631  14.389  16.310  1.00  0.00    -0.000 C 
BRANCH  28  29
ATOM     29  C   UNL     1     -24.036  14.816  17.659  1.00  0.00    -0.003 C 
ATOM     30  C   UNL     1     -23.231  16.104  17.519  1.00  0.00     0.004 C 
ENDBRANCH  28  29
ENDBRANCH  27  28
ENDBRANCH  26  27
ENDBRANCH  25  26
ENDBRANCH  24  25
ENDBRANCH  23  24
ENDBRANCH  22  23
ENDBRANCH  21  22
ENDBRANCH  20  21
ENDBRANCH  19  20
ENDBRANCH  18  19
ENDBRANCH  17  18
ENDBRANCH   1  17
TORSDOF 26
ENDMDL
MODEL 8
REMARK VINA RESULT:    -3.731      3.854      7.222
REMARK INTER + INTRA:         -15.100
REMARK INTER:                 -10.844
REMARK INTRA:                  -4.256
REMARK UNBOUND:                -5.699
REMARK SMILES CCCCCCCCCCCCCCCCCCCCCCCCCCCC(=O)[O-]
REMARK SMILES IDX 15 1 16 2 17 3 18 4 19 5 20 6 21 7 22 8 23 9 24 10 25 11
REMARK SMILES IDX 26 12 27 13 28 14 29 15 30 16 14 17 13 18 12 19 11 20 10 21
REMARK SMILES IDX 9 22 8 23 7 24 6 25 5 26 4 27 3 28 2 29 1 30
REMARK H PARENT
REMARK Flexibility Score: inf
ROOT
ATOM      1  C   UNL     1     -23.504   8.961  17.347  1.00  0.00     0.000 C 
ENDROOT
BRANCH   1   2
ATOM      2  C   UNL     1     -23.234   9.545  18.751  1.00  0.00     0.000 C 
BRANCH   2   3
ATOM      3  C   UNL     1     -22.882  11.042  18.740  1.00  0.00     0.000 C 
BRANCH   3   4
ATOM      4  C   UNL     1     -23.184  11.716  17.392  1.00  0.00     0.000 C 
BRANCH   4   5
ATOM      5  C   UNL     1     -23.774  13.125  17.549  1.00  0.00     0.000 C 
BRANCH   5   6
ATOM      6  C   UNL     1     -22.914  14.214  16.882  1.00  0.00     0.000 C 
BRANCH   6   7
ATOM      7  C   UNL     1     -23.222  15.626  17.411  1.00  0.00     0.000 C 
BRANCH   7   8
ATOM      8  C   UNL     1     -22.342  16.743  16.821  1.00  0.00     0.000 C 
BRANCH   8   9
ATOM      9  C   UNL     1     -21.512  17.475  17.885  1.00  0.00     0.000 C 
BRANCH   9  10
ATOM     10  C   UNL     1     -20.014  17.227  17.676  1.00  0.00     0.000 C 
BRANCH  10  11
ATOM     11  C   UNL     1     -19.714  16.854  16.216  1.00  0.00     0.000 C 
BRANCH  11  12
ATOM     12  C   UNL     1     -19.369  18.076  15.346  1.00  0.00     0.006 C 
BRANCH  12  13
ATOM     13  C   UNL     1     -19.788  17.944  13.872  1.00  0.00     0.053 C 
BRANCH  13  14
ATOM     14  C   UNL     1     -18.631  17.596  12.988  1.00  0.00     0.041 C 
ATOM     15  O   UNL     1     -18.519  16.433  12.521  1.00  0.00    -0.550 OA
ATOM     16  O   UNL     1     -17.694  18.565  12.656  1.00  0.00    -0.550 OA
ENDBRANCH  13  14
ENDBRANCH  12  13
ENDBRANCH  11  12
ENDBRANCH  10  11
ENDBRANCH   9  10
ENDBRANCH   8   9
ENDBRANCH   7   8
ENDBRANCH   6   7
ENDBRANCH   5   6
ENDBRANCH   4   5
ENDBRANCH   3   4
ENDBRANCH   2   3
ENDBRANCH   1   2
BRANCH   1  17
ATOM     17  C   UNL     1     -22.829   7.597  17.143  1.00  0.00     0.000 C 
BRANCH  17  18
ATOM     18  C   UNL     1     -21.993   7.208  18.368  1.00  0.00     0.000 C 
BRANCH  18  19
ATOM     19  C   UNL     1     -20.550   6.876  17.967  1.00  0.00     0.000 C 
BRANCH  19  20
ATOM     20  C   UNL     1     -19.914   8.041  17.194  1.00  0.00     0.000 C 
BRANCH  20  21
ATOM     21  C   UNL     1     -19.490   9.206  18.107  1.00  0.00     0.000 C 
BRANCH  21  22
ATOM     22  C   UNL     1     -19.596  10.605  17.470  1.00  0.00    -0.000 C 
BRANCH  22  23
ATOM     23  C   UNL     1     -19.222  11.737  18.437  1.00  0.00    -0.000 C 
BRANCH  23  24
ATOM     24  C   UNL     1     -19.568  13.108  17.839  1.00  0.00    -0.000 C 
BRANCH  24  25
ATOM     25  C   UNL     1     -18.813  13.395  16.528  1.00  0.00    -0.000 C 
BRANCH  25  26
ATOM     26  C   UNL     1     -19.682  13.349  15.256  1.00  0.00    -0.000 C 
BRANCH  26  27
ATOM     27  C   UNL     1     -18.970  12.823  13.993  1.00  0.00    -0.000 C 
BRANCH  27  28
ATOM     28  C   UNL     1     -17.920  11.727  14.247  1.00  0.00    -0.000 C 
BRANCH  28  29
ATOM     29  C   UNL     1     -18.478  10.310  14.056  1.00  0.00    -0.003 C 
ATOM     30  C   UNL     1     -19.703  10.322  13.147  1.00  0.00     0.004 C 
ENDBRANCH  28  29
ENDBRANCH  27  28
ENDBRANCH  26  27
ENDBRANCH  25  26
ENDBRANCH  24  25
ENDBRANCH  23  24
ENDBRANCH  22  23
ENDBRANCH  21  22
ENDBRANCH  20  21
ENDBRANCH  19  20
ENDBRANCH  18  19
ENDBRANCH  17  18
ENDBRANCH   1  17
TORSDOF 26
ENDMDL
MODEL 9
REMARK VINA RESULT:    -3.701      1.510      4.229
REMARK INTER + INTRA:         -15.026
REMARK INTER:                  -9.602
REMARK INTRA:                  -5.424
REMARK UNBOUND:                -5.699
REMARK SMILES CCCCCCCCCCCCCCCCCCCCCCCCCCCC(=O)[O-]
REMARK SMILES IDX 15 1 16 2 17 3 18 4 19 5 20 6 21 7 22 8 23 9 24 10 25 11
REMARK SMILES IDX 26 12 27 13 28 14 29 15 30 16 14 17 13 18 12 19 11 20 10 21
REMARK SMILES IDX 9 22 8 23 7 24 6 25 5 26 4 27 3 28 2 29 1 30
REMARK H PARENT
REMARK Flexibility Score: inf
ROOT
ATOM      1  C   UNL     1     -18.749  10.411  14.958  1.00  0.00     0.000 C 
ENDROOT
BRANCH   1   2
ATOM      2  C   UNL     1     -20.281  10.247  14.863  1.00  0.00     0.000 C 
BRANCH   2   3
ATOM      3  C   UNL     1     -20.747   8.780  14.875  1.00  0.00     0.000 C 
BRANCH   3   4
ATOM      4  C   UNL     1     -22.180   8.615  15.406  1.00  0.00     0.000 C 
BRANCH   4   5
ATOM      5  C   UNL     1     -22.863   9.959  15.706  1.00  0.00     0.000 C 
BRANCH   5   6
ATOM      6  C   UNL     1     -23.391  10.054  17.149  1.00  0.00     0.000 C 
BRANCH   6   7
ATOM      7  C   UNL     1     -22.315   9.728  18.200  1.00  0.00     0.000 C 
BRANCH   7   8
ATOM      8  C   UNL     1     -21.260  10.830  18.407  1.00  0.00     0.000 C 
BRANCH   8   9
ATOM      9  C   UNL     1     -19.827  10.280  18.472  1.00  0.00     0.000 C 
BRANCH   9  10
ATOM     10  C   UNL     1     -19.822   8.752  18.347  1.00  0.00     0.000 C 
BRANCH  10  11
ATOM     11  C   UNL     1     -18.435   8.236  17.935  1.00  0.00     0.000 C 
BRANCH  11  12
ATOM     12  C   UNL     1     -17.757   7.403  19.038  1.00  0.00     0.006 C 
BRANCH  12  13
ATOM     13  C   UNL     1     -18.479   6.089  19.375  1.00  0.00     0.053 C 
BRANCH  13  14
ATOM     14  C   UNL     1     -18.210   5.022  18.360  1.00  0.00     0.041 C 
ATOM     15  O   UNL     1     -18.852   5.002  17.278  1.00  0.00    -0.550 OA
ATOM     16  O   UNL     1     -17.230   4.066  18.598  1.00  0.00    -0.550 OA
ENDBRANCH  13  14
ENDBRANCH  12  13
ENDBRANCH  11  12
ENDBRANCH  10  11
ENDBRANCH   9  10
ENDBRANCH   8   9
ENDBRANCH   7   8
ENDBRANCH   6   7
ENDBRANCH   5   6
ENDBRANCH   4   5
ENDBRANCH   3   4
ENDBRANCH   2   3
ENDBRANCH   1   2
BRANCH   1  17
ATOM     17  C   UNL     1     -18.208  11.432  13.947  1.00  0.00     0.000 C 
BRANCH  17  18
ATOM     18  C   UNL     1     -18.591  12.862  14.350  1.00  0.00     0.000 C 
BRANCH  18  19
ATOM     19  C   UNL     1     -17.961  13.241  15.697  1.00  0.00     0.000 C 
BRANCH  19  20
ATOM     20  C   UNL     1     -19.027  13.311  16.799  1.00  0.00     0.000 C 
BRANCH  20  21
ATOM     21  C   UNL     1     -19.683  14.699  16.913  1.00  0.00     0.000 C 
BRANCH  21  22
ATOM     22  C   UNL     1     -20.969  14.883  16.085  1.00  0.00    -0.000 C 
BRANCH  22  23
ATOM     23  C   UNL     1     -22.002  13.772  16.324  1.00  0.00    -0.000 C 
BRANCH  23  24
ATOM     24  C   UNL     1     -22.642  13.325  15.002  1.00  0.00    -0.000 C 
BRANCH  24  25
ATOM     25  C   UNL     1     -21.972  13.957  13.770  1.00  0.00    -0.000 C 
BRANCH  25  26
ATOM     26  C   UNL     1     -21.644  12.970  12.632  1.00  0.00    -0.000 C 
BRANCH  26  27
ATOM     27  C   UNL     1     -22.649  11.815  12.453  1.00  0.00    -0.000 C 
BRANCH  27  28
ATOM     28  C   UNL     1     -22.291  10.806  11.347  1.00  0.00    -0.000 C 
BRANCH  28  29
ATOM     29  C   UNL     1     -20.820  10.371  11.391  1.00  0.00    -0.003 C 
ATOM     30  C   UNL     1     -20.695   8.853  11.305  1.00  0.00     0.004 C 
ENDBRANCH  28  29
ENDBRANCH  27  28
ENDBRANCH  26  27
ENDBRANCH  25  26
ENDBRANCH  24  25
ENDBRANCH  23  24
ENDBRANCH  22  23
ENDBRANCH  21  22
ENDBRANCH  20  21
ENDBRANCH  19  20
ENDBRANCH  18  19
ENDBRANCH  17  18
ENDBRANCH   1  17
TORSDOF 26
ENDMDL
