MODEL 1
REMARK VINA RESULT:    28.003      0.000      0.000
REMARK INTER + INTRA:          33.423
REMARK INTER:                  33.733
REMARK INTRA:                  -0.311
REMARK UNBOUND:                -0.311
REMARK SMILES Oc1cc(O)c2cc(O)c(-c3ccc(O)c(O)c3)[o+]c2c1
REMARK SMILES IDX 10 1 19 2 20 3 21 4 2 5 3 6 4 7 6 8 7 9 8 10 11 11 12 12
REMARK SMILES IDX 13 13 14 14 18 15 16 16 15 17 17 19 9 21 1 23 5 25
REMARK H PARENT 15 18 17 20 9 22 1 24 5 26
REMARK Flexibility Score: inf
ROOT
ATOM      1  C   UNL     1      12.224   5.144  17.890  1.00  0.00     0.402 A 
ATOM      2  O   UNL     1      12.990   6.145  18.317  1.00  0.00    -0.202 OA
ATOM      3  C   UNL     1      12.793   7.414  17.972  1.00  0.00     0.368 A 
ATOM      4  C   UNL     1      13.650   8.396  18.475  1.00  0.00     0.162 A 
ATOM      5  C   UNL     1      13.464   9.738  18.131  1.00  0.00     0.128 A 
ATOM      6  C   UNL     1      12.416  10.099  17.281  1.00  0.00     0.093 A 
ATOM      7  C   UNL     1      11.543   9.133  16.764  1.00  0.00     0.136 A 
ATOM      8  C   UNL     1      11.729   7.770  17.108  1.00  0.00     0.125 A 
ATOM      9  C   UNL     1      10.912   6.733  16.628  1.00  0.00     0.078 A 
ATOM     10  C   UNL     1      11.161   5.411  17.008  1.00  0.00     0.223 A 
ENDROOT
BRANCH   1  11
ATOM     11  C   UNL     1      12.540   3.774  18.353  1.00  0.00     0.087 A 
ATOM     12  C   UNL     1      12.186   3.336  19.642  1.00  0.00     0.022 A 
ATOM     13  C   UNL     1      12.515   2.046  20.064  1.00  0.00     0.051 A 
ATOM     14  C   UNL     1      13.214   1.179  19.214  1.00  0.00     0.157 A 
ATOM     15  C   UNL     1      13.259   2.909  17.512  1.00  0.00     0.068 A 
ATOM     16  C   UNL     1      13.589   1.615  17.933  1.00  0.00     0.158 A 
BRANCH  14  17
ATOM     17  O   UNL     1      13.539  -0.108  19.638  1.00  0.00    -0.504 OA
ATOM     18  H   UNL     1      12.849  -0.717  20.062  1.00  0.00     0.293 HD
ENDBRANCH  14  17
BRANCH  16  19
ATOM     19  O   UNL     1      14.292   0.780  17.064  1.00  0.00    -0.504 OA
ATOM     20  H   UNL     1      14.940   0.078  17.400  1.00  0.00     0.293 HD
ENDBRANCH  16  19
ENDBRANCH   1  11
BRANCH  10  21
ATOM     21  O   UNL     1      10.381   4.376  16.491  1.00  0.00    -0.500 OA
ATOM     22  H   UNL     1       9.852   4.485  15.634  1.00  0.00     0.294 HD
ENDBRANCH  10  21
BRANCH   5  23
ATOM     23  O   UNL     1      14.315  10.722  18.629  1.00  0.00    -0.507 OA
ATOM     24  H   UNL     1      14.401  11.626  18.178  1.00  0.00     0.293 HD
ENDBRANCH   5  23
BRANCH   7  25
ATOM     25  O   UNL     1      10.518   9.577  15.925  1.00  0.00    -0.507 OA
ATOM     26  H   UNL     1      10.481   9.406  14.930  1.00  0.00     0.293 HD
ENDBRANCH   7  25
TORSDOF 6
ENDMDL
MODEL 2
REMARK VINA RESULT:    28.048      1.075      2.611
REMARK INTER + INTRA:          33.476
REMARK INTER:                  33.772
REMARK INTRA:                  -0.295
REMARK UNBOUND:                -0.311
REMARK SMILES Oc1cc(O)c2cc(O)c(-c3ccc(O)c(O)c3)[o+]c2c1
REMARK SMILES IDX 10 1 19 2 20 3 21 4 2 5 3 6 4 7 6 8 7 9 8 10 11 11 12 12
REMARK SMILES IDX 13 13 14 14 18 15 16 16 15 17 17 19 9 21 1 23 5 25
REMARK H PARENT 15 18 17 20 9 22 1 24 5 26
REMARK Flexibility Score: inf
ROOT
ATOM      1  C   UNL     1      12.868   5.016  18.433  1.00  0.00     0.402 A 
ATOM      2  O   UNL     1      11.979   5.495  17.567  1.00  0.00    -0.202 OA
ATOM      3  C   UNL     1      11.911   6.778  17.225  1.00  0.00     0.368 A 
ATOM      4  C   UNL     1      10.943   7.185  16.303  1.00  0.00     0.162 A 
ATOM      5  C   UNL     1      10.851   8.527  15.923  1.00  0.00     0.128 A 
ATOM      6  C   UNL     1      11.730   9.466  16.468  1.00  0.00     0.093 A 
ATOM      7  C   UNL     1      12.709   9.083  17.395  1.00  0.00     0.136 A 
ATOM      8  C   UNL     1      12.805   7.722  17.784  1.00  0.00     0.125 A 
ATOM      9  C   UNL     1      13.745   7.250  18.715  1.00  0.00     0.078 A 
ATOM     10  C   UNL     1      13.776   5.894  19.054  1.00  0.00     0.223 A 
ENDROOT
BRANCH   1  11
ATOM     11  C   UNL     1      12.851   3.564  18.725  1.00  0.00     0.087 A 
ATOM     12  C   UNL     1      12.310   3.064  19.922  1.00  0.00     0.022 A 
ATOM     13  C   UNL     1      12.326   1.692  20.184  1.00  0.00     0.051 A 
ATOM     14  C   UNL     1      12.894   0.801  19.264  1.00  0.00     0.157 A 
ATOM     15  C   UNL     1      13.438   2.670  17.815  1.00  0.00     0.068 A 
ATOM     16  C   UNL     1      13.455   1.295  18.075  1.00  0.00     0.158 A 
BRANCH  14  17
ATOM     17  O   UNL     1      12.906  -0.567  19.528  1.00  0.00    -0.504 OA
ATOM     18  H   UNL     1      12.328  -1.214  19.005  1.00  0.00     0.293 HD
ENDBRANCH  14  17
BRANCH  16  19
ATOM     19  O   UNL     1      14.035   0.437  17.140  1.00  0.00    -0.504 OA
ATOM     20  H   UNL     1      13.656   0.323  16.207  1.00  0.00     0.293 HD
ENDBRANCH  16  19
ENDBRANCH   1  11
BRANCH  10  21
ATOM     21  O   UNL     1      14.676   5.434  20.015  1.00  0.00    -0.500 OA
ATOM     22  H   UNL     1      15.407   6.028  20.389  1.00  0.00     0.294 HD
ENDBRANCH  10  21
BRANCH   5  23
ATOM     23  O   UNL     1       9.889   8.940  15.004  1.00  0.00    -0.507 OA
ATOM     24  H   UNL     1       8.903   8.752  15.148  1.00  0.00     0.293 HD
ENDBRANCH   5  23
BRANCH   7  25
ATOM     25  O   UNL     1      13.551  10.082  17.889  1.00  0.00    -0.507 OA
ATOM     26  H   UNL     1      14.559  10.042  17.863  1.00  0.00     0.293 HD
ENDBRANCH   7  25
TORSDOF 6
ENDMDL
MODEL 3
REMARK VINA RESULT:    28.584      4.664      8.114
REMARK INTER + INTRA:          34.122
REMARK INTER:                  34.423
REMARK INTRA:                  -0.300
REMARK UNBOUND:                -0.311
REMARK SMILES Oc1cc(O)c2cc(O)c(-c3ccc(O)c(O)c3)[o+]c2c1
REMARK SMILES IDX 10 1 19 2 20 3 21 4 2 5 3 6 4 7 6 8 7 9 8 10 11 11 12 12
REMARK SMILES IDX 13 13 14 14 18 15 16 16 15 17 17 19 9 21 1 23 5 25
REMARK H PARENT 15 18 17 20 9 22 1 24 5 26
REMARK Flexibility Score: inf
ROOT
ATOM      1  C   UNL     1       9.983   9.998  19.808  1.00  0.00     0.402 A 
ATOM      2  O   UNL     1       9.721   9.534  18.588  1.00  0.00    -0.202 OA
ATOM      3  C   UNL     1      10.659   9.081  17.763  1.00  0.00     0.368 A 
ATOM      4  C   UNL     1      10.285   8.610  16.501  1.00  0.00     0.162 A 
ATOM      5  C   UNL     1      11.250   8.124  15.615  1.00  0.00     0.128 A 
ATOM      6  C   UNL     1      12.595   8.109  15.992  1.00  0.00     0.093 A 
ATOM      7  C   UNL     1      12.996   8.574  17.251  1.00  0.00     0.136 A 
ATOM      8  C   UNL     1      12.020   9.070  18.153  1.00  0.00     0.125 A 
ATOM      9  C   UNL     1      12.330   9.569  19.429  1.00  0.00     0.078 A 
ATOM     10  C   UNL     1      11.314  10.046  20.262  1.00  0.00     0.223 A 
ENDROOT
BRANCH   1  11
ATOM     11  C   UNL     1       8.849  10.467  20.637  1.00  0.00     0.087 A 
ATOM     12  C   UNL     1       7.978   9.561  21.267  1.00  0.00     0.022 A 
ATOM     13  C   UNL     1       6.902  10.028  22.025  1.00  0.00     0.051 A 
ATOM     14  C   UNL     1       6.671  11.404  22.155  1.00  0.00     0.157 A 
ATOM     15  C   UNL     1       8.601  11.845  20.752  1.00  0.00     0.068 A 
ATOM     16  C   UNL     1       7.524  12.316  21.512  1.00  0.00     0.158 A 
BRANCH  14  17
ATOM     17  O   UNL     1       5.597  11.866  22.914  1.00  0.00    -0.504 OA
ATOM     18  H   UNL     1       5.426  12.856  23.043  1.00  0.00     0.293 HD
ENDBRANCH  14  17
BRANCH  16  19
ATOM     19  O   UNL     1       7.318  13.691  21.615  1.00  0.00    -0.504 OA
ATOM     20  H   UNL     1       6.579  14.083  22.186  1.00  0.00     0.293 HD
ENDBRANCH  16  19
ENDBRANCH   1  11
BRANCH  10  21
ATOM     21  O   UNL     1      11.628  10.587  21.508  1.00  0.00    -0.500 OA
ATOM     22  H   UNL     1      12.213  10.094  22.172  1.00  0.00     0.294 HD
ENDBRANCH  10  21
BRANCH   5  23
ATOM     23  O   UNL     1      10.884   7.654  14.356  1.00  0.00    -0.507 OA
ATOM     24  H   UNL     1      11.557   7.218  13.736  1.00  0.00     0.293 HD
ENDBRANCH   5  23
BRANCH   7  25
ATOM     25  O   UNL     1      14.359   8.520  17.552  1.00  0.00    -0.507 OA
ATOM     26  H   UNL     1      14.770   8.882  18.400  1.00  0.00     0.293 HD
ENDBRANCH   7  25
TORSDOF 6
ENDMDL
MODEL 4
REMARK VINA RESULT:    28.807      4.852      7.830
REMARK INTER + INTRA:          34.390
REMARK INTER:                  34.674
REMARK INTRA:                  -0.284
REMARK UNBOUND:                -0.311
REMARK SMILES Oc1cc(O)c2cc(O)c(-c3ccc(O)c(O)c3)[o+]c2c1
REMARK SMILES IDX 10 1 19 2 20 3 21 4 2 5 3 6 4 7 6 8 7 9 8 10 11 11 12 12
REMARK SMILES IDX 13 13 14 14 18 15 16 16 15 17 17 19 9 21 1 23 5 25
REMARK H PARENT 15 18 17 20 9 22 1 24 5 26
REMARK Flexibility Score: inf
ROOT
ATOM      1  C   UNL     1       9.207   9.956  19.475  1.00  0.00     0.402 A 
ATOM      2  O   UNL     1      10.524   9.955  19.667  1.00  0.00    -0.202 OA
ATOM      3  C   UNL     1      11.394   9.534  18.755  1.00  0.00     0.368 A 
ATOM      4  C   UNL     1      12.760   9.574  19.050  1.00  0.00     0.162 A 
ATOM      5  C   UNL     1      13.698   9.141  18.107  1.00  0.00     0.128 A 
ATOM      6  C   UNL     1      13.267   8.664  16.867  1.00  0.00     0.093 A 
ATOM      7  C   UNL     1      11.904   8.614  16.548  1.00  0.00     0.136 A 
ATOM      8  C   UNL     1      10.949   9.051  17.501  1.00  0.00     0.125 A 
ATOM      9  C   UNL     1       9.563   9.025  17.275  1.00  0.00     0.078 A 
ATOM     10  C   UNL     1       8.681   9.468  18.265  1.00  0.00     0.223 A 
ENDROOT
BRANCH   1  11
ATOM     11  C   UNL     1       8.340  10.461  20.565  1.00  0.00     0.087 A 
ATOM     12  C   UNL     1       7.593   9.585  21.371  1.00  0.00     0.022 A 
ATOM     13  C   UNL     1       6.764  10.086  22.378  1.00  0.00     0.051 A 
ATOM     14  C   UNL     1       6.659  11.468  22.586  1.00  0.00     0.157 A 
ATOM     15  C   UNL     1       8.215  11.845  20.763  1.00  0.00     0.068 A 
ATOM     16  C   UNL     1       7.387  12.351  21.772  1.00  0.00     0.158 A 
BRANCH  14  17
ATOM     17  O   UNL     1       5.833  11.964  23.592  1.00  0.00    -0.504 OA
ATOM     18  H   UNL     1       5.636  11.429  24.430  1.00  0.00     0.293 HD
ENDBRANCH  14  17
BRANCH  16  19
ATOM     19  O   UNL     1       7.299  13.732  21.947  1.00  0.00    -0.504 OA
ATOM     20  H   UNL     1       6.904  14.143  22.784  1.00  0.00     0.293 HD
ENDBRANCH  16  19
ENDBRANCH   1  11
BRANCH  10  21
ATOM     21  O   UNL     1       7.304   9.395  18.058  1.00  0.00    -0.500 OA
ATOM     22  H   UNL     1       6.854   9.876  17.289  1.00  0.00     0.294 HD
ENDBRANCH  10  21
BRANCH   5  23
ATOM     23  O   UNL     1      15.060   9.178  18.394  1.00  0.00    -0.507 OA
ATOM     24  H   UNL     1      15.444   9.835  19.064  1.00  0.00     0.293 HD
ENDBRANCH   5  23
BRANCH   7  25
ATOM     25  O   UNL     1      11.557   8.129  15.285  1.00  0.00    -0.507 OA
ATOM     26  H   UNL     1      11.409   8.708  14.472  1.00  0.00     0.293 HD
ENDBRANCH   7  25
TORSDOF 6
ENDMDL
