MODEL 1
REMARK VINA RESULT:    -4.583      0.000      0.000
REMARK INTER + INTRA:          -8.416
REMARK INTER:                  -7.798
REMARK INTRA:                  -0.617
REMARK UNBOUND:                -0.617
REMARK SMILES CCCCCCCCCCCCCC(=O)[O-]
REMARK SMILES IDX 8 1 9 2 10 3 11 4 12 5 13 6 14 7 15 8 16 9 7 10 6 11 5 12
REMARK SMILES IDX 4 13 3 14 2 15 1 16
REMARK H PARENT
REMARK Flexibility Score: inf
ROOT
ATOM      1  C   UNL     1     -36.562  -8.905   1.000  1.00  0.00     0.000 C 
ENDROOT
BRANCH   1   2
ATOM      2  C   UNL     1     -37.611  -7.932   0.432  1.00  0.00     0.000 C 
BRANCH   2   3
ATOM      3  C   UNL     1     -37.564  -7.844  -1.102  1.00  0.00     0.000 C 
BRANCH   3   4
ATOM      4  C   UNL     1     -37.964  -6.453  -1.624  1.00  0.00     0.000 C 
BRANCH   4   5
ATOM      5  C   UNL     1     -37.604  -5.328  -0.641  1.00  0.00     0.006 C 
BRANCH   5   6
ATOM      6  C   UNL     1     -37.165  -4.042  -1.353  1.00  0.00     0.053 C 
BRANCH   6   7
ATOM      7  C   UNL     1     -37.352  -2.859  -0.455  1.00  0.00     0.041 C 
ATOM      8  O   UNL     1     -37.920  -2.994   0.661  1.00  0.00    -0.550 OA
ATOM      9  O   UNL     1     -36.943  -1.599  -0.872  1.00  0.00    -0.550 OA
ENDBRANCH   6   7
ENDBRANCH   5   6
ENDBRANCH   4   5
ENDBRANCH   3   4
ENDBRANCH   2   3
ENDBRANCH   1   2
BRANCH   1  10
ATOM     10  C   UNL     1     -35.919  -9.778  -0.090  1.00  0.00     0.000 C 
BRANCH  10  11
ATOM     11  C   UNL     1     -35.453 -11.142   0.446  1.00  0.00    -0.000 C 
BRANCH  11  12
ATOM     12  C   UNL     1     -35.080 -11.103   1.939  1.00  0.00    -0.000 C 
BRANCH  12  13
ATOM     13  C   UNL     1     -33.639 -11.541   2.258  1.00  0.00    -0.000 C 
BRANCH  13  14
ATOM     14  C   UNL     1     -33.272 -11.368   3.738  1.00  0.00    -0.000 C 
BRANCH  14  15
ATOM     15  C   UNL     1     -31.800 -10.970   3.897  1.00  0.00    -0.003 C 
ATOM     16  C   UNL     1     -31.025 -11.195   2.602  1.00  0.00     0.004 C 
ENDBRANCH  14  15
ENDBRANCH  13  14
ENDBRANCH  12  13
ENDBRANCH  11  12
ENDBRANCH  10  11
ENDBRANCH   1  10
TORSDOF 12
ENDMDL
MODEL 2
REMARK VINA RESULT:    -4.502      0.657      1.238
REMARK INTER + INTRA:          -8.278
REMARK INTER:                  -7.574
REMARK INTRA:                  -0.704
REMARK UNBOUND:                -0.617
REMARK SMILES CCCCCCCCCCCCCC(=O)[O-]
REMARK SMILES IDX 8 1 9 2 10 3 11 4 12 5 13 6 14 7 15 8 16 9 7 10 6 11 5 12
REMARK SMILES IDX 4 13 3 14 2 15 1 16
REMARK H PARENT
REMARK Flexibility Score: inf
ROOT
ATOM      1  C   UNL     1     -36.302  -8.750   0.971  1.00  0.00     0.000 C 
ENDROOT
BRANCH   1   2
ATOM      2  C   UNL     1     -37.496  -7.870   0.559  1.00  0.00     0.000 C 
BRANCH   2   3
ATOM      3  C   UNL     1     -37.961  -8.142  -0.880  1.00  0.00     0.000 C 
BRANCH   3   4
ATOM      4  C   UNL     1     -37.873  -6.892  -1.774  1.00  0.00     0.000 C 
BRANCH   4   5
ATOM      5  C   UNL     1     -38.117  -5.591  -0.993  1.00  0.00     0.006 C 
BRANCH   5   6
ATOM      6  C   UNL     1     -37.015  -4.550  -1.223  1.00  0.00     0.053 C 
BRANCH   6   7
ATOM      7  C   UNL     1     -37.393  -3.243  -0.600  1.00  0.00     0.041 C 
ATOM      8  O   UNL     1     -37.013  -2.160  -1.118  1.00  0.00    -0.550 OA
ATOM      9  O   UNL     1     -38.125  -3.222   0.580  1.00  0.00    -0.550 OA
ENDBRANCH   6   7
ENDBRANCH   5   6
ENDBRANCH   4   5
ENDBRANCH   3   4
ENDBRANCH   2   3
ENDBRANCH   1   2
BRANCH   1  10
ATOM     10  C   UNL     1     -36.481  -9.368   2.367  1.00  0.00     0.000 C 
BRANCH  10  11
ATOM     11  C   UNL     1     -35.959 -10.813   2.444  1.00  0.00    -0.000 C 
BRANCH  11  12
ATOM     12  C   UNL     1     -34.857 -11.106   1.410  1.00  0.00    -0.000 C 
BRANCH  12  13
ATOM     13  C   UNL     1     -33.614 -11.819   1.975  1.00  0.00    -0.000 C 
BRANCH  13  14
ATOM     14  C   UNL     1     -33.553 -11.793   3.508  1.00  0.00    -0.000 C 
BRANCH  14  15
ATOM     15  C   UNL     1     -32.314 -11.033   3.996  1.00  0.00    -0.003 C 
ATOM     16  C   UNL     1     -31.200 -11.066   2.955  1.00  0.00     0.004 C 
ENDBRANCH  14  15
ENDBRANCH  13  14
ENDBRANCH  12  13
ENDBRANCH  11  12
ENDBRANCH  10  11
ENDBRANCH   1  10
TORSDOF 12
ENDMDL
MODEL 3
REMARK VINA RESULT:    -4.474      4.100      8.111
REMARK INTER + INTRA:          -8.229
REMARK INTER:                  -7.738
REMARK INTRA:                  -0.492
REMARK UNBOUND:                -0.617
REMARK SMILES CCCCCCCCCCCCCC(=O)[O-]
REMARK SMILES IDX 8 1 9 2 10 3 11 4 12 5 13 6 14 7 15 8 16 9 7 10 6 11 5 12
REMARK SMILES IDX 4 13 3 14 2 15 1 16
REMARK H PARENT
REMARK Flexibility Score: inf
ROOT
ATOM      1  C   UNL     1     -36.201  -8.815   0.854  1.00  0.00     0.000 C 
ENDROOT
BRANCH   1   2
ATOM      2  C   UNL     1     -36.980  -9.023   2.165  1.00  0.00     0.000 C 
BRANCH   2   3
ATOM      3  C   UNL     1     -36.423 -10.183   3.005  1.00  0.00     0.000 C 
BRANCH   3   4
ATOM      4  C   UNL     1     -35.395 -11.028   2.233  1.00  0.00     0.000 C 
BRANCH   4   5
ATOM      5  C   UNL     1     -34.267 -11.553   3.135  1.00  0.00     0.006 C 
BRANCH   5   6
ATOM      6  C   UNL     1     -32.933 -11.690   2.390  1.00  0.00     0.053 C 
BRANCH   6   7
ATOM      7  C   UNL     1     -31.807 -11.192   3.241  1.00  0.00     0.041 C 
ATOM      8  O   UNL     1     -30.669 -11.000   2.738  1.00  0.00    -0.550 OA
ATOM      9  O   UNL     1     -32.002 -10.986   4.601  1.00  0.00    -0.550 OA
ENDBRANCH   6   7
ENDBRANCH   5   6
ENDBRANCH   4   5
ENDBRANCH   3   4
ENDBRANCH   2   3
ENDBRANCH   1   2
BRANCH   1  10
ATOM     10  C   UNL     1     -36.992  -9.278  -0.380  1.00  0.00     0.000 C 
BRANCH  10  11
ATOM     11  C   UNL     1     -37.237  -8.140  -1.385  1.00  0.00    -0.000 C 
BRANCH  11  12
ATOM     12  C   UNL     1     -37.223  -6.748  -0.727  1.00  0.00    -0.000 C 
BRANCH  12  13
ATOM     13  C   UNL     1     -38.060  -5.680  -1.455  1.00  0.00    -0.000 C 
BRANCH  13  14
ATOM     14  C   UNL     1     -37.295  -4.369  -1.682  1.00  0.00    -0.000 C 
BRANCH  14  15
ATOM     15  C   UNL     1     -37.466  -3.419  -0.492  1.00  0.00    -0.003 C 
ATOM     16  C   UNL     1     -36.982  -2.013  -0.832  1.00  0.00     0.004 C 
ENDBRANCH  14  15
ENDBRANCH  13  14
ENDBRANCH  12  13
ENDBRANCH  11  12
ENDBRANCH  10  11
ENDBRANCH   1  10
TORSDOF 12
ENDMDL
MODEL 4
REMARK VINA RESULT:    -4.382      4.054      8.241
REMARK INTER + INTRA:          -8.073
REMARK INTER:                  -7.503
REMARK INTRA:                  -0.569
REMARK UNBOUND:                -0.617
REMARK SMILES CCCCCCCCCCCCCC(=O)[O-]
REMARK SMILES IDX 8 1 9 2 10 3 11 4 12 5 13 6 14 7 15 8 16 9 7 10 6 11 5 12
REMARK SMILES IDX 4 13 3 14 2 15 1 16
REMARK H PARENT
REMARK Flexibility Score: inf
ROOT
ATOM      1  C   UNL     1     -36.301  -8.824   0.726  1.00  0.00     0.000 C 
ENDROOT
BRANCH   1   2
ATOM      2  C   UNL     1     -37.021 -10.185   0.700  1.00  0.00     0.000 C 
BRANCH   2   3
ATOM      3  C   UNL     1     -36.287 -11.256   1.522  1.00  0.00     0.000 C 
BRANCH   3   4
ATOM      4  C   UNL     1     -35.320 -10.648   2.553  1.00  0.00     0.000 C 
BRANCH   4   5
ATOM      5  C   UNL     1     -34.427 -11.706   3.220  1.00  0.00     0.006 C 
BRANCH   5   6
ATOM      6  C   UNL     1     -33.094 -11.899   2.486  1.00  0.00     0.053 C 
BRANCH   6   7
ATOM      7  C   UNL     1     -31.977 -11.272   3.260  1.00  0.00     0.041 C 
ATOM      8  O   UNL     1     -32.129 -10.991   4.478  1.00  0.00    -0.550 OA
ATOM      9  O   UNL     1     -30.784 -10.953   2.623  1.00  0.00    -0.550 OA
ENDBRANCH   6   7
ENDBRANCH   5   6
ENDBRANCH   4   5
ENDBRANCH   3   4
ENDBRANCH   2   3
ENDBRANCH   1   2
BRANCH   1  10
ATOM     10  C   UNL     1     -36.844  -7.851  -0.332  1.00  0.00     0.000 C 
BRANCH  10  11
ATOM     11  C   UNL     1     -38.115  -7.121   0.136  1.00  0.00    -0.000 C 
BRANCH  11  12
ATOM     12  C   UNL     1     -38.123  -5.630  -0.245  1.00  0.00    -0.000 C 
BRANCH  12  13
ATOM     13  C   UNL     1     -37.361  -5.289  -1.539  1.00  0.00    -0.000 C 
BRANCH  13  14
ATOM     14  C   UNL     1     -37.379  -3.790  -1.869  1.00  0.00    -0.000 C 
BRANCH  14  15
ATOM     15  C   UNL     1     -37.385  -2.946  -0.589  1.00  0.00    -0.003 C 
ATOM     16  C   UNL     1     -36.714  -1.594  -0.815  1.00  0.00     0.004 C 
ENDBRANCH  14  15
ENDBRANCH  13  14
ENDBRANCH  12  13
ENDBRANCH  11  12
ENDBRANCH  10  11
ENDBRANCH   1  10
TORSDOF 12
ENDMDL
MODEL 5
REMARK VINA RESULT:    -4.068      4.622      7.191
REMARK INTER + INTRA:          -7.540
REMARK INTER:                  -6.081
REMARK INTRA:                  -1.459
REMARK UNBOUND:                -0.617
REMARK SMILES CCCCCCCCCCCCCC(=O)[O-]
REMARK SMILES IDX 8 1 9 2 10 3 11 4 12 5 13 6 14 7 15 8 16 9 7 10 6 11 5 12
REMARK SMILES IDX 4 13 3 14 2 15 1 16
REMARK H PARENT
REMARK Flexibility Score: inf
ROOT
ATOM      1  C   UNL     1     -36.264  -9.120   2.060  1.00  0.00     0.000 C 
ENDROOT
BRANCH   1   2
ATOM      2  C   UNL     1     -36.512 -10.363   2.935  1.00  0.00     0.000 C 
BRANCH   2   3
ATOM      3  C   UNL     1     -35.981 -11.653   2.290  1.00  0.00     0.000 C 
BRANCH   3   4
ATOM      4  C   UNL     1     -34.519 -11.523   1.831  1.00  0.00     0.000 C 
BRANCH   4   5
ATOM      5  C   UNL     1     -33.518 -11.887   2.940  1.00  0.00     0.006 C 
BRANCH   5   6
ATOM      6  C   UNL     1     -32.803 -10.657   3.514  1.00  0.00     0.053 C 
BRANCH   6   7
ATOM      7  C   UNL     1     -31.333 -10.916   3.631  1.00  0.00     0.041 C 
ATOM      8  O   UNL     1     -30.636 -11.087   2.596  1.00  0.00    -0.550 OA
ATOM      9  O   UNL     1     -30.743 -11.017   4.883  1.00  0.00    -0.550 OA
ENDBRANCH   6   7
ENDBRANCH   5   6
ENDBRANCH   4   5
ENDBRANCH   3   4
ENDBRANCH   2   3
ENDBRANCH   1   2
BRANCH   1  10
ATOM     10  C   UNL     1     -37.566  -8.527   1.498  1.00  0.00     0.000 C 
BRANCH  10  11
ATOM     11  C   UNL     1     -37.524  -8.356  -0.030  1.00  0.00    -0.000 C 
BRANCH  11  12
ATOM     12  C   UNL     1     -36.144  -8.678  -0.631  1.00  0.00    -0.000 C 
BRANCH  12  13
ATOM     13  C   UNL     1     -36.172  -9.624  -1.845  1.00  0.00    -0.000 C 
BRANCH  13  14
ATOM     14  C   UNL     1     -36.587 -11.056  -1.480  1.00  0.00    -0.000 C 
BRANCH  14  15
ATOM     15  C   UNL     1     -35.380 -12.001  -1.507  1.00  0.00    -0.003 C 
ATOM     16  C   UNL     1     -34.226 -11.401  -2.304  1.00  0.00     0.004 C 
ENDBRANCH  14  15
ENDBRANCH  13  14
ENDBRANCH  12  13
ENDBRANCH  11  12
ENDBRANCH  10  11
ENDBRANCH   1  10
TORSDOF 12
ENDMDL
MODEL 6
REMARK VINA RESULT:    -4.051      2.659      3.721
REMARK INTER + INTRA:          -7.511
REMARK INTER:                  -6.306
REMARK INTRA:                  -1.205
REMARK UNBOUND:                -0.617
REMARK SMILES CCCCCCCCCCCCCC(=O)[O-]
REMARK SMILES IDX 8 1 9 2 10 3 11 4 12 5 13 6 14 7 15 8 16 9 7 10 6 11 5 12
REMARK SMILES IDX 4 13 3 14 2 15 1 16
REMARK H PARENT
REMARK Flexibility Score: inf
ROOT
ATOM      1  C   UNL     1     -34.335 -11.997  -0.065  1.00  0.00     0.000 C 
ENDROOT
BRANCH   1   2
ATOM      2  C   UNL     1     -34.580 -11.745  -1.564  1.00  0.00     0.000 C 
BRANCH   2   3
ATOM      3  C   UNL     1     -35.981 -11.181  -1.845  1.00  0.00     0.000 C 
BRANCH   3   4
ATOM      4  C   UNL     1     -35.936  -9.822  -2.565  1.00  0.00     0.000 C 
BRANCH   4   5
ATOM      5  C   UNL     1     -36.941  -8.814  -1.986  1.00  0.00     0.006 C 
BRANCH   5   6
ATOM      6  C   UNL     1     -36.454  -8.185  -0.673  1.00  0.00     0.053 C 
BRANCH   6   7
ATOM      7  C   UNL     1     -37.610  -7.927   0.241  1.00  0.00     0.041 C 
ATOM      8  O   UNL     1     -38.092  -6.768   0.342  1.00  0.00    -0.550 OA
ATOM      9  O   UNL     1     -38.124  -8.956   1.019  1.00  0.00    -0.550 OA
ENDBRANCH   6   7
ENDBRANCH   5   6
ENDBRANCH   4   5
ENDBRANCH   3   4
ENDBRANCH   2   3
ENDBRANCH   1   2
BRANCH   1  10
ATOM     10  C   UNL     1     -35.567 -11.675   0.794  1.00  0.00     0.000 C 
BRANCH  10  11
ATOM     11  C   UNL     1     -35.251 -10.686   1.930  1.00  0.00    -0.000 C 
BRANCH  11  12
ATOM     12  C   UNL     1     -35.164 -11.367   3.308  1.00  0.00    -0.000 C 
BRANCH  12  13
ATOM     13  C   UNL     1     -33.747 -11.803   3.725  1.00  0.00    -0.000 C 
BRANCH  13  14
ATOM     14  C   UNL     1     -32.697 -10.700   3.528  1.00  0.00    -0.000 C 
BRANCH  14  15
ATOM     15  C   UNL     1     -31.408 -11.270   2.926  1.00  0.00    -0.003 C 
ATOM     16  C   UNL     1     -30.217 -11.043   3.853  1.00  0.00     0.004 C 
ENDBRANCH  14  15
ENDBRANCH  13  14
ENDBRANCH  12  13
ENDBRANCH  11  12
ENDBRANCH  10  11
ENDBRANCH   1  10
TORSDOF 12
ENDMDL
MODEL 7
REMARK VINA RESULT:    -3.815      4.707      5.529
REMARK INTER + INTRA:          -7.109
REMARK INTER:                  -5.859
REMARK INTRA:                  -1.250
REMARK UNBOUND:                -0.617
REMARK SMILES CCCCCCCCCCCCCC(=O)[O-]
REMARK SMILES IDX 8 1 9 2 10 3 11 4 12 5 13 6 14 7 15 8 16 9 7 10 6 11 5 12
REMARK SMILES IDX 4 13 3 14 2 15 1 16
REMARK H PARENT
REMARK Flexibility Score: inf
ROOT
ATOM      1  C   UNL     1     -36.695  -8.801   1.534  1.00  0.00     0.000 C 
ENDROOT
BRANCH   1   2
ATOM      2  C   UNL     1     -37.877  -9.672   1.072  1.00  0.00     0.000 C 
BRANCH   2   3
ATOM      3  C   UNL     1     -37.620 -10.344  -0.286  1.00  0.00     0.000 C 
BRANCH   3   4
ATOM      4  C   UNL     1     -36.326  -9.844  -0.954  1.00  0.00     0.000 C 
BRANCH   4   5
ATOM      5  C   UNL     1     -35.232 -10.922  -0.997  1.00  0.00     0.006 C 
BRANCH   5   6
ATOM      6  C   UNL     1     -35.554 -12.050  -1.986  1.00  0.00     0.053 C 
BRANCH   6   7
ATOM      7  C   UNL     1     -34.589 -12.033  -3.130  1.00  0.00     0.041 C 
ATOM      8  O   UNL     1     -35.012 -11.981  -4.315  1.00  0.00    -0.550 OA
ATOM      9  O   UNL     1     -33.225 -12.125  -2.889  1.00  0.00    -0.550 OA
ENDBRANCH   6   7
ENDBRANCH   5   6
ENDBRANCH   4   5
ENDBRANCH   3   4
ENDBRANCH   2   3
ENDBRANCH   1   2
BRANCH   1  10
ATOM     10  C   UNL     1     -35.854  -9.482   2.625  1.00  0.00     0.000 C 
BRANCH  10  11
ATOM     11  C   UNL     1     -36.460 -10.817   3.089  1.00  0.00    -0.000 C 
BRANCH  11  12
ATOM     12  C   UNL     1     -35.540 -12.020   2.812  1.00  0.00    -0.000 C 
BRANCH  12  13
ATOM     13  C   UNL     1     -34.073 -11.656   2.517  1.00  0.00    -0.000 C 
BRANCH  13  14
ATOM     14  C   UNL     1     -33.187 -11.672   3.770  1.00  0.00    -0.000 C 
BRANCH  14  15
ATOM     15  C   UNL     1     -31.973 -10.752   3.596  1.00  0.00    -0.003 C 
ATOM     16  C   UNL     1     -30.958 -11.353   2.628  1.00  0.00     0.004 C 
ENDBRANCH  14  15
ENDBRANCH  13  14
ENDBRANCH  12  13
ENDBRANCH  11  12
ENDBRANCH  10  11
ENDBRANCH   1  10
TORSDOF 12
ENDMDL
MODEL 8
REMARK VINA RESULT:    -3.798     19.719     22.019
REMARK INTER + INTRA:          -7.080
REMARK INTER:                  -5.681
REMARK INTRA:                  -1.399
REMARK UNBOUND:                -0.617
REMARK SMILES CCCCCCCCCCCCCC(=O)[O-]
REMARK SMILES IDX 8 1 9 2 10 3 11 4 12 5 13 6 14 7 15 8 16 9 7 10 6 11 5 12
REMARK SMILES IDX 4 13 3 14 2 15 1 16
REMARK H PARENT
REMARK Flexibility Score: inf
ROOT
ATOM      1  C   UNL     1     -22.512   3.869  11.810  1.00  0.00     0.000 C 
ENDROOT
BRANCH   1   2
ATOM      2  C   UNL     1     -21.166   3.313  12.310  1.00  0.00     0.000 C 
BRANCH   2   3
ATOM      3  C   UNL     1     -20.040   3.479  11.277  1.00  0.00     0.000 C 
BRANCH   3   4
ATOM      4  C   UNL     1     -19.402   2.137  10.881  1.00  0.00     0.000 C 
BRANCH   4   5
ATOM      5  C   UNL     1     -19.479   1.871   9.369  1.00  0.00     0.006 C 
BRANCH   5   6
ATOM      6  C   UNL     1     -20.686   2.552   8.712  1.00  0.00     0.053 C 
BRANCH   6   7
ATOM      7  C   UNL     1     -21.834   1.596   8.612  1.00  0.00     0.041 C 
ATOM      8  O   UNL     1     -22.361   1.127   9.655  1.00  0.00    -0.550 OA
ATOM      9  O   UNL     1     -22.289   1.186   7.366  1.00  0.00    -0.550 OA
ENDBRANCH   6   7
ENDBRANCH   5   6
ENDBRANCH   4   5
ENDBRANCH   3   4
ENDBRANCH   2   3
ENDBRANCH   1   2
BRANCH   1  10
ATOM     10  C   UNL     1     -23.184   4.793  12.838  1.00  0.00     0.000 C 
BRANCH  10  11
ATOM     11  C   UNL     1     -24.461   5.454  12.290  1.00  0.00    -0.000 C 
BRANCH  11  12
ATOM     12  C   UNL     1     -24.366   6.990  12.246  1.00  0.00    -0.000 C 
BRANCH  12  13
ATOM     13  C   UNL     1     -22.933   7.549  12.181  1.00  0.00    -0.000 C 
BRANCH  13  14
ATOM     14  C   UNL     1     -22.517   7.972  10.765  1.00  0.00    -0.000 C 
BRANCH  14  15
ATOM     15  C   UNL     1     -21.052   7.612  10.492  1.00  0.00    -0.003 C 
ATOM     16  C   UNL     1     -20.941   6.478   9.477  1.00  0.00     0.004 C 
ENDBRANCH  14  15
ENDBRANCH  13  14
ENDBRANCH  12  13
ENDBRANCH  11  12
ENDBRANCH  10  11
ENDBRANCH   1  10
TORSDOF 12
ENDMDL
MODEL 9
REMARK VINA RESULT:    -3.778     19.946     22.399
REMARK INTER + INTRA:          -7.046
REMARK INTER:                  -5.572
REMARK INTRA:                  -1.475
REMARK UNBOUND:                -0.617
REMARK SMILES CCCCCCCCCCCCCC(=O)[O-]
REMARK SMILES IDX 8 1 9 2 10 3 11 4 12 5 13 6 14 7 15 8 16 9 7 10 6 11 5 12
REMARK SMILES IDX 4 13 3 14 2 15 1 16
REMARK H PARENT
REMARK Flexibility Score: inf
ROOT
ATOM      1  C   UNL     1     -21.994   4.185  11.084  1.00  0.00     0.000 C 
ENDROOT
BRANCH   1   2
ATOM      2  C   UNL     1     -21.475   3.412  12.310  1.00  0.00     0.000 C 
BRANCH   2   3
ATOM      3  C   UNL     1     -19.945   3.469  12.439  1.00  0.00     0.000 C 
BRANCH   3   4
ATOM      4  C   UNL     1     -19.258   2.222  11.856  1.00  0.00     0.000 C 
BRANCH   4   5
ATOM      5  C   UNL     1     -18.820   2.418  10.396  1.00  0.00     0.006 C 
BRANCH   5   6
ATOM      6  C   UNL     1     -19.328   1.303   9.473  1.00  0.00     0.053 C 
BRANCH   6   7
ATOM      7  C   UNL     1     -20.684   1.646   8.940  1.00  0.00     0.041 C 
ATOM      8  O   UNL     1     -20.815   2.553   8.077  1.00  0.00    -0.550 OA
ATOM      9  O   UNL     1     -21.809   0.996   9.432  1.00  0.00    -0.550 OA
ENDBRANCH   6   7
ENDBRANCH   5   6
ENDBRANCH   4   5
ENDBRANCH   3   4
ENDBRANCH   2   3
ENDBRANCH   1   2
BRANCH   1  10
ATOM     10  C   UNL     1     -21.083   5.364  10.704  1.00  0.00     0.000 C 
BRANCH  10  11
ATOM     11  C   UNL     1     -21.708   6.727  11.048  1.00  0.00    -0.000 C 
BRANCH  11  12
ATOM     12  C   UNL     1     -21.762   6.995  12.563  1.00  0.00    -0.000 C 
BRANCH  12  13
ATOM     13  C   UNL     1     -23.147   7.401  13.099  1.00  0.00    -0.000 C 
BRANCH  13  14
ATOM     14  C   UNL     1     -24.282   7.123  12.103  1.00  0.00    -0.000 C 
BRANCH  14  15
ATOM     15  C   UNL     1     -24.948   5.773  12.393  1.00  0.00    -0.003 C 
ATOM     16  C   UNL     1     -26.391   5.752  11.897  1.00  0.00     0.004 C 
ENDBRANCH  14  15
ENDBRANCH  13  14
ENDBRANCH  12  13
ENDBRANCH  11  12
ENDBRANCH  10  11
ENDBRANCH   1  10
TORSDOF 12
ENDMDL
