MODEL 1
REMARK VINA RESULT:    -3.935      0.000      0.000
REMARK INTER + INTRA:          -5.063
REMARK INTER:                  -4.740
REMARK INTRA:                  -0.324
REMARK UNBOUND:                -0.324
REMARK SMILES O=c1c(O)c(-c2ccc(O)c(O)c2)oc2cc(O)cc(O)c12
REMARK SMILES IDX 5 1 3 2 2 3 1 4 22 5 20 6 19 7 17 8 16 9 15 10 14 11 6 12
REMARK SMILES IDX 7 13 8 14 9 15 13 16 11 17 10 18 12 20 4 22 21 24 18 26
REMARK H PARENT 10 19 12 21 4 23 21 25 18 27
REMARK Flexibility Score: inf
ROOT
ATOM      1  C   UNL     1    -100.563  24.152 -29.008  1.00  0.00     0.180 A 
ATOM      2  C   UNL     1    -101.304  23.937 -30.184  1.00  0.00     0.208 A 
ATOM      3  C   UNL     1    -102.640  24.361 -30.234  1.00  0.00     0.238 A 
ATOM      4  O   UNL     1    -103.282  24.215 -31.307  1.00  0.00    -0.285 OA
ATOM      5  C   UNL     1    -103.225  24.983 -29.104  1.00  0.00     0.111 A 
ATOM      6  C   UNL     1    -104.583  25.417 -29.029  1.00  0.00     0.134 A 
ATOM      7  C   UNL     1    -105.018  26.136 -27.910  1.00  0.00     0.093 A 
ATOM      8  C   UNL     1    -104.161  26.380 -26.833  1.00  0.00     0.123 A 
ATOM      9  C   UNL     1    -102.851  25.908 -26.871  1.00  0.00     0.094 A 
ATOM     10  C   UNL     1    -102.378  25.219 -27.990  1.00  0.00     0.146 A 
ATOM     11  O   UNL     1    -101.120  24.795 -27.989  1.00  0.00    -0.452 OA
ENDROOT
BRANCH   1  12
ATOM     12  C   UNL     1     -99.156  23.709 -28.871  1.00  0.00     0.025 A 
ATOM     13  C   UNL     1     -98.121  24.567 -29.266  1.00  0.00     0.016 A 
ATOM     14  C   UNL     1     -96.789  24.178 -29.128  1.00  0.00     0.051 A 
ATOM     15  C   UNL     1     -96.461  22.934 -28.577  1.00  0.00     0.157 A 
ATOM     16  C   UNL     1     -98.832  22.467 -28.298  1.00  0.00     0.062 A 
ATOM     17  C   UNL     1     -97.497  22.070 -28.150  1.00  0.00     0.158 A 
BRANCH  15  18
ATOM     18  O   UNL     1     -95.109  22.602 -28.472  1.00  0.00    -0.504 OA
ATOM     19  H   UNL     1     -94.688  21.802 -28.923  1.00  0.00     0.293 HD
ENDBRANCH  15  18
BRANCH  17  20
ATOM     20  O   UNL     1     -97.249  20.822 -27.575  1.00  0.00    -0.504 OA
ATOM     21  H   UNL     1     -96.493  20.213 -27.853  1.00  0.00     0.293 HD
ENDBRANCH  17  20
ENDBRANCH   1  12
BRANCH   2  22
ATOM     22  O   UNL     1    -100.700  23.341 -31.295  1.00  0.00    -0.502 OA
ATOM     23  H   UNL     1     -99.824  23.671 -31.680  1.00  0.00     0.293 HD
ENDBRANCH   2  22
BRANCH   6  24
ATOM     24  O   UNL     1    -105.543  25.145 -30.008  1.00  0.00    -0.507 OA
ATOM     25  H   UNL     1    -105.394  25.237 -31.002  1.00  0.00     0.293 HD
ENDBRANCH   6  24
BRANCH   8  26
ATOM     26  O   UNL     1    -104.607  27.083 -25.715  1.00  0.00    -0.508 OA
ATOM     27  H   UNL     1    -103.965  27.401 -24.999  1.00  0.00     0.293 HD
ENDBRANCH   8  26
TORSDOF 6
ENDMDL
MODEL 2
REMARK VINA RESULT:    -3.905      8.395     11.038
REMARK INTER + INTRA:          -5.027
REMARK INTER:                  -4.728
REMARK INTRA:                  -0.300
REMARK UNBOUND:                -0.324
REMARK SMILES O=c1c(O)c(-c2ccc(O)c(O)c2)oc2cc(O)cc(O)c12
REMARK SMILES IDX 5 1 3 2 2 3 1 4 22 5 20 6 19 7 17 8 16 9 15 10 14 11 6 12
REMARK SMILES IDX 7 13 8 14 9 15 13 16 11 17 10 18 12 20 4 22 21 24 18 26
REMARK H PARENT 10 19 12 21 4 23 21 25 18 27
REMARK Flexibility Score: inf
ROOT
ATOM      1  C   UNL     1     -94.894  24.691 -36.521  1.00  0.00     0.180 A 
ATOM      2  C   UNL     1     -95.043  23.339 -36.880  1.00  0.00     0.208 A 
ATOM      3  C   UNL     1     -94.872  22.351 -35.898  1.00  0.00     0.238 A 
ATOM      4  O   UNL     1     -95.059  21.147 -36.213  1.00  0.00    -0.285 OA
ATOM      5  C   UNL     1     -94.541  22.725 -34.573  1.00  0.00     0.111 A 
ATOM      6  C   UNL     1     -94.306  21.805 -33.506  1.00  0.00     0.134 A 
ATOM      7  C   UNL     1     -94.114  22.289 -32.207  1.00  0.00     0.093 A 
ATOM      8  C   UNL     1     -94.083  23.662 -31.947  1.00  0.00     0.123 A 
ATOM      9  C   UNL     1     -94.252  24.568 -32.991  1.00  0.00     0.094 A 
ATOM     10  C   UNL     1     -94.482  24.115 -34.293  1.00  0.00     0.146 A 
ATOM     11  O   UNL     1     -94.647  25.012 -35.256  1.00  0.00    -0.452 OA
ENDROOT
BRANCH   1  12
ATOM     12  C   UNL     1     -95.033  25.787 -37.507  1.00  0.00     0.025 A 
ATOM     13  C   UNL     1     -93.888  26.313 -38.121  1.00  0.00     0.016 A 
ATOM     14  C   UNL     1     -93.997  27.333 -39.066  1.00  0.00     0.051 A 
ATOM     15  C   UNL     1     -95.251  27.837 -39.432  1.00  0.00     0.157 A 
ATOM     16  C   UNL     1     -96.295  26.275 -37.886  1.00  0.00     0.062 A 
ATOM     17  C   UNL     1     -96.416  27.296 -38.838  1.00  0.00     0.158 A 
BRANCH  15  18
ATOM     18  O   UNL     1     -95.293  28.862 -40.378  1.00  0.00    -0.504 OA
ATOM     19  H   UNL     1     -94.806  29.741 -40.280  1.00  0.00     0.293 HD
ENDBRANCH  15  18
BRANCH  17  20
ATOM     20  O   UNL     1     -97.702  27.733 -39.164  1.00  0.00    -0.504 OA
ATOM     21  H   UNL     1     -98.235  28.382 -38.605  1.00  0.00     0.293 HD
ENDBRANCH  17  20
ENDBRANCH   1  12
BRANCH   2  22
ATOM     22  O   UNL     1     -95.390  22.994 -38.189  1.00  0.00    -0.502 OA
ATOM     23  H   UNL     1     -96.217  22.450 -38.406  1.00  0.00     0.293 HD
ENDBRANCH   2  22
BRANCH   6  24
ATOM     24  O   UNL     1     -94.225  20.420 -33.674  1.00  0.00    -0.507 OA
ATOM     25  H   UNL     1     -93.426  19.932 -34.050  1.00  0.00     0.293 HD
ENDBRANCH   6  24
BRANCH   8  26
ATOM     26  O   UNL     1     -93.875  24.136 -30.653  1.00  0.00    -0.508 OA
ATOM     27  H   UNL     1     -93.611  25.098 -30.476  1.00  0.00     0.293 HD
ENDBRANCH   8  26
TORSDOF 6
ENDMDL
MODEL 3
REMARK VINA RESULT:    -3.768     12.405     14.034
REMARK INTER + INTRA:          -4.863
REMARK INTER:                  -4.685
REMARK INTRA:                  -0.177
REMARK UNBOUND:                -0.324
REMARK SMILES O=c1c(O)c(-c2ccc(O)c(O)c2)oc2cc(O)cc(O)c12
REMARK SMILES IDX 5 1 3 2 2 3 1 4 22 5 20 6 19 7 17 8 16 9 15 10 14 11 6 12
REMARK SMILES IDX 7 13 8 14 9 15 13 16 11 17 10 18 12 20 4 22 21 24 18 26
REMARK H PARENT 10 19 12 21 4 23 21 25 18 27
REMARK Flexibility Score: inf
ROOT
ATOM      1  C   UNL     1     -98.984  24.632 -42.114  1.00  0.00     0.180 A 
ATOM      2  C   UNL     1     -98.898  25.159 -40.813  1.00  0.00     0.208 A 
ATOM      3  C   UNL     1     -99.818  26.140 -40.413  1.00  0.00     0.238 A 
ATOM      4  O   UNL     1     -99.771  26.569 -39.231  1.00  0.00    -0.285 OA
ATOM      5  C   UNL     1    -100.804  26.594 -41.324  1.00  0.00     0.111 A 
ATOM      6  C   UNL     1    -101.763  27.612 -41.039  1.00  0.00     0.134 A 
ATOM      7  C   UNL     1    -102.773  27.889 -41.968  1.00  0.00     0.093 A 
ATOM      8  C   UNL     1    -102.820  27.229 -43.199  1.00  0.00     0.123 A 
ATOM      9  C   UNL     1    -101.854  26.276 -43.510  1.00  0.00     0.094 A 
ATOM     10  C   UNL     1    -100.854  25.952 -42.589  1.00  0.00     0.146 A 
ATOM     11  O   UNL     1     -99.959  25.031 -42.922  1.00  0.00    -0.452 OA
ENDROOT
BRANCH   1  12
ATOM     12  C   UNL     1     -98.032  23.614 -42.615  1.00  0.00     0.025 A 
ATOM     13  C   UNL     1     -98.513  22.361 -43.020  1.00  0.00     0.016 A 
ATOM     14  C   UNL     1     -97.638  21.394 -43.514  1.00  0.00     0.051 A 
ATOM     15  C   UNL     1     -96.269  21.662 -43.630  1.00  0.00     0.157 A 
ATOM     16  C   UNL     1     -96.662  23.895 -42.750  1.00  0.00     0.062 A 
ATOM     17  C   UNL     1     -95.775  22.932 -43.249  1.00  0.00     0.158 A 
BRANCH  15  18
ATOM     18  O   UNL     1     -95.445  20.649 -44.125  1.00  0.00    -0.504 OA
ATOM     19  H   UNL     1     -94.810  20.108 -43.555  1.00  0.00     0.293 HD
ENDBRANCH  15  18
BRANCH  17  20
ATOM     20  O   UNL     1     -94.427  23.280 -43.353  1.00  0.00    -0.504 OA
ATOM     21  H   UNL     1     -93.707  22.937 -42.733  1.00  0.00     0.293 HD
ENDBRANCH  17  20
ENDBRANCH   1  12
BRANCH   2  22
ATOM     22  O   UNL     1     -97.931  24.682 -39.924  1.00  0.00    -0.502 OA
ATOM     23  H   UNL     1     -98.034  24.754 -38.919  1.00  0.00     0.293 HD
ENDBRANCH   2  22
BRANCH   6  24
ATOM     24  O   UNL     1    -101.750  28.394 -39.880  1.00  0.00    -0.507 OA
ATOM     25  H   UNL     1    -100.968  28.472 -39.248  1.00  0.00     0.293 HD
ENDBRANCH   6  24
BRANCH   8  26
ATOM     26  O   UNL     1    -103.820  27.522 -44.125  1.00  0.00    -0.508 OA
ATOM     27  H   UNL     1    -103.602  27.905 -45.037  1.00  0.00     0.293 HD
ENDBRANCH   8  26
TORSDOF 6
ENDMDL
MODEL 4
REMARK VINA RESULT:    -3.758      2.768      3.828
REMARK INTER + INTRA:          -4.850
REMARK INTER:                  -4.556
REMARK INTRA:                  -0.294
REMARK UNBOUND:                -0.324
REMARK SMILES O=c1c(O)c(-c2ccc(O)c(O)c2)oc2cc(O)cc(O)c12
REMARK SMILES IDX 5 1 3 2 2 3 1 4 22 5 20 6 19 7 17 8 16 9 15 10 14 11 6 12
REMARK SMILES IDX 7 13 8 14 9 15 13 16 11 17 10 18 12 20 4 22 21 24 18 26
REMARK H PARENT 10 19 12 21 4 23 21 25 18 27
REMARK Flexibility Score: inf
ROOT
ATOM      1  C   UNL     1     -98.164  24.910 -28.333  1.00  0.00     0.180 A 
ATOM      2  C   UNL     1     -99.485  24.446 -28.465  1.00  0.00     0.208 A 
ATOM      3  C   UNL     1    -100.487  25.005 -27.657  1.00  0.00     0.238 A 
ATOM      4  O   UNL     1    -101.676  24.624 -27.817  1.00  0.00    -0.285 OA
ATOM      5  C   UNL     1    -100.155  26.010 -26.716  1.00  0.00     0.111 A 
ATOM      6  C   UNL     1    -101.083  26.619 -25.818  1.00  0.00     0.134 A 
ATOM      7  C   UNL     1    -100.670  27.694 -25.022  1.00  0.00     0.093 A 
ATOM      8  C   UNL     1     -99.345  28.139 -25.044  1.00  0.00     0.123 A 
ATOM      9  C   UNL     1     -98.418  27.512 -25.873  1.00  0.00     0.094 A 
ATOM     10  C   UNL     1     -98.809  26.461 -26.706  1.00  0.00     0.146 A 
ATOM     11  O   UNL     1     -97.896  25.899 -27.488  1.00  0.00    -0.452 OA
ENDROOT
BRANCH   1  12
ATOM     12  C   UNL     1     -97.049  24.351 -29.132  1.00  0.00     0.025 A 
ATOM     13  C   UNL     1     -96.849  24.800 -30.445  1.00  0.00     0.016 A 
ATOM     14  C   UNL     1     -95.793  24.301 -31.208  1.00  0.00     0.051 A 
ATOM     15  C   UNL     1     -94.906  23.359 -30.673  1.00  0.00     0.157 A 
ATOM     16  C   UNL     1     -96.149  23.421 -28.583  1.00  0.00     0.062 A 
ATOM     17  C   UNL     1     -95.083  22.918 -29.341  1.00  0.00     0.158 A 
BRANCH  15  18
ATOM     18  O   UNL     1     -93.875  22.895 -31.492  1.00  0.00    -0.504 OA
ATOM     19  H   UNL     1     -93.955  22.783 -32.492  1.00  0.00     0.293 HD
ENDBRANCH  15  18
BRANCH  17  20
ATOM     20  O   UNL     1     -94.230  21.996 -28.732  1.00  0.00    -0.504 OA
ATOM     21  H   UNL     1     -93.394  21.631 -29.164  1.00  0.00     0.293 HD
ENDBRANCH  17  20
ENDBRANCH   1  12
BRANCH   2  22
ATOM     22  O   UNL     1     -99.794  23.469 -29.415  1.00  0.00    -0.502 OA
ATOM     23  H   UNL     1     -99.239  23.327 -30.250  1.00  0.00     0.293 HD
ENDBRANCH   2  22
BRANCH   6  24
ATOM     24  O   UNL     1    -102.403  26.190 -25.652  1.00  0.00    -0.507 OA
ATOM     25  H   UNL     1    -102.712  25.538 -24.947  1.00  0.00     0.293 HD
ENDBRANCH   6  24
BRANCH   8  26
ATOM     26  O   UNL     1     -98.939  29.199 -24.236  1.00  0.00    -0.508 OA
ATOM     27  H   UNL     1     -98.626  30.078 -24.632  1.00  0.00     0.293 HD
ENDBRANCH   8  26
TORSDOF 6
ENDMDL
MODEL 5
REMARK VINA RESULT:    -3.750      2.843      4.640
REMARK INTER + INTRA:          -4.840
REMARK INTER:                  -4.591
REMARK INTRA:                  -0.249
REMARK UNBOUND:                -0.324
REMARK SMILES O=c1c(O)c(-c2ccc(O)c(O)c2)oc2cc(O)cc(O)c12
REMARK SMILES IDX 5 1 3 2 2 3 1 4 22 5 20 6 19 7 17 8 16 9 15 10 14 11 6 12
REMARK SMILES IDX 7 13 8 14 9 15 13 16 11 17 10 18 12 20 4 22 21 24 18 26
REMARK H PARENT 10 19 12 21 4 23 21 25 18 27
REMARK Flexibility Score: inf
ROOT
ATOM      1  C   UNL     1     -97.527  25.432 -27.800  1.00  0.00     0.180 A 
ATOM      2  C   UNL     1     -97.040  26.262 -26.776  1.00  0.00     0.208 A 
ATOM      3  C   UNL     1     -97.955  26.927 -25.945  1.00  0.00     0.238 A 
ATOM      4  O   UNL     1     -97.514  27.626 -24.996  1.00  0.00    -0.285 OA
ATOM      5  C   UNL     1     -99.346  26.765 -26.157  1.00  0.00     0.111 A 
ATOM      6  C   UNL     1    -100.363  27.421 -25.401  1.00  0.00     0.134 A 
ATOM      7  C   UNL     1    -101.706  27.086 -25.613  1.00  0.00     0.093 A 
ATOM      8  C   UNL     1    -102.072  26.166 -26.599  1.00  0.00     0.123 A 
ATOM      9  C   UNL     1    -101.090  25.565 -27.382  1.00  0.00     0.094 A 
ATOM     10  C   UNL     1     -99.739  25.851 -27.170  1.00  0.00     0.146 A 
ATOM     11  O   UNL     1     -98.835  25.249 -27.933  1.00  0.00    -0.452 OA
ENDROOT
BRANCH   1  12
ATOM     12  C   UNL     1     -96.623  24.718 -28.732  1.00  0.00     0.025 A 
ATOM     13  C   UNL     1     -96.457  25.201 -30.038  1.00  0.00     0.016 A 
ATOM     14  C   UNL     1     -95.596  24.556 -30.925  1.00  0.00     0.051 A 
ATOM     15  C   UNL     1     -94.871  23.428 -30.525  1.00  0.00     0.157 A 
ATOM     16  C   UNL     1     -95.881  23.598 -28.319  1.00  0.00     0.062 A 
ATOM     17  C   UNL     1     -95.010  22.946 -29.202  1.00  0.00     0.158 A 
BRANCH  15  18
ATOM     18  O   UNL     1     -94.032  22.824 -31.463  1.00  0.00    -0.504 OA
ATOM     19  H   UNL     1     -93.549  21.951 -31.310  1.00  0.00     0.293 HD
ENDBRANCH  15  18
BRANCH  17  20
ATOM     20  O   UNL     1     -94.308  21.838 -28.724  1.00  0.00    -0.504 OA
ATOM     21  H   UNL     1     -94.550  21.337 -27.882  1.00  0.00     0.293 HD
ENDBRANCH  17  20
ENDBRANCH   1  12
BRANCH   2  22
ATOM     22  O   UNL     1     -95.663  26.391 -26.570  1.00  0.00    -0.502 OA
ATOM     23  H   UNL     1     -94.982  25.870 -27.109  1.00  0.00     0.293 HD
ENDBRANCH   2  22
BRANCH   6  24
ATOM     24  O   UNL     1    -100.111  28.421 -24.458  1.00  0.00    -0.507 OA
ATOM     25  H   UNL     1    -100.719  29.205 -24.273  1.00  0.00     0.293 HD
ENDBRANCH   6  24
BRANCH   8  26
ATOM     26  O   UNL     1    -103.412  25.850 -26.814  1.00  0.00    -0.508 OA
ATOM     27  H   UNL     1    -103.919  26.207 -27.615  1.00  0.00     0.293 HD
ENDBRANCH   8  26
TORSDOF 6
ENDMDL
MODEL 6
REMARK VINA RESULT:    -3.731      1.280      3.099
REMARK INTER + INTRA:          -4.817
REMARK INTER:                  -4.495
REMARK INTRA:                  -0.322
REMARK UNBOUND:                -0.324
REMARK SMILES O=c1c(O)c(-c2ccc(O)c(O)c2)oc2cc(O)cc(O)c12
REMARK SMILES IDX 5 1 3 2 2 3 1 4 22 5 20 6 19 7 17 8 16 9 15 10 14 11 6 12
REMARK SMILES IDX 7 13 8 14 9 15 13 16 11 17 10 18 12 20 4 22 21 24 18 26
REMARK H PARENT 10 19 12 21 4 23 21 25 18 27
REMARK Flexibility Score: inf
ROOT
ATOM      1  C   UNL     1    -100.624  24.089 -29.140  1.00  0.00     0.180 A 
ATOM      2  C   UNL     1    -101.315  24.854 -28.183  1.00  0.00     0.208 A 
ATOM      3  C   UNL     1    -102.637  25.244 -28.448  1.00  0.00     0.238 A 
ATOM      4  O   UNL     1    -103.268  25.882 -27.566  1.00  0.00    -0.285 OA
ATOM      5  C   UNL     1    -103.247  24.877 -29.672  1.00  0.00     0.111 A 
ATOM      6  C   UNL     1    -104.569  25.251 -30.063  1.00  0.00     0.134 A 
ATOM      7  C   UNL     1    -105.117  24.724 -31.238  1.00  0.00     0.093 A 
ATOM      8  C   UNL     1    -104.367  23.888 -32.070  1.00  0.00     0.123 A 
ATOM      9  C   UNL     1    -103.057  23.565 -31.727  1.00  0.00     0.094 A 
ATOM     10  C   UNL     1    -102.494  24.047 -30.543  1.00  0.00     0.146 A 
ATOM     11  O   UNL     1    -101.246  23.707 -30.249  1.00  0.00    -0.452 OA
ENDROOT
BRANCH   1  12
ATOM     12  C   UNL     1     -99.220  23.663 -28.943  1.00  0.00     0.025 A 
ATOM     13  C   UNL     1     -98.178  24.522 -29.320  1.00  0.00     0.016 A 
ATOM     14  C   UNL     1     -96.848  24.148 -29.125  1.00  0.00     0.051 A 
ATOM     15  C   UNL     1     -96.530  22.919 -28.534  1.00  0.00     0.157 A 
ATOM     16  C   UNL     1     -98.906  22.437 -28.330  1.00  0.00     0.062 A 
ATOM     17  C   UNL     1     -97.574  22.055 -28.126  1.00  0.00     0.158 A 
BRANCH  15  18
ATOM     18  O   UNL     1     -95.180  22.602 -28.374  1.00  0.00    -0.504 OA
ATOM     19  H   UNL     1     -94.848  21.754 -27.937  1.00  0.00     0.293 HD
ENDBRANCH  15  18
BRANCH  17  20
ATOM     20  O   UNL     1     -97.336  20.823 -27.514  1.00  0.00    -0.504 OA
ATOM     21  H   UNL     1     -96.487  20.593 -27.019  1.00  0.00     0.293 HD
ENDBRANCH  17  20
ENDBRANCH   1  12
BRANCH   2  22
ATOM     22  O   UNL     1    -100.700  25.186 -26.973  1.00  0.00    -0.502 OA
ATOM     23  H   UNL     1    -101.228  25.451 -26.149  1.00  0.00     0.293 HD
ENDBRANCH   2  22
BRANCH   6  24
ATOM     24  O   UNL     1    -105.367  26.152 -29.352  1.00  0.00    -0.507 OA
ATOM     25  H   UNL     1    -106.336  26.001 -29.117  1.00  0.00     0.293 HD
ENDBRANCH   6  24
BRANCH   8  26
ATOM     26  O   UNL     1    -104.915  23.380 -33.247  1.00  0.00    -0.508 OA
ATOM     27  H   UNL     1    -104.427  23.449 -34.132  1.00  0.00     0.293 HD
ENDBRANCH   8  26
TORSDOF 6
ENDMDL
MODEL 7
REMARK VINA RESULT:    -3.701     10.214     11.734
REMARK INTER + INTRA:          -4.782
REMARK INTER:                  -4.453
REMARK INTRA:                  -0.329
REMARK UNBOUND:                -0.324
REMARK SMILES O=c1c(O)c(-c2ccc(O)c(O)c2)oc2cc(O)cc(O)c12
REMARK SMILES IDX 5 1 3 2 2 3 1 4 22 5 20 6 19 7 17 8 16 9 15 10 14 11 6 12
REMARK SMILES IDX 7 13 8 14 9 15 13 16 11 17 10 18 12 20 4 22 21 24 18 26
REMARK H PARENT 10 19 12 21 4 23 21 25 18 27
REMARK Flexibility Score: inf
ROOT
ATOM      1  C   UNL     1     -99.181  27.025 -39.205  1.00  0.00     0.180 A 
ATOM      2  C   UNL     1     -99.862  27.380 -38.027  1.00  0.00     0.208 A 
ATOM      3  C   UNL     1    -101.167  27.887 -38.123  1.00  0.00     0.238 A 
ATOM      4  O   UNL     1    -101.792  28.153 -37.063  1.00  0.00    -0.285 OA
ATOM      5  C   UNL     1    -101.771  28.045 -39.394  1.00  0.00     0.111 A 
ATOM      6  C   UNL     1    -103.074  28.586 -39.612  1.00  0.00     0.134 A 
ATOM      7  C   UNL     1    -103.620  28.574 -40.901  1.00  0.00     0.093 A 
ATOM      8  C   UNL     1    -102.884  28.102 -41.991  1.00  0.00     0.123 A 
ATOM      9  C   UNL     1    -101.589  27.628 -41.798  1.00  0.00     0.094 A 
ATOM     10  C   UNL     1    -101.030  27.592 -40.518  1.00  0.00     0.146 A 
ATOM     11  O   UNL     1     -99.797  27.123 -40.377  1.00  0.00    -0.452 OA
ENDROOT
BRANCH   1  12
ATOM     12  C   UNL     1     -97.793  26.508 -39.186  1.00  0.00     0.025 A 
ATOM     13  C   UNL     1     -97.572  25.126 -39.106  1.00  0.00     0.016 A 
ATOM     14  C   UNL     1     -96.273  24.616 -39.107  1.00  0.00     0.051 A 
ATOM     15  C   UNL     1     -95.170  25.472 -39.204  1.00  0.00     0.157 A 
ATOM     16  C   UNL     1     -96.689  27.369 -39.305  1.00  0.00     0.062 A 
ATOM     17  C   UNL     1     -95.381  26.867 -39.312  1.00  0.00     0.158 A 
BRANCH  15  18
ATOM     18  O   UNL     1     -93.897  24.900 -39.192  1.00  0.00    -0.504 OA
ATOM     19  H   UNL     1     -93.463  24.470 -39.996  1.00  0.00     0.293 HD
ENDBRANCH  15  18
BRANCH  17  20
ATOM     20  O   UNL     1     -94.333  27.782 -39.431  1.00  0.00    -0.504 OA
ATOM     21  H   UNL     1     -94.350  28.713 -39.041  1.00  0.00     0.293 HD
ENDBRANCH  17  20
ENDBRANCH   1  12
BRANCH   2  22
ATOM     22  O   UNL     1     -99.256  27.196 -36.782  1.00  0.00    -0.502 OA
ATOM     23  H   UNL     1     -99.754  26.817 -35.985  1.00  0.00     0.293 HD
ENDBRANCH   2  22
BRANCH   6  24
ATOM     24  O   UNL     1    -103.855  29.166 -38.608  1.00  0.00    -0.507 OA
ATOM     25  H   UNL     1    -103.803  30.133 -38.325  1.00  0.00     0.293 HD
ENDBRANCH   6  24
BRANCH   8  26
ATOM     26  O   UNL     1    -103.430  28.110 -43.273  1.00  0.00    -0.508 OA
ATOM     27  H   UNL     1    -104.127  27.432 -43.557  1.00  0.00     0.293 HD
ENDBRANCH   8  26
TORSDOF 6
ENDMDL
MODEL 8
REMARK VINA RESULT:    -3.683      9.723     12.720
REMARK INTER + INTRA:          -4.760
REMARK INTER:                  -4.458
REMARK INTRA:                  -0.302
REMARK UNBOUND:                -0.324
REMARK SMILES O=c1c(O)c(-c2ccc(O)c(O)c2)oc2cc(O)cc(O)c12
REMARK SMILES IDX 5 1 3 2 2 3 1 4 22 5 20 6 19 7 17 8 16 9 15 10 14 11 6 12
REMARK SMILES IDX 7 13 8 14 9 15 13 16 11 17 10 18 12 20 4 22 21 24 18 26
REMARK H PARENT 10 19 12 21 4 23 21 25 18 27
REMARK Flexibility Score: inf
ROOT
ATOM      1  C   UNL     1    -100.106  27.227 -38.794  1.00  0.00     0.180 A 
ATOM      2  C   UNL     1    -100.268  25.962 -39.387  1.00  0.00     0.208 A 
ATOM      3  C   UNL     1     -99.152  25.327 -39.954  1.00  0.00     0.238 A 
ATOM      4  O   UNL     1     -99.292  24.173 -40.435  1.00  0.00    -0.285 OA
ATOM      5  C   UNL     1     -97.891  25.971 -39.936  1.00  0.00     0.111 A 
ATOM      6  C   UNL     1     -96.700  25.438 -40.516  1.00  0.00     0.134 A 
ATOM      7  C   UNL     1     -95.482  26.100 -40.324  1.00  0.00     0.093 A 
ATOM      8  C   UNL     1     -95.422  27.311 -39.628  1.00  0.00     0.123 A 
ATOM      9  C   UNL     1     -96.588  27.869 -39.110  1.00  0.00     0.094 A 
ATOM     10  C   UNL     1     -97.813  27.213 -39.253  1.00  0.00     0.146 A 
ATOM     11  O   UNL     1     -98.898  27.775 -38.735  1.00  0.00    -0.452 OA
ENDROOT
BRANCH   1  12
ATOM     12  C   UNL     1    -101.241  27.969 -38.199  1.00  0.00     0.025 A 
ATOM     13  C   UNL     1    -101.371  28.028 -36.804  1.00  0.00     0.016 A 
ATOM     14  C   UNL     1    -102.421  28.738 -36.221  1.00  0.00     0.051 A 
ATOM     15  C   UNL     1    -103.352  29.417 -37.016  1.00  0.00     0.157 A 
ATOM     16  C   UNL     1    -102.161  28.667 -39.000  1.00  0.00     0.062 A 
ATOM     17  C   UNL     1    -103.216  29.387 -38.424  1.00  0.00     0.158 A 
BRANCH  15  18
ATOM     18  O   UNL     1    -104.383  30.103 -36.372  1.00  0.00    -0.504 OA
ATOM     19  H   UNL     1    -105.028  29.674 -35.724  1.00  0.00     0.293 HD
ENDBRANCH  15  18
BRANCH  17  20
ATOM     20  O   UNL     1    -104.093  30.054 -39.281  1.00  0.00    -0.504 OA
ATOM     21  H   UNL     1    -103.803  30.746 -39.957  1.00  0.00     0.293 HD
ENDBRANCH  17  20
ENDBRANCH   1  12
BRANCH   2  22
ATOM     22  O   UNL     1    -101.517  25.336 -39.375  1.00  0.00    -0.502 OA
ATOM     23  H   UNL     1    -101.625  24.335 -39.486  1.00  0.00     0.293 HD
ENDBRANCH   2  22
BRANCH   6  24
ATOM     24  O   UNL     1     -96.667  24.286 -41.306  1.00  0.00    -0.507 OA
ATOM     25  H   UNL     1     -97.332  23.529 -41.249  1.00  0.00     0.293 HD
ENDBRANCH   6  24
BRANCH   8  26
ATOM     26  O   UNL     1     -94.207  27.972 -39.456  1.00  0.00    -0.508 OA
ATOM     27  H   UNL     1     -93.326  27.472 -39.464  1.00  0.00     0.293 HD
ENDBRANCH   8  26
TORSDOF 6
ENDMDL
MODEL 9
REMARK VINA RESULT:    -3.665     11.727     13.392
REMARK INTER + INTRA:          -4.739
REMARK INTER:                  -4.427
REMARK INTRA:                  -0.311
REMARK UNBOUND:                -0.324
REMARK SMILES O=c1c(O)c(-c2ccc(O)c(O)c2)oc2cc(O)cc(O)c12
REMARK SMILES IDX 5 1 3 2 2 3 1 4 22 5 20 6 19 7 17 8 16 9 15 10 14 11 6 12
REMARK SMILES IDX 7 13 8 14 9 15 13 16 11 17 10 18 12 20 4 22 21 24 18 26
REMARK H PARENT 10 19 12 21 4 23 21 25 18 27
REMARK Flexibility Score: inf
ROOT
ATOM      1  C   UNL     1     -96.407  23.655 -40.903  1.00  0.00     0.180 A 
ATOM      2  C   UNL     1     -97.578  23.537 -40.134  1.00  0.00     0.208 A 
ATOM      3  C   UNL     1     -98.009  24.636 -39.376  1.00  0.00     0.238 A 
ATOM      4  O   UNL     1     -99.087  24.542 -38.732  1.00  0.00    -0.285 OA
ATOM      5  C   UNL     1     -97.257  25.836 -39.384  1.00  0.00     0.111 A 
ATOM      6  C   UNL     1     -97.579  27.000 -38.623  1.00  0.00     0.134 A 
ATOM      7  C   UNL     1     -96.839  28.173 -38.808  1.00  0.00     0.093 A 
ATOM      8  C   UNL     1     -95.746  28.206 -39.679  1.00  0.00     0.123 A 
ATOM      9  C   UNL     1     -95.388  27.058 -40.381  1.00  0.00     0.094 A 
ATOM     10  C   UNL     1     -96.130  25.882 -40.245  1.00  0.00     0.146 A 
ATOM     11  O   UNL     1     -95.760  24.814 -40.941  1.00  0.00    -0.452 OA
ENDROOT
BRANCH   1  12
ATOM     12  C   UNL     1     -95.876  22.531 -41.708  1.00  0.00     0.025 A 
ATOM     13  C   UNL     1     -96.072  22.523 -43.096  1.00  0.00     0.016 A 
ATOM     14  C   UNL     1     -95.563  21.484 -43.876  1.00  0.00     0.051 A 
ATOM     15  C   UNL     1     -94.834  20.442 -43.291  1.00  0.00     0.157 A 
ATOM     16  C   UNL     1     -95.126  21.498 -41.119  1.00  0.00     0.062 A 
ATOM     17  C   UNL     1     -94.607  20.453 -41.894  1.00  0.00     0.158 A 
BRANCH  15  18
ATOM     18  O   UNL     1     -94.359  19.429 -44.125  1.00  0.00    -0.504 OA
ATOM     19  H   UNL     1     -94.790  19.169 -45.000  1.00  0.00     0.293 HD
ENDBRANCH  15  18
BRANCH  17  20
ATOM     20  O   UNL     1     -93.875  19.460 -41.241  1.00  0.00    -0.504 OA
ATOM     21  H   UNL     1     -93.743  19.423 -40.241  1.00  0.00     0.293 HD
ENDBRANCH  17  20
ENDBRANCH   1  12
BRANCH   2  22
ATOM     22  O   UNL     1     -98.316  22.350 -40.158  1.00  0.00    -0.502 OA
ATOM     23  H   UNL     1     -99.300  22.317 -39.916  1.00  0.00     0.293 HD
ENDBRANCH   2  22
BRANCH   6  24
ATOM     24  O   UNL     1     -98.591  27.046 -37.659  1.00  0.00    -0.507 OA
ATOM     25  H   UNL     1     -99.577  27.113 -37.863  1.00  0.00     0.293 HD
ENDBRANCH   6  24
BRANCH   8  26
ATOM     26  O   UNL     1     -95.005  29.374 -39.845  1.00  0.00    -0.508 OA
ATOM     27  H   UNL     1     -93.998  29.382 -39.734  1.00  0.00     0.293 HD
ENDBRANCH   8  26
TORSDOF 6
ENDMDL
