MODEL 1
REMARK VINA RESULT:    -2.310      0.000      0.000
REMARK INTER + INTRA:          -7.611
REMARK INTER:                  -4.470
REMARK INTRA:                  -3.141
REMARK UNBOUND:                -3.141
REMARK SMILES CCCCCCCCCCCCCCCCCC(=O)[O-]
REMARK SMILES IDX 10 1 11 2 12 3 13 4 14 5 15 6 16 7 17 8 18 9 19 10 20 11
REMARK SMILES IDX 9 12 8 13 7 14 6 15 5 16 4 17 3 18 2 19 1 20
REMARK H PARENT
REMARK Flexibility Score: inf
ROOT
ATOM      1  C   UNL     1     144.007 148.880 140.653  1.00  0.00     0.000 C 
ENDROOT
BRANCH   1   2
ATOM      2  C   UNL     1     142.992 147.844 140.142  1.00  0.00     0.000 C 
BRANCH   2   3
ATOM      3  C   UNL     1     143.368 146.406 140.536  1.00  0.00     0.000 C 
BRANCH   3   4
ATOM      4  C   UNL     1     144.118 146.336 141.876  1.00  0.00     0.000 C 
BRANCH   4   5
ATOM      5  C   UNL     1     145.177 145.220 141.909  1.00  0.00     0.000 C 
BRANCH   5   6
ATOM      6  C   UNL     1     146.490 145.684 142.575  1.00  0.00     0.000 C 
BRANCH   6   7
ATOM      7  C   UNL     1     146.369 147.035 143.301  1.00  0.00     0.006 C 
BRANCH   7   8
ATOM      8  C   UNL     1     147.414 148.056 142.837  1.00  0.00     0.053 C 
BRANCH   8   9
ATOM      9  C   UNL     1     146.831 149.433 142.829  1.00  0.00     0.041 C 
ATOM     10  O   UNL     1     145.851 149.712 143.570  1.00  0.00    -0.550 OA
ATOM     11  O   UNL     1     147.400 150.425 142.039  1.00  0.00    -0.550 OA
ENDBRANCH   8   9
ENDBRANCH   7   8
ENDBRANCH   6   7
ENDBRANCH   5   6
ENDBRANCH   4   5
ENDBRANCH   3   4
ENDBRANCH   2   3
ENDBRANCH   1   2
BRANCH   1  12
ATOM     12  C   UNL     1     143.966 150.190 139.849  1.00  0.00     0.000 C 
BRANCH  12  13
ATOM     13  C   UNL     1     143.144 150.069 138.553  1.00  0.00    -0.000 C 
BRANCH  13  14
ATOM     14  C   UNL     1     143.867 150.540 137.275  1.00  0.00    -0.000 C 
BRANCH  14  15
ATOM     15  C   UNL     1     144.177 149.431 136.249  1.00  0.00    -0.000 C 
BRANCH  15  16
ATOM     16  C   UNL     1     143.353 148.140 136.409  1.00  0.00    -0.000 C 
BRANCH  16  17
ATOM     17  C   UNL     1     144.213 146.929 136.807  1.00  0.00    -0.000 C 
BRANCH  17  18
ATOM     18  C   UNL     1     145.663 147.313 137.156  1.00  0.00    -0.000 C 
BRANCH  18  19
ATOM     19  C   UNL     1     146.281 146.531 138.328  1.00  0.00    -0.003 C 
ATOM     20  C   UNL     1     147.086 147.413 139.282  1.00  0.00     0.004 C 
ENDBRANCH  18  19
ENDBRANCH  17  18
ENDBRANCH  16  17
ENDBRANCH  15  16
ENDBRANCH  14  15
ENDBRANCH  13  14
ENDBRANCH  12  13
ENDBRANCH   1  12
TORSDOF 16
ENDMDL
MODEL 2
REMARK VINA RESULT:    -2.284      3.147      5.364
REMARK INTER + INTRA:          -7.561
REMARK INTER:                  -4.994
REMARK INTRA:                  -2.566
REMARK UNBOUND:                -3.141
REMARK SMILES CCCCCCCCCCCCCCCCCC(=O)[O-]
REMARK SMILES IDX 10 1 11 2 12 3 13 4 14 5 15 6 16 7 17 8 18 9 19 10 20 11
REMARK SMILES IDX 9 12 8 13 7 14 6 15 5 16 4 17 3 18 2 19 1 20
REMARK H PARENT
REMARK Flexibility Score: inf
ROOT
ATOM      1  C   UNL     1     145.184 145.987 143.375  1.00  0.00     0.000 C 
ENDROOT
BRANCH   1   2
ATOM      2  C   UNL     1     144.297 146.166 144.618  1.00  0.00     0.000 C 
BRANCH   2   3
ATOM      3  C   UNL     1     143.876 147.629 144.836  1.00  0.00     0.000 C 
BRANCH   3   4
ATOM      4  C   UNL     1     143.694 148.396 143.516  1.00  0.00     0.000 C 
BRANCH   4   5
ATOM      5  C   UNL     1     143.922 149.909 143.670  1.00  0.00     0.000 C 
BRANCH   5   6
ATOM      6  C   UNL     1     144.488 150.275 145.059  1.00  0.00     0.000 C 
BRANCH   6   7
ATOM      7  C   UNL     1     143.571 151.202 145.874  1.00  0.00     0.006 C 
BRANCH   7   8
ATOM      8  C   UNL     1     144.349 152.156 146.788  1.00  0.00     0.053 C 
BRANCH   8   9
ATOM      9  C   UNL     1     145.016 151.395 147.890  1.00  0.00     0.041 C 
ATOM     10  O   UNL     1     146.262 151.475 148.052  1.00  0.00    -0.550 OA
ATOM     11  O   UNL     1     144.254 150.636 148.771  1.00  0.00    -0.550 OA
ENDBRANCH   8   9
ENDBRANCH   7   8
ENDBRANCH   6   7
ENDBRANCH   5   6
ENDBRANCH   4   5
ENDBRANCH   3   4
ENDBRANCH   2   3
ENDBRANCH   1   2
BRANCH   1  12
ATOM     12  C   UNL     1     146.679 145.896 143.727  1.00  0.00     0.000 C 
BRANCH  12  13
ATOM     13  C   UNL     1     147.564 146.738 142.790  1.00  0.00    -0.000 C 
BRANCH  13  14
ATOM     14  C   UNL     1     147.340 148.261 142.874  1.00  0.00    -0.000 C 
BRANCH  14  15
ATOM     15  C   UNL     1     146.799 148.919 141.589  1.00  0.00    -0.000 C 
BRANCH  15  16
ATOM     16  C   UNL     1     146.589 147.961 140.401  1.00  0.00    -0.000 C 
BRANCH  16  17
ATOM     17  C   UNL     1     145.104 147.690 140.109  1.00  0.00    -0.000 C 
BRANCH  17  18
ATOM     18  C   UNL     1     144.467 148.759 139.202  1.00  0.00    -0.000 C 
BRANCH  18  19
ATOM     19  C   UNL     1     143.549 149.763 139.921  1.00  0.00    -0.003 C 
ATOM     20  C   UNL     1     144.206 151.126 140.141  1.00  0.00     0.004 C 
ENDBRANCH  18  19
ENDBRANCH  17  18
ENDBRANCH  16  17
ENDBRANCH  15  16
ENDBRANCH  14  15
ENDBRANCH  13  14
ENDBRANCH  12  13
ENDBRANCH   1  12
TORSDOF 16
ENDMDL
MODEL 3
REMARK VINA RESULT:    -2.248      2.702      4.826
REMARK INTER + INTRA:          -7.492
REMARK INTER:                  -4.407
REMARK INTRA:                  -3.085
REMARK UNBOUND:                -3.141
REMARK SMILES CCCCCCCCCCCCCCCCCC(=O)[O-]
REMARK SMILES IDX 10 1 11 2 12 3 13 4 14 5 15 6 16 7 17 8 18 9 19 10 20 11
REMARK SMILES IDX 9 12 8 13 7 14 6 15 5 16 4 17 3 18 2 19 1 20
REMARK H PARENT
REMARK Flexibility Score: inf
ROOT
ATOM      1  C   UNL     1     146.645 149.155 141.484  1.00  0.00     0.000 C 
ENDROOT
BRANCH   1   2
ATOM      2  C   UNL     1     145.261 149.822 141.550  1.00  0.00     0.000 C 
BRANCH   2   3
ATOM      3  C   UNL     1     144.135 148.893 141.066  1.00  0.00     0.000 C 
BRANCH   3   4
ATOM      4  C   UNL     1     143.135 148.545 142.180  1.00  0.00     0.000 C 
BRANCH   4   5
ATOM      5  C   UNL     1     143.600 147.363 143.050  1.00  0.00     0.000 C 
BRANCH   5   6
ATOM      6  C   UNL     1     143.889 147.789 144.504  1.00  0.00     0.000 C 
BRANCH   6   7
ATOM      7  C   UNL     1     143.485 149.242 144.813  1.00  0.00     0.006 C 
BRANCH   7   8
ATOM      8  C   UNL     1     144.671 150.111 145.247  1.00  0.00     0.053 C 
BRANCH   8   9
ATOM      9  C   UNL     1     144.501 150.556 146.665  1.00  0.00     0.041 C 
ATOM     10  O   UNL     1     144.555 149.718 147.604  1.00  0.00    -0.550 OA
ATOM     11  O   UNL     1     144.334 151.905 146.954  1.00  0.00    -0.550 OA
ENDBRANCH   8   9
ENDBRANCH   7   8
ENDBRANCH   6   7
ENDBRANCH   5   6
ENDBRANCH   4   5
ENDBRANCH   3   4
ENDBRANCH   2   3
ENDBRANCH   1   2
BRANCH   1  12
ATOM     12  C   UNL     1     147.097 148.602 142.845  1.00  0.00     0.000 C 
BRANCH  12  13
ATOM     13  C   UNL     1     147.738 147.206 142.739  1.00  0.00    -0.000 C 
BRANCH  13  14
ATOM     14  C   UNL     1     147.079 146.117 143.610  1.00  0.00    -0.000 C 
BRANCH  14  15
ATOM     15  C   UNL     1     146.651 144.842 142.856  1.00  0.00    -0.000 C 
BRANCH  15  16
ATOM     16  C   UNL     1     147.443 144.544 141.570  1.00  0.00    -0.000 C 
BRANCH  16  17
ATOM     17  C   UNL     1     146.543 144.421 140.329  1.00  0.00    -0.000 C 
BRANCH  17  18
ATOM     18  C   UNL     1     145.570 145.605 140.176  1.00  0.00    -0.000 C 
BRANCH  18  19
ATOM     19  C   UNL     1     145.729 146.417 138.878  1.00  0.00    -0.003 C 
ATOM     20  C   UNL     1     147.135 146.989 138.697  1.00  0.00     0.004 C 
ENDBRANCH  18  19
ENDBRANCH  17  18
ENDBRANCH  16  17
ENDBRANCH  15  16
ENDBRANCH  14  15
ENDBRANCH  13  14
ENDBRANCH  12  13
ENDBRANCH   1  12
TORSDOF 16
ENDMDL
MODEL 4
REMARK VINA RESULT:    -2.189      2.824      5.266
REMARK INTER + INTRA:          -7.377
REMARK INTER:                  -4.429
REMARK INTRA:                  -2.948
REMARK UNBOUND:                -3.141
REMARK SMILES CCCCCCCCCCCCCCCCCC(=O)[O-]
REMARK SMILES IDX 10 1 11 2 12 3 13 4 14 5 15 6 16 7 17 8 18 9 19 10 20 11
REMARK SMILES IDX 9 12 8 13 7 14 6 15 5 16 4 17 3 18 2 19 1 20
REMARK H PARENT
REMARK Flexibility Score: inf
ROOT
ATOM      1  C   UNL     1     147.061 148.506 142.808  1.00  0.00     0.000 C 
ENDROOT
BRANCH   1   2
ATOM      2  C   UNL     1     146.658 149.024 141.418  1.00  0.00     0.000 C 
BRANCH   2   3
ATOM      3  C   UNL     1     145.525 150.063 141.481  1.00  0.00     0.000 C 
BRANCH   3   4
ATOM      4  C   UNL     1     144.188 149.512 140.962  1.00  0.00     0.000 C 
BRANCH   4   5
ATOM      5  C   UNL     1     143.037 149.695 141.967  1.00  0.00     0.000 C 
BRANCH   5   6
ATOM      6  C   UNL     1     143.433 150.612 143.143  1.00  0.00     0.000 C 
BRANCH   6   7
ATOM      7  C   UNL     1     143.444 149.898 144.506  1.00  0.00     0.006 C 
BRANCH   7   8
ATOM      8  C   UNL     1     144.685 150.228 145.342  1.00  0.00     0.053 C 
BRANCH   8   9
ATOM      9  C   UNL     1     144.310 151.064 146.525  1.00  0.00     0.041 C 
ATOM     10  O   UNL     1     143.121 151.447 146.680  1.00  0.00    -0.550 OA
ATOM     11  O   UNL     1     145.266 151.380 147.483  1.00  0.00    -0.550 OA
ENDBRANCH   8   9
ENDBRANCH   7   8
ENDBRANCH   6   7
ENDBRANCH   5   6
ENDBRANCH   4   5
ENDBRANCH   3   4
ENDBRANCH   2   3
ENDBRANCH   1   2
BRANCH   1  12
ATOM     12  C   UNL     1     146.108 147.418 143.331  1.00  0.00     0.000 C 
BRANCH  12  13
ATOM     13  C   UNL     1     146.776 146.034 143.423  1.00  0.00    -0.000 C 
BRANCH  13  14
ATOM     14  C   UNL     1     148.063 145.873 142.589  1.00  0.00    -0.000 C 
BRANCH  14  15
ATOM     15  C   UNL     1     148.148 144.580 141.753  1.00  0.00    -0.000 C 
BRANCH  15  16
ATOM     16  C   UNL     1     146.994 144.367 140.757  1.00  0.00    -0.000 C 
BRANCH  16  17
ATOM     17  C   UNL     1     146.737 145.597 139.871  1.00  0.00    -0.000 C 
BRANCH  17  18
ATOM     18  C   UNL     1     145.265 146.054 139.892  1.00  0.00    -0.000 C 
BRANCH  18  19
ATOM     19  C   UNL     1     144.324 145.179 140.738  1.00  0.00    -0.003 C 
ATOM     20  C   UNL     1     143.211 145.977 141.417  1.00  0.00     0.004 C 
ENDBRANCH  18  19
ENDBRANCH  17  18
ENDBRANCH  16  17
ENDBRANCH  15  16
ENDBRANCH  14  15
ENDBRANCH  13  14
ENDBRANCH  12  13
ENDBRANCH   1  12
TORSDOF 16
ENDMDL
MODEL 5
REMARK VINA RESULT:    -2.170      7.773      9.880
REMARK INTER + INTRA:          -7.341
REMARK INTER:                  -5.420
REMARK INTRA:                  -1.921
REMARK UNBOUND:                -3.141
REMARK SMILES CCCCCCCCCCCCCCCCCC(=O)[O-]
REMARK SMILES IDX 10 1 11 2 12 3 13 4 14 5 15 6 16 7 17 8 18 9 19 10 20 11
REMARK SMILES IDX 9 12 8 13 7 14 6 15 5 16 4 17 3 18 2 19 1 20
REMARK H PARENT
REMARK Flexibility Score: inf
ROOT
ATOM      1  C   UNL     1     146.037 151.131 149.170  1.00  0.00     0.000 C 
ENDROOT
BRANCH   1   2
ATOM      2  C   UNL     1     145.895 149.663 149.606  1.00  0.00     0.000 C 
BRANCH   2   3
ATOM      3  C   UNL     1     145.162 149.514 150.949  1.00  0.00     0.000 C 
BRANCH   3   4
ATOM      4  C   UNL     1     143.654 149.791 150.834  1.00  0.00     0.000 C 
BRANCH   4   5
ATOM      5  C   UNL     1     143.155 150.814 151.870  1.00  0.00     0.000 C 
BRANCH   5   6
ATOM      6  C   UNL     1     143.374 152.268 151.403  1.00  0.00     0.000 C 
BRANCH   6   7
ATOM      7  C   UNL     1     144.560 152.965 152.092  1.00  0.00     0.006 C 
BRANCH   7   8
ATOM      8  C   UNL     1     144.493 152.882 153.621  1.00  0.00     0.053 C 
BRANCH   8   9
ATOM      9  C   UNL     1     145.868 152.953 154.208  1.00  0.00     0.041 C 
ATOM     10  O   UNL     1     146.618 153.931 153.951  1.00  0.00    -0.550 OA
ATOM     11  O   UNL     1     146.303 151.962 155.080  1.00  0.00    -0.550 OA
ENDBRANCH   8   9
ENDBRANCH   7   8
ENDBRANCH   6   7
ENDBRANCH   5   6
ENDBRANCH   4   5
ENDBRANCH   3   4
ENDBRANCH   2   3
ENDBRANCH   1   2
BRANCH   1  12
ATOM     12  C   UNL     1     145.518 151.374 147.743  1.00  0.00     0.000 C 
BRANCH  12  13
ATOM     13  C   UNL     1     144.010 151.680 147.700  1.00  0.00    -0.000 C 
BRANCH  13  14
ATOM     14  C   UNL     1     143.128 150.538 147.158  1.00  0.00    -0.000 C 
BRANCH  14  15
ATOM     15  C   UNL     1     143.895 149.352 146.539  1.00  0.00    -0.000 C 
BRANCH  15  16
ATOM     16  C   UNL     1     143.828 149.258 145.004  1.00  0.00    -0.000 C 
BRANCH  16  17
ATOM     17  C   UNL     1     144.766 150.255 144.303  1.00  0.00    -0.000 C 
BRANCH  17  18
ATOM     18  C   UNL     1     145.280 149.741 142.945  1.00  0.00    -0.000 C 
BRANCH  18  19
ATOM     19  C   UNL     1     146.809 149.612 142.834  1.00  0.00    -0.003 C 
ATOM     20  C   UNL     1     147.296 148.164 142.891  1.00  0.00     0.004 C 
ENDBRANCH  18  19
ENDBRANCH  17  18
ENDBRANCH  16  17
ENDBRANCH  15  16
ENDBRANCH  14  15
ENDBRANCH  13  14
ENDBRANCH  12  13
ENDBRANCH   1  12
TORSDOF 16
ENDMDL
MODEL 6
REMARK VINA RESULT:    -2.161      2.590      5.701
REMARK INTER + INTRA:          -7.323
REMARK INTER:                  -4.384
REMARK INTRA:                  -2.939
REMARK UNBOUND:                -3.141
REMARK SMILES CCCCCCCCCCCCCCCCCC(=O)[O-]
REMARK SMILES IDX 10 1 11 2 12 3 13 4 14 5 15 6 16 7 17 8 18 9 19 10 20 11
REMARK SMILES IDX 9 12 8 13 7 14 6 15 5 16 4 17 3 18 2 19 1 20
REMARK H PARENT
REMARK Flexibility Score: inf
ROOT
ATOM      1  C   UNL     1     146.475 146.511 143.346  1.00  0.00     0.000 C 
ENDROOT
BRANCH   1   2
ATOM      2  C   UNL     1     146.150 145.559 142.184  1.00  0.00     0.000 C 
BRANCH   2   3
ATOM      3  C   UNL     1     147.131 145.704 141.009  1.00  0.00     0.000 C 
BRANCH   3   4
ATOM      4  C   UNL     1     146.444 145.555 139.642  1.00  0.00     0.000 C 
BRANCH   4   5
ATOM      5  C   UNL     1     145.934 146.894 139.083  1.00  0.00     0.000 C 
BRANCH   5   6
ATOM      6  C   UNL     1     144.483 146.794 138.565  1.00  0.00     0.000 C 
BRANCH   6   7
ATOM      7  C   UNL     1     144.151 147.812 137.460  1.00  0.00     0.006 C 
BRANCH   7   8
ATOM      8  C   UNL     1     143.338 149.006 137.974  1.00  0.00     0.053 C 
BRANCH   8   9
ATOM      9  C   UNL     1     143.844 150.279 137.374  1.00  0.00     0.041 C 
ATOM     10  O   UNL     1     143.710 151.369 137.991  1.00  0.00    -0.550 OA
ATOM     11  O   UNL     1     144.508 150.256 136.153  1.00  0.00    -0.550 OA
ENDBRANCH   8   9
ENDBRANCH   7   8
ENDBRANCH   6   7
ENDBRANCH   5   6
ENDBRANCH   4   5
ENDBRANCH   3   4
ENDBRANCH   2   3
ENDBRANCH   1   2
BRANCH   1  12
ATOM     12  C   UNL     1     147.499 147.590 142.954  1.00  0.00     0.000 C 
BRANCH  12  13
ATOM     13  C   UNL     1     146.893 149.006 142.930  1.00  0.00    -0.000 C 
BRANCH  13  14
ATOM     14  C   UNL     1     146.578 149.557 141.525  1.00  0.00    -0.000 C 
BRANCH  14  15
ATOM     15  C   UNL     1     145.089 149.858 141.256  1.00  0.00    -0.000 C 
BRANCH  15  16
ATOM     16  C   UNL     1     144.110 148.744 141.669  1.00  0.00    -0.000 C 
BRANCH  16  17
ATOM     17  C   UNL     1     143.159 149.175 142.798  1.00  0.00    -0.000 C 
BRANCH  17  18
ATOM     18  C   UNL     1     143.372 148.376 144.098  1.00  0.00    -0.000 C 
BRANCH  18  19
ATOM     19  C   UNL     1     144.028 149.163 145.246  1.00  0.00    -0.003 C 
ATOM     20  C   UNL     1     144.215 150.646 144.928  1.00  0.00     0.004 C 
ENDBRANCH  18  19
ENDBRANCH  17  18
ENDBRANCH  16  17
ENDBRANCH  15  16
ENDBRANCH  14  15
ENDBRANCH  13  14
ENDBRANCH  12  13
ENDBRANCH   1  12
TORSDOF 16
ENDMDL
MODEL 7
REMARK VINA RESULT:    -2.143      2.284      3.718
REMARK INTER + INTRA:          -7.288
REMARK INTER:                  -4.176
REMARK INTRA:                  -3.112
REMARK UNBOUND:                -3.141
REMARK SMILES CCCCCCCCCCCCCCCCCC(=O)[O-]
REMARK SMILES IDX 10 1 11 2 12 3 13 4 14 5 15 6 16 7 17 8 18 9 19 10 20 11
REMARK SMILES IDX 9 12 8 13 7 14 6 15 5 16 4 17 3 18 2 19 1 20
REMARK H PARENT
REMARK Flexibility Score: inf
ROOT
ATOM      1  C   UNL     1     147.371 147.872 142.996  1.00  0.00     0.000 C 
ENDROOT
BRANCH   1   2
ATOM      2  C   UNL     1     147.181 146.349 142.915  1.00  0.00     0.000 C 
BRANCH   2   3
ATOM      3  C   UNL     1     145.987 145.858 143.751  1.00  0.00     0.000 C 
BRANCH   3   4
ATOM      4  C   UNL     1     144.674 145.838 142.951  1.00  0.00     0.000 C 
BRANCH   4   5
ATOM      5  C   UNL     1     143.644 146.856 143.472  1.00  0.00     0.000 C 
BRANCH   5   6
ATOM      6  C   UNL     1     144.091 147.512 144.795  1.00  0.00     0.000 C 
BRANCH   6   7
ATOM      7  C   UNL     1     143.480 148.904 145.030  1.00  0.00     0.006 C 
BRANCH   7   8
ATOM      8  C   UNL     1     144.528 149.961 145.397  1.00  0.00     0.053 C 
BRANCH   8   9
ATOM      9  C   UNL     1     143.930 151.331 145.341  1.00  0.00     0.041 C 
ATOM     10  O   UNL     1     143.261 151.691 144.337  1.00  0.00    -0.550 OA
ATOM     11  O   UNL     1     144.070 152.195 146.421  1.00  0.00    -0.550 OA
ENDBRANCH   8   9
ENDBRANCH   7   8
ENDBRANCH   6   7
ENDBRANCH   5   6
ENDBRANCH   4   5
ENDBRANCH   3   4
ENDBRANCH   2   3
ENDBRANCH   1   2
BRANCH   1  12
ATOM     12  C   UNL     1     146.876 148.595 141.732  1.00  0.00     0.000 C 
BRANCH  12  13
ATOM     13  C   UNL     1     146.078 149.873 142.050  1.00  0.00    -0.000 C 
BRANCH  13  14
ATOM     14  C   UNL     1     144.607 149.855 141.590  1.00  0.00    -0.000 C 
BRANCH  14  15
ATOM     15  C   UNL     1     144.378 149.388 140.138  1.00  0.00    -0.000 C 
BRANCH  15  16
ATOM     16  C   UNL     1     143.739 147.995 139.990  1.00  0.00    -0.000 C 
BRANCH  16  17
ATOM     17  C   UNL     1     144.276 147.218 138.777  1.00  0.00    -0.000 C 
BRANCH  17  18
ATOM     18  C   UNL     1     145.713 147.621 138.396  1.00  0.00    -0.000 C 
BRANCH  18  19
ATOM     19  C   UNL     1     146.790 146.566 138.707  1.00  0.00    -0.003 C 
ATOM     20  C   UNL     1     146.256 145.383 139.514  1.00  0.00     0.004 C 
ENDBRANCH  18  19
ENDBRANCH  17  18
ENDBRANCH  16  17
ENDBRANCH  15  16
ENDBRANCH  14  15
ENDBRANCH  13  14
ENDBRANCH  12  13
ENDBRANCH   1  12
TORSDOF 16
ENDMDL
MODEL 8
REMARK VINA RESULT:    -2.143      2.933      5.226
REMARK INTER + INTRA:          -7.288
REMARK INTER:                  -4.283
REMARK INTRA:                  -3.005
REMARK UNBOUND:                -3.141
REMARK SMILES CCCCCCCCCCCCCCCCCC(=O)[O-]
REMARK SMILES IDX 10 1 11 2 12 3 13 4 14 5 15 6 16 7 17 8 18 9 19 10 20 11
REMARK SMILES IDX 9 12 8 13 7 14 6 15 5 16 4 17 3 18 2 19 1 20
REMARK H PARENT
REMARK Flexibility Score: inf
ROOT
ATOM      1  C   UNL     1     147.377 148.951 142.995  1.00  0.00     0.000 C 
ENDROOT
BRANCH   1   2
ATOM      2  C   UNL     1     146.863 147.505 142.905  1.00  0.00     0.000 C 
BRANCH   2   3
ATOM      3  C   UNL     1     148.003 146.472 142.909  1.00  0.00     0.000 C 
BRANCH   3   4
ATOM      4  C   UNL     1     147.567 145.108 142.350  1.00  0.00     0.000 C 
BRANCH   4   5
ATOM      5  C   UNL     1     146.089 145.082 141.924  1.00  0.00     0.000 C 
BRANCH   5   6
ATOM      6  C   UNL     1     145.916 144.676 140.446  1.00  0.00     0.000 C 
BRANCH   6   7
ATOM      7  C   UNL     1     145.707 145.871 139.499  1.00  0.00     0.006 C 
BRANCH   7   8
ATOM      8  C   UNL     1     147.024 146.447 138.967  1.00  0.00     0.053 C 
BRANCH   8   9
ATOM      9  C   UNL     1     146.937 146.674 137.491  1.00  0.00     0.041 C 
ATOM     10  O   UNL     1     145.821 146.878 136.945  1.00  0.00    -0.550 OA
ATOM     11  O   UNL     1     148.095 146.709 136.724  1.00  0.00    -0.550 OA
ENDBRANCH   8   9
ENDBRANCH   7   8
ENDBRANCH   6   7
ENDBRANCH   5   6
ENDBRANCH   4   5
ENDBRANCH   3   4
ENDBRANCH   2   3
ENDBRANCH   1   2
BRANCH   1  12
ATOM     12  C   UNL     1     146.673 149.889 142.001  1.00  0.00     0.000 C 
BRANCH  12  13
ATOM     13  C   UNL     1     145.677 149.152 141.088  1.00  0.00    -0.000 C 
BRANCH  13  14
ATOM     14  C   UNL     1     144.304 149.835 140.933  1.00  0.00    -0.000 C 
BRANCH  14  15
ATOM     15  C   UNL     1     143.084 148.918 141.155  1.00  0.00    -0.000 C 
BRANCH  15  16
ATOM     16  C   UNL     1     143.404 147.534 141.747  1.00  0.00    -0.000 C 
BRANCH  16  17
ATOM     17  C   UNL     1     142.875 147.361 143.180  1.00  0.00    -0.000 C 
BRANCH  17  18
ATOM     18  C   UNL     1     142.876 148.676 143.982  1.00  0.00    -0.000 C 
BRANCH  18  19
ATOM     19  C   UNL     1     144.121 148.906 144.856  1.00  0.00    -0.003 C 
ATOM     20  C   UNL     1     144.475 150.384 145.020  1.00  0.00     0.004 C 
ENDBRANCH  18  19
ENDBRANCH  17  18
ENDBRANCH  16  17
ENDBRANCH  15  16
ENDBRANCH  14  15
ENDBRANCH  13  14
ENDBRANCH  12  13
ENDBRANCH   1  12
TORSDOF 16
ENDMDL
MODEL 9
REMARK VINA RESULT:    -2.070      3.449      5.921
REMARK INTER + INTRA:          -7.148
REMARK INTER:                  -4.348
REMARK INTRA:                  -2.799
REMARK UNBOUND:                -3.141
REMARK SMILES CCCCCCCCCCCCCCCCCC(=O)[O-]
REMARK SMILES IDX 10 1 11 2 12 3 13 4 14 5 15 6 16 7 17 8 18 9 19 10 20 11
REMARK SMILES IDX 9 12 8 13 7 14 6 15 5 16 4 17 3 18 2 19 1 20
REMARK H PARENT
REMARK Flexibility Score: inf
ROOT
ATOM      1  C   UNL     1     147.037 149.251 142.626  1.00  0.00     0.000 C 
ENDROOT
BRANCH   1   2
ATOM      2  C   UNL     1     145.854 149.840 143.413  1.00  0.00     0.000 C 
BRANCH   2   3
ATOM      3  C   UNL     1     144.509 149.640 142.694  1.00  0.00     0.000 C 
BRANCH   3   4
ATOM      4  C   UNL     1     143.306 149.773 143.641  1.00  0.00     0.000 C 
BRANCH   4   5
ATOM      5  C   UNL     1     143.527 149.065 144.989  1.00  0.00     0.000 C 
BRANCH   5   6
ATOM      6  C   UNL     1     143.177 149.971 146.188  1.00  0.00     0.000 C 
BRANCH   6   7
ATOM      7  C   UNL     1     144.277 150.989 146.534  1.00  0.00     0.006 C 
BRANCH   7   8
ATOM      8  C   UNL     1     144.277 151.386 148.014  1.00  0.00     0.053 C 
BRANCH   8   9
ATOM      9  C   UNL     1     145.366 150.670 148.748  1.00  0.00     0.041 C 
ATOM     10  O   UNL     1     146.364 151.305 149.180  1.00  0.00    -0.550 OA
ATOM     11  O   UNL     1     145.255 149.308 148.999  1.00  0.00    -0.550 OA
ENDBRANCH   8   9
ENDBRANCH   7   8
ENDBRANCH   6   7
ENDBRANCH   5   6
ENDBRANCH   4   5
ENDBRANCH   3   4
ENDBRANCH   2   3
ENDBRANCH   1   2
BRANCH   1  12
ATOM     12  C   UNL     1     146.599 148.606 141.301  1.00  0.00     0.000 C 
BRANCH  12  13
ATOM     13  C   UNL     1     146.999 147.123 141.198  1.00  0.00    -0.000 C 
BRANCH  13  14
ATOM     14  C   UNL     1     147.552 146.505 142.498  1.00  0.00    -0.000 C 
BRANCH  14  15
ATOM     15  C   UNL     1     146.624 145.486 143.189  1.00  0.00    -0.000 C 
BRANCH  15  16
ATOM     16  C   UNL     1     145.560 146.094 144.120  1.00  0.00    -0.000 C 
BRANCH  16  17
ATOM     17  C   UNL     1     144.135 145.623 143.786  1.00  0.00    -0.000 C 
BRANCH  17  18
ATOM     18  C   UNL     1     143.890 145.482 142.271  1.00  0.00    -0.000 C 
BRANCH  18  19
ATOM     19  C   UNL     1     142.921 146.514 141.668  1.00  0.00    -0.003 C 
ATOM     20  C   UNL     1     143.346 146.998 140.281  1.00  0.00     0.004 C 
ENDBRANCH  18  19
ENDBRANCH  17  18
ENDBRANCH  16  17
ENDBRANCH  15  16
ENDBRANCH  14  15
ENDBRANCH  13  14
ENDBRANCH  12  13
ENDBRANCH   1  12
TORSDOF 16
ENDMDL
