MODEL 1
REMARK VINA RESULT:    -7.090      0.000      0.000
REMARK INTER + INTRA:          -8.868
REMARK INTER:                  -8.541
REMARK INTRA:                  -0.327
REMARK UNBOUND:                -0.327
REMARK SMILES O=c1c(O)c(-c2ccc(O)c(O)c2)oc2cc(O)cc(O)c12
REMARK SMILES IDX 5 1 3 2 2 3 1 4 22 5 20 6 19 7 17 8 16 9 15 10 14 11 6 12
REMARK SMILES IDX 7 13 8 14 9 15 13 16 11 17 10 18 12 20 4 22 21 24 18 26
REMARK H PARENT 10 19 12 21 4 23 21 25 18 27
REMARK Flexibility Score: inf
ROOT
ATOM      1  C   UNL     1     -13.527 -10.231 -16.309  1.00  0.00     0.180 A 
ATOM      2  C   UNL     1     -13.039  -9.103 -16.993  1.00  0.00     0.208 A 
ATOM      3  C   UNL     1     -11.703  -9.094 -17.425  1.00  0.00     0.238 A 
ATOM      4  O   UNL     1     -11.257  -8.061 -17.988  1.00  0.00    -0.285 OA
ATOM      5  C   UNL     1     -10.876 -10.217 -17.181  1.00  0.00     0.111 A 
ATOM      6  C   UNL     1      -9.519 -10.332 -17.608  1.00  0.00     0.134 A 
ATOM      7  C   UNL     1      -8.757 -11.434 -17.199  1.00  0.00     0.093 A 
ATOM      8  C   UNL     1      -9.320 -12.455 -16.434  1.00  0.00     0.123 A 
ATOM      9  C   UNL     1     -10.663 -12.381 -16.061  1.00  0.00     0.094 A 
ATOM     10  C   UNL     1     -11.438 -11.277 -16.423  1.00  0.00     0.146 A 
ATOM     11  O   UNL     1     -12.709 -11.241 -16.039  1.00  0.00    -0.452 OA
ENDROOT
BRANCH   1  12
ATOM     12  C   UNL     1     -14.930 -10.325 -15.845  1.00  0.00     0.025 A 
ATOM     13  C   UNL     1     -15.925 -10.922 -16.641  1.00  0.00     0.016 A 
ATOM     14  C   UNL     1     -17.237 -11.022 -16.172  1.00  0.00     0.051 A 
ATOM     15  C   UNL     1     -17.572 -10.539 -14.901  1.00  0.00     0.157 A 
ATOM     16  C   UNL     1     -15.267  -9.862 -14.563  1.00  0.00     0.062 A 
ATOM     17  C   UNL     1     -16.585  -9.961 -14.093  1.00  0.00     0.158 A 
BRANCH  15  18
ATOM     18  O   UNL     1     -18.881 -10.635 -14.431  1.00  0.00    -0.504 OA
ATOM     19  H   UNL     1     -19.671 -10.367 -15.005  1.00  0.00     0.293 HD
ENDBRANCH  15  18
BRANCH  17  20
ATOM     20  O   UNL     1     -16.919  -9.487 -12.826  1.00  0.00    -0.504 OA
ATOM     21  H   UNL     1     -16.335  -8.817 -12.339  1.00  0.00     0.293 HD
ENDBRANCH  17  20
ENDBRANCH   1  12
BRANCH   2  22
ATOM     22  O   UNL     1     -13.866  -7.996 -17.203  1.00  0.00    -0.502 OA
ATOM     23  H   UNL     1     -14.088  -7.336 -16.468  1.00  0.00     0.293 HD
ENDBRANCH   2  22
BRANCH   6  24
ATOM     24  O   UNL     1      -8.886  -9.414 -18.451  1.00  0.00    -0.507 OA
ATOM     25  H   UNL     1      -9.019  -9.364 -19.450  1.00  0.00     0.293 HD
ENDBRANCH   6  24
BRANCH   8  26
ATOM     26  O   UNL     1      -8.537 -13.544 -16.057  1.00  0.00    -0.508 OA
ATOM     27  H   UNL     1      -7.525 -13.493 -16.058  1.00  0.00     0.293 HD
ENDBRANCH   8  26
TORSDOF 6
ENDMDL
MODEL 2
REMARK VINA RESULT:    -6.875     12.760     13.718
REMARK INTER + INTRA:          -8.608
REMARK INTER:                  -8.285
REMARK INTRA:                  -0.323
REMARK UNBOUND:                -0.327
REMARK SMILES O=c1c(O)c(-c2ccc(O)c(O)c2)oc2cc(O)cc(O)c12
REMARK SMILES IDX 5 1 3 2 2 3 1 4 22 5 20 6 19 7 17 8 16 9 15 10 14 11 6 12
REMARK SMILES IDX 7 13 8 14 9 15 13 16 11 17 10 18 12 20 4 22 21 24 18 26
REMARK H PARENT 10 19 12 21 4 23 21 25 18 27
REMARK Flexibility Score: inf
ROOT
ATOM      1  C   UNL     1      -8.175 -19.311  -7.611  1.00  0.00     0.180 A 
ATOM      2  C   UNL     1      -7.763 -20.199  -8.620  1.00  0.00     0.208 A 
ATOM      3  C   UNL     1      -6.430 -20.159  -9.061  1.00  0.00     0.238 A 
ATOM      4  O   UNL     1      -6.082 -20.919 -10.001  1.00  0.00    -0.285 OA
ATOM      5  C   UNL     1      -5.523 -19.243  -8.477  1.00  0.00     0.111 A 
ATOM      6  C   UNL     1      -4.140 -19.144  -8.817  1.00  0.00     0.134 A 
ATOM      7  C   UNL     1      -3.366 -18.114  -8.268  1.00  0.00     0.093 A 
ATOM      8  C   UNL     1      -3.906 -17.222  -7.342  1.00  0.00     0.123 A 
ATOM      9  C   UNL     1      -5.242 -17.347  -6.957  1.00  0.00     0.094 A 
ATOM     10  C   UNL     1      -6.048 -18.342  -7.515  1.00  0.00     0.146 A 
ATOM     11  O   UNL     1      -7.317 -18.420  -7.129  1.00  0.00    -0.452 OA
ENDROOT
BRANCH   1  12
ATOM     12  C   UNL     1      -9.556 -19.310  -7.078  1.00  0.00     0.025 A 
ATOM     13  C   UNL     1     -10.560 -18.507  -7.650  1.00  0.00     0.016 A 
ATOM     14  C   UNL     1     -11.863 -18.542  -7.145  1.00  0.00     0.051 A 
ATOM     15  C   UNL     1     -12.184 -19.384  -6.074  1.00  0.00     0.157 A 
ATOM     16  C   UNL     1      -9.889 -20.169  -6.018  1.00  0.00     0.062 A 
ATOM     17  C   UNL     1     -11.196 -20.203  -5.511  1.00  0.00     0.158 A 
BRANCH  15  18
ATOM     18  O   UNL     1     -13.482 -19.420  -5.566  1.00  0.00    -0.504 OA
ATOM     19  H   UNL     1     -13.703 -19.044  -4.652  1.00  0.00     0.293 HD
ENDBRANCH  15  18
BRANCH  17  20
ATOM     20  O   UNL     1     -11.519 -21.046  -4.450  1.00  0.00    -0.504 OA
ATOM     21  H   UNL     1     -11.343 -22.043  -4.491  1.00  0.00     0.293 HD
ENDBRANCH  17  20
ENDBRANCH   1  12
BRANCH   2  22
ATOM     22  O   UNL     1      -8.682 -21.080  -9.200  1.00  0.00    -0.502 OA
ATOM     23  H   UNL     1      -8.618 -22.084  -9.085  1.00  0.00     0.293 HD
ENDBRANCH   2  22
BRANCH   6  24
ATOM     24  O   UNL     1      -3.477 -20.040  -9.661  1.00  0.00    -0.507 OA
ATOM     25  H   UNL     1      -3.003 -20.876  -9.353  1.00  0.00     0.293 HD
ENDBRANCH   6  24
BRANCH   8  26
ATOM     26  O   UNL     1      -3.102 -16.219  -6.804  1.00  0.00    -0.508 OA
ATOM     27  H   UNL     1      -2.656 -15.525  -7.393  1.00  0.00     0.293 HD
ENDBRANCH   8  26
TORSDOF 6
ENDMDL
MODEL 3
REMARK VINA RESULT:    -6.810     13.024     14.562
REMARK INTER + INTRA:          -8.530
REMARK INTER:                  -8.302
REMARK INTRA:                  -0.228
REMARK UNBOUND:                -0.327
REMARK SMILES O=c1c(O)c(-c2ccc(O)c(O)c2)oc2cc(O)cc(O)c12
REMARK SMILES IDX 5 1 3 2 2 3 1 4 22 5 20 6 19 7 17 8 16 9 15 10 14 11 6 12
REMARK SMILES IDX 7 13 8 14 9 15 13 16 11 17 10 18 12 20 4 22 21 24 18 26
REMARK H PARENT 10 19 12 21 4 23 21 25 18 27
REMARK Flexibility Score: inf
ROOT
ATOM      1  C   UNL     1     -11.738 -22.176 -10.251  1.00  0.00     0.180 A 
ATOM      2  C   UNL     1     -10.536 -21.561  -9.859  1.00  0.00     0.208 A 
ATOM      3  C   UNL     1     -10.543 -20.694  -8.755  1.00  0.00     0.238 A 
ATOM      4  O   UNL     1      -9.476 -20.105  -8.442  1.00  0.00    -0.285 OA
ATOM      5  C   UNL     1     -11.747 -20.465  -8.047  1.00  0.00     0.111 A 
ATOM      6  C   UNL     1     -11.863 -19.639  -6.889  1.00  0.00     0.134 A 
ATOM      7  C   UNL     1     -13.128 -19.381  -6.347  1.00  0.00     0.093 A 
ATOM      8  C   UNL     1     -14.273 -19.971  -6.879  1.00  0.00     0.123 A 
ATOM      9  C   UNL     1     -14.165 -20.830  -7.975  1.00  0.00     0.094 A 
ATOM     10  C   UNL     1     -12.921 -21.077  -8.559  1.00  0.00     0.146 A 
ATOM     11  O   UNL     1     -12.863 -21.891  -9.607  1.00  0.00    -0.452 OA
ENDROOT
BRANCH   1  12
ATOM     12  C   UNL     1     -11.805 -23.121 -11.390  1.00  0.00     0.025 A 
ATOM     13  C   UNL     1     -11.673 -22.677 -12.717  1.00  0.00     0.016 A 
ATOM     14  C   UNL     1     -11.715 -23.590 -13.774  1.00  0.00     0.051 A 
ATOM     15  C   UNL     1     -11.875 -24.958 -13.520  1.00  0.00     0.157 A 
ATOM     16  C   UNL     1     -11.944 -24.496 -11.140  1.00  0.00     0.062 A 
ATOM     17  C   UNL     1     -11.987 -25.413 -12.200  1.00  0.00     0.158 A 
BRANCH  15  18
ATOM     18  O   UNL     1     -11.919 -25.872 -14.572  1.00  0.00    -0.504 OA
ATOM     19  H   UNL     1     -12.766 -26.382 -14.795  1.00  0.00     0.293 HD
ENDBRANCH  15  18
BRANCH  17  20
ATOM     20  O   UNL     1     -12.140 -26.775 -11.949  1.00  0.00    -0.504 OA
ATOM     21  H   UNL     1     -12.804 -27.339 -12.466  1.00  0.00     0.293 HD
ENDBRANCH  17  20
ENDBRANCH   1  12
BRANCH   2  22
ATOM     22  O   UNL     1      -9.363 -21.783 -10.587  1.00  0.00    -0.502 OA
ATOM     23  H   UNL     1      -8.875 -22.671 -10.573  1.00  0.00     0.293 HD
ENDBRANCH   2  22
BRANCH   6  24
ATOM     24  O   UNL     1     -10.771 -19.073  -6.222  1.00  0.00    -0.507 OA
ATOM     25  H   UNL     1      -9.927 -19.569  -5.977  1.00  0.00     0.293 HD
ENDBRANCH   6  24
BRANCH   8  26
ATOM     26  O   UNL     1     -15.514 -19.705  -6.305  1.00  0.00    -0.508 OA
ATOM     27  H   UNL     1     -15.646 -19.718  -5.301  1.00  0.00     0.293 HD
ENDBRANCH   8  26
TORSDOF 6
ENDMDL
MODEL 4
REMARK VINA RESULT:    -6.783     12.538     13.594
REMARK INTER + INTRA:          -8.498
REMARK INTER:                  -8.168
REMARK INTRA:                  -0.330
REMARK UNBOUND:                -0.327
REMARK SMILES O=c1c(O)c(-c2ccc(O)c(O)c2)oc2cc(O)cc(O)c12
REMARK SMILES IDX 5 1 3 2 2 3 1 4 22 5 20 6 19 7 17 8 16 9 15 10 14 11 6 12
REMARK SMILES IDX 7 13 8 14 9 15 13 16 11 17 10 18 12 20 4 22 21 24 18 26
REMARK H PARENT 10 19 12 21 4 23 21 25 18 27
REMARK Flexibility Score: inf
ROOT
ATOM      1  C   UNL     1      -7.751 -19.354  -7.735  1.00  0.00     0.180 A 
ATOM      2  C   UNL     1      -7.343 -20.182  -8.796  1.00  0.00     0.208 A 
ATOM      3  C   UNL     1      -6.050 -20.027  -9.322  1.00  0.00     0.238 A 
ATOM      4  O   UNL     1      -5.710 -20.733 -10.306  1.00  0.00    -0.285 OA
ATOM      5  C   UNL     1      -5.177 -19.058  -8.771  1.00  0.00     0.111 A 
ATOM      6  C   UNL     1      -3.833 -18.842  -9.198  1.00  0.00     0.134 A 
ATOM      7  C   UNL     1      -3.104 -17.769  -8.671  1.00  0.00     0.093 A 
ATOM      8  C   UNL     1      -3.646 -16.945  -7.685  1.00  0.00     0.123 A 
ATOM      9  C   UNL     1      -4.939 -17.185  -7.216  1.00  0.00     0.094 A 
ATOM     10  C   UNL     1      -5.703 -18.225  -7.750  1.00  0.00     0.146 A 
ATOM     11  O   UNL     1      -6.933 -18.412  -7.284  1.00  0.00    -0.452 OA
ENDROOT
BRANCH   1  12
ATOM     12  C   UNL     1      -9.090 -19.475  -7.112  1.00  0.00     0.025 A 
ATOM     13  C   UNL     1      -9.335 -20.399  -6.080  1.00  0.00     0.016 A 
ATOM     14  C   UNL     1     -10.599 -20.478  -5.490  1.00  0.00     0.051 A 
ATOM     15  C   UNL     1     -11.630 -19.629  -5.912  1.00  0.00     0.157 A 
ATOM     16  C   UNL     1     -10.121 -18.612  -7.516  1.00  0.00     0.062 A 
ATOM     17  C   UNL     1     -11.390 -18.692  -6.925  1.00  0.00     0.158 A 
BRANCH  15  18
ATOM     18  O   UNL     1     -12.893 -19.706  -5.327  1.00  0.00    -0.504 OA
ATOM     19  H   UNL     1     -13.278 -18.934  -4.796  1.00  0.00     0.293 HD
ENDBRANCH  15  18
BRANCH  17  20
ATOM     20  O   UNL     1     -12.415 -17.843  -7.338  1.00  0.00    -0.504 OA
ATOM     21  H   UNL     1     -13.357 -18.184  -7.492  1.00  0.00     0.293 HD
ENDBRANCH  17  20
ENDBRANCH   1  12
BRANCH   2  22
ATOM     22  O   UNL     1      -8.229 -21.117  -9.340  1.00  0.00    -0.502 OA
ATOM     23  H   UNL     1      -8.541 -21.932  -8.827  1.00  0.00     0.293 HD
ENDBRANCH   2  22
BRANCH   6  24
ATOM     24  O   UNL     1      -3.163 -19.662 -10.111  1.00  0.00    -0.507 OA
ATOM     25  H   UNL     1      -3.203 -20.671 -10.115  1.00  0.00     0.293 HD
ENDBRANCH   6  24
BRANCH   8  26
ATOM     26  O   UNL     1      -2.887 -15.897  -7.171  1.00  0.00    -0.508 OA
ATOM     27  H   UNL     1      -2.105 -15.509  -7.684  1.00  0.00     0.293 HD
ENDBRANCH   8  26
TORSDOF 6
ENDMDL
MODEL 5
REMARK VINA RESULT:    -6.729     12.967     16.184
REMARK INTER + INTRA:          -8.432
REMARK INTER:                  -8.114
REMARK INTRA:                  -0.318
REMARK UNBOUND:                -0.327
REMARK SMILES O=c1c(O)c(-c2ccc(O)c(O)c2)oc2cc(O)cc(O)c12
REMARK SMILES IDX 5 1 3 2 2 3 1 4 22 5 20 6 19 7 17 8 16 9 15 10 14 11 6 12
REMARK SMILES IDX 7 13 8 14 9 15 13 16 11 17 10 18 12 20 4 22 21 24 18 26
REMARK H PARENT 10 19 12 21 4 23 21 25 18 27
REMARK Flexibility Score: inf
ROOT
ATOM      1  C   UNL     1      -7.927 -20.156  -6.336  1.00  0.00     0.180 A 
ATOM      2  C   UNL     1      -8.147 -19.114  -7.253  1.00  0.00     0.208 A 
ATOM      3  C   UNL     1      -9.453 -18.627  -7.431  1.00  0.00     0.238 A 
ATOM      4  O   UNL     1      -9.652 -17.732  -8.292  1.00  0.00    -0.285 OA
ATOM      5  C   UNL     1     -10.518 -19.178  -6.678  1.00  0.00     0.111 A 
ATOM      6  C   UNL     1     -11.873 -18.736  -6.747  1.00  0.00     0.134 A 
ATOM      7  C   UNL     1     -12.866 -19.440  -6.054  1.00  0.00     0.093 A 
ATOM      8  C   UNL     1     -12.545 -20.528  -5.244  1.00  0.00     0.123 A 
ATOM      9  C   UNL     1     -11.214 -20.932  -5.122  1.00  0.00     0.094 A 
ATOM     10  C   UNL     1     -10.207 -20.272  -5.829  1.00  0.00     0.146 A 
ATOM     11  O   UNL     1      -8.955 -20.696  -5.694  1.00  0.00    -0.452 OA
ENDROOT
BRANCH   1  12
ATOM     12  C   UNL     1      -6.575 -20.704  -6.077  1.00  0.00     0.025 A 
ATOM     13  C   UNL     1      -5.684 -20.065  -5.196  1.00  0.00     0.016 A 
ATOM     14  C   UNL     1      -4.423 -20.614  -4.948  1.00  0.00     0.051 A 
ATOM     15  C   UNL     1      -4.040 -21.813  -5.563  1.00  0.00     0.157 A 
ATOM     16  C   UNL     1      -6.194 -21.916  -6.674  1.00  0.00     0.062 A 
ATOM     17  C   UNL     1      -4.929 -22.467  -6.426  1.00  0.00     0.158 A 
BRANCH  15  18
ATOM     18  O   UNL     1      -2.783 -22.362  -5.320  1.00  0.00    -0.504 OA
ATOM     19  H   UNL     1      -2.670 -23.340  -5.078  1.00  0.00     0.293 HD
ENDBRANCH  15  18
BRANCH  17  20
ATOM     20  O   UNL     1      -4.549 -23.663  -7.032  1.00  0.00    -0.504 OA
ATOM     21  H   UNL     1      -4.743 -24.560  -6.604  1.00  0.00     0.293 HD
ENDBRANCH  17  20
ENDBRANCH   1  12
BRANCH   2  22
ATOM     22  O   UNL     1      -7.085 -18.600  -8.003  1.00  0.00    -0.502 OA
ATOM     23  H   UNL     1      -6.830 -17.620  -7.983  1.00  0.00     0.293 HD
ENDBRANCH   2  22
BRANCH   6  24
ATOM     24  O   UNL     1     -12.289 -17.604  -7.454  1.00  0.00    -0.507 OA
ATOM     25  H   UNL     1     -11.742 -17.132  -8.159  1.00  0.00     0.293 HD
ENDBRANCH   6  24
BRANCH   8  26
ATOM     26  O   UNL     1     -13.556 -21.195  -4.556  1.00  0.00    -0.508 OA
ATOM     27  H   UNL     1     -14.302 -20.691  -4.092  1.00  0.00     0.293 HD
ENDBRANCH   8  26
TORSDOF 6
ENDMDL
MODEL 6
REMARK VINA RESULT:    -6.678      1.814      2.876
REMARK INTER + INTRA:          -8.371
REMARK INTER:                  -8.119
REMARK INTRA:                  -0.252
REMARK UNBOUND:                -0.327
REMARK SMILES O=c1c(O)c(-c2ccc(O)c(O)c2)oc2cc(O)cc(O)c12
REMARK SMILES IDX 5 1 3 2 2 3 1 4 22 5 20 6 19 7 17 8 16 9 15 10 14 11 6 12
REMARK SMILES IDX 7 13 8 14 9 15 13 16 11 17 10 18 12 20 4 22 21 24 18 26
REMARK H PARENT 10 19 12 21 4 23 21 25 18 27
REMARK Flexibility Score: inf
ROOT
ATOM      1  C   UNL     1     -11.360 -10.873 -15.949  1.00  0.00     0.180 A 
ATOM      2  C   UNL     1     -10.491 -10.220 -16.841  1.00  0.00     0.208 A 
ATOM      3  C   UNL     1      -9.346 -10.894 -17.293  1.00  0.00     0.238 A 
ATOM      4  O   UNL     1      -8.545 -10.285 -18.049  1.00  0.00    -0.285 OA
ATOM      5  C   UNL     1      -9.091 -12.218 -16.861  1.00  0.00     0.111 A 
ATOM      6  C   UNL     1      -7.982 -13.010 -17.286  1.00  0.00     0.134 A 
ATOM      7  C   UNL     1      -7.758 -14.259 -16.693  1.00  0.00     0.093 A 
ATOM      8  C   UNL     1      -8.637 -14.772 -15.740  1.00  0.00     0.123 A 
ATOM      9  C   UNL     1      -9.757 -14.031 -15.361  1.00  0.00     0.094 A 
ATOM     10  C   UNL     1      -9.987 -12.767 -15.907  1.00  0.00     0.146 A 
ATOM     11  O   UNL     1     -11.059 -12.090 -15.511  1.00  0.00    -0.452 OA
ENDROOT
BRANCH   1  12
ATOM     12  C   UNL     1     -12.600 -10.237 -15.448  1.00  0.00     0.025 A 
ATOM     13  C   UNL     1     -13.866 -10.648 -15.899  1.00  0.00     0.016 A 
ATOM     14  C   UNL     1     -15.024 -10.050 -15.394  1.00  0.00     0.051 A 
ATOM     15  C   UNL     1     -14.933  -9.044 -14.424  1.00  0.00     0.157 A 
ATOM     16  C   UNL     1     -12.516  -9.242 -14.460  1.00  0.00     0.062 A 
ATOM     17  C   UNL     1     -13.677  -8.641 -13.953  1.00  0.00     0.158 A 
BRANCH  15  18
ATOM     18  O   UNL     1     -16.085  -8.443 -13.919  1.00  0.00    -0.504 OA
ATOM     19  H   UNL     1     -16.163  -8.186 -12.942  1.00  0.00     0.293 HD
ENDBRANCH  15  18
BRANCH  17  20
ATOM     20  O   UNL     1     -13.590  -7.644 -12.984  1.00  0.00    -0.504 OA
ATOM     21  H   UNL     1     -14.133  -6.791 -13.048  1.00  0.00     0.293 HD
ENDBRANCH  17  20
ENDBRANCH   1  12
BRANCH   2  22
ATOM     22  O   UNL     1     -10.750  -8.904 -17.238  1.00  0.00    -0.502 OA
ATOM     23  H   UNL     1     -11.129  -8.210 -16.605  1.00  0.00     0.293 HD
ENDBRANCH   2  22
BRANCH   6  24
ATOM     24  O   UNL     1      -7.095 -12.632 -18.298  1.00  0.00    -0.507 OA
ATOM     25  H   UNL     1      -7.360 -12.440 -19.253  1.00  0.00     0.293 HD
ENDBRANCH   6  24
BRANCH   8  26
ATOM     26  O   UNL     1      -8.392 -16.025 -15.183  1.00  0.00    -0.508 OA
ATOM     27  H   UNL     1      -8.655 -16.241 -14.229  1.00  0.00     0.293 HD
ENDBRANCH   8  26
TORSDOF 6
ENDMDL
MODEL 7
REMARK VINA RESULT:    -6.574      1.724      6.937
REMARK INTER + INTRA:          -8.246
REMARK INTER:                  -7.966
REMARK INTRA:                  -0.280
REMARK UNBOUND:                -0.327
REMARK SMILES O=c1c(O)c(-c2ccc(O)c(O)c2)oc2cc(O)cc(O)c12
REMARK SMILES IDX 5 1 3 2 2 3 1 4 22 5 20 6 19 7 17 8 16 9 15 10 14 11 6 12
REMARK SMILES IDX 7 13 8 14 9 15 13 16 11 17 10 18 12 20 4 22 21 24 18 26
REMARK H PARENT 10 19 12 21 4 23 21 25 18 27
REMARK Flexibility Score: inf
ROOT
ATOM      1  C   UNL     1     -13.208  -9.669 -16.422  1.00  0.00     0.180 A 
ATOM      2  C   UNL     1     -13.460  -9.417 -15.062  1.00  0.00     0.208 A 
ATOM      3  C   UNL     1     -14.680  -9.835 -14.507  1.00  0.00     0.238 A 
ATOM      4  O   UNL     1     -14.923  -9.558 -13.303  1.00  0.00    -0.285 OA
ATOM      5  C   UNL     1     -15.626 -10.513 -15.313  1.00  0.00     0.111 A 
ATOM      6  C   UNL     1     -16.877 -11.016 -14.846  1.00  0.00     0.134 A 
ATOM      7  C   UNL     1     -17.790 -11.556 -15.760  1.00  0.00     0.093 A 
ATOM      8  C   UNL     1     -17.472 -11.670 -17.113  1.00  0.00     0.123 A 
ATOM      9  C   UNL     1     -16.227 -11.236 -17.571  1.00  0.00     0.094 A 
ATOM     10  C   UNL     1     -15.310 -10.660 -16.689  1.00  0.00     0.146 A 
ATOM     11  O   UNL     1     -14.141 -10.250 -17.168  1.00  0.00    -0.452 OA
ENDROOT
BRANCH   1  12
ATOM     12  C   UNL     1     -11.936  -9.282 -17.073  1.00  0.00     0.025 A 
ATOM     13  C   UNL     1     -11.844  -8.126 -17.869  1.00  0.00     0.016 A 
ATOM     14  C   UNL     1     -10.626  -7.766 -18.453  1.00  0.00     0.051 A 
ATOM     15  C   UNL     1      -9.483  -8.547 -18.241  1.00  0.00     0.157 A 
ATOM     16  C   UNL     1     -10.781 -10.048 -16.846  1.00  0.00     0.062 A 
ATOM     17  C   UNL     1      -9.559  -9.689 -17.433  1.00  0.00     0.158 A 
BRANCH  15  18
ATOM     18  O   UNL     1      -8.267  -8.193 -18.823  1.00  0.00    -0.504 OA
ATOM     19  H   UNL     1      -7.648  -8.889 -19.221  1.00  0.00     0.293 HD
ENDBRANCH  15  18
BRANCH  17  20
ATOM     20  O   UNL     1      -8.419 -10.460 -17.217  1.00  0.00    -0.504 OA
ATOM     21  H   UNL     1      -7.503 -10.038 -17.122  1.00  0.00     0.293 HD
ENDBRANCH  17  20
ENDBRANCH   1  12
BRANCH   2  22
ATOM     22  O   UNL     1     -12.522  -8.725 -14.290  1.00  0.00    -0.502 OA
ATOM     23  H   UNL     1     -12.573  -8.687 -13.279  1.00  0.00     0.293 HD
ENDBRANCH   2  22
BRANCH   6  24
ATOM     24  O   UNL     1     -17.257 -11.035 -13.500  1.00  0.00    -0.507 OA
ATOM     25  H   UNL     1     -18.171 -11.299 -13.164  1.00  0.00     0.293 HD
ENDBRANCH   6  24
BRANCH   8  26
ATOM     26  O   UNL     1     -18.399 -12.226 -17.992  1.00  0.00    -0.508 OA
ATOM     27  H   UNL     1     -18.330 -12.084 -18.993  1.00  0.00     0.293 HD
ENDBRANCH   8  26
TORSDOF 6
ENDMDL
MODEL 8
REMARK VINA RESULT:    -6.554      1.569      6.966
REMARK INTER + INTRA:          -8.222
REMARK INTER:                  -7.904
REMARK INTRA:                  -0.318
REMARK UNBOUND:                -0.327
REMARK SMILES O=c1c(O)c(-c2ccc(O)c(O)c2)oc2cc(O)cc(O)c12
REMARK SMILES IDX 5 1 3 2 2 3 1 4 22 5 20 6 19 7 17 8 16 9 15 10 14 11 6 12
REMARK SMILES IDX 7 13 8 14 9 15 13 16 11 17 10 18 12 20 4 22 21 24 18 26
REMARK H PARENT 10 19 12 21 4 23 21 25 18 27
REMARK Flexibility Score: inf
ROOT
ATOM      1  C   UNL     1     -12.753 -10.682 -15.775  1.00  0.00     0.180 A 
ATOM      2  C   UNL     1     -12.879  -9.902 -14.612  1.00  0.00     0.208 A 
ATOM      3  C   UNL     1     -14.162  -9.628 -14.112  1.00  0.00     0.238 A 
ATOM      4  O   UNL     1     -14.271  -8.885 -13.102  1.00  0.00    -0.285 OA
ATOM      5  C   UNL     1     -15.302 -10.150 -14.770  1.00  0.00     0.111 A 
ATOM      6  C   UNL     1     -16.647  -9.970 -14.329  1.00  0.00     0.134 A 
ATOM      7  C   UNL     1     -17.703 -10.421 -15.130  1.00  0.00     0.093 A 
ATOM      8  C   UNL     1     -17.463 -11.103 -16.322  1.00  0.00     0.123 A 
ATOM      9  C   UNL     1     -16.150 -11.338 -16.733  1.00  0.00     0.094 A 
ATOM     10  C   UNL     1     -15.076 -10.868 -15.974  1.00  0.00     0.146 A 
ATOM     11  O   UNL     1     -13.843 -11.103 -16.406  1.00  0.00    -0.452 OA
ENDROOT
BRANCH   1  12
ATOM     12  C   UNL     1     -11.434 -11.034 -16.348  1.00  0.00     0.025 A 
ATOM     13  C   UNL     1     -10.837 -10.245 -17.348  1.00  0.00     0.016 A 
ATOM     14  C   UNL     1      -9.580 -10.583 -17.856  1.00  0.00     0.051 A 
ATOM     15  C   UNL     1      -8.897 -11.703 -17.366  1.00  0.00     0.157 A 
ATOM     16  C   UNL     1     -10.735 -12.144 -15.846  1.00  0.00     0.062 A 
ATOM     17  C   UNL     1      -9.474 -12.484 -16.356  1.00  0.00     0.158 A 
BRANCH  15  18
ATOM     18  O   UNL     1      -7.644 -12.044 -17.872  1.00  0.00    -0.504 OA
ATOM     19  H   UNL     1      -6.868 -12.267 -17.259  1.00  0.00     0.293 HD
ENDBRANCH  15  18
BRANCH  17  20
ATOM     20  O   UNL     1      -8.790 -13.594 -15.865  1.00  0.00    -0.504 OA
ATOM     21  H   UNL     1      -8.816 -13.842 -14.883  1.00  0.00     0.293 HD
ENDBRANCH  17  20
ENDBRANCH   1  12
BRANCH   2  22
ATOM     22  O   UNL     1     -11.742  -9.378 -13.990  1.00  0.00    -0.502 OA
ATOM     23  H   UNL     1     -11.355  -9.774 -13.142  1.00  0.00     0.293 HD
ENDBRANCH   2  22
BRANCH   6  24
ATOM     24  O   UNL     1     -16.996  -9.383 -13.109  1.00  0.00    -0.507 OA
ATOM     25  H   UNL     1     -17.655  -8.627 -13.002  1.00  0.00     0.293 HD
ENDBRANCH   6  24
BRANCH   8  26
ATOM     26  O   UNL     1     -18.538 -11.551 -17.087  1.00  0.00    -0.508 OA
ATOM     27  H   UNL     1     -18.655 -12.532 -17.311  1.00  0.00     0.293 HD
ENDBRANCH   8  26
TORSDOF 6
ENDMDL
MODEL 9
REMARK VINA RESULT:    -6.260      1.827      6.840
REMARK INTER + INTRA:          -7.867
REMARK INTER:                  -7.579
REMARK INTRA:                  -0.289
REMARK UNBOUND:                -0.327
REMARK SMILES O=c1c(O)c(-c2ccc(O)c(O)c2)oc2cc(O)cc(O)c12
REMARK SMILES IDX 5 1 3 2 2 3 1 4 22 5 20 6 19 7 17 8 16 9 15 10 14 11 6 12
REMARK SMILES IDX 7 13 8 14 9 15 13 16 11 17 10 18 12 20 4 22 21 24 18 26
REMARK H PARENT 10 19 12 21 4 23 21 25 18 27
REMARK Flexibility Score: inf
ROOT
ATOM      1  C   UNL     1     -13.284  -9.629 -16.903  1.00  0.00     0.180 A 
ATOM      2  C   UNL     1     -14.189 -10.250 -17.782  1.00  0.00     0.208 A 
ATOM      3  C   UNL     1     -15.417 -10.712 -17.280  1.00  0.00     0.238 A 
ATOM      4  O   UNL     1     -16.199 -11.316 -18.059  1.00  0.00    -0.285 OA
ATOM      5  C   UNL     1     -15.731 -10.533 -15.911  1.00  0.00     0.111 A 
ATOM      6  C   UNL     1     -16.962 -10.924 -15.304  1.00  0.00     0.134 A 
ATOM      7  C   UNL     1     -17.113 -10.816 -13.916  1.00  0.00     0.093 A 
ATOM      8  C   UNL     1     -16.105 -10.270 -13.122  1.00  0.00     0.123 A 
ATOM      9  C   UNL     1     -14.920  -9.828 -13.714  1.00  0.00     0.094 A 
ATOM     10  C   UNL     1     -14.727  -9.956 -15.091  1.00  0.00     0.146 A 
ATOM     11  O   UNL     1     -13.581  -9.534 -15.613  1.00  0.00    -0.452 OA
ENDROOT
BRANCH   1  12
ATOM     12  C   UNL     1     -11.982  -9.094 -17.362  1.00  0.00     0.025 A 
ATOM     13  C   UNL     1     -11.898  -7.883 -18.072  1.00  0.00     0.016 A 
ATOM     14  C   UNL     1     -10.655  -7.386 -18.474  1.00  0.00     0.051 A 
ATOM     15  C   UNL     1      -9.481  -8.082 -18.162  1.00  0.00     0.157 A 
ATOM     16  C   UNL     1     -10.800  -9.778 -17.034  1.00  0.00     0.062 A 
ATOM     17  C   UNL     1      -9.552  -9.279 -17.438  1.00  0.00     0.158 A 
BRANCH  15  18
ATOM     18  O   UNL     1      -8.240  -7.591 -18.563  1.00  0.00    -0.504 OA
ATOM     19  H   UNL     1      -8.001  -7.491 -19.543  1.00  0.00     0.293 HD
ENDBRANCH  15  18
BRANCH  17  20
ATOM     20  O   UNL     1      -8.383  -9.968 -17.123  1.00  0.00    -0.504 OA
ATOM     21  H   UNL     1      -7.488  -9.496 -17.068  1.00  0.00     0.293 HD
ENDBRANCH  17  20
ENDBRANCH   1  12
BRANCH   2  22
ATOM     22  O   UNL     1     -13.850 -10.438 -19.125  1.00  0.00    -0.502 OA
ATOM     23  H   UNL     1     -13.075  -9.953 -19.562  1.00  0.00     0.293 HD
ENDBRANCH   2  22
BRANCH   6  24
ATOM     24  O   UNL     1     -18.068 -11.397 -16.017  1.00  0.00    -0.507 OA
ATOM     25  H   UNL     1     -19.019 -11.093 -15.870  1.00  0.00     0.293 HD
ENDBRANCH   6  24
BRANCH   8  26
ATOM     26  O   UNL     1     -16.295 -10.163 -11.746  1.00  0.00    -0.508 OA
ATOM     27  H   UNL     1     -17.211  -9.990 -11.351  1.00  0.00     0.293 HD
ENDBRANCH   8  26
TORSDOF 6
ENDMDL
