MODEL 1
REMARK VINA RESULT:    -6.160      0.000      0.000
REMARK INTER + INTRA:         -11.033
REMARK INTER:                  -9.041
REMARK INTRA:                  -1.992
REMARK UNBOUND:                -1.992
REMARK SMILES O=c1c(O[C@@H]2O[C@@H](CO)[C@H](O)[C@H](O)[C@@H]2O)c(-c2ccc(O)c(O)c2)oc2cc(O)cc(O)c12
REMARK SMILES IDX 4 1 3 2 16 3 25 4 2 5 26 6 1 7 33 8 27 9 31 10 28 11 30 12
REMARK SMILES IDX 17 13 18 14 19 15 20 16 24 17 22 18 21 19 23 21 32 23 29 25
REMARK SMILES IDX 5 27 14 28 6 29 12 30 7 31 10 32 15 33 13 35 8 37 9 38 11 40
REMARK H PARENT 21 20 23 22 32 24 29 26 15 34 13 36 9 39 11 41
REMARK Flexibility Score: inf
ROOT
ATOM      1  O   UNL     1       0.196 -41.473 -33.332  1.00  0.00    -0.454 OA
ENDROOT
BRANCH   1   2
ATOM      2  C   UNL     1       0.359 -42.094 -34.589  1.00  0.00     0.214 A 
ATOM      3  C   UNL     1      -0.782 -42.253 -35.403  1.00  0.00     0.180 A 
ATOM      4  O   UNL     1      -0.672 -42.756 -36.626  1.00  0.00    -0.452 OA
ATOM      5  C   UNL     1       1.603 -42.536 -35.097  1.00  0.00     0.239 A 
ATOM      6  C   UNL     1       0.477 -43.165 -37.146  1.00  0.00     0.146 A 
ATOM      7  O   UNL     1       2.647 -42.444 -34.399  1.00  0.00    -0.285 OA
ATOM      8  C   UNL     1       1.673 -43.082 -36.397  1.00  0.00     0.111 A 
ATOM      9  C   UNL     1       0.489 -43.684 -38.443  1.00  0.00     0.094 A 
ATOM     10  C   UNL     1       2.881 -43.540 -36.980  1.00  0.00     0.134 A 
ATOM     11  C   UNL     1       1.684 -44.131 -39.014  1.00  0.00     0.123 A 
ATOM     12  C   UNL     1       2.872 -44.060 -38.284  1.00  0.00     0.093 A 
BRANCH   3  13
ATOM     13  C   UNL     1      -2.127 -41.858 -34.937  1.00  0.00     0.025 A 
ATOM     14  C   UNL     1      -2.637 -40.595 -35.271  1.00  0.00     0.016 A 
ATOM     15  C   UNL     1      -3.917 -40.219 -34.858  1.00  0.00     0.051 A 
ATOM     16  C   UNL     1      -4.710 -41.105 -34.120  1.00  0.00     0.157 A 
ATOM     17  C   UNL     1      -2.933 -42.756 -34.217  1.00  0.00     0.062 A 
ATOM     18  C   UNL     1      -4.219 -42.382 -33.802  1.00  0.00     0.158 A 
BRANCH  16  19
ATOM     19  O   UNL     1      -5.983 -40.701 -33.718  1.00  0.00    -0.504 OA
ATOM     20  H   UNL     1      -6.801 -41.283 -33.855  1.00  0.00     0.293 HD
ENDBRANCH  16  19
BRANCH  18  21
ATOM     21  O   UNL     1      -5.009 -43.276 -33.081  1.00  0.00    -0.504 OA
ATOM     22  H   UNL     1      -4.635 -43.810 -32.305  1.00  0.00     0.293 HD
ENDBRANCH  18  21
ENDBRANCH   3  13
BRANCH  10  23
ATOM     23  O   UNL     1       4.086 -43.483 -36.280  1.00  0.00    -0.507 OA
ATOM     24  H   UNL     1       4.838 -44.141 -36.455  1.00  0.00     0.293 HD
ENDBRANCH  10  23
BRANCH  11  25
ATOM     25  O   UNL     1       1.702 -44.649 -40.307  1.00  0.00    -0.508 OA
ATOM     26  H   UNL     1       2.403 -45.320 -40.599  1.00  0.00     0.293 HD
ENDBRANCH  11  25
ENDBRANCH   1   2
BRANCH   1  27
ATOM     27  C   UNL     1       0.164 -42.114 -32.050  1.00  0.00     0.339 C 
ATOM     28  C   UNL     1       1.216 -41.502 -31.100  1.00  0.00     0.214 C 
ATOM     29  O   UNL     1      -1.133 -42.062 -31.476  1.00  0.00    -0.332 OA
ATOM     30  C   UNL     1       0.824 -40.075 -30.681  1.00  0.00     0.180 C 
ATOM     31  C   UNL     1      -1.552 -40.727 -31.241  1.00  0.00     0.179 C 
ATOM     32  C   UNL     1      -0.632 -40.051 -30.193  1.00  0.00     0.177 C 
BRANCH  28  33
ATOM     33  O   UNL     1       2.482 -41.493 -31.709  1.00  0.00    -0.384 OA
ATOM     34  H   UNL     1       2.959 -40.692 -31.367  1.00  0.00     0.211 HD
ENDBRANCH  28  33
BRANCH  30  35
ATOM     35  O   UNL     1       0.979 -39.182 -31.755  1.00  0.00    -0.387 OA
ATOM     36  H   UNL     1       0.086 -38.795 -31.945  1.00  0.00     0.211 HD
ENDBRANCH  30  35
BRANCH  31  37
ATOM     37  C   UNL     1      -3.013 -40.773 -30.763  1.00  0.00     0.191 C 
BRANCH  37  38
ATOM     38  O   UNL     1      -3.440 -42.093 -30.554  1.00  0.00    -0.394 OA
ATOM     39  H   UNL     1      -4.087 -42.067 -29.802  1.00  0.00     0.210 HD
ENDBRANCH  37  38
ENDBRANCH  31  37
BRANCH  32  40
ATOM     40  O   UNL     1      -1.020 -38.717 -29.977  1.00  0.00    -0.387 OA
ATOM     41  H   UNL     1      -1.984 -38.650 -30.205  1.00  0.00     0.211 HD
ENDBRANCH  32  40
ENDBRANCH   1  27
TORSDOF 12
ENDMDL
MODEL 2
REMARK VINA RESULT:    -6.136      1.098      2.451
REMARK INTER + INTRA:         -10.998
REMARK INTER:                  -9.383
REMARK INTRA:                  -1.615
REMARK UNBOUND:                -1.992
REMARK SMILES O=c1c(O[C@@H]2O[C@@H](CO)[C@H](O)[C@H](O)[C@@H]2O)c(-c2ccc(O)c(O)c2)oc2cc(O)cc(O)c12
REMARK SMILES IDX 4 1 3 2 16 3 25 4 2 5 26 6 1 7 33 8 27 9 31 10 28 11 30 12
REMARK SMILES IDX 17 13 18 14 19 15 20 16 24 17 22 18 21 19 23 21 32 23 29 25
REMARK SMILES IDX 5 27 14 28 6 29 12 30 7 31 10 32 15 33 13 35 8 37 9 38 11 40
REMARK H PARENT 21 20 23 22 32 24 29 26 15 34 13 36 9 39 11 41
REMARK Flexibility Score: inf
ROOT
ATOM      1  O   UNL     1      -0.212 -42.113 -32.864  1.00  0.00    -0.454 OA
ENDROOT
BRANCH   1   2
ATOM      2  C   UNL     1       0.042 -42.495 -34.199  1.00  0.00     0.214 A 
ATOM      3  C   UNL     1      -1.010 -42.388 -35.131  1.00  0.00     0.180 A 
ATOM      4  O   UNL     1      -0.803 -42.657 -36.415  1.00  0.00    -0.452 OA
ATOM      5  C   UNL     1       1.299 -42.948 -34.665  1.00  0.00     0.239 A 
ATOM      6  C   UNL     1       0.363 -43.066 -36.894  1.00  0.00     0.146 A 
ATOM      7  O   UNL     1       2.263 -43.090 -33.868  1.00  0.00    -0.285 OA
ATOM      8  C   UNL     1       1.472 -43.241 -36.035  1.00  0.00     0.111 A 
ATOM      9  C   UNL     1       0.480 -43.327 -38.262  1.00  0.00     0.094 A 
ATOM     10  C   UNL     1       2.699 -43.691 -36.582  1.00  0.00     0.134 A 
ATOM     11  C   UNL     1       1.695 -43.768 -38.796  1.00  0.00     0.123 A 
ATOM     12  C   UNL     1       2.796 -43.950 -37.958  1.00  0.00     0.093 A 
BRANCH   3  13
ATOM     13  C   UNL     1      -2.366 -41.963 -34.724  1.00  0.00     0.025 A 
ATOM     14  C   UNL     1      -2.818 -40.676 -35.048  1.00  0.00     0.016 A 
ATOM     15  C   UNL     1      -4.106 -40.271 -34.691  1.00  0.00     0.051 A 
ATOM     16  C   UNL     1      -4.964 -41.151 -34.022  1.00  0.00     0.157 A 
ATOM     17  C   UNL     1      -3.235 -42.855 -34.075  1.00  0.00     0.062 A 
ATOM     18  C   UNL     1      -4.529 -42.451 -33.716  1.00  0.00     0.158 A 
BRANCH  16  19
ATOM     19  O   UNL     1      -6.243 -40.718 -33.675  1.00  0.00    -0.504 OA
ATOM     20  H   UNL     1      -6.864 -40.280 -34.345  1.00  0.00     0.293 HD
ENDBRANCH  16  19
BRANCH  18  21
ATOM     21  O   UNL     1      -5.384 -43.339 -33.064  1.00  0.00    -0.504 OA
ATOM     22  H   UNL     1      -5.556 -43.275 -32.067  1.00  0.00     0.293 HD
ENDBRANCH  18  21
ENDBRANCH   3  13
BRANCH  10  23
ATOM     23  O   UNL     1       3.820 -43.883 -35.774  1.00  0.00    -0.507 OA
ATOM     24  H   UNL     1       4.644 -44.370 -36.110  1.00  0.00     0.293 HD
ENDBRANCH  10  23
BRANCH  11  25
ATOM     25  O   UNL     1       1.817 -44.030 -40.159  1.00  0.00    -0.508 OA
ATOM     26  H   UNL     1       1.479 -44.894 -40.565  1.00  0.00     0.293 HD
ENDBRANCH  11  25
ENDBRANCH   1   2
BRANCH   1  27
ATOM     27  C   UNL     1       0.056 -40.840 -32.263  1.00  0.00     0.339 C 
ATOM     28  C   UNL     1      -0.938 -40.548 -31.120  1.00  0.00     0.214 C 
ATOM     29  O   UNL     1       1.398 -40.752 -31.808  1.00  0.00    -0.332 OA
ATOM     30  C   UNL     1      -0.677 -41.459 -29.909  1.00  0.00     0.180 C 
ATOM     31  C   UNL     1       1.675 -41.710 -30.799  1.00  0.00     0.179 C 
ATOM     32  C   UNL     1       0.815 -41.430 -29.541  1.00  0.00     0.177 C 
BRANCH  28  33
ATOM     33  O   UNL     1      -2.261 -40.708 -31.564  1.00  0.00    -0.384 OA
ATOM     34  H   UNL     1      -2.348 -40.183 -32.402  1.00  0.00     0.211 HD
ENDBRANCH  28  33
BRANCH  30  35
ATOM     35  O   UNL     1      -1.071 -42.779 -30.187  1.00  0.00    -0.387 OA
ATOM     36  H   UNL     1      -0.713 -43.351 -29.459  1.00  0.00     0.211 HD
ENDBRANCH  30  35
BRANCH  31  37
ATOM     37  C   UNL     1       3.178 -41.635 -30.483  1.00  0.00     0.191 C 
BRANCH  37  38
ATOM     38  O   UNL     1       3.922 -42.462 -31.339  1.00  0.00    -0.394 OA
ATOM     39  H   UNL     1       4.854 -42.126 -31.321  1.00  0.00     0.210 HD
ENDBRANCH  37  38
ENDBRANCH  31  37
BRANCH  32  40
ATOM     40  O   UNL     1       1.059 -42.395 -28.547  1.00  0.00    -0.387 OA
ATOM     41  H   UNL     1       0.680 -43.254 -28.870  1.00  0.00     0.211 HD
ENDBRANCH  32  40
ENDBRANCH   1  27
TORSDOF 12
ENDMDL
MODEL 3
REMARK VINA RESULT:    -5.929      1.691      2.881
REMARK INTER + INTRA:         -10.695
REMARK INTER:                  -9.349
REMARK INTRA:                  -1.346
REMARK UNBOUND:                -1.992
REMARK SMILES O=c1c(O[C@@H]2O[C@@H](CO)[C@H](O)[C@H](O)[C@@H]2O)c(-c2ccc(O)c(O)c2)oc2cc(O)cc(O)c12
REMARK SMILES IDX 4 1 3 2 16 3 25 4 2 5 26 6 1 7 33 8 27 9 31 10 28 11 30 12
REMARK SMILES IDX 17 13 18 14 19 15 20 16 24 17 22 18 21 19 23 21 32 23 29 25
REMARK SMILES IDX 5 27 14 28 6 29 12 30 7 31 10 32 15 33 13 35 8 37 9 38 11 40
REMARK H PARENT 21 20 23 22 32 24 29 26 15 34 13 36 9 39 11 41
REMARK Flexibility Score: inf
ROOT
ATOM      1  O   UNL     1       1.189 -41.057 -34.912  1.00  0.00    -0.454 OA
ENDROOT
BRANCH   1   2
ATOM      2  C   UNL     1       1.111 -41.976 -35.981  1.00  0.00     0.214 A 
ATOM      3  C   UNL     1      -0.065 -42.742 -36.112  1.00  0.00     0.180 A 
ATOM      4  O   UNL     1      -0.223 -43.562 -37.145  1.00  0.00    -0.452 OA
ATOM      5  C   UNL     1       2.129 -42.151 -36.948  1.00  0.00     0.239 A 
ATOM      6  C   UNL     1       0.699 -43.740 -38.081  1.00  0.00     0.146 A 
ATOM      7  O   UNL     1       3.211 -41.512 -36.859  1.00  0.00    -0.285 OA
ATOM      8  C   UNL     1       1.928 -43.046 -38.020  1.00  0.00     0.111 A 
ATOM      9  C   UNL     1       0.439 -44.629 -39.128  1.00  0.00     0.094 A 
ATOM     10  C   UNL     1       2.895 -43.271 -39.032  1.00  0.00     0.134 A 
ATOM     11  C   UNL     1       1.395 -44.844 -40.125  1.00  0.00     0.123 A 
ATOM     12  C   UNL     1       2.616 -44.169 -40.074  1.00  0.00     0.093 A 
BRANCH   3  13
ATOM     13  C   UNL     1      -1.162 -42.655 -35.126  1.00  0.00     0.025 A 
ATOM     14  C   UNL     1      -2.198 -41.729 -35.318  1.00  0.00     0.016 A 
ATOM     15  C   UNL     1      -3.253 -41.654 -34.406  1.00  0.00     0.051 A 
ATOM     16  C   UNL     1      -3.296 -42.512 -33.301  1.00  0.00     0.157 A 
ATOM     17  C   UNL     1      -1.217 -43.532 -34.031  1.00  0.00     0.062 A 
ATOM     18  C   UNL     1      -2.275 -43.459 -33.114  1.00  0.00     0.158 A 
BRANCH  16  19
ATOM     19  O   UNL     1      -4.360 -42.411 -32.406  1.00  0.00    -0.504 OA
ATOM     20  H   UNL     1      -5.248 -42.002 -32.669  1.00  0.00     0.293 HD
ENDBRANCH  16  19
BRANCH  18  21
ATOM     21  O   UNL     1      -2.320 -44.328 -32.025  1.00  0.00    -0.504 OA
ATOM     22  H   UNL     1      -1.558 -44.383 -31.358  1.00  0.00     0.293 HD
ENDBRANCH  18  21
ENDBRANCH   3  13
BRANCH  10  23
ATOM     23  O   UNL     1       4.125 -42.614 -39.013  1.00  0.00    -0.507 OA
ATOM     24  H   UNL     1       4.994 -43.101 -39.200  1.00  0.00     0.293 HD
ENDBRANCH  10  23
BRANCH  11  25
ATOM     25  O   UNL     1       1.142 -45.729 -41.171  1.00  0.00    -0.508 OA
ATOM     26  H   UNL     1       1.209 -46.732 -41.045  1.00  0.00     0.293 HD
ENDBRANCH  11  25
ENDBRANCH   1   2
BRANCH   1  27
ATOM     27  C   UNL     1       2.328 -40.787 -34.086  1.00  0.00     0.339 C 
ATOM     28  C   UNL     1       1.969 -39.799 -32.956  1.00  0.00     0.214 C 
ATOM     29  O   UNL     1       2.884 -41.982 -33.560  1.00  0.00    -0.332 OA
ATOM     30  C   UNL     1       1.050 -40.456 -31.913  1.00  0.00     0.180 C 
ATOM     31  C   UNL     1       1.966 -42.667 -32.723  1.00  0.00     0.179 C 
ATOM     32  C   UNL     1       1.632 -41.809 -31.477  1.00  0.00     0.177 C 
BRANCH  28  33
ATOM     33  O   UNL     1       1.354 -38.651 -33.482  1.00  0.00    -0.384 OA
ATOM     34  H   UNL     1       0.891 -38.201 -32.728  1.00  0.00     0.211 HD
ENDBRANCH  28  33
BRANCH  30  35
ATOM     35  O   UNL     1      -0.242 -40.641 -32.436  1.00  0.00    -0.387 OA
ATOM     36  H   UNL     1      -0.824 -39.947 -32.031  1.00  0.00     0.211 HD
ENDBRANCH  30  35
BRANCH  31  37
ATOM     37  C   UNL     1       2.604 -44.010 -32.330  1.00  0.00     0.191 C 
BRANCH  37  38
ATOM     38  O   UNL     1       3.091 -43.978 -31.015  1.00  0.00    -0.394 OA
ATOM     39  H   UNL     1       4.081 -43.950 -31.078  1.00  0.00     0.210 HD
ENDBRANCH  37  38
ENDBRANCH  31  37
BRANCH  32  40
ATOM     40  O   UNL     1       0.697 -42.466 -30.657  1.00  0.00    -0.387 OA
ATOM     41  H   UNL     1       0.641 -41.956 -29.807  1.00  0.00     0.211 HD
ENDBRANCH  32  40
ENDBRANCH   1  27
TORSDOF 12
ENDMDL
MODEL 4
REMARK VINA RESULT:    -5.890      1.507      2.130
REMARK INTER + INTRA:         -10.637
REMARK INTER:                  -8.769
REMARK INTRA:                  -1.867
REMARK UNBOUND:                -1.992
REMARK SMILES O=c1c(O[C@@H]2O[C@@H](CO)[C@H](O)[C@H](O)[C@@H]2O)c(-c2ccc(O)c(O)c2)oc2cc(O)cc(O)c12
REMARK SMILES IDX 4 1 3 2 16 3 25 4 2 5 26 6 1 7 33 8 27 9 31 10 28 11 30 12
REMARK SMILES IDX 17 13 18 14 19 15 20 16 24 17 22 18 21 19 23 21 32 23 29 25
REMARK SMILES IDX 5 27 14 28 6 29 12 30 7 31 10 32 15 33 13 35 8 37 9 38 11 40
REMARK H PARENT 21 20 23 22 32 24 29 26 15 34 13 36 9 39 11 41
REMARK Flexibility Score: inf
ROOT
ATOM      1  O   UNL     1       1.023 -41.356 -34.631  1.00  0.00    -0.454 OA
ENDROOT
BRANCH   1   2
ATOM      2  C   UNL     1       0.967 -42.224 -35.742  1.00  0.00     0.214 A 
ATOM      3  C   UNL     1      -0.234 -42.925 -35.977  1.00  0.00     0.180 A 
ATOM      4  O   UNL     1      -0.368 -43.692 -37.052  1.00  0.00    -0.452 OA
ATOM      5  C   UNL     1       2.032 -42.409 -36.655  1.00  0.00     0.239 A 
ATOM      6  C   UNL     1       0.599 -43.876 -37.940  1.00  0.00     0.146 A 
ATOM      7  O   UNL     1       3.136 -41.830 -36.475  1.00  0.00    -0.285 OA
ATOM      8  C   UNL     1       1.854 -43.248 -37.777  1.00  0.00     0.111 A 
ATOM      9  C   UNL     1       0.361 -44.707 -39.039  1.00  0.00     0.094 A 
ATOM     10  C   UNL     1       2.868 -43.479 -38.740  1.00  0.00     0.134 A 
ATOM     11  C   UNL     1       1.364 -44.927 -39.988  1.00  0.00     0.123 A 
ATOM     12  C   UNL     1       2.611 -44.317 -39.835  1.00  0.00     0.093 A 
BRANCH   3  13
ATOM     13  C   UNL     1      -1.383 -42.824 -35.054  1.00  0.00     0.025 A 
ATOM     14  C   UNL     1      -1.544 -43.774 -34.036  1.00  0.00     0.016 A 
ATOM     15  C   UNL     1      -2.612 -43.675 -33.141  1.00  0.00     0.051 A 
ATOM     16  C   UNL     1      -3.523 -42.618 -33.241  1.00  0.00     0.157 A 
ATOM     17  C   UNL     1      -2.284 -41.749 -35.139  1.00  0.00     0.062 A 
ATOM     18  C   UNL     1      -3.356 -41.646 -34.242  1.00  0.00     0.158 A 
BRANCH  16  19
ATOM     19  O   UNL     1      -4.582 -42.547 -32.337  1.00  0.00    -0.504 OA
ATOM     20  H   UNL     1      -5.160 -43.350 -32.121  1.00  0.00     0.293 HD
ENDBRANCH  16  19
BRANCH  18  21
ATOM     21  O   UNL     1      -4.251 -40.581 -34.339  1.00  0.00    -0.504 OA
ATOM     22  H   UNL     1      -5.190 -40.707 -34.698  1.00  0.00     0.293 HD
ENDBRANCH  18  21
ENDBRANCH   3  13
BRANCH  10  23
ATOM     23  O   UNL     1       4.125 -42.885 -38.619  1.00  0.00    -0.507 OA
ATOM     24  H   UNL     1       4.977 -43.434 -38.609  1.00  0.00     0.293 HD
ENDBRANCH  10  23
BRANCH  11  25
ATOM     25  O   UNL     1       1.134 -45.754 -41.085  1.00  0.00    -0.508 OA
ATOM     26  H   UNL     1       0.578 -45.444 -41.874  1.00  0.00     0.293 HD
ENDBRANCH  11  25
ENDBRANCH   1   2
BRANCH   1  27
ATOM     27  C   UNL     1       1.767 -41.548 -33.421  1.00  0.00     0.339 C 
ATOM     28  C   UNL     1       2.643 -40.316 -33.110  1.00  0.00     0.214 C 
ATOM     29  O   UNL     1       0.914 -41.855 -32.330  1.00  0.00    -0.332 OA
ATOM     30  C   UNL     1       1.783 -39.112 -32.691  1.00  0.00     0.180 C 
ATOM     31  C   UNL     1       0.011 -40.797 -32.053  1.00  0.00     0.179 C 
ATOM     32  C   UNL     1       0.786 -39.533 -31.601  1.00  0.00     0.177 C 
BRANCH  28  33
ATOM     33  O   UNL     1       3.430 -39.978 -34.224  1.00  0.00    -0.384 OA
ATOM     34  H   UNL     1       3.472 -40.785 -34.801  1.00  0.00     0.211 HD
ENDBRANCH  28  33
BRANCH  30  35
ATOM     35  O   UNL     1       1.087 -38.591 -33.795  1.00  0.00    -0.387 OA
ATOM     36  H   UNL     1       1.145 -39.264 -34.522  1.00  0.00     0.211 HD
ENDBRANCH  30  35
BRANCH  31  37
ATOM     37  C   UNL     1      -0.959 -41.283 -30.963  1.00  0.00     0.191 C 
BRANCH  37  38
ATOM     38  O   UNL     1      -0.586 -42.544 -30.473  1.00  0.00    -0.394 OA
ATOM     39  H   UNL     1      -0.350 -42.419 -29.517  1.00  0.00     0.210 HD
ENDBRANCH  37  38
ENDBRANCH  31  37
BRANCH  32  40
ATOM     40  O   UNL     1      -0.099 -38.468 -31.355  1.00  0.00    -0.387 OA
ATOM     41  H   UNL     1      -0.621 -38.321 -32.186  1.00  0.00     0.211 HD
ENDBRANCH  32  40
ENDBRANCH   1  27
TORSDOF 12
ENDMDL
MODEL 5
REMARK VINA RESULT:    -5.888      1.777      2.333
REMARK INTER + INTRA:         -10.634
REMARK INTER:                  -8.684
REMARK INTRA:                  -1.950
REMARK UNBOUND:                -1.992
REMARK SMILES O=c1c(O[C@@H]2O[C@@H](CO)[C@H](O)[C@H](O)[C@@H]2O)c(-c2ccc(O)c(O)c2)oc2cc(O)cc(O)c12
REMARK SMILES IDX 4 1 3 2 16 3 25 4 2 5 26 6 1 7 33 8 27 9 31 10 28 11 30 12
REMARK SMILES IDX 17 13 18 14 19 15 20 16 24 17 22 18 21 19 23 21 32 23 29 25
REMARK SMILES IDX 5 27 14 28 6 29 12 30 7 31 10 32 15 33 13 35 8 37 9 38 11 40
REMARK H PARENT 21 20 23 22 32 24 29 26 15 34 13 36 9 39 11 41
REMARK Flexibility Score: inf
ROOT
ATOM      1  O   UNL     1       1.183 -41.101 -35.009  1.00  0.00    -0.454 OA
ENDROOT
BRANCH   1   2
ATOM      2  C   UNL     1       1.109 -42.022 -36.076  1.00  0.00     0.214 A 
ATOM      3  C   UNL     1      -0.060 -42.802 -36.198  1.00  0.00     0.180 A 
ATOM      4  O   UNL     1      -0.216 -43.625 -37.229  1.00  0.00    -0.452 OA
ATOM      5  C   UNL     1       2.121 -42.186 -37.051  1.00  0.00     0.239 A 
ATOM      6  C   UNL     1       0.701 -43.794 -38.172  1.00  0.00     0.146 A 
ATOM      7  O   UNL     1       3.196 -41.535 -36.970  1.00  0.00    -0.285 OA
ATOM      8  C   UNL     1       1.923 -43.085 -38.120  1.00  0.00     0.111 A 
ATOM      9  C   UNL     1       0.444 -44.687 -39.215  1.00  0.00     0.094 A 
ATOM     10  C   UNL     1       2.884 -43.301 -39.139  1.00  0.00     0.134 A 
ATOM     11  C   UNL     1       1.395 -44.893 -40.219  1.00  0.00     0.123 A 
ATOM     12  C   UNL     1       2.609 -44.203 -40.178  1.00  0.00     0.093 A 
BRANCH   3  13
ATOM     13  C   UNL     1      -1.150 -42.726 -35.204  1.00  0.00     0.025 A 
ATOM     14  C   UNL     1      -2.180 -41.789 -35.372  1.00  0.00     0.016 A 
ATOM     15  C   UNL     1      -3.230 -41.724 -34.452  1.00  0.00     0.051 A 
ATOM     16  C   UNL     1      -3.273 -42.603 -33.365  1.00  0.00     0.157 A 
ATOM     17  C   UNL     1      -1.206 -43.624 -34.126  1.00  0.00     0.062 A 
ATOM     18  C   UNL     1      -2.258 -43.562 -33.202  1.00  0.00     0.158 A 
BRANCH  16  19
ATOM     19  O   UNL     1      -4.330 -42.512 -32.461  1.00  0.00    -0.504 OA
ATOM     20  H   UNL     1      -4.630 -41.627 -32.071  1.00  0.00     0.293 HD
ENDBRANCH  16  19
BRANCH  18  21
ATOM     21  O   UNL     1      -2.303 -44.451 -32.130  1.00  0.00    -0.504 OA
ATOM     22  H   UNL     1      -1.885 -44.225 -31.234  1.00  0.00     0.293 HD
ENDBRANCH  18  21
ENDBRANCH   3  13
BRANCH  10  23
ATOM     23  O   UNL     1       4.107 -42.629 -39.130  1.00  0.00    -0.507 OA
ATOM     24  H   UNL     1       4.567 -42.345 -39.988  1.00  0.00     0.293 HD
ENDBRANCH  10  23
BRANCH  11  25
ATOM     25  O   UNL     1       1.144 -45.782 -41.262  1.00  0.00    -0.508 OA
ATOM     26  H   UNL     1       1.371 -46.766 -41.185  1.00  0.00     0.293 HD
ENDBRANCH  11  25
ENDBRANCH   1   2
BRANCH   1  27
ATOM     27  C   UNL     1       2.052 -41.165 -33.871  1.00  0.00     0.339 C 
ATOM     28  C   UNL     1       2.781 -39.822 -33.655  1.00  0.00     0.214 C 
ATOM     29  O   UNL     1       1.349 -41.558 -32.703  1.00  0.00    -0.332 OA
ATOM     30  C   UNL     1       1.809 -38.733 -33.172  1.00  0.00     0.180 C 
ATOM     31  C   UNL     1       0.341 -40.621 -32.355  1.00  0.00     0.179 C 
ATOM     32  C   UNL     1       0.978 -39.257 -31.990  1.00  0.00     0.177 C 
BRANCH  28  33
ATOM     33  O   UNL     1       3.412 -39.409 -34.840  1.00  0.00    -0.384 OA
ATOM     34  H   UNL     1       3.694 -40.233 -35.318  1.00  0.00     0.211 HD
ENDBRANCH  28  33
BRANCH  30  35
ATOM     35  O   UNL     1       0.953 -38.333 -34.212  1.00  0.00    -0.387 OA
ATOM     36  H   UNL     1       1.457 -38.435 -35.061  1.00  0.00     0.211 HD
ENDBRANCH  30  35
BRANCH  31  37
ATOM     37  C   UNL     1      -0.454 -41.206 -31.176  1.00  0.00     0.191 C 
BRANCH  37  38
ATOM     38  O   UNL     1      -0.030 -42.508 -30.870  1.00  0.00    -0.394 OA
ATOM     39  H   UNL     1      -0.031 -42.583 -29.881  1.00  0.00     0.210 HD
ENDBRANCH  37  38
ENDBRANCH  31  37
BRANCH  32  40
ATOM     40  O   UNL     1      -0.015 -38.312 -31.675  1.00  0.00    -0.387 OA
ATOM     41  H   UNL     1      -0.376 -38.550 -30.782  1.00  0.00     0.211 HD
ENDBRANCH  32  40
ENDBRANCH   1  27
TORSDOF 12
ENDMDL
MODEL 6
REMARK VINA RESULT:    -5.835      2.176      2.552
REMARK INTER + INTRA:         -10.556
REMARK INTER:                  -8.467
REMARK INTRA:                  -2.089
REMARK UNBOUND:                -1.992
REMARK SMILES O=c1c(O[C@@H]2O[C@@H](CO)[C@H](O)[C@H](O)[C@@H]2O)c(-c2ccc(O)c(O)c2)oc2cc(O)cc(O)c12
REMARK SMILES IDX 4 1 3 2 16 3 25 4 2 5 26 6 1 7 33 8 27 9 31 10 28 11 30 12
REMARK SMILES IDX 17 13 18 14 19 15 20 16 24 17 22 18 21 19 23 21 32 23 29 25
REMARK SMILES IDX 5 27 14 28 6 29 12 30 7 31 10 32 15 33 13 35 8 37 9 38 11 40
REMARK H PARENT 21 20 23 22 32 24 29 26 15 34 13 36 9 39 11 41
REMARK Flexibility Score: inf
ROOT
ATOM      1  O   UNL     1       0.658 -40.440 -35.361  1.00  0.00    -0.454 OA
ENDROOT
BRANCH   1   2
ATOM      2  C   UNL     1       0.734 -41.480 -36.312  1.00  0.00     0.214 A 
ATOM      3  C   UNL     1      -0.264 -42.475 -36.288  1.00  0.00     0.180 A 
ATOM      4  O   UNL     1      -0.286 -43.431 -37.211  1.00  0.00    -0.452 OA
ATOM      5  C   UNL     1       1.733 -41.566 -37.311  1.00  0.00     0.239 A 
ATOM      6  C   UNL     1       0.620 -43.535 -38.173  1.00  0.00     0.146 A 
ATOM      7  O   UNL     1       2.664 -40.719 -37.358  1.00  0.00    -0.285 OA
ATOM      8  C   UNL     1       1.683 -42.608 -38.262  1.00  0.00     0.111 A 
ATOM      9  C   UNL     1       0.512 -44.579 -39.095  1.00  0.00     0.094 A 
ATOM     10  C   UNL     1       2.641 -42.759 -39.296  1.00  0.00     0.134 A 
ATOM     11  C   UNL     1       1.458 -44.720 -40.116  1.00  0.00     0.123 A 
ATOM     12  C   UNL     1       2.516 -43.815 -40.212  1.00  0.00     0.093 A 
BRANCH   3  13
ATOM     13  C   UNL     1      -1.322 -42.488 -35.257  1.00  0.00     0.025 A 
ATOM     14  C   UNL     1      -2.404 -41.603 -35.359  1.00  0.00     0.016 A 
ATOM     15  C   UNL     1      -3.423 -41.621 -34.404  1.00  0.00     0.051 A 
ATOM     16  C   UNL     1      -3.382 -42.534 -33.344  1.00  0.00     0.157 A 
ATOM     17  C   UNL     1      -1.293 -43.420 -34.206  1.00  0.00     0.062 A 
ATOM     18  C   UNL     1      -2.314 -43.442 -33.246  1.00  0.00     0.158 A 
BRANCH  16  19
ATOM     19  O   UNL     1      -4.411 -42.527 -32.403  1.00  0.00    -0.504 OA
ATOM     20  H   UNL     1      -4.398 -43.127 -31.587  1.00  0.00     0.293 HD
ENDBRANCH  16  19
BRANCH  18  21
ATOM     21  O   UNL     1      -2.274 -44.365 -32.202  1.00  0.00    -0.504 OA
ATOM     22  H   UNL     1      -1.412 -44.824 -31.932  1.00  0.00     0.293 HD
ENDBRANCH  18  21
ENDBRANCH   3  13
BRANCH  10  23
ATOM     23  O   UNL     1       3.710 -41.872 -39.423  1.00  0.00    -0.507 OA
ATOM     24  H   UNL     1       4.399 -41.968 -40.161  1.00  0.00     0.293 HD
ENDBRANCH  10  23
BRANCH  11  25
ATOM     25  O   UNL     1       1.356 -45.759 -41.039  1.00  0.00    -0.508 OA
ATOM     26  H   UNL     1       0.776 -45.678 -41.865  1.00  0.00     0.293 HD
ENDBRANCH  11  25
ENDBRANCH   1   2
BRANCH   1  27
ATOM     27  C   UNL     1       1.452 -40.293 -34.177  1.00  0.00     0.339 C 
ATOM     28  C   UNL     1       2.082 -38.887 -34.105  1.00  0.00     0.214 C 
ATOM     29  O   UNL     1       0.698 -40.575 -33.008  1.00  0.00    -0.332 OA
ATOM     30  C   UNL     1       1.016 -37.812 -33.831  1.00  0.00     0.180 C 
ATOM     31  C   UNL     1      -0.385 -39.672 -32.850  1.00  0.00     0.179 C 
ATOM     32  C   UNL     1       0.142 -38.230 -32.638  1.00  0.00     0.177 C 
BRANCH  28  33
ATOM     33  O   UNL     1       2.765 -38.592 -35.296  1.00  0.00    -0.384 OA
ATOM     34  H   UNL     1       3.628 -39.082 -35.262  1.00  0.00     0.211 HD
ENDBRANCH  28  33
BRANCH  30  35
ATOM     35  O   UNL     1       0.209 -37.614 -34.964  1.00  0.00    -0.387 OA
ATOM     36  H   UNL     1      -0.279 -38.463 -35.128  1.00  0.00     0.211 HD
ENDBRANCH  30  35
BRANCH  31  37
ATOM     37  C   UNL     1      -1.220 -40.149 -31.649  1.00  0.00     0.191 C 
BRANCH  37  38
ATOM     38  O   UNL     1      -2.491 -39.555 -31.644  1.00  0.00    -0.394 OA
ATOM     39  H   UNL     1      -3.128 -40.241 -31.974  1.00  0.00     0.210 HD
ENDBRANCH  37  38
ENDBRANCH  31  37
BRANCH  32  40
ATOM     40  O   UNL     1      -0.925 -37.323 -32.514  1.00  0.00    -0.387 OA
ATOM     41  H   UNL     1      -0.532 -36.430 -32.328  1.00  0.00     0.211 HD
ENDBRANCH  32  40
ENDBRANCH   1  27
TORSDOF 12
ENDMDL
MODEL 7
REMARK VINA RESULT:    -5.692      3.137      6.966
REMARK INTER + INTRA:         -10.346
REMARK INTER:                  -8.394
REMARK INTRA:                  -1.952
REMARK UNBOUND:                -1.992
REMARK SMILES O=c1c(O[C@@H]2O[C@@H](CO)[C@H](O)[C@H](O)[C@@H]2O)c(-c2ccc(O)c(O)c2)oc2cc(O)cc(O)c12
REMARK SMILES IDX 4 1 3 2 16 3 25 4 2 5 26 6 1 7 33 8 27 9 31 10 28 11 30 12
REMARK SMILES IDX 17 13 18 14 19 15 20 16 24 17 22 18 21 19 23 21 32 23 29 25
REMARK SMILES IDX 5 27 14 28 6 29 12 30 7 31 10 32 15 33 13 35 8 37 9 38 11 40
REMARK H PARENT 21 20 23 22 32 24 29 26 15 34 13 36 9 39 11 41
REMARK Flexibility Score: inf
ROOT
ATOM      1  O   UNL     1      -3.184 -40.721 -31.315  1.00  0.00    -0.454 OA
ENDROOT
BRANCH   1   2
ATOM      2  C   UNL     1      -4.299 -41.421 -31.823  1.00  0.00     0.214 A 
ATOM      3  C   UNL     1      -4.361 -41.652 -33.213  1.00  0.00     0.180 A 
ATOM      4  O   UNL     1      -5.346 -42.374 -33.734  1.00  0.00    -0.452 OA
ATOM      5  C   UNL     1      -5.343 -41.935 -31.019  1.00  0.00     0.239 A 
ATOM      6  C   UNL     1      -6.332 -42.888 -33.012  1.00  0.00     0.146 A 
ATOM      7  O   UNL     1      -5.351 -41.732 -29.776  1.00  0.00    -0.285 OA
ATOM      8  C   UNL     1      -6.382 -42.683 -31.615  1.00  0.00     0.111 A 
ATOM      9  C   UNL     1      -7.326 -43.631 -33.655  1.00  0.00     0.094 A 
ATOM     10  C   UNL     1      -7.459 -43.237 -30.878  1.00  0.00     0.134 A 
ATOM     11  C   UNL     1      -8.383 -44.178 -32.921  1.00  0.00     0.123 A 
ATOM     12  C   UNL     1      -8.448 -43.979 -31.541  1.00  0.00     0.093 A 
BRANCH   3  13
ATOM     13  C   UNL     1      -3.336 -41.117 -34.133  1.00  0.00     0.025 A 
ATOM     14  C   UNL     1      -2.224 -41.902 -34.469  1.00  0.00     0.016 A 
ATOM     15  C   UNL     1      -1.260 -41.417 -35.357  1.00  0.00     0.051 A 
ATOM     16  C   UNL     1      -1.404 -40.151 -35.934  1.00  0.00     0.157 A 
ATOM     17  C   UNL     1      -3.492 -39.855 -34.731  1.00  0.00     0.062 A 
ATOM     18  C   UNL     1      -2.528 -39.366 -35.623  1.00  0.00     0.158 A 
BRANCH  16  19
ATOM     19  O   UNL     1      -0.425 -39.692 -36.814  1.00  0.00    -0.504 OA
ATOM     20  H   UNL     1      -0.398 -38.732 -37.136  1.00  0.00     0.293 HD
ENDBRANCH  16  19
BRANCH  18  21
ATOM     21  O   UNL     1      -2.686 -38.110 -36.206  1.00  0.00    -0.504 OA
ATOM     22  H   UNL     1      -2.226 -37.288 -35.831  1.00  0.00     0.293 HD
ENDBRANCH  18  21
ENDBRANCH   3  13
BRANCH  10  23
ATOM     23  O   UNL     1      -7.554 -43.058 -29.498  1.00  0.00    -0.507 OA
ATOM     24  H   UNL     1      -7.692 -43.839 -28.866  1.00  0.00     0.293 HD
ENDBRANCH  10  23
BRANCH  11  25
ATOM     25  O   UNL     1      -9.377 -44.921 -33.556  1.00  0.00    -0.508 OA
ATOM     26  H   UNL     1      -9.159 -45.762 -34.077  1.00  0.00     0.293 HD
ENDBRANCH  11  25
ENDBRANCH   1   2
BRANCH   1  27
ATOM     27  C   UNL     1      -3.183 -39.428 -30.698  1.00  0.00     0.339 C 
ATOM     28  C   UNL     1      -2.434 -39.459 -29.349  1.00  0.00     0.214 C 
ATOM     29  O   UNL     1      -2.638 -38.441 -31.561  1.00  0.00    -0.332 OA
ATOM     30  C   UNL     1      -0.921 -39.643 -29.556  1.00  0.00     0.180 C 
ATOM     31  C   UNL     1      -1.281 -38.709 -31.876  1.00  0.00     0.179 C 
ATOM     32  C   UNL     1      -0.408 -38.638 -30.598  1.00  0.00     0.177 C 
BRANCH  28  33
ATOM     33  O   UNL     1      -2.935 -40.487 -28.532  1.00  0.00    -0.384 OA
ATOM     34  H   UNL     1      -3.254 -41.206 -29.139  1.00  0.00     0.211 HD
ENDBRANCH  28  33
BRANCH  30  35
ATOM     35  O   UNL     1      -0.633 -40.952 -29.977  1.00  0.00    -0.387 OA
ATOM     36  H   UNL     1      -0.859 -41.558 -29.225  1.00  0.00     0.211 HD
ENDBRANCH  30  35
BRANCH  31  37
ATOM     37  C   UNL     1      -0.833 -37.676 -32.924  1.00  0.00     0.191 C 
BRANCH  37  38
ATOM     38  O   UNL     1      -1.915 -36.907 -33.378  1.00  0.00    -0.394 OA
ATOM     39  H   UNL     1      -2.716 -37.226 -32.889  1.00  0.00     0.210 HD
ENDBRANCH  37  38
ENDBRANCH  31  37
BRANCH  32  40
ATOM     40  O   UNL     1       0.934 -38.934 -30.896  1.00  0.00    -0.387 OA
ATOM     41  H   UNL     1       1.452 -38.094 -30.786  1.00  0.00     0.211 HD
ENDBRANCH  32  40
ENDBRANCH   1  27
TORSDOF 12
ENDMDL
MODEL 8
REMARK VINA RESULT:    -5.546      1.994      6.420
REMARK INTER + INTRA:         -10.132
REMARK INTER:                  -8.689
REMARK INTRA:                  -1.443
REMARK UNBOUND:                -1.992
REMARK SMILES O=c1c(O[C@@H]2O[C@@H](CO)[C@H](O)[C@H](O)[C@@H]2O)c(-c2ccc(O)c(O)c2)oc2cc(O)cc(O)c12
REMARK SMILES IDX 4 1 3 2 16 3 25 4 2 5 26 6 1 7 33 8 27 9 31 10 28 11 30 12
REMARK SMILES IDX 17 13 18 14 19 15 20 16 24 17 22 18 21 19 23 21 32 23 29 25
REMARK SMILES IDX 5 27 14 28 6 29 12 30 7 31 10 32 15 33 13 35 8 37 9 38 11 40
REMARK H PARENT 21 20 23 22 32 24 29 26 15 34 13 36 9 39 11 41
REMARK Flexibility Score: inf
ROOT
ATOM      1  O   UNL     1       0.058 -42.049 -33.287  1.00  0.00    -0.454 OA
ENDROOT
BRANCH   1   2
ATOM      2  C   UNL     1      -1.335 -42.175 -33.477  1.00  0.00     0.214 A 
ATOM      3  C   UNL     1      -1.791 -42.715 -34.697  1.00  0.00     0.180 A 
ATOM      4  O   UNL     1      -3.086 -42.930 -34.896  1.00  0.00    -0.452 OA
ATOM      5  C   UNL     1      -2.300 -41.823 -32.504  1.00  0.00     0.239 A 
ATOM      6  C   UNL     1      -4.020 -42.632 -34.003  1.00  0.00     0.146 A 
ATOM      7  O   UNL     1      -1.946 -41.309 -31.410  1.00  0.00    -0.285 OA
ATOM      8  C   UNL     1      -3.669 -42.051 -32.763  1.00  0.00     0.111 A 
ATOM      9  C   UNL     1      -5.358 -42.893 -34.309  1.00  0.00     0.094 A 
ATOM     10  C   UNL     1      -4.695 -41.734 -31.838  1.00  0.00     0.134 A 
ATOM     11  C   UNL     1      -6.366 -42.582 -33.391  1.00  0.00     0.123 A 
ATOM     12  C   UNL     1      -6.034 -42.003 -32.164  1.00  0.00     0.093 A 
BRANCH   3  13
ATOM     13  C   UNL     1      -0.857 -43.072 -35.784  1.00  0.00     0.025 A 
ATOM     14  C   UNL     1      -0.755 -44.406 -36.204  1.00  0.00     0.016 A 
ATOM     15  C   UNL     1       0.107 -44.752 -37.248  1.00  0.00     0.051 A 
ATOM     16  C   UNL     1       0.863 -43.770 -37.896  1.00  0.00     0.157 A 
ATOM     17  C   UNL     1      -0.115 -42.082 -36.450  1.00  0.00     0.062 A 
ATOM     18  C   UNL     1       0.750 -42.427 -37.499  1.00  0.00     0.158 A 
BRANCH  16  19
ATOM     19  O   UNL     1       1.718 -44.146 -38.932  1.00  0.00    -0.504 OA
ATOM     20  H   UNL     1       1.886 -43.550 -39.734  1.00  0.00     0.293 HD
ENDBRANCH  16  19
BRANCH  18  21
ATOM     21  O   UNL     1       1.489 -41.440 -38.150  1.00  0.00    -0.504 OA
ATOM     22  H   UNL     1       2.466 -41.281 -37.936  1.00  0.00     0.293 HD
ENDBRANCH  18  21
ENDBRANCH   3  13
BRANCH  10  23
ATOM     23  O   UNL     1      -4.399 -41.157 -30.604  1.00  0.00    -0.507 OA
ATOM     24  H   UNL     1      -4.040 -40.212 -30.528  1.00  0.00     0.293 HD
ENDBRANCH  10  23
BRANCH  11  25
ATOM     25  O   UNL     1      -7.702 -42.840 -33.689  1.00  0.00    -0.508 OA
ATOM     26  H   UNL     1      -8.440 -42.652 -33.021  1.00  0.00     0.293 HD
ENDBRANCH  11  25
ENDBRANCH   1   2
BRANCH   1  27
ATOM     27  C   UNL     1       0.750 -40.958 -32.666  1.00  0.00     0.339 C 
ATOM     28  C   UNL     1       2.235 -41.307 -32.432  1.00  0.00     0.214 C 
ATOM     29  O   UNL     1       0.620 -39.763 -33.421  1.00  0.00    -0.332 OA
ATOM     30  C   UNL     1       3.007 -41.375 -33.760  1.00  0.00     0.180 C 
ATOM     31  C   UNL     1       1.197 -39.890 -34.711  1.00  0.00     0.179 C 
ATOM     32  C   UNL     1       2.726 -40.117 -34.597  1.00  0.00     0.177 C 
BRANCH  28  33
ATOM     33  O   UNL     1       2.352 -42.528 -31.747  1.00  0.00    -0.384 OA
ATOM     34  H   UNL     1       1.906 -43.216 -32.308  1.00  0.00     0.211 HD
ENDBRANCH  28  33
BRANCH  30  35
ATOM     35  O   UNL     1       2.643 -42.521 -34.489  1.00  0.00    -0.387 OA
ATOM     36  H   UNL     1       3.182 -42.521 -35.322  1.00  0.00     0.211 HD
ENDBRANCH  30  35
BRANCH  31  37
ATOM     37  C   UNL     1       0.874 -38.608 -35.496  1.00  0.00     0.191 C 
BRANCH  37  38
ATOM     38  O   UNL     1       0.997 -38.810 -36.879  1.00  0.00    -0.394 OA
ATOM     39  H   UNL     1       0.076 -38.890 -37.238  1.00  0.00     0.210 HD
ENDBRANCH  37  38
ENDBRANCH  31  37
BRANCH  32  40
ATOM     40  O   UNL     1       3.302 -40.277 -35.870  1.00  0.00    -0.387 OA
ATOM     41  H   UNL     1       2.876 -39.612 -36.471  1.00  0.00     0.211 HD
ENDBRANCH  32  40
ENDBRANCH   1  27
TORSDOF 12
ENDMDL
