MODEL 1
REMARK VINA RESULT:     0.362      0.000      0.000
REMARK INTER + INTRA:           0.162
REMARK INTER:                   0.425
REMARK INTRA:                  -0.263
REMARK UNBOUND:                -0.263
REMARK SMILES O=c1cc(-c2ccc(O)c(O)c2)oc2cc(O)cc(O)c12
REMARK SMILES IDX 4 1 3 2 2 3 1 4 21 5 19 6 18 7 16 8 15 9 14 10 13 11 5 12
REMARK SMILES IDX 6 13 7 14 8 15 12 16 10 17 9 18 11 20 20 22 17 24
REMARK H PARENT 9 19 11 21 20 23 17 25
REMARK Flexibility Score: inf
ROOT
ATOM      1  C   UNL     1      36.669 -29.930  -5.172  1.00  0.00     0.138 A 
ATOM      2  C   UNL     1      37.761 -30.018  -6.046  1.00  0.00     0.100 A 
ATOM      3  C   UNL     1      37.615 -29.618  -7.375  1.00  0.00     0.197 A 
ATOM      4  O   UNL     1      38.594 -29.767  -8.152  1.00  0.00    -0.289 OA
ATOM      5  C   UNL     1      36.376 -29.099  -7.822  1.00  0.00     0.107 A 
ATOM      6  C   UNL     1      36.123 -28.624  -9.143  1.00  0.00     0.134 A 
ATOM      7  C   UNL     1      34.824 -28.240  -9.501  1.00  0.00     0.093 A 
ATOM      8  C   UNL     1      33.784 -28.259  -8.569  1.00  0.00     0.123 A 
ATOM      9  C   UNL     1      34.033 -28.671  -7.262  1.00  0.00     0.094 A 
ATOM     10  C   UNL     1      35.310 -29.092  -6.883  1.00  0.00     0.146 A 
ATOM     11  O   UNL     1      35.502 -29.491  -5.630  1.00  0.00    -0.456 OA
ENDROOT
BRANCH   1  12
ATOM     12  C   UNL     1      36.770 -30.340  -3.749  1.00  0.00     0.021 A 
ATOM     13  C   UNL     1      37.020 -29.369  -2.765  1.00  0.00     0.016 A 
ATOM     14  C   UNL     1      37.127 -29.730  -1.419  1.00  0.00     0.051 A 
ATOM     15  C   UNL     1      36.995 -31.066  -1.034  1.00  0.00     0.157 A 
ATOM     16  C   UNL     1      36.652 -31.689  -3.357  1.00  0.00     0.062 A 
ATOM     17  C   UNL     1      36.760 -32.052  -2.006  1.00  0.00     0.158 A 
BRANCH  15  18
ATOM     18  O   UNL     1      37.105 -31.396   0.317  1.00  0.00    -0.504 OA
ATOM     19  H   UNL     1      36.292 -31.522   0.908  1.00  0.00     0.293 HD
ENDBRANCH  15  18
BRANCH  17  20
ATOM     20  O   UNL     1      36.640 -33.389  -1.628  1.00  0.00    -0.504 OA
ATOM     21  H   UNL     1      37.208 -33.785  -0.889  1.00  0.00     0.293 HD
ENDBRANCH  17  20
ENDBRANCH   1  12
BRANCH   6  22
ATOM     22  O   UNL     1      37.108 -28.485 -10.125  1.00  0.00    -0.507 OA
ATOM     23  H   UNL     1      37.288 -27.640 -10.646  1.00  0.00     0.293 HD
ENDBRANCH   6  22
BRANCH   8  24
ATOM     24  O   UNL     1      32.498 -27.862  -8.931  1.00  0.00    -0.508 OA
ATOM     25  H   UNL     1      31.677 -28.320  -8.556  1.00  0.00     0.293 HD
ENDBRANCH   8  24
TORSDOF 5
ENDMDL
MODEL 2
REMARK VINA RESULT:     1.997      3.176      4.283
REMARK INTER + INTRA:           2.084
REMARK INTER:                   2.397
REMARK INTRA:                  -0.313
REMARK UNBOUND:                -0.263
REMARK SMILES O=c1cc(-c2ccc(O)c(O)c2)oc2cc(O)cc(O)c12
REMARK SMILES IDX 4 1 3 2 2 3 1 4 21 5 19 6 18 7 16 8 15 9 14 10 13 11 5 12
REMARK SMILES IDX 6 13 7 14 8 15 12 16 10 17 9 18 11 20 20 22 17 24
REMARK H PARENT 9 19 11 21 20 23 17 25
REMARK Flexibility Score: inf
ROOT
ATOM      1  C   UNL     1      37.987 -31.131  -5.264  1.00  0.00     0.138 A 
ATOM      2  C   UNL     1      38.486 -30.081  -6.047  1.00  0.00     0.100 A 
ATOM      3  C   UNL     1      39.040 -30.356  -7.297  1.00  0.00     0.197 A 
ATOM      4  O   UNL     1      39.536 -29.401  -7.950  1.00  0.00    -0.289 OA
ATOM      5  C   UNL     1      39.067 -31.686  -7.778  1.00  0.00     0.107 A 
ATOM      6  C   UNL     1      39.571 -32.080  -9.054  1.00  0.00     0.134 A 
ATOM      7  C   UNL     1      39.652 -33.441  -9.374  1.00  0.00     0.093 A 
ATOM      8  C   UNL     1      39.192 -34.418  -8.489  1.00  0.00     0.123 A 
ATOM      9  C   UNL     1      38.649 -34.042  -7.262  1.00  0.00     0.094 A 
ATOM     10  C   UNL     1      38.586 -32.694  -6.899  1.00  0.00     0.146 A 
ATOM     11  O   UNL     1      38.074 -32.378  -5.715  1.00  0.00    -0.456 OA
ENDROOT
BRANCH   1  12
ATOM     12  C   UNL     1      37.385 -30.895  -3.927  1.00  0.00     0.021 A 
ATOM     13  C   UNL     1      36.958 -29.602  -3.580  1.00  0.00     0.016 A 
ATOM     14  C   UNL     1      36.396 -29.352  -2.325  1.00  0.00     0.051 A 
ATOM     15  C   UNL     1      36.258 -30.385  -1.394  1.00  0.00     0.157 A 
ATOM     16  C   UNL     1      37.257 -31.930  -2.980  1.00  0.00     0.062 A 
ATOM     17  C   UNL     1      36.694 -31.679  -1.719  1.00  0.00     0.158 A 
BRANCH  15  18
ATOM     18  O   UNL     1      35.691 -30.105  -0.150  1.00  0.00    -0.504 OA
ATOM     19  H   UNL     1      34.727 -30.329   0.064  1.00  0.00     0.293 HD
ENDBRANCH  15  18
BRANCH  17  20
ATOM     20  O   UNL     1      36.570 -32.711  -0.790  1.00  0.00    -0.504 OA
ATOM     21  H   UNL     1      35.840 -33.409  -0.866  1.00  0.00     0.293 HD
ENDBRANCH  17  20
ENDBRANCH   1  12
BRANCH   6  22
ATOM     22  O   UNL     1      39.977 -31.181 -10.044  1.00  0.00    -0.507 OA
ATOM     23  H   UNL     1      40.149 -31.424 -11.008  1.00  0.00     0.293 HD
ENDBRANCH   6  22
BRANCH   8  24
ATOM     24  O   UNL     1      39.264 -35.770  -8.822  1.00  0.00    -0.508 OA
ATOM     25  H   UNL     1      39.551 -36.074  -9.744  1.00  0.00     0.293 HD
ENDBRANCH   8  24
TORSDOF 5
ENDMDL
MODEL 3
REMARK VINA RESULT:     3.021      3.138      7.013
REMARK INTER + INTRA:           3.288
REMARK INTER:                   3.604
REMARK INTRA:                  -0.316
REMARK UNBOUND:                -0.263
REMARK SMILES O=c1cc(-c2ccc(O)c(O)c2)oc2cc(O)cc(O)c12
REMARK SMILES IDX 4 1 3 2 2 3 1 4 21 5 19 6 18 7 16 8 15 9 14 10 13 11 5 12
REMARK SMILES IDX 6 13 7 14 8 15 12 16 10 17 9 18 11 20 20 22 17 24
REMARK H PARENT 9 19 11 21 20 23 17 25
REMARK Flexibility Score: inf
ROOT
ATOM      1  C   UNL     1      37.752 -30.927  -5.014  1.00  0.00     0.138 A 
ATOM      2  C   UNL     1      37.303 -29.636  -4.704  1.00  0.00     0.100 A 
ATOM      3  C   UNL     1      36.756 -29.379  -3.446  1.00  0.00     0.197 A 
ATOM      4  O   UNL     1      36.304 -28.227  -3.219  1.00  0.00    -0.289 OA
ATOM      5  C   UNL     1      36.689 -30.414  -2.484  1.00  0.00     0.107 A 
ATOM      6  C   UNL     1      36.189 -30.258  -1.156  1.00  0.00     0.134 A 
ATOM      7  C   UNL     1      36.064 -31.382  -0.330  1.00  0.00     0.093 A 
ATOM      8  C   UNL     1      36.476 -32.645  -0.762  1.00  0.00     0.123 A 
ATOM      9  C   UNL     1      37.015 -32.798  -2.037  1.00  0.00     0.094 A 
ATOM     10  C   UNL     1      37.121 -31.703  -2.898  1.00  0.00     0.146 A 
ATOM     11  O   UNL     1      37.628 -31.894  -4.111  1.00  0.00    -0.456 OA
ENDROOT
BRANCH   1  12
ATOM     12  C   UNL     1      38.343 -31.255  -6.336  1.00  0.00     0.021 A 
ATOM     13  C   UNL     1      38.700 -30.215  -7.211  1.00  0.00     0.016 A 
ATOM     14  C   UNL     1      39.250 -30.497  -8.464  1.00  0.00     0.051 A 
ATOM     15  C   UNL     1      39.446 -31.821  -8.868  1.00  0.00     0.157 A 
ATOM     16  C   UNL     1      38.530 -32.588  -6.753  1.00  0.00     0.062 A 
ATOM     17  C   UNL     1      39.082 -32.872  -8.012  1.00  0.00     0.158 A 
BRANCH  15  18
ATOM     18  O   UNL     1      40.000 -32.071 -10.124  1.00  0.00    -0.504 OA
ATOM     19  H   UNL     1      40.703 -32.785 -10.269  1.00  0.00     0.293 HD
ENDBRANCH  15  18
BRANCH  17  20
ATOM     20  O   UNL     1      39.264 -34.194  -8.414  1.00  0.00    -0.504 OA
ATOM     21  H   UNL     1      40.080 -34.726  -8.135  1.00  0.00     0.293 HD
ENDBRANCH  17  20
ENDBRANCH   1  12
BRANCH   6  22
ATOM     22  O   UNL     1      35.830 -29.029  -0.596  1.00  0.00    -0.507 OA
ATOM     23  H   UNL     1      35.969 -28.772   0.369  1.00  0.00     0.293 HD
ENDBRANCH   6  22
BRANCH   8  24
ATOM     24  O   UNL     1      36.360 -33.755   0.073  1.00  0.00    -0.508 OA
ATOM     25  H   UNL     1      35.548 -34.358   0.042  1.00  0.00     0.293 HD
ENDBRANCH   8  24
TORSDOF 5
ENDMDL
MODEL 4
REMARK VINA RESULT:     3.117      1.867      3.517
REMARK INTER + INTRA:           3.401
REMARK INTER:                   3.665
REMARK INTRA:                  -0.264
REMARK UNBOUND:                -0.263
REMARK SMILES O=c1cc(-c2ccc(O)c(O)c2)oc2cc(O)cc(O)c12
REMARK SMILES IDX 4 1 3 2 2 3 1 4 21 5 19 6 18 7 16 8 15 9 14 10 13 11 5 12
REMARK SMILES IDX 6 13 7 14 8 15 12 16 10 17 9 18 11 20 20 22 17 24
REMARK H PARENT 9 19 11 21 20 23 17 25
REMARK Flexibility Score: inf
ROOT
ATOM      1  C   UNL     1      36.997 -30.704  -4.210  1.00  0.00     0.138 A 
ATOM      2  C   UNL     1      36.019 -29.800  -4.646  1.00  0.00     0.100 A 
ATOM      3  C   UNL     1      36.024 -29.365  -5.971  1.00  0.00     0.197 A 
ATOM      4  O   UNL     1      35.172 -28.506  -6.318  1.00  0.00    -0.289 OA
ATOM      5  C   UNL     1      36.996 -29.862  -6.872  1.00  0.00     0.107 A 
ATOM      6  C   UNL     1      37.073 -29.520  -8.255  1.00  0.00     0.134 A 
ATOM      7  C   UNL     1      38.150 -29.985  -9.022  1.00  0.00     0.093 A 
ATOM      8  C   UNL     1      39.117 -30.827  -8.469  1.00  0.00     0.123 A 
ATOM      9  C   UNL     1      39.021 -31.210  -7.134  1.00  0.00     0.094 A 
ATOM     10  C   UNL     1      37.979 -30.736  -6.334  1.00  0.00     0.146 A 
ATOM     11  O   UNL     1      37.932 -31.113  -5.061  1.00  0.00    -0.456 OA
ENDROOT
BRANCH   1  12
ATOM     12  C   UNL     1      37.038 -31.200  -2.811  1.00  0.00     0.021 A 
ATOM     13  C   UNL     1      36.692 -32.536  -2.541  1.00  0.00     0.016 A 
ATOM     14  C   UNL     1      36.715 -33.025  -1.232  1.00  0.00     0.051 A 
ATOM     15  C   UNL     1      37.073 -32.190  -0.171  1.00  0.00     0.157 A 
ATOM     16  C   UNL     1      37.385 -30.358  -1.736  1.00  0.00     0.062 A 
ATOM     17  C   UNL     1      37.407 -30.849  -0.422  1.00  0.00     0.158 A 
BRANCH  15  18
ATOM     18  O   UNL     1      37.088 -32.708   1.124  1.00  0.00    -0.504 OA
ATOM     19  H   UNL     1      37.914 -32.669   1.709  1.00  0.00     0.293 HD
ENDBRANCH  15  18
BRANCH  17  20
ATOM     20  O   UNL     1      37.754 -30.008   0.635  1.00  0.00    -0.504 OA
ATOM     21  H   UNL     1      37.561 -30.257   1.597  1.00  0.00     0.293 HD
ENDBRANCH  17  20
ENDBRANCH   1  12
BRANCH   6  22
ATOM     22  O   UNL     1      36.114 -28.755  -8.925  1.00  0.00    -0.507 OA
ATOM     23  H   UNL     1      36.296 -28.183  -9.735  1.00  0.00     0.293 HD
ENDBRANCH   6  22
BRANCH   8  24
ATOM     24  O   UNL     1      40.177 -31.296  -9.244  1.00  0.00    -0.508 OA
ATOM     25  H   UNL     1      40.356 -32.287  -9.354  1.00  0.00     0.293 HD
ENDBRANCH   8  24
TORSDOF 5
ENDMDL
