MODEL 1
REMARK VINA RESULT:    -4.405      0.000      0.000
REMARK INTER + INTRA:         -10.519
REMARK INTER:                  -8.525
REMARK INTRA:                  -1.994
REMARK UNBOUND:                -1.994
REMARK SMILES CCCCCCCCCCCCCCCCCC(=O)[O-]
REMARK SMILES IDX 10 1 11 2 12 3 13 4 14 5 15 6 16 7 17 8 18 9 19 10 20 11
REMARK SMILES IDX 9 12 8 13 7 14 6 15 5 16 4 17 3 18 2 19 1 20
REMARK H PARENT
REMARK Flexibility Score: inf
ROOT
ATOM      1  C   UNL     1     -11.387   3.942   6.923  1.00  0.00     0.000 C 
ENDROOT
BRANCH   1   2
ATOM      2  C   UNL     1     -10.589   4.409   8.152  1.00  0.00     0.000 C 
BRANCH   2   3
ATOM      3  C   UNL     1      -9.828   5.722   7.898  1.00  0.00     0.000 C 
BRANCH   3   4
ATOM      4  C   UNL     1      -9.102   5.730   6.543  1.00  0.00     0.000 C 
BRANCH   4   5
ATOM      5  C   UNL     1      -9.320   7.035   5.759  1.00  0.00     0.000 C 
BRANCH   5   6
ATOM      6  C   UNL     1      -8.347   8.152   6.177  1.00  0.00     0.000 C 
BRANCH   6   7
ATOM      7  C   UNL     1      -7.922   9.102   5.038  1.00  0.00     0.006 C 
BRANCH   7   8
ATOM      8  C   UNL     1      -7.634  10.544   5.484  1.00  0.00     0.053 C 
BRANCH   8   9
ATOM      9  C   UNL     1      -6.487  10.617   6.444  1.00  0.00     0.041 C 
ATOM     10  O   UNL     1      -5.303  10.651   6.015  1.00  0.00    -0.550 OA
ATOM     11  O   UNL     1      -6.725  10.680   7.811  1.00  0.00    -0.550 OA
ENDBRANCH   8   9
ENDBRANCH   7   8
ENDBRANCH   6   7
ENDBRANCH   5   6
ENDBRANCH   4   5
ENDBRANCH   3   4
ENDBRANCH   2   3
ENDBRANCH   1   2
BRANCH   1  12
ATOM     12  C   UNL     1     -12.824   4.481   6.909  1.00  0.00     0.000 C 
BRANCH  12  13
ATOM     13  C   UNL     1     -12.913   5.788   6.110  1.00  0.00    -0.000 C 
BRANCH  13  14
ATOM     14  C   UNL     1     -12.578   5.551   4.630  1.00  0.00    -0.000 C 
BRANCH  14  15
ATOM     15  C   UNL     1     -13.598   6.201   3.676  1.00  0.00    -0.000 C 
BRANCH  15  16
ATOM     16  C   UNL     1     -14.480   7.292   4.315  1.00  0.00    -0.000 C 
BRANCH  16  17
ATOM     17  C   UNL     1     -13.902   8.720   4.256  1.00  0.00    -0.000 C 
BRANCH  17  18
ATOM     18  C   UNL     1     -13.751   9.417   5.620  1.00  0.00    -0.000 C 
BRANCH  18  19
ATOM     19  C   UNL     1     -12.309   9.391   6.145  1.00  0.00    -0.003 C 
ATOM     20  C   UNL     1     -11.462  10.471   5.477  1.00  0.00     0.004 C 
ENDBRANCH  18  19
ENDBRANCH  17  18
ENDBRANCH  16  17
ENDBRANCH  15  16
ENDBRANCH  14  15
ENDBRANCH  13  14
ENDBRANCH  12  13
ENDBRANCH   1  12
TORSDOF 16
ENDMDL
MODEL 2
REMARK VINA RESULT:    -4.320      3.065      5.987
REMARK INTER + INTRA:         -10.355
REMARK INTER:                  -8.448
REMARK INTRA:                  -1.906
REMARK UNBOUND:                -1.994
REMARK SMILES CCCCCCCCCCCCCCCCCC(=O)[O-]
REMARK SMILES IDX 10 1 11 2 12 3 13 4 14 5 15 6 16 7 17 8 18 9 19 10 20 11
REMARK SMILES IDX 9 12 8 13 7 14 6 15 5 16 4 17 3 18 2 19 1 20
REMARK H PARENT
REMARK Flexibility Score: inf
ROOT
ATOM      1  C   UNL     1      -9.410   7.095   5.770  1.00  0.00     0.000 C 
ENDROOT
BRANCH   1   2
ATOM      2  C   UNL     1      -9.080   5.765   6.468  1.00  0.00     0.000 C 
BRANCH   2   3
ATOM      3  C   UNL     1      -9.844   5.588   7.792  1.00  0.00     0.000 C 
BRANCH   3   4
ATOM      4  C   UNL     1     -10.532   4.218   7.896  1.00  0.00     0.000 C 
BRANCH   4   5
ATOM      5  C   UNL     1     -12.059   4.306   7.730  1.00  0.00     0.000 C 
BRANCH   5   6
ATOM      6  C   UNL     1     -12.489   4.543   6.271  1.00  0.00     0.000 C 
BRANCH   6   7
ATOM      7  C   UNL     1     -12.924   5.987   5.949  1.00  0.00     0.006 C 
BRANCH   7   8
ATOM      8  C   UNL     1     -14.172   6.095   5.060  1.00  0.00     0.053 C 
BRANCH   8   9
ATOM      9  C   UNL     1     -13.866   6.720   3.734  1.00  0.00     0.041 C 
ATOM     10  O   UNL     1     -13.497   6.001   2.767  1.00  0.00    -0.550 OA
ATOM     11  O   UNL     1     -14.019   8.088   3.555  1.00  0.00    -0.550 OA
ENDBRANCH   8   9
ENDBRANCH   7   8
ENDBRANCH   6   7
ENDBRANCH   5   6
ENDBRANCH   4   5
ENDBRANCH   3   4
ENDBRANCH   2   3
ENDBRANCH   1   2
BRANCH   1  12
ATOM     12  C   UNL     1      -8.429   8.217   6.138  1.00  0.00     0.000 C 
BRANCH  12  13
ATOM     13  C   UNL     1      -7.963   8.972   4.886  1.00  0.00    -0.000 C 
BRANCH  13  14
ATOM     14  C   UNL     1      -7.107  10.189   5.265  1.00  0.00    -0.000 C 
BRANCH  14  15
ATOM     15  C   UNL     1      -7.723  11.020   6.406  1.00  0.00    -0.000 C 
BRANCH  15  16
ATOM     16  C   UNL     1      -8.758  12.072   5.958  1.00  0.00    -0.000 C 
BRANCH  16  17
ATOM     17  C   UNL     1     -10.221  11.748   6.320  1.00  0.00    -0.000 C 
BRANCH  17  18
ATOM     18  C   UNL     1     -11.018  11.025   5.220  1.00  0.00    -0.000 C 
BRANCH  18  19
ATOM     19  C   UNL     1     -11.897   9.892   5.770  1.00  0.00    -0.003 C 
ATOM     20  C   UNL     1     -12.651  10.339   7.019  1.00  0.00     0.004 C 
ENDBRANCH  18  19
ENDBRANCH  17  18
ENDBRANCH  16  17
ENDBRANCH  15  16
ENDBRANCH  14  15
ENDBRANCH  13  14
ENDBRANCH  12  13
ENDBRANCH   1  12
TORSDOF 16
ENDMDL
MODEL 3
REMARK VINA RESULT:    -4.285     15.632     18.056
REMARK INTER + INTRA:         -10.286
REMARK INTER:                  -8.683
REMARK INTRA:                  -1.603
REMARK UNBOUND:                -1.994
REMARK SMILES CCCCCCCCCCCCCCCCCC(=O)[O-]
REMARK SMILES IDX 10 1 11 2 12 3 13 4 14 5 15 6 16 7 17 8 18 9 19 10 20 11
REMARK SMILES IDX 9 12 8 13 7 14 6 15 5 16 4 17 3 18 2 19 1 20
REMARK H PARENT
REMARK Flexibility Score: inf
ROOT
ATOM      1  C   UNL     1     -14.750  -0.488  -9.710  1.00  0.00     0.000 C 
ENDROOT
BRANCH   1   2
ATOM      2  C   UNL     1     -15.123  -1.658 -10.635  1.00  0.00     0.000 C 
BRANCH   2   3
ATOM      3  C   UNL     1     -15.056  -3.020  -9.921  1.00  0.00     0.000 C 
BRANCH   3   4
ATOM      4  C   UNL     1     -13.828  -3.844 -10.340  1.00  0.00     0.000 C 
BRANCH   4   5
ATOM      5  C   UNL     1     -12.601  -2.969 -10.646  1.00  0.00     0.000 C 
BRANCH   5   6
ATOM      6  C   UNL     1     -11.583  -2.942  -9.491  1.00  0.00     0.000 C 
BRANCH   6   7
ATOM      7  C   UNL     1     -10.266  -2.203  -9.802  1.00  0.00     0.006 C 
BRANCH   7   8
ATOM      8  C   UNL     1      -9.090  -2.582  -8.890  1.00  0.00     0.053 C 
BRANCH   8   9
ATOM      9  C   UNL     1      -9.121  -4.029  -8.504  1.00  0.00     0.041 C 
ATOM     10  O   UNL     1      -9.556  -4.372  -7.373  1.00  0.00    -0.550 OA
ATOM     11  O   UNL     1      -8.703  -5.000  -9.404  1.00  0.00    -0.550 OA
ENDBRANCH   8   9
ENDBRANCH   7   8
ENDBRANCH   6   7
ENDBRANCH   5   6
ENDBRANCH   4   5
ENDBRANCH   3   4
ENDBRANCH   2   3
ENDBRANCH   1   2
BRANCH   1  12
ATOM     12  C   UNL     1     -14.007   0.636 -10.445  1.00  0.00     0.000 C 
BRANCH  12  13
ATOM     13  C   UNL     1     -14.465   2.014  -9.949  1.00  0.00    -0.000 C 
BRANCH  13  14
ATOM     14  C   UNL     1     -14.942   1.943  -8.491  1.00  0.00    -0.000 C 
BRANCH  14  15
ATOM     15  C   UNL     1     -14.509   3.165  -7.661  1.00  0.00    -0.000 C 
BRANCH  15  16
ATOM     16  C   UNL     1     -13.458   4.069  -8.336  1.00  0.00    -0.000 C 
BRANCH  16  17
ATOM     17  C   UNL     1     -12.109   4.173  -7.596  1.00  0.00    -0.000 C 
BRANCH  17  18
ATOM     18  C   UNL     1     -10.871   3.851  -8.451  1.00  0.00    -0.000 C 
BRANCH  18  19
ATOM     19  C   UNL     1     -11.139   2.760  -9.498  1.00  0.00    -0.003 C 
ATOM     20  C   UNL     1     -10.932   1.369  -8.906  1.00  0.00     0.004 C 
ENDBRANCH  18  19
ENDBRANCH  17  18
ENDBRANCH  16  17
ENDBRANCH  15  16
ENDBRANCH  14  15
ENDBRANCH  13  14
ENDBRANCH  12  13
ENDBRANCH   1  12
TORSDOF 16
ENDMDL
MODEL 4
REMARK VINA RESULT:    -4.274      2.603      5.246
REMARK INTER + INTRA:         -10.266
REMARK INTER:                  -8.526
REMARK INTRA:                  -1.740
REMARK UNBOUND:                -1.994
REMARK SMILES CCCCCCCCCCCCCCCCCC(=O)[O-]
REMARK SMILES IDX 10 1 11 2 12 3 13 4 14 5 15 6 16 7 17 8 18 9 19 10 20 11
REMARK SMILES IDX 9 12 8 13 7 14 6 15 5 16 4 17 3 18 2 19 1 20
REMARK H PARENT
REMARK Flexibility Score: inf
ROOT
ATOM      1  C   UNL     1      -8.557   8.120   6.055  1.00  0.00     0.000 C 
ENDROOT
BRANCH   1   2
ATOM      2  C   UNL     1      -7.968   8.937   4.894  1.00  0.00     0.000 C 
BRANCH   2   3
ATOM      3  C   UNL     1      -6.950   9.989   5.369  1.00  0.00     0.000 C 
BRANCH   3   4
ATOM      4  C   UNL     1      -7.513  10.895   6.475  1.00  0.00     0.000 C 
BRANCH   4   5
ATOM      5  C   UNL     1      -8.426  12.005   5.927  1.00  0.00     0.000 C 
BRANCH   5   6
ATOM      6  C   UNL     1      -9.884  11.869   6.404  1.00  0.00     0.000 C 
BRANCH   6   7
ATOM      7  C   UNL     1     -10.832  11.176   5.405  1.00  0.00     0.006 C 
BRANCH   7   8
ATOM      8  C   UNL     1     -11.969  10.373   6.056  1.00  0.00     0.053 C 
BRANCH   8   9
ATOM      9  C   UNL     1     -12.991   9.931   5.054  1.00  0.00     0.041 C 
ATOM     10  O   UNL     1     -13.777   8.986   5.327  1.00  0.00    -0.550 OA
ATOM     11  O   UNL     1     -13.098  10.584   3.833  1.00  0.00    -0.550 OA
ENDBRANCH   8   9
ENDBRANCH   7   8
ENDBRANCH   6   7
ENDBRANCH   5   6
ENDBRANCH   4   5
ENDBRANCH   3   4
ENDBRANCH   2   3
ENDBRANCH   1   2
BRANCH   1  12
ATOM     12  C   UNL     1      -9.209   6.810   5.589  1.00  0.00     0.000 C 
BRANCH  12  13
ATOM     13  C   UNL     1      -9.179   5.754   6.701  1.00  0.00    -0.000 C 
BRANCH  13  14
ATOM     14  C   UNL     1     -10.408   5.880   7.612  1.00  0.00    -0.000 C 
BRANCH  14  15
ATOM     15  C   UNL     1     -11.176   4.555   7.765  1.00  0.00    -0.000 C 
BRANCH  15  16
ATOM     16  C   UNL     1     -12.428   4.423   6.874  1.00  0.00    -0.000 C 
BRANCH  16  17
ATOM     17  C   UNL     1     -12.872   5.722   6.171  1.00  0.00    -0.000 C 
BRANCH  17  18
ATOM     18  C   UNL     1     -12.688   5.730   4.643  1.00  0.00    -0.000 C 
BRANCH  18  19
ATOM     19  C   UNL     1     -14.022   5.718   3.883  1.00  0.00    -0.003 C 
ATOM     20  C   UNL     1     -13.900   6.446   2.548  1.00  0.00     0.004 C 
ENDBRANCH  18  19
ENDBRANCH  17  18
ENDBRANCH  16  17
ENDBRANCH  15  16
ENDBRANCH  14  15
ENDBRANCH  13  14
ENDBRANCH  12  13
ENDBRANCH   1  12
TORSDOF 16
ENDMDL
MODEL 5
REMARK VINA RESULT:    -4.263      1.951      5.609
REMARK INTER + INTRA:         -10.244
REMARK INTER:                  -8.856
REMARK INTRA:                  -1.388
REMARK UNBOUND:                -1.994
REMARK SMILES CCCCCCCCCCCCCCCCCC(=O)[O-]
REMARK SMILES IDX 10 1 11 2 12 3 13 4 14 5 15 6 16 7 17 8 18 9 19 10 20 11
REMARK SMILES IDX 9 12 8 13 7 14 6 15 5 16 4 17 3 18 2 19 1 20
REMARK H PARENT
REMARK Flexibility Score: inf
ROOT
ATOM      1  C   UNL     1     -10.714   4.478   8.023  1.00  0.00     0.000 C 
ENDROOT
BRANCH   1   2
ATOM      2  C   UNL     1     -11.445   4.069   6.734  1.00  0.00     0.000 C 
BRANCH   2   3
ATOM      3  C   UNL     1     -12.777   4.817   6.547  1.00  0.00     0.000 C 
BRANCH   3   4
ATOM      4  C   UNL     1     -12.770   5.732   5.312  1.00  0.00     0.000 C 
BRANCH   4   5
ATOM      5  C   UNL     1     -14.137   5.790   4.609  1.00  0.00     0.000 C 
BRANCH   5   6
ATOM      6  C   UNL     1     -14.816   7.166   4.734  1.00  0.00     0.000 C 
BRANCH   6   7
ATOM      7  C   UNL     1     -14.014   8.342   4.140  1.00  0.00     0.006 C 
BRANCH   7   8
ATOM      8  C   UNL     1     -13.841   9.540   5.087  1.00  0.00     0.053 C 
BRANCH   8   9
ATOM      9  C   UNL     1     -12.521   9.511   5.795  1.00  0.00     0.041 C 
ATOM     10  O   UNL     1     -12.338   8.721   6.759  1.00  0.00    -0.550 OA
ATOM     11  O   UNL     1     -11.485  10.332   5.370  1.00  0.00    -0.550 OA
ENDBRANCH   8   9
ENDBRANCH   7   8
ENDBRANCH   6   7
ENDBRANCH   5   6
ENDBRANCH   4   5
ENDBRANCH   3   4
ENDBRANCH   2   3
ENDBRANCH   1   2
BRANCH   1  12
ATOM     12  C   UNL     1      -9.850   5.734   7.842  1.00  0.00     0.000 C 
BRANCH  12  13
ATOM     13  C   UNL     1      -9.183   5.749   6.461  1.00  0.00    -0.000 C 
BRANCH  13  14
ATOM     14  C   UNL     1      -9.433   7.084   5.744  1.00  0.00    -0.000 C 
BRANCH  14  15
ATOM     15  C   UNL     1      -8.422   8.174   6.144  1.00  0.00    -0.000 C 
BRANCH  15  16
ATOM     16  C   UNL     1      -8.029   9.143   5.010  1.00  0.00    -0.000 C 
BRANCH  16  17
ATOM     17  C   UNL     1      -6.991  10.216   5.395  1.00  0.00    -0.000 C 
BRANCH  17  18
ATOM     18  C   UNL     1      -6.641  10.275   6.892  1.00  0.00    -0.000 C 
BRANCH  18  19
ATOM     19  C   UNL     1      -5.439  11.184   7.187  1.00  0.00    -0.003 C 
ATOM     20  C   UNL     1      -4.329  10.978   6.160  1.00  0.00     0.004 C 
ENDBRANCH  18  19
ENDBRANCH  17  18
ENDBRANCH  16  17
ENDBRANCH  15  16
ENDBRANCH  14  15
ENDBRANCH  13  14
ENDBRANCH  12  13
ENDBRANCH   1  12
TORSDOF 16
ENDMDL
MODEL 6
REMARK VINA RESULT:    -4.258     16.272     18.743
REMARK INTER + INTRA:         -10.235
REMARK INTER:                  -8.673
REMARK INTRA:                  -1.562
REMARK UNBOUND:                -1.994
REMARK SMILES CCCCCCCCCCCCCCCCCC(=O)[O-]
REMARK SMILES IDX 10 1 11 2 12 3 13 4 14 5 15 6 16 7 17 8 18 9 19 10 20 11
REMARK SMILES IDX 9 12 8 13 7 14 6 15 5 16 4 17 3 18 2 19 1 20
REMARK H PARENT
REMARK Flexibility Score: inf
ROOT
ATOM      1  C   UNL     1     -10.694  -0.246  -9.234  1.00  0.00     0.000 C 
ENDROOT
BRANCH   1   2
ATOM      2  C   UNL     1     -10.287  -1.444 -10.106  1.00  0.00     0.000 C 
BRANCH   2   3
ATOM      3  C   UNL     1     -10.249  -2.764  -9.315  1.00  0.00     0.000 C 
BRANCH   3   4
ATOM      4  C   UNL     1     -11.608  -3.481  -9.301  1.00  0.00     0.000 C 
BRANCH   4   5
ATOM      5  C   UNL     1     -12.422  -3.237 -10.584  1.00  0.00     0.000 C 
BRANCH   5   6
ATOM      6  C   UNL     1     -13.940  -3.367 -10.362  1.00  0.00     0.000 C 
BRANCH   6   7
ATOM      7  C   UNL     1     -14.409  -4.752  -9.872  1.00  0.00     0.006 C 
BRANCH   7   8
ATOM      8  C   UNL     1     -15.097  -4.744  -8.498  1.00  0.00     0.053 C 
BRANCH   8   9
ATOM      9  C   UNL     1     -15.053  -6.089  -7.840  1.00  0.00     0.041 C 
ATOM     10  O   UNL     1     -14.981  -6.176  -6.586  1.00  0.00    -0.550 OA
ATOM     11  O   UNL     1     -15.125  -7.243  -8.608  1.00  0.00    -0.550 OA
ENDBRANCH   8   9
ENDBRANCH   7   8
ENDBRANCH   6   7
ENDBRANCH   5   6
ENDBRANCH   4   5
ENDBRANCH   3   4
ENDBRANCH   2   3
ENDBRANCH   1   2
BRANCH   1  12
ATOM     12  C   UNL     1     -11.619   0.736  -9.969  1.00  0.00     0.000 C 
BRANCH  12  13
ATOM     13  C   UNL     1     -12.637  -0.014 -10.837  1.00  0.00    -0.000 C 
BRANCH  13  14
ATOM     14  C   UNL     1     -14.065   0.194 -10.314  1.00  0.00    -0.000 C 
BRANCH  14  15
ATOM     15  C   UNL     1     -14.380   1.671 -10.009  1.00  0.00    -0.000 C 
BRANCH  15  16
ATOM     16  C   UNL     1     -14.785   1.961  -8.550  1.00  0.00    -0.000 C 
BRANCH  16  17
ATOM     17  C   UNL     1     -14.210   3.263  -7.956  1.00  0.00    -0.000 C 
BRANCH  17  18
ATOM     18  C   UNL     1     -12.987   3.831  -8.697  1.00  0.00    -0.000 C 
BRANCH  18  19
ATOM     19  C   UNL     1     -11.803   4.114  -7.761  1.00  0.00    -0.003 C 
ATOM     20  C   UNL     1     -10.473   3.907  -8.479  1.00  0.00     0.004 C 
ENDBRANCH  18  19
ENDBRANCH  17  18
ENDBRANCH  16  17
ENDBRANCH  15  16
ENDBRANCH  14  15
ENDBRANCH  13  14
ENDBRANCH  12  13
ENDBRANCH   1  12
TORSDOF 16
ENDMDL
MODEL 7
REMARK VINA RESULT:    -4.257      1.966      5.261
REMARK INTER + INTRA:         -10.234
REMARK INTER:                  -8.771
REMARK INTRA:                  -1.463
REMARK UNBOUND:                -1.994
REMARK SMILES CCCCCCCCCCCCCCCCCC(=O)[O-]
REMARK SMILES IDX 10 1 11 2 12 3 13 4 14 5 15 6 16 7 17 8 18 9 19 10 20 11
REMARK SMILES IDX 9 12 8 13 7 14 6 15 5 16 4 17 3 18 2 19 1 20
REMARK H PARENT
REMARK Flexibility Score: inf
ROOT
ATOM      1  C   UNL     1     -11.513   4.081   6.654  1.00  0.00     0.000 C 
ENDROOT
BRANCH   1   2
ATOM      2  C   UNL     1     -12.719   4.987   6.359  1.00  0.00     0.000 C 
BRANCH   2   3
ATOM      3  C   UNL     1     -12.617   5.678   4.988  1.00  0.00     0.000 C 
BRANCH   3   4
ATOM      4  C   UNL     1     -13.969   5.742   4.259  1.00  0.00     0.000 C 
BRANCH   4   5
ATOM      5  C   UNL     1     -14.841   6.919   4.726  1.00  0.00     0.000 C 
BRANCH   5   6
ATOM      6  C   UNL     1     -14.297   8.285   4.268  1.00  0.00     0.000 C 
BRANCH   6   7
ATOM      7  C   UNL     1     -14.116   9.323   5.394  1.00  0.00     0.006 C 
BRANCH   7   8
ATOM      8  C   UNL     1     -12.663   9.514   5.858  1.00  0.00     0.053 C 
BRANCH   8   9
ATOM      9  C   UNL     1     -12.050  10.755   5.287  1.00  0.00     0.041 C 
ATOM     10  O   UNL     1     -10.800  10.913   5.315  1.00  0.00    -0.550 OA
ATOM     11  O   UNL     1     -12.853  11.721   4.695  1.00  0.00    -0.550 OA
ENDBRANCH   8   9
ENDBRANCH   7   8
ENDBRANCH   6   7
ENDBRANCH   5   6
ENDBRANCH   4   5
ENDBRANCH   3   4
ENDBRANCH   2   3
ENDBRANCH   1   2
BRANCH   1  12
ATOM     12  C   UNL     1     -10.808   4.441   7.970  1.00  0.00     0.000 C 
BRANCH  12  13
ATOM     13  C   UNL     1     -10.017   5.748   7.830  1.00  0.00    -0.000 C 
BRANCH  13  14
ATOM     14  C   UNL     1      -9.163   5.740   6.554  1.00  0.00    -0.000 C 
BRANCH  14  15
ATOM     15  C   UNL     1      -9.333   7.018   5.713  1.00  0.00    -0.000 C 
BRANCH  15  16
ATOM     16  C   UNL     1      -8.331   8.145   6.034  1.00  0.00    -0.000 C 
BRANCH  16  17
ATOM     17  C   UNL     1      -8.021   9.099   4.863  1.00  0.00    -0.000 C 
BRANCH  17  18
ATOM     18  C   UNL     1      -7.102  10.283   5.214  1.00  0.00    -0.000 C 
BRANCH  18  19
ATOM     19  C   UNL     1      -6.548  10.201   6.644  1.00  0.00    -0.003 C 
ATOM     20  C   UNL     1      -5.073  10.591   6.684  1.00  0.00     0.004 C 
ENDBRANCH  18  19
ENDBRANCH  17  18
ENDBRANCH  16  17
ENDBRANCH  15  16
ENDBRANCH  14  15
ENDBRANCH  13  14
ENDBRANCH  12  13
ENDBRANCH   1  12
TORSDOF 16
ENDMDL
MODEL 8
REMARK VINA RESULT:    -4.126      1.041      1.959
REMARK INTER + INTRA:          -9.980
REMARK INTER:                  -7.843
REMARK INTRA:                  -2.136
REMARK UNBOUND:                -1.994
REMARK SMILES CCCCCCCCCCCCCCCCCC(=O)[O-]
REMARK SMILES IDX 10 1 11 2 12 3 13 4 14 5 15 6 16 7 17 8 18 9 19 10 20 11
REMARK SMILES IDX 9 12 8 13 7 14 6 15 5 16 4 17 3 18 2 19 1 20
REMARK H PARENT
REMARK Flexibility Score: inf
ROOT
ATOM      1  C   UNL     1     -11.570   4.264   7.333  1.00  0.00     0.000 C 
ENDROOT
BRANCH   1   2
ATOM      2  C   UNL     1     -10.881   5.150   8.383  1.00  0.00     0.000 C 
BRANCH   2   3
ATOM      3  C   UNL     1      -9.767   6.023   7.780  1.00  0.00     0.000 C 
BRANCH   3   4
ATOM      4  C   UNL     1      -9.243   5.470   6.445  1.00  0.00     0.000 C 
BRANCH   4   5
ATOM      5  C   UNL     1      -8.988   6.572   5.404  1.00  0.00     0.000 C 
BRANCH   5   6
ATOM      6  C   UNL     1      -8.653   7.932   6.043  1.00  0.00     0.000 C 
BRANCH   6   7
ATOM      7  C   UNL     1      -8.037   8.968   5.080  1.00  0.00     0.006 C 
BRANCH   7   8
ATOM      8  C   UNL     1      -8.016  10.407   5.618  1.00  0.00     0.053 C 
BRANCH   8   9
ATOM      9  C   UNL     1      -6.680  10.776   6.185  1.00  0.00     0.041 C 
ATOM     10  O   UNL     1      -6.432  10.573   7.404  1.00  0.00    -0.550 OA
ATOM     11  O   UNL     1      -5.697  11.311   5.363  1.00  0.00    -0.550 OA
ENDBRANCH   8   9
ENDBRANCH   7   8
ENDBRANCH   6   7
ENDBRANCH   5   6
ENDBRANCH   4   5
ENDBRANCH   3   4
ENDBRANCH   2   3
ENDBRANCH   1   2
BRANCH   1  12
ATOM     12  C   UNL     1     -12.877   4.875   6.807  1.00  0.00     0.000 C 
BRANCH  12  13
ATOM     13  C   UNL     1     -12.668   5.515   5.429  1.00  0.00    -0.000 C 
BRANCH  13  14
ATOM     14  C   UNL     1     -13.203   6.954   5.404  1.00  0.00    -0.000 C 
BRANCH  14  15
ATOM     15  C   UNL     1     -12.273   7.949   6.122  1.00  0.00    -0.000 C 
BRANCH  15  16
ATOM     16  C   UNL     1     -12.720   9.423   6.052  1.00  0.00    -0.000 C 
BRANCH  16  17
ATOM     17  C   UNL     1     -11.706  10.385   5.401  1.00  0.00    -0.000 C 
BRANCH  17  18
ATOM     18  C   UNL     1     -12.315  11.411   4.429  1.00  0.00    -0.000 C 
BRANCH  18  19
ATOM     19  C   UNL     1     -13.710  11.006   3.933  1.00  0.00    -0.003 C 
ATOM     20  C   UNL     1     -13.625  10.253   2.608  1.00  0.00     0.004 C 
ENDBRANCH  18  19
ENDBRANCH  17  18
ENDBRANCH  16  17
ENDBRANCH  15  16
ENDBRANCH  14  15
ENDBRANCH  13  14
ENDBRANCH  12  13
ENDBRANCH   1  12
TORSDOF 16
ENDMDL
