MODEL 1
REMARK VINA RESULT:    -6.227      0.000      0.000
REMARK INTER + INTRA:          -7.764
REMARK INTER:                  -7.501
REMARK INTRA:                  -0.263
REMARK UNBOUND:                -0.263
REMARK SMILES O=c1c(O)c(-c2ccc(O)c(O)c2)oc2cc(O)cc(O)c12
REMARK SMILES IDX 5 1 3 2 2 3 1 4 22 5 20 6 19 7 17 8 16 9 15 10 14 11 6 12
REMARK SMILES IDX 7 13 8 14 9 15 13 16 11 17 10 18 12 20 4 22 21 24 18 26
REMARK H PARENT 10 19 12 21 4 23 21 25 18 27
REMARK Flexibility Score: inf
ROOT
ATOM      1  C   UNL     1     -20.337  39.826  -3.642  1.00  0.00     0.180 A 
ATOM      2  C   UNL     1     -19.984  40.781  -4.611  1.00  0.00     0.208 A 
ATOM      3  C   UNL     1     -19.816  40.369  -5.944  1.00  0.00     0.238 A 
ATOM      4  O   UNL     1     -19.554  41.238  -6.816  1.00  0.00    -0.285 OA
ATOM      5  C   UNL     1     -19.986  39.007  -6.287  1.00  0.00     0.111 A 
ATOM      6  C   UNL     1     -19.802  38.472  -7.598  1.00  0.00     0.134 A 
ATOM      7  C   UNL     1     -20.124  37.133  -7.849  1.00  0.00     0.093 A 
ATOM      8  C   UNL     1     -20.563  36.292  -6.822  1.00  0.00     0.123 A 
ATOM      9  C   UNL     1     -20.689  36.790  -5.527  1.00  0.00     0.094 A 
ATOM     10  C   UNL     1     -20.410  38.131  -5.253  1.00  0.00     0.146 A 
ATOM     11  O   UNL     1     -20.553  38.567  -4.007  1.00  0.00    -0.452 OA
ENDROOT
BRANCH   1  12
ATOM     12  C   UNL     1     -20.506  40.178  -2.214  1.00  0.00     0.025 A 
ATOM     13  C   UNL     1     -19.545  39.821  -1.253  1.00  0.00     0.016 A 
ATOM     14  C   UNL     1     -19.738  40.143   0.092  1.00  0.00     0.051 A 
ATOM     15  C   UNL     1     -20.899  40.814   0.501  1.00  0.00     0.157 A 
ATOM     16  C   UNL     1     -21.678  40.831  -1.798  1.00  0.00     0.062 A 
ATOM     17  C   UNL     1     -21.875  41.157  -0.451  1.00  0.00     0.158 A 
BRANCH  15  18
ATOM     18  O   UNL     1     -21.087  41.136   1.843  1.00  0.00    -0.504 OA
ATOM     19  H   UNL     1     -21.146  42.099   2.154  1.00  0.00     0.293 HD
ENDBRANCH  15  18
BRANCH  17  20
ATOM     20  O   UNL     1     -23.044  41.818  -0.077  1.00  0.00    -0.504 OA
ATOM     21  H   UNL     1     -23.066  42.816   0.095  1.00  0.00     0.293 HD
ENDBRANCH  17  20
ENDBRANCH   1  12
BRANCH   2  22
ATOM     22  O   UNL     1     -19.843  42.125  -4.255  1.00  0.00    -0.502 OA
ATOM     23  H   UNL     1     -18.984  42.640  -4.402  1.00  0.00     0.293 HD
ENDBRANCH   2  22
BRANCH   6  24
ATOM     24  O   UNL     1     -19.282  39.201  -8.672  1.00  0.00    -0.507 OA
ATOM     25  H   UNL     1     -19.594  39.118  -9.627  1.00  0.00     0.293 HD
ENDBRANCH   6  24
BRANCH   8  26
ATOM     26  O   UNL     1     -20.866  34.957  -7.078  1.00  0.00    -0.508 OA
ATOM     27  H   UNL     1     -20.741  34.551  -7.997  1.00  0.00     0.293 HD
ENDBRANCH   8  26
TORSDOF 6
ENDMDL
MODEL 2
REMARK VINA RESULT:    -5.836      1.624      3.454
REMARK INTER + INTRA:          -7.293
REMARK INTER:                  -6.989
REMARK INTRA:                  -0.303
REMARK UNBOUND:                -0.263
REMARK SMILES O=c1c(O)c(-c2ccc(O)c(O)c2)oc2cc(O)cc(O)c12
REMARK SMILES IDX 5 1 3 2 2 3 1 4 22 5 20 6 19 7 17 8 16 9 15 10 14 11 6 12
REMARK SMILES IDX 7 13 8 14 9 15 13 16 11 17 10 18 12 20 4 22 21 24 18 26
REMARK H PARENT 10 19 12 21 4 23 21 25 18 27
REMARK Flexibility Score: inf
ROOT
ATOM      1  C   UNL     1     -19.895  39.903  -3.281  1.00  0.00     0.180 A 
ATOM      2  C   UNL     1     -20.455  38.795  -3.938  1.00  0.00     0.208 A 
ATOM      3  C   UNL     1     -20.130  38.564  -5.284  1.00  0.00     0.238 A 
ATOM      4  O   UNL     1     -20.591  37.540  -5.851  1.00  0.00    -0.285 OA
ATOM      5  C   UNL     1     -19.262  39.454  -5.961  1.00  0.00     0.111 A 
ATOM      6  C   UNL     1     -18.896  39.341  -7.337  1.00  0.00     0.134 A 
ATOM      7  C   UNL     1     -17.928  40.202  -7.867  1.00  0.00     0.093 A 
ATOM      8  C   UNL     1     -17.360  41.214  -7.089  1.00  0.00     0.123 A 
ATOM      9  C   UNL     1     -17.755  41.371  -5.762  1.00  0.00     0.094 A 
ATOM     10  C   UNL     1     -18.692  40.504  -5.195  1.00  0.00     0.146 A 
ATOM     11  O   UNL     1     -19.032  40.683  -3.924  1.00  0.00    -0.452 OA
ENDROOT
BRANCH   1  12
ATOM     12  C   UNL     1     -20.210  40.226  -1.871  1.00  0.00     0.025 A 
ATOM     13  C   UNL     1     -21.161  41.206  -1.539  1.00  0.00     0.016 A 
ATOM     14  C   UNL     1     -21.424  41.510  -0.201  1.00  0.00     0.051 A 
ATOM     15  C   UNL     1     -20.733  40.851   0.825  1.00  0.00     0.157 A 
ATOM     16  C   UNL     1     -19.505  39.582  -0.840  1.00  0.00     0.062 A 
ATOM     17  C   UNL     1     -19.767  39.883   0.501  1.00  0.00     0.158 A 
BRANCH  15  18
ATOM     18  O   UNL     1     -21.001  41.155   2.158  1.00  0.00    -0.504 OA
ATOM     19  H   UNL     1     -21.144  40.427   2.849  1.00  0.00     0.293 HD
ENDBRANCH  15  18
BRANCH  17  20
ATOM     20  O   UNL     1     -19.056  39.214   1.498  1.00  0.00    -0.504 OA
ATOM     21  H   UNL     1     -19.235  39.370   2.483  1.00  0.00     0.293 HD
ENDBRANCH  17  20
ENDBRANCH   1  12
BRANCH   2  22
ATOM     22  O   UNL     1     -21.292  37.915  -3.244  1.00  0.00    -0.502 OA
ATOM     23  H   UNL     1     -22.071  37.443  -3.687  1.00  0.00     0.293 HD
ENDBRANCH   2  22
BRANCH   6  24
ATOM     24  O   UNL     1     -19.469  38.424  -8.223  1.00  0.00    -0.507 OA
ATOM     25  H   UNL     1     -20.290  38.601  -8.782  1.00  0.00     0.293 HD
ENDBRANCH   6  24
BRANCH   8  26
ATOM     26  O   UNL     1     -16.409  42.078  -7.630  1.00  0.00    -0.508 OA
ATOM     27  H   UNL     1     -16.242  42.995  -7.237  1.00  0.00     0.293 HD
ENDBRANCH   8  26
TORSDOF 6
ENDMDL
MODEL 3
REMARK VINA RESULT:    -5.495      1.840      3.534
REMARK INTER + INTRA:          -6.882
REMARK INTER:                  -6.845
REMARK INTRA:                  -0.037
REMARK UNBOUND:                -0.263
REMARK SMILES O=c1c(O)c(-c2ccc(O)c(O)c2)oc2cc(O)cc(O)c12
REMARK SMILES IDX 5 1 3 2 2 3 1 4 22 5 20 6 19 7 17 8 16 9 15 10 14 11 6 12
REMARK SMILES IDX 7 13 8 14 9 15 13 16 11 17 10 18 12 20 4 22 21 24 18 26
REMARK H PARENT 10 19 12 21 4 23 21 25 18 27
REMARK Flexibility Score: inf
ROOT
ATOM      1  C   UNL     1     -20.624  39.196  -4.803  1.00  0.00     0.180 A 
ATOM      2  C   UNL     1     -20.516  37.859  -5.224  1.00  0.00     0.208 A 
ATOM      3  C   UNL     1     -20.435  37.583  -6.599  1.00  0.00     0.238 A 
ATOM      4  O   UNL     1     -20.283  36.388  -6.966  1.00  0.00    -0.285 OA
ATOM      5  C   UNL     1     -20.481  38.643  -7.534  1.00  0.00     0.111 A 
ATOM      6  C   UNL     1     -20.448  38.476  -8.952  1.00  0.00     0.134 A 
ATOM      7  C   UNL     1     -20.367  39.602  -9.779  1.00  0.00     0.093 A 
ATOM      8  C   UNL     1     -20.383  40.893  -9.242  1.00  0.00     0.123 A 
ATOM      9  C   UNL     1     -20.475  41.067  -7.864  1.00  0.00     0.094 A 
ATOM     10  C   UNL     1     -20.521  39.961  -7.011  1.00  0.00     0.146 A 
ATOM     11  O   UNL     1     -20.598  40.173  -5.702  1.00  0.00    -0.452 OA
ENDROOT
BRANCH   1  12
ATOM     12  C   UNL     1     -20.738  39.565  -3.374  1.00  0.00     0.025 A 
ATOM     13  C   UNL     1     -21.796  40.364  -2.907  1.00  0.00     0.016 A 
ATOM     14  C   UNL     1     -21.871  40.719  -1.558  1.00  0.00     0.051 A 
ATOM     15  C   UNL     1     -20.884  40.294  -0.658  1.00  0.00     0.157 A 
ATOM     16  C   UNL     1     -19.741  39.158  -2.473  1.00  0.00     0.062 A 
ATOM     17  C   UNL     1     -19.812  39.511  -1.120  1.00  0.00     0.158 A 
BRANCH  15  18
ATOM     18  O   UNL     1     -20.963  40.648   0.688  1.00  0.00    -0.504 OA
ATOM     19  H   UNL     1     -20.188  40.496   1.322  1.00  0.00     0.293 HD
ENDBRANCH  15  18
BRANCH  17  20
ATOM     20  O   UNL     1     -18.810  39.078  -0.252  1.00  0.00    -0.504 OA
ATOM     21  H   UNL     1     -18.609  39.556   0.618  1.00  0.00     0.293 HD
ENDBRANCH  17  20
ENDBRANCH   1  12
BRANCH   2  22
ATOM     22  O   UNL     1     -20.449  36.828  -4.282  1.00  0.00    -0.502 OA
ATOM     23  H   UNL     1     -20.705  36.961  -3.312  1.00  0.00     0.293 HD
ENDBRANCH   2  22
BRANCH   6  24
ATOM     24  O   UNL     1     -20.520  37.235  -9.593  1.00  0.00    -0.507 OA
ATOM     25  H   UNL     1     -19.793  36.536  -9.576  1.00  0.00     0.293 HD
ENDBRANCH   6  24
BRANCH   8  26
ATOM     26  O   UNL     1     -20.319  42.009 -10.074  1.00  0.00    -0.508 OA
ATOM     27  H   UNL     1     -19.550  42.666 -10.021  1.00  0.00     0.293 HD
ENDBRANCH   8  26
TORSDOF 6
ENDMDL
MODEL 4
REMARK VINA RESULT:    -5.386      1.475      6.948
REMARK INTER + INTRA:          -6.751
REMARK INTER:                  -6.506
REMARK INTRA:                  -0.244
REMARK UNBOUND:                -0.263
REMARK SMILES O=c1c(O)c(-c2ccc(O)c(O)c2)oc2cc(O)cc(O)c12
REMARK SMILES IDX 5 1 3 2 2 3 1 4 22 5 20 6 19 7 17 8 16 9 15 10 14 11 6 12
REMARK SMILES IDX 7 13 8 14 9 15 13 16 11 17 10 18 12 20 4 22 21 24 18 26
REMARK H PARENT 10 19 12 21 4 23 21 25 18 27
REMARK Flexibility Score: inf
ROOT
ATOM      1  C   UNL     1     -20.688  39.293  -3.220  1.00  0.00     0.180 A 
ATOM      2  C   UNL     1     -21.542  40.401  -3.081  1.00  0.00     0.208 A 
ATOM      3  C   UNL     1     -21.629  41.042  -1.835  1.00  0.00     0.238 A 
ATOM      4  O   UNL     1     -22.353  42.067  -1.732  1.00  0.00    -0.285 OA
ATOM      5  C   UNL     1     -20.876  40.557  -0.739  1.00  0.00     0.111 A 
ATOM      6  C   UNL     1     -20.918  41.104   0.579  1.00  0.00     0.134 A 
ATOM      7  C   UNL     1     -20.034  40.627   1.554  1.00  0.00     0.093 A 
ATOM      8  C   UNL     1     -19.152  39.579   1.275  1.00  0.00     0.123 A 
ATOM      9  C   UNL     1     -19.145  38.998   0.009  1.00  0.00     0.094 A 
ATOM     10  C   UNL     1     -19.991  39.478  -0.994  1.00  0.00     0.146 A 
ATOM     11  O   UNL     1     -19.945  38.902  -2.191  1.00  0.00    -0.452 OA
ENDROOT
BRANCH   1  12
ATOM     12  C   UNL     1     -20.562  38.550  -4.494  1.00  0.00     0.025 A 
ATOM     13  C   UNL     1     -21.104  37.263  -4.648  1.00  0.00     0.016 A 
ATOM     14  C   UNL     1     -20.952  36.572  -5.852  1.00  0.00     0.051 A 
ATOM     15  C   UNL     1     -20.244  37.149  -6.916  1.00  0.00     0.157 A 
ATOM     16  C   UNL     1     -19.835  39.117  -5.555  1.00  0.00     0.062 A 
ATOM     17  C   UNL     1     -19.681  38.427  -6.763  1.00  0.00     0.158 A 
BRANCH  15  18
ATOM     18  O   UNL     1     -20.096  36.457  -8.117  1.00  0.00    -0.504 OA
ATOM     19  H   UNL     1     -19.223  36.007  -8.365  1.00  0.00     0.293 HD
ENDBRANCH  15  18
BRANCH  17  20
ATOM     20  O   UNL     1     -18.965  39.027  -7.799  1.00  0.00    -0.504 OA
ATOM     21  H   UNL     1     -19.426  39.475  -8.582  1.00  0.00     0.293 HD
ENDBRANCH  17  20
ENDBRANCH   1  12
BRANCH   2  22
ATOM     22  O   UNL     1     -22.259  40.878  -4.182  1.00  0.00    -0.502 OA
ATOM     23  H   UNL     1     -22.097  41.794  -4.582  1.00  0.00     0.293 HD
ENDBRANCH   2  22
BRANCH   6  24
ATOM     24  O   UNL     1     -21.823  42.090   0.986  1.00  0.00    -0.507 OA
ATOM     25  H   UNL     1     -22.005  42.945   0.485  1.00  0.00     0.293 HD
ENDBRANCH   6  24
BRANCH   8  26
ATOM     26  O   UNL     1     -18.286  39.099   2.256  1.00  0.00    -0.508 OA
ATOM     27  H   UNL     1     -17.779  38.231   2.137  1.00  0.00     0.293 HD
ENDBRANCH   8  26
TORSDOF 6
ENDMDL
MODEL 5
REMARK VINA RESULT:    -5.141      1.899      7.399
REMARK INTER + INTRA:          -6.456
REMARK INTER:                  -6.325
REMARK INTRA:                  -0.131
REMARK UNBOUND:                -0.263
REMARK SMILES O=c1c(O)c(-c2ccc(O)c(O)c2)oc2cc(O)cc(O)c12
REMARK SMILES IDX 5 1 3 2 2 3 1 4 22 5 20 6 19 7 17 8 16 9 15 10 14 11 6 12
REMARK SMILES IDX 7 13 8 14 9 15 13 16 11 17 10 18 12 20 4 22 21 24 18 26
REMARK H PARENT 10 19 12 21 4 23 21 25 18 27
REMARK Flexibility Score: inf
ROOT
ATOM      1  C   UNL     1     -20.035  40.619  -2.593  1.00  0.00     0.180 A 
ATOM      2  C   UNL     1     -21.416  40.552  -2.341  1.00  0.00     0.208 A 
ATOM      3  C   UNL     1     -21.881  40.771  -1.034  1.00  0.00     0.238 A 
ATOM      4  O   UNL     1     -23.123  40.763  -0.826  1.00  0.00    -0.285 OA
ATOM      5  C   UNL     1     -20.960  41.037   0.006  1.00  0.00     0.111 A 
ATOM      6  C   UNL     1     -21.317  41.234   1.375  1.00  0.00     0.134 A 
ATOM      7  C   UNL     1     -20.336  41.620   2.296  1.00  0.00     0.093 A 
ATOM      8  C   UNL     1     -18.999  41.754   1.911  1.00  0.00     0.123 A 
ATOM      9  C   UNL     1     -18.631  41.505   0.591  1.00  0.00     0.094 A 
ATOM     10  C   UNL     1     -19.594  41.154  -0.359  1.00  0.00     0.146 A 
ATOM     11  O   UNL     1     -19.201  40.936  -1.609  1.00  0.00    -0.452 OA
ENDROOT
BRANCH   1  12
ATOM     12  C   UNL     1     -19.467  40.375  -3.938  1.00  0.00     0.025 A 
ATOM     13  C   UNL     1     -18.792  41.388  -4.642  1.00  0.00     0.016 A 
ATOM     14  C   UNL     1     -18.285  41.141  -5.920  1.00  0.00     0.051 A 
ATOM     15  C   UNL     1     -18.454  39.886  -6.520  1.00  0.00     0.157 A 
ATOM     16  C   UNL     1     -19.652  39.125  -4.551  1.00  0.00     0.062 A 
ATOM     17  C   UNL     1     -19.144  38.874  -5.830  1.00  0.00     0.158 A 
BRANCH  15  18
ATOM     18  O   UNL     1     -17.944  39.642  -7.793  1.00  0.00    -0.504 OA
ATOM     19  H   UNL     1     -17.583  38.732  -8.055  1.00  0.00     0.293 HD
ENDBRANCH  15  18
BRANCH  17  20
ATOM     20  O   UNL     1     -19.337  37.616  -6.401  1.00  0.00    -0.504 OA
ATOM     21  H   UNL     1     -18.848  36.794  -6.068  1.00  0.00     0.293 HD
ENDBRANCH  17  20
ENDBRANCH   1  12
BRANCH   2  22
ATOM     22  O   UNL     1     -22.311  40.310  -3.387  1.00  0.00    -0.502 OA
ATOM     23  H   UNL     1     -22.471  40.977  -4.131  1.00  0.00     0.293 HD
ENDBRANCH   2  22
BRANCH   6  24
ATOM     24  O   UNL     1     -22.605  41.038   1.881  1.00  0.00    -0.507 OA
ATOM     25  H   UNL     1     -23.410  41.594   1.636  1.00  0.00     0.293 HD
ENDBRANCH   6  24
BRANCH   8  26
ATOM     26  O   UNL     1     -18.026  42.123   2.838  1.00  0.00    -0.508 OA
ATOM     27  H   UNL     1     -18.248  42.705   3.636  1.00  0.00     0.293 HD
ENDBRANCH   8  26
TORSDOF 6
ENDMDL
MODEL 6
REMARK VINA RESULT:    -4.836      2.665      6.842
REMARK INTER + INTRA:          -6.088
REMARK INTER:                  -5.846
REMARK INTRA:                  -0.242
REMARK UNBOUND:                -0.263
REMARK SMILES O=c1c(O)c(-c2ccc(O)c(O)c2)oc2cc(O)cc(O)c12
REMARK SMILES IDX 5 1 3 2 2 3 1 4 22 5 20 6 19 7 17 8 16 9 15 10 14 11 6 12
REMARK SMILES IDX 7 13 8 14 9 15 13 16 11 17 10 18 12 20 4 22 21 24 18 26
REMARK H PARENT 10 19 12 21 4 23 21 25 18 27
REMARK Flexibility Score: inf
ROOT
ATOM      1  C   UNL     1     -19.073  40.161  -5.482  1.00  0.00     0.180 A 
ATOM      2  C   UNL     1     -19.588  38.864  -5.641  1.00  0.00     0.208 A 
ATOM      3  C   UNL     1     -20.583  38.413  -4.759  1.00  0.00     0.238 A 
ATOM      4  O   UNL     1     -21.079  37.270  -4.941  1.00  0.00    -0.285 OA
ATOM      5  C   UNL     1     -21.039  39.258  -3.720  1.00  0.00     0.111 A 
ATOM      6  C   UNL     1     -22.015  38.891  -2.745  1.00  0.00     0.134 A 
ATOM      7  C   UNL     1     -22.485  39.851  -1.841  1.00  0.00     0.093 A 
ATOM      8  C   UNL     1     -21.968  41.150  -1.837  1.00  0.00     0.123 A 
ATOM      9  C   UNL     1     -20.973  41.502  -2.746  1.00  0.00     0.094 A 
ATOM     10  C   UNL     1     -20.510  40.574  -3.683  1.00  0.00     0.146 A 
ATOM     11  O   UNL     1     -19.567  40.954  -4.538  1.00  0.00    -0.452 OA
ENDROOT
BRANCH   1  12
ATOM     12  C   UNL     1     -18.004  40.698  -6.355  1.00  0.00     0.025 A 
ATOM     13  C   UNL     1     -18.283  41.650  -7.351  1.00  0.00     0.016 A 
ATOM     14  C   UNL     1     -17.262  42.125  -8.179  1.00  0.00     0.051 A 
ATOM     15  C   UNL     1     -15.953  41.647  -8.035  1.00  0.00     0.157 A 
ATOM     16  C   UNL     1     -16.695  40.207  -6.227  1.00  0.00     0.062 A 
ATOM     17  C   UNL     1     -15.670  40.680  -7.054  1.00  0.00     0.158 A 
BRANCH  15  18
ATOM     18  O   UNL     1     -14.937  42.125  -8.860  1.00  0.00    -0.504 OA
ATOM     19  H   UNL     1     -14.958  41.982  -9.863  1.00  0.00     0.293 HD
ENDBRANCH  15  18
BRANCH  17  20
ATOM     20  O   UNL     1     -14.379  40.179  -6.889  1.00  0.00    -0.504 OA
ATOM     21  H   UNL     1     -13.930  40.139  -5.982  1.00  0.00     0.293 HD
ENDBRANCH  17  20
ENDBRANCH   1  12
BRANCH   2  22
ATOM     22  O   UNL     1     -19.140  38.053  -6.688  1.00  0.00    -0.502 OA
ATOM     23  H   UNL     1     -18.666  37.172  -6.530  1.00  0.00     0.293 HD
ENDBRANCH   2  22
BRANCH   6  24
ATOM     24  O   UNL     1     -22.529  37.597  -2.604  1.00  0.00    -0.507 OA
ATOM     25  H   UNL     1     -22.706  36.964  -3.368  1.00  0.00     0.293 HD
ENDBRANCH   6  24
BRANCH   8  26
ATOM     26  O   UNL     1     -22.431  42.095  -0.924  1.00  0.00    -0.508 OA
ATOM     27  H   UNL     1     -22.517  43.073  -1.171  1.00  0.00     0.293 HD
ENDBRANCH   8  26
TORSDOF 6
ENDMDL
MODEL 7
REMARK VINA RESULT:    -4.780      5.630     11.187
REMARK INTER + INTRA:          -6.021
REMARK INTER:                  -5.749
REMARK INTRA:                  -0.272
REMARK UNBOUND:                -0.263
REMARK SMILES O=c1c(O)c(-c2ccc(O)c(O)c2)oc2cc(O)cc(O)c12
REMARK SMILES IDX 5 1 3 2 2 3 1 4 22 5 20 6 19 7 17 8 16 9 15 10 14 11 6 12
REMARK SMILES IDX 7 13 8 14 9 15 13 16 11 17 10 18 12 20 4 22 21 24 18 26
REMARK H PARENT 10 19 12 21 4 23 21 25 18 27
REMARK Flexibility Score: inf
ROOT
ATOM      1  C   UNL     1     -18.880  41.256   4.230  1.00  0.00     0.180 A 
ATOM      2  C   UNL     1     -17.580  41.658   4.580  1.00  0.00     0.208 A 
ATOM      3  C   UNL     1     -17.241  41.758   5.939  1.00  0.00     0.238 A 
ATOM      4  O   UNL     1     -16.060  42.065   6.246  1.00  0.00    -0.285 OA
ATOM      5  C   UNL     1     -18.210  41.471   6.930  1.00  0.00     0.111 A 
ATOM      6  C   UNL     1     -17.988  41.577   8.336  1.00  0.00     0.134 A 
ATOM      7  C   UNL     1     -18.977  41.143   9.227  1.00  0.00     0.093 A 
ATOM      8  C   UNL     1     -20.206  40.666   8.761  1.00  0.00     0.123 A 
ATOM      9  C   UNL     1     -20.455  40.614   7.392  1.00  0.00     0.094 A 
ATOM     10  C   UNL     1     -19.473  41.006   6.479  1.00  0.00     0.146 A 
ATOM     11  O   UNL     1     -19.748  40.931   5.181  1.00  0.00    -0.452 OA
ENDROOT
BRANCH   1  12
ATOM     12  C   UNL     1     -19.320  41.153   2.820  1.00  0.00     0.025 A 
ATOM     13  C   UNL     1     -20.160  42.120   2.242  1.00  0.00     0.016 A 
ATOM     14  C   UNL     1     -20.581  41.989   0.917  1.00  0.00     0.051 A 
ATOM     15  C   UNL     1     -20.182  40.884   0.152  1.00  0.00     0.157 A 
ATOM     16  C   UNL     1     -18.938  40.037   2.057  1.00  0.00     0.062 A 
ATOM     17  C   UNL     1     -19.357  39.902   0.728  1.00  0.00     0.158 A 
BRANCH  15  18
ATOM     18  O   UNL     1     -20.601  40.758  -1.171  1.00  0.00    -0.504 OA
ATOM     19  H   UNL     1     -20.275  41.389  -1.893  1.00  0.00     0.293 HD
ENDBRANCH  15  18
BRANCH  17  20
ATOM     20  O   UNL     1     -18.947  38.787  -0.002  1.00  0.00    -0.504 OA
ATOM     21  H   UNL     1     -18.187  38.192   0.305  1.00  0.00     0.293 HD
ENDBRANCH  17  20
ENDBRANCH   1  12
BRANCH   2  22
ATOM     22  O   UNL     1     -16.631  41.915   3.586  1.00  0.00    -0.502 OA
ATOM     23  H   UNL     1     -15.678  42.183   3.800  1.00  0.00     0.293 HD
ENDBRANCH   2  22
BRANCH   6  24
ATOM     24  O   UNL     1     -16.834  42.125   8.905  1.00  0.00    -0.507 OA
ATOM     25  H   UNL     1     -16.681  42.245   9.894  1.00  0.00     0.293 HD
ENDBRANCH   6  24
BRANCH   8  26
ATOM     26  O   UNL     1     -21.191  40.251   9.655  1.00  0.00    -0.508 OA
ATOM     27  H   UNL     1     -21.157  39.340  10.096  1.00  0.00     0.293 HD
ENDBRANCH   8  26
TORSDOF 6
ENDMDL
MODEL 8
REMARK VINA RESULT:    -4.737      1.929      2.595
REMARK INTER + INTRA:          -5.969
REMARK INTER:                  -5.792
REMARK INTRA:                  -0.177
REMARK UNBOUND:                -0.263
REMARK SMILES O=c1c(O)c(-c2ccc(O)c(O)c2)oc2cc(O)cc(O)c12
REMARK SMILES IDX 5 1 3 2 2 3 1 4 22 5 20 6 19 7 17 8 16 9 15 10 14 11 6 12
REMARK SMILES IDX 7 13 8 14 9 15 13 16 11 17 10 18 12 20 4 22 21 24 18 26
REMARK H PARENT 10 19 12 21 4 23 21 25 18 27
REMARK Flexibility Score: inf
ROOT
ATOM      1  C   UNL     1     -19.808  40.327  -5.095  1.00  0.00     0.180 A 
ATOM      2  C   UNL     1     -18.890  41.191  -5.715  1.00  0.00     0.208 A 
ATOM      3  C   UNL     1     -18.729  41.128  -7.109  1.00  0.00     0.238 A 
ATOM      4  O   UNL     1     -17.946  41.942  -7.664  1.00  0.00    -0.285 OA
ATOM      5  C   UNL     1     -19.476  40.191  -7.862  1.00  0.00     0.111 A 
ATOM      6  C   UNL     1     -19.364  40.013  -9.274  1.00  0.00     0.134 A 
ATOM      7  C   UNL     1     -20.245  39.147  -9.933  1.00  0.00     0.093 A 
ATOM      8  C   UNL     1     -21.192  38.405  -9.222  1.00  0.00     0.123 A 
ATOM      9  C   UNL     1     -21.269  38.527  -7.837  1.00  0.00     0.094 A 
ATOM     10  C   UNL     1     -20.427  39.410  -7.156  1.00  0.00     0.146 A 
ATOM     11  O   UNL     1     -20.541  39.504  -5.836  1.00  0.00    -0.452 OA
ENDROOT
BRANCH   1  12
ATOM     12  C   UNL     1     -20.014  40.316  -3.629  1.00  0.00     0.025 A 
ATOM     13  C   UNL     1     -20.569  41.420  -2.959  1.00  0.00     0.016 A 
ATOM     14  C   UNL     1     -20.732  41.396  -1.572  1.00  0.00     0.051 A 
ATOM     15  C   UNL     1     -20.332  40.277  -0.831  1.00  0.00     0.157 A 
ATOM     16  C   UNL     1     -19.595  39.204  -2.880  1.00  0.00     0.062 A 
ATOM     17  C   UNL     1     -19.758  39.176  -1.490  1.00  0.00     0.158 A 
BRANCH  15  18
ATOM     18  O   UNL     1     -20.498  40.255   0.552  1.00  0.00    -0.504 OA
ATOM     19  H   UNL     1     -20.373  39.404   1.088  1.00  0.00     0.293 HD
ENDBRANCH  15  18
BRANCH  17  20
ATOM     20  O   UNL     1     -19.342  38.049  -0.781  1.00  0.00    -0.504 OA
ATOM     21  H   UNL     1     -19.925  37.225  -0.691  1.00  0.00     0.293 HD
ENDBRANCH  17  20
ENDBRANCH   1  12
BRANCH   2  22
ATOM     22  O   UNL     1     -18.179  42.125  -4.955  1.00  0.00    -0.502 OA
ATOM     23  H   UNL     1     -17.242  42.422  -5.196  1.00  0.00     0.293 HD
ENDBRANCH   2  22
BRANCH   6  24
ATOM     24  O   UNL     1     -18.393  40.636 -10.065  1.00  0.00    -0.507 OA
ATOM     25  H   UNL     1     -18.572  41.077 -10.954  1.00  0.00     0.293 HD
ENDBRANCH   6  24
BRANCH   8  26
ATOM     26  O   UNL     1     -22.054  37.534  -9.884  1.00  0.00    -0.508 OA
ATOM     27  H   UNL     1     -22.709  37.864 -10.582  1.00  0.00     0.293 HD
ENDBRANCH   8  26
TORSDOF 6
ENDMDL
