MODEL 1
REMARK VINA RESULT:    -4.642      0.000      0.000
REMARK INTER + INTRA:         -11.096
REMARK INTER:                  -8.713
REMARK INTRA:                  -2.382
REMARK UNBOUND:                -2.382
REMARK SMILES CCCCCCCCC=CCCCCCCCC(=O)[O-]
REMARK SMILES IDX 10 1 9 2 11 3 12 4 13 5 14 6 15 7 16 8 17 9 18 10 19 11
REMARK SMILES IDX 20 12 8 13 7 14 6 15 5 16 4 17 3 18 2 19 1 20
REMARK H PARENT
REMARK Flexibility Score: inf
ROOT
ATOM      1  C   UNL     1     -56.527   1.940 -20.581  1.00  0.00    -0.031 C 
ATOM      2  C   UNL     1     -55.943   2.319 -19.435  1.00  0.00    -0.031 C 
ENDROOT
BRANCH   1   3
ATOM      3  C   UNL     1     -57.309   2.907 -21.429  1.00  0.00     0.027 C 
BRANCH   3   4
ATOM      4  C   UNL     1     -58.215   2.172 -22.425  1.00  0.00     0.004 C 
BRANCH   4   5
ATOM      5  C   UNL     1     -58.540   3.035 -23.655  1.00  0.00     0.000 C 
BRANCH   5   6
ATOM      6  C   UNL     1     -57.316   3.268 -24.556  1.00  0.00     0.000 C 
BRANCH   6   7
ATOM      7  C   UNL     1     -56.985   4.761 -24.769  1.00  0.00     0.000 C 
BRANCH   7   8
ATOM      8  C   UNL     1     -57.760   5.703 -23.822  1.00  0.00     0.006 C 
BRANCH   8   9
ATOM      9  C   UNL     1     -56.847   6.542 -22.913  1.00  0.00     0.053 C 
BRANCH   9  10
ATOM     10  C   UNL     1     -57.417   6.708 -21.538  1.00  0.00     0.041 C 
ATOM     11  O   UNL     1     -56.853   7.468 -20.706  1.00  0.00    -0.550 OA
ATOM     12  O   UNL     1     -58.552   6.000 -21.164  1.00  0.00    -0.550 OA
ENDBRANCH   9  10
ENDBRANCH   8   9
ENDBRANCH   7   8
ENDBRANCH   6   7
ENDBRANCH   5   6
ENDBRANCH   4   5
ENDBRANCH   3   4
ENDBRANCH   1   3
BRANCH   2  13
ATOM     13  C   UNL     1     -55.180   1.344 -18.580  1.00  0.00     0.027 C 
BRANCH  13  14
ATOM     14  C   UNL     1     -54.465   2.039 -17.414  1.00  0.00     0.004 C 
BRANCH  14  15
ATOM     15  C   UNL     1     -53.167   2.740 -17.853  1.00  0.00     0.000 C 
BRANCH  15  16
ATOM     16  C   UNL     1     -52.624   2.180 -19.184  1.00  0.00     0.000 C 
BRANCH  16  17
ATOM     17  C   UNL     1     -52.363   3.263 -20.249  1.00  0.00    -0.000 C 
BRANCH  17  18
ATOM     18  C   UNL     1     -52.977   4.637 -19.935  1.00  0.00    -0.000 C 
BRANCH  18  19
ATOM     19  C   UNL     1     -54.073   5.039 -20.933  1.00  0.00    -0.003 C 
ATOM     20  C   UNL     1     -53.964   4.227 -22.220  1.00  0.00     0.004 C 
ENDBRANCH  18  19
ENDBRANCH  17  18
ENDBRANCH  16  17
ENDBRANCH  15  16
ENDBRANCH  14  15
ENDBRANCH  13  14
ENDBRANCH   2  13
TORSDOF 15
ENDMDL
MODEL 2
REMARK VINA RESULT:    -4.633      3.030      6.735
REMARK INTER + INTRA:         -11.079
REMARK INTER:                  -8.885
REMARK INTRA:                  -2.194
REMARK UNBOUND:                -2.382
REMARK SMILES CCCCCCCCC=CCCCCCCCC(=O)[O-]
REMARK SMILES IDX 10 1 9 2 11 3 12 4 13 5 14 6 15 7 16 8 17 9 18 10 19 11
REMARK SMILES IDX 20 12 8 13 7 14 6 15 5 16 4 17 3 18 2 19 1 20
REMARK H PARENT
REMARK Flexibility Score: inf
ROOT
ATOM      1  C   UNL     1     -53.881   4.926 -22.265  1.00  0.00    -0.031 C 
ATOM      2  C   UNL     1     -54.048   6.104 -21.647  1.00  0.00    -0.031 C 
ENDROOT
BRANCH   1   3
ATOM      3  C   UNL     1     -53.988   3.621 -21.523  1.00  0.00     0.027 C 
BRANCH   3   4
ATOM      4  C   UNL     1     -55.042   3.694 -20.412  1.00  0.00     0.004 C 
BRANCH   4   5
ATOM      5  C   UNL     1     -55.392   2.303 -19.856  1.00  0.00     0.000 C 
BRANCH   5   6
ATOM      6  C   UNL     1     -54.377   1.809 -18.813  1.00  0.00     0.000 C 
BRANCH   6   7
ATOM      7  C   UNL     1     -54.367   2.649 -17.517  1.00  0.00     0.000 C 
BRANCH   7   8
ATOM      8  C   UNL     1     -52.954   3.103 -17.090  1.00  0.00     0.006 C 
BRANCH   8   9
ATOM      9  C   UNL     1     -52.172   3.803 -18.213  1.00  0.00     0.053 C 
BRANCH   9  10
ATOM     10  C   UNL     1     -50.772   3.285 -18.334  1.00  0.00     0.041 C 
ATOM     11  O   UNL     1     -50.556   2.044 -18.361  1.00  0.00    -0.550 OA
ATOM     12  O   UNL     1     -49.704   4.171 -18.386  1.00  0.00    -0.550 OA
ENDBRANCH   9  10
ENDBRANCH   8   9
ENDBRANCH   7   8
ENDBRANCH   6   7
ENDBRANCH   5   6
ENDBRANCH   4   5
ENDBRANCH   3   4
ENDBRANCH   1   3
BRANCH   2  13
ATOM     13  C   UNL     1     -53.920   7.408 -22.389  1.00  0.00     0.027 C 
BRANCH  13  14
ATOM     14  C   UNL     1     -55.217   7.786 -23.116  1.00  0.00     0.004 C 
BRANCH  14  15
ATOM     15  C   UNL     1     -56.472   7.462 -22.287  1.00  0.00     0.000 C 
BRANCH  15  16
ATOM     16  C   UNL     1     -57.490   6.614 -23.077  1.00  0.00     0.000 C 
BRANCH  16  17
ATOM     17  C   UNL     1     -57.677   5.191 -22.515  1.00  0.00    -0.000 C 
BRANCH  17  18
ATOM     18  C   UNL     1     -57.222   4.062 -23.455  1.00  0.00    -0.000 C 
BRANCH  18  19
ATOM     19  C   UNL     1     -58.199   2.878 -23.476  1.00  0.00    -0.003 C 
ATOM     20  C   UNL     1     -58.149   2.105 -22.161  1.00  0.00     0.004 C 
ENDBRANCH  18  19
ENDBRANCH  17  18
ENDBRANCH  16  17
ENDBRANCH  15  16
ENDBRANCH  14  15
ENDBRANCH  13  14
ENDBRANCH   2  13
TORSDOF 15
ENDMDL
MODEL 3
REMARK VINA RESULT:    -4.630     11.465     14.199
REMARK INTER + INTRA:         -11.072
REMARK INTER:                  -8.967
REMARK INTRA:                  -2.105
REMARK UNBOUND:                -2.382
REMARK SMILES CCCCCCCCC=CCCCCCCCC(=O)[O-]
REMARK SMILES IDX 10 1 9 2 11 3 12 4 13 5 14 6 15 7 16 8 17 9 18 10 19 11
REMARK SMILES IDX 20 12 8 13 7 14 6 15 5 16 4 17 3 18 2 19 1 20
REMARK H PARENT
REMARK Flexibility Score: inf
ROOT
ATOM      1  C   UNL     1     -51.126  16.315 -15.305  1.00  0.00    -0.031 C 
ATOM      2  C   UNL     1     -50.874  15.205 -16.013  1.00  0.00    -0.031 C 
ENDROOT
BRANCH   1   3
ATOM      3  C   UNL     1     -52.004  16.293 -14.083  1.00  0.00     0.027 C 
BRANCH   3   4
ATOM      4  C   UNL     1     -52.955  15.090 -14.099  1.00  0.00     0.004 C 
BRANCH   4   5
ATOM      5  C   UNL     1     -53.064  14.422 -12.718  1.00  0.00     0.000 C 
BRANCH   5   6
ATOM      6  C   UNL     1     -52.327  15.207 -11.620  1.00  0.00     0.000 C 
BRANCH   6   7
ATOM      7  C   UNL     1     -51.780  14.311 -10.487  1.00  0.00     0.000 C 
BRANCH   7   8
ATOM      8  C   UNL     1     -51.391  12.893 -10.958  1.00  0.00     0.006 C 
BRANCH   8   9
ATOM      9  C   UNL     1     -50.364  12.205 -10.044  1.00  0.00     0.053 C 
BRANCH   9  10
ATOM     10  C   UNL     1     -49.921  10.882 -10.586  1.00  0.00     0.041 C 
ATOM     11  O   UNL     1     -49.295  10.823 -11.678  1.00  0.00    -0.550 OA
ATOM     12  O   UNL     1     -50.224   9.712  -9.903  1.00  0.00    -0.550 OA
ENDBRANCH   9  10
ENDBRANCH   8   9
ENDBRANCH   7   8
ENDBRANCH   6   7
ENDBRANCH   5   6
ENDBRANCH   4   5
ENDBRANCH   3   4
ENDBRANCH   1   3
BRANCH   2  13
ATOM     13  C   UNL     1     -50.013  15.236 -17.247  1.00  0.00     0.027 C 
BRANCH  13  14
ATOM     14  C   UNL     1     -50.374  14.112 -18.228  1.00  0.00     0.004 C 
BRANCH  14  15
ATOM     15  C   UNL     1     -49.168  13.217 -18.566  1.00  0.00     0.000 C 
BRANCH  15  16
ATOM     16  C   UNL     1     -48.172  13.112 -17.392  1.00  0.00     0.000 C 
BRANCH  16  17
ATOM     17  C   UNL     1     -48.437  11.911 -16.464  1.00  0.00    -0.000 C 
BRANCH  17  18
ATOM     18  C   UNL     1     -48.899  12.283 -15.045  1.00  0.00    -0.000 C 
BRANCH  18  19
ATOM     19  C   UNL     1     -50.386  11.984 -14.809  1.00  0.00    -0.003 C 
ATOM     20  C   UNL     1     -50.971  11.172 -15.962  1.00  0.00     0.004 C 
ENDBRANCH  18  19
ENDBRANCH  17  18
ENDBRANCH  16  17
ENDBRANCH  15  16
ENDBRANCH  14  15
ENDBRANCH  13  14
ENDBRANCH   2  13
TORSDOF 15
ENDMDL
MODEL 4
REMARK VINA RESULT:    -4.614     11.586     14.121
REMARK INTER + INTRA:         -11.042
REMARK INTER:                  -9.226
REMARK INTRA:                  -1.816
REMARK UNBOUND:                -2.382
REMARK SMILES CCCCCCCCC=CCCCCCCCC(=O)[O-]
REMARK SMILES IDX 10 1 9 2 11 3 12 4 13 5 14 6 15 7 16 8 17 9 18 10 19 11
REMARK SMILES IDX 20 12 8 13 7 14 6 15 5 16 4 17 3 18 2 19 1 20
REMARK H PARENT
REMARK Flexibility Score: inf
ROOT
ATOM      1  C   UNL     1     -50.064  12.022 -14.786  1.00  0.00    -0.031 C 
ATOM      2  C   UNL     1     -48.783  12.262 -15.103  1.00  0.00    -0.031 C 
ENDROOT
BRANCH   1   3
ATOM      3  C   UNL     1     -50.669  12.521 -13.502  1.00  0.00     0.027 C 
BRANCH   3   4
ATOM      4  C   UNL     1     -51.090  11.360 -12.593  1.00  0.00     0.004 C 
BRANCH   4   5
ATOM      5  C   UNL     1     -49.886  10.710 -11.891  1.00  0.00     0.000 C 
BRANCH   5   6
ATOM      6  C   UNL     1     -50.067   9.198 -11.681  1.00  0.00     0.000 C 
BRANCH   6   7
ATOM      7  C   UNL     1     -50.621   8.832 -10.286  1.00  0.00     0.000 C 
BRANCH   7   8
ATOM      8  C   UNL     1     -49.574   8.169  -9.364  1.00  0.00     0.006 C 
BRANCH   8   9
ATOM      9  C   UNL     1     -48.811   9.174  -8.485  1.00  0.00     0.053 C 
BRANCH   9  10
ATOM     10  C   UNL     1     -47.461   9.501  -9.043  1.00  0.00     0.041 C 
ATOM     11  O   UNL     1     -47.125  10.701  -9.227  1.00  0.00    -0.550 OA
ATOM     12  O   UNL     1     -46.584   8.481  -9.389  1.00  0.00    -0.550 OA
ENDBRANCH   9  10
ENDBRANCH   8   9
ENDBRANCH   7   8
ENDBRANCH   6   7
ENDBRANCH   5   6
ENDBRANCH   4   5
ENDBRANCH   3   4
ENDBRANCH   1   3
BRANCH   2  13
ATOM     13  C   UNL     1     -48.176  11.743 -16.379  1.00  0.00     0.027 C 
BRANCH  13  14
ATOM     14  C   UNL     1     -47.951  12.862 -17.405  1.00  0.00     0.004 C 
BRANCH  14  15
ATOM     15  C   UNL     1     -48.602  12.552 -18.765  1.00  0.00     0.000 C 
BRANCH  15  16
ATOM     16  C   UNL     1     -50.091  12.170 -18.625  1.00  0.00     0.000 C 
BRANCH  16  17
ATOM     17  C   UNL     1     -50.996  13.352 -18.227  1.00  0.00    -0.000 C 
BRANCH  17  18
ATOM     18  C   UNL     1     -50.629  14.693 -18.882  1.00  0.00    -0.000 C 
BRANCH  18  19
ATOM     19  C   UNL     1     -50.256  15.772 -17.855  1.00  0.00    -0.003 C 
ATOM     20  C   UNL     1     -50.610  15.324 -16.440  1.00  0.00     0.004 C 
ENDBRANCH  18  19
ENDBRANCH  17  18
ENDBRANCH  16  17
ENDBRANCH  15  16
ENDBRANCH  14  15
ENDBRANCH  13  14
ENDBRANCH   2  13
TORSDOF 15
ENDMDL
MODEL 5
REMARK VINA RESULT:    -4.603     11.974     14.546
REMARK INTER + INTRA:         -11.021
REMARK INTER:                  -9.106
REMARK INTRA:                  -1.915
REMARK UNBOUND:                -2.382
REMARK SMILES CCCCCCCCC=CCCCCCCCC(=O)[O-]
REMARK SMILES IDX 10 1 9 2 11 3 12 4 13 5 14 6 15 7 16 8 17 9 18 10 19 11
REMARK SMILES IDX 20 12 8 13 7 14 6 15 5 16 4 17 3 18 2 19 1 20
REMARK H PARENT
REMARK Flexibility Score: inf
ROOT
ATOM      1  C   UNL     1     -50.718  12.592 -13.146  1.00  0.00    -0.031 C 
ATOM      2  C   UNL     1     -50.070  11.723 -13.935  1.00  0.00    -0.031 C 
ENDROOT
BRANCH   1   3
ATOM      3  C   UNL     1     -51.766  12.141 -12.164  1.00  0.00     0.027 C 
BRANCH   3   4
ATOM      4  C   UNL     1     -51.555  12.780 -10.787  1.00  0.00     0.004 C 
BRANCH   4   5
ATOM      5  C   UNL     1     -50.246  12.314 -10.129  1.00  0.00     0.000 C 
BRANCH   5   6
ATOM      6  C   UNL     1     -50.329  12.290  -8.594  1.00  0.00     0.000 C 
BRANCH   6   7
ATOM      7  C   UNL     1     -50.018  10.906  -7.983  1.00  0.00     0.000 C 
BRANCH   7   8
ATOM      8  C   UNL     1     -49.432   9.903  -9.000  1.00  0.00     0.006 C 
BRANCH   8   9
ATOM      9  C   UNL     1     -50.412   8.783  -9.386  1.00  0.00     0.053 C 
BRANCH   9  10
ATOM     10  C   UNL     1     -50.689   8.757 -10.857  1.00  0.00     0.041 C 
ATOM     11  O   UNL     1     -49.771   9.018 -11.680  1.00  0.00    -0.550 OA
ATOM     12  O   UNL     1     -51.967   8.475 -11.321  1.00  0.00    -0.550 OA
ENDBRANCH   9  10
ENDBRANCH   8   9
ENDBRANCH   7   8
ENDBRANCH   6   7
ENDBRANCH   5   6
ENDBRANCH   4   5
ENDBRANCH   3   4
ENDBRANCH   1   3
BRANCH   2  13
ATOM     13  C   UNL     1     -49.038  12.180 -14.930  1.00  0.00     0.027 C 
BRANCH  13  14
ATOM     14  C   UNL     1     -49.657  12.489 -16.300  1.00  0.00     0.004 C 
BRANCH  14  15
ATOM     15  C   UNL     1     -48.951  13.654 -17.016  1.00  0.00     0.000 C 
BRANCH  15  16
ATOM     16  C   UNL     1     -49.826  14.925 -17.062  1.00  0.00     0.000 C 
BRANCH  16  17
ATOM     17  C   UNL     1     -51.118  14.815 -16.229  1.00  0.00    -0.000 C 
BRANCH  17  18
ATOM     18  C   UNL     1     -51.291  15.909 -15.161  1.00  0.00    -0.000 C 
BRANCH  18  19
ATOM     19  C   UNL     1     -52.504  15.662 -14.252  1.00  0.00    -0.003 C 
ATOM     20  C   UNL     1     -52.212  16.104 -12.821  1.00  0.00     0.004 C 
ENDBRANCH  18  19
ENDBRANCH  17  18
ENDBRANCH  16  17
ENDBRANCH  15  16
ENDBRANCH  14  15
ENDBRANCH  13  14
ENDBRANCH   2  13
TORSDOF 15
ENDMDL
MODEL 6
REMARK VINA RESULT:    -4.565      2.627      6.500
REMARK INTER + INTRA:         -10.950
REMARK INTER:                  -8.183
REMARK INTRA:                  -2.766
REMARK UNBOUND:                -2.382
REMARK SMILES CCCCCCCCC=CCCCCCCCC(=O)[O-]
REMARK SMILES IDX 10 1 9 2 11 3 12 4 13 5 14 6 15 7 16 8 17 9 18 10 19 11
REMARK SMILES IDX 20 12 8 13 7 14 6 15 5 16 4 17 3 18 2 19 1 20
REMARK H PARENT
REMARK Flexibility Score: inf
ROOT
ATOM      1  C   UNL     1     -53.331   6.355 -19.813  1.00  0.00    -0.031 C 
ATOM      2  C   UNL     1     -54.254   5.495 -19.359  1.00  0.00    -0.031 C 
ENDROOT
BRANCH   1   3
ATOM      3  C   UNL     1     -52.244   6.894 -18.921  1.00  0.00     0.027 C 
BRANCH   3   4
ATOM      4  C   UNL     1     -51.770   5.837 -17.916  1.00  0.00     0.004 C 
BRANCH   4   5
ATOM      5  C   UNL     1     -50.501   5.113 -18.394  1.00  0.00     0.000 C 
BRANCH   5   6
ATOM      6  C   UNL     1     -50.655   3.583 -18.392  1.00  0.00     0.000 C 
BRANCH   6   7
ATOM      7  C   UNL     1     -51.426   3.041 -19.616  1.00  0.00     0.000 C 
BRANCH   7   8
ATOM      8  C   UNL     1     -52.604   2.116 -19.240  1.00  0.00     0.006 C 
BRANCH   8   9
ATOM      9  C   UNL     1     -53.263   2.481 -17.900  1.00  0.00     0.053 C 
BRANCH   9  10
ATOM     10  C   UNL     1     -54.708   2.092 -17.856  1.00  0.00     0.041 C 
ATOM     11  O   UNL     1     -55.507   2.707 -17.100  1.00  0.00    -0.550 OA
ATOM     12  O   UNL     1     -55.168   1.031 -18.625  1.00  0.00    -0.550 OA
ENDBRANCH   9  10
ENDBRANCH   8   9
ENDBRANCH   7   8
ENDBRANCH   6   7
ENDBRANCH   5   6
ENDBRANCH   4   5
ENDBRANCH   3   4
ENDBRANCH   1   3
BRANCH   2  13
ATOM     13  C   UNL     1     -55.351   4.976 -20.248  1.00  0.00     0.027 C 
BRANCH  13  14
ATOM     14  C   UNL     1     -54.807   4.086 -21.374  1.00  0.00     0.004 C 
BRANCH  14  15
ATOM     15  C   UNL     1     -55.748   4.033 -22.590  1.00  0.00     0.000 C 
BRANCH  15  16
ATOM     16  C   UNL     1     -56.954   4.984 -22.435  1.00  0.00     0.000 C 
BRANCH  16  17
ATOM     17  C   UNL     1     -56.932   6.173 -23.415  1.00  0.00    -0.000 C 
BRANCH  17  18
ATOM     18  C   UNL     1     -56.923   7.558 -22.748  1.00  0.00    -0.000 C 
BRANCH  18  19
ATOM     19  C   UNL     1     -55.524   7.977 -22.272  1.00  0.00    -0.003 C 
ATOM     20  C   UNL     1     -54.483   7.746 -23.364  1.00  0.00     0.004 C 
ENDBRANCH  18  19
ENDBRANCH  17  18
ENDBRANCH  16  17
ENDBRANCH  15  16
ENDBRANCH  14  15
ENDBRANCH  13  14
ENDBRANCH   2  13
TORSDOF 15
ENDMDL
MODEL 7
REMARK VINA RESULT:    -4.564     11.505     13.747
REMARK INTER + INTRA:         -10.949
REMARK INTER:                  -8.711
REMARK INTRA:                  -2.238
REMARK UNBOUND:                -2.382
REMARK SMILES CCCCCCCCC=CCCCCCCCC(=O)[O-]
REMARK SMILES IDX 10 1 9 2 11 3 12 4 13 5 14 6 15 7 16 8 17 9 18 10 19 11
REMARK SMILES IDX 20 12 8 13 7 14 6 15 5 16 4 17 3 18 2 19 1 20
REMARK H PARENT
REMARK Flexibility Score: inf
ROOT
ATOM      1  C   UNL     1     -51.005  12.534 -10.165  1.00  0.00    -0.031 C 
ATOM      2  C   UNL     1     -50.379  12.645  -8.984  1.00  0.00    -0.031 C 
ENDROOT
BRANCH   1   3
ATOM      3  C   UNL     1     -51.906  13.620 -10.688  1.00  0.00     0.027 C 
BRANCH   3   4
ATOM      4  C   UNL     1     -51.773  13.772 -12.209  1.00  0.00     0.004 C 
BRANCH   4   5
ATOM      5  C   UNL     1     -50.884  12.679 -12.823  1.00  0.00     0.000 C 
BRANCH   5   6
ATOM      6  C   UNL     1     -51.541  11.990 -14.031  1.00  0.00     0.000 C 
BRANCH   6   7
ATOM      7  C   UNL     1     -50.620  11.907 -15.267  1.00  0.00     0.000 C 
BRANCH   7   8
ATOM      8  C   UNL     1     -49.134  12.176 -14.945  1.00  0.00     0.006 C 
BRANCH   8   9
ATOM      9  C   UNL     1     -48.203  11.989 -16.155  1.00  0.00     0.053 C 
BRANCH   9  10
ATOM     10  C   UNL     1     -48.636  12.805 -17.333  1.00  0.00     0.041 C 
ATOM     11  O   UNL     1     -48.871  12.246 -18.438  1.00  0.00    -0.550 OA
ATOM     12  O   UNL     1     -48.749  14.184 -17.222  1.00  0.00    -0.550 OA
ENDBRANCH   9  10
ENDBRANCH   8   9
ENDBRANCH   7   8
ENDBRANCH   6   7
ENDBRANCH   5   6
ENDBRANCH   4   5
ENDBRANCH   3   4
ENDBRANCH   1   3
BRANCH   2  13
ATOM     13  C   UNL     1     -49.496  11.547  -8.454  1.00  0.00     0.027 C 
BRANCH  13  14
ATOM     14  C   UNL     1     -48.009  11.914  -8.541  1.00  0.00     0.004 C 
BRANCH  14  15
ATOM     15  C   UNL     1     -47.120  10.699  -8.861  1.00  0.00     0.000 C 
BRANCH  15  16
ATOM     16  C   UNL     1     -47.870   9.629  -9.682  1.00  0.00     0.000 C 
BRANCH  16  17
ATOM     17  C   UNL     1     -47.873   9.905 -11.199  1.00  0.00    -0.000 C 
BRANCH  17  18
ATOM     18  C   UNL     1     -49.257   9.834 -11.864  1.00  0.00    -0.000 C 
BRANCH  18  19
ATOM     19  C   UNL     1     -50.260   8.996 -11.056  1.00  0.00    -0.003 C 
ATOM     20  C   UNL     1     -51.614   8.938 -11.758  1.00  0.00     0.004 C 
ENDBRANCH  18  19
ENDBRANCH  17  18
ENDBRANCH  16  17
ENDBRANCH  15  16
ENDBRANCH  14  15
ENDBRANCH  13  14
ENDBRANCH   2  13
TORSDOF 15
ENDMDL
MODEL 8
REMARK VINA RESULT:    -4.550      2.765      6.117
REMARK INTER + INTRA:         -10.922
REMARK INTER:                  -8.254
REMARK INTRA:                  -2.668
REMARK UNBOUND:                -2.382
REMARK SMILES CCCCCCCCC=CCCCCCCCC(=O)[O-]
REMARK SMILES IDX 10 1 9 2 11 3 12 4 13 5 14 6 15 7 16 8 17 9 18 10 19 11
REMARK SMILES IDX 20 12 8 13 7 14 6 15 5 16 4 17 3 18 2 19 1 20
REMARK H PARENT
REMARK Flexibility Score: inf
ROOT
ATOM      1  C   UNL     1     -56.215   6.552 -22.800  1.00  0.00    -0.031 C 
ATOM      2  C   UNL     1     -56.969   6.628 -21.694  1.00  0.00    -0.031 C 
ENDROOT
BRANCH   1   3
ATOM      3  C   UNL     1     -55.005   7.427 -22.995  1.00  0.00     0.027 C 
BRANCH   3   4
ATOM      4  C   UNL     1     -53.707   6.618 -22.890  1.00  0.00     0.004 C 
BRANCH   4   5
ATOM      5  C   UNL     1     -53.908   5.149 -23.296  1.00  0.00     0.000 C 
BRANCH   5   6
ATOM      6  C   UNL     1     -53.503   4.166 -22.185  1.00  0.00     0.000 C 
BRANCH   6   7
ATOM      7  C   UNL     1     -53.689   4.736 -20.762  1.00  0.00     0.000 C 
BRANCH   7   8
ATOM      8  C   UNL     1     -53.958   3.651 -19.696  1.00  0.00     0.006 C 
BRANCH   8   9
ATOM      9  C   UNL     1     -52.942   2.497 -19.729  1.00  0.00     0.053 C 
BRANCH   9  10
ATOM     10  C   UNL     1     -51.965   2.571 -18.597  1.00  0.00     0.041 C 
ATOM     11  O   UNL     1     -50.734   2.406 -18.811  1.00  0.00    -0.550 OA
ATOM     12  O   UNL     1     -52.414   2.790 -17.302  1.00  0.00    -0.550 OA
ENDBRANCH   9  10
ENDBRANCH   8   9
ENDBRANCH   7   8
ENDBRANCH   6   7
ENDBRANCH   5   6
ENDBRANCH   4   5
ENDBRANCH   3   4
ENDBRANCH   1   3
BRANCH   2  13
ATOM     13  C   UNL     1     -58.190   5.767 -21.512  1.00  0.00     0.027 C 
BRANCH  13  14
ATOM     14  C   UNL     1     -57.868   4.464 -20.767  1.00  0.00     0.004 C 
BRANCH  14  15
ATOM     15  C   UNL     1     -57.152   3.437 -21.662  1.00  0.00     0.000 C 
BRANCH  15  16
ATOM     16  C   UNL     1     -58.134   2.426 -22.291  1.00  0.00     0.000 C 
BRANCH  16  17
ATOM     17  C   UNL     1     -58.223   2.526 -23.826  1.00  0.00    -0.000 C 
BRANCH  17  18
ATOM     18  C   UNL     1     -57.137   3.398 -24.479  1.00  0.00    -0.000 C 
BRANCH  18  19
ATOM     19  C   UNL     1     -57.713   4.415 -25.474  1.00  0.00    -0.003 C 
ATOM     20  C   UNL     1     -59.061   4.946 -24.995  1.00  0.00     0.004 C 
ENDBRANCH  18  19
ENDBRANCH  17  18
ENDBRANCH  16  17
ENDBRANCH  15  16
ENDBRANCH  14  15
ENDBRANCH  13  14
ENDBRANCH   2  13
TORSDOF 15
ENDMDL
MODEL 9
REMARK VINA RESULT:    -4.512     11.514     14.066
REMARK INTER + INTRA:         -10.852
REMARK INTER:                  -8.099
REMARK INTRA:                  -2.753
REMARK UNBOUND:                -2.382
REMARK SMILES CCCCCCCCC=CCCCCCCCC(=O)[O-]
REMARK SMILES IDX 10 1 9 2 11 3 12 4 13 5 14 6 15 7 16 8 17 9 18 10 19 11
REMARK SMILES IDX 20 12 8 13 7 14 6 15 5 16 4 17 3 18 2 19 1 20
REMARK H PARENT
REMARK Flexibility Score: inf
ROOT
ATOM      1  C   UNL     1     -52.195  14.749 -14.658  1.00  0.00    -0.031 C 
ATOM      2  C   UNL     1     -51.544  13.604 -14.409  1.00  0.00    -0.031 C 
ENDROOT
BRANCH   1   3
ATOM      3  C   UNL     1     -51.897  16.012 -13.894  1.00  0.00     0.027 C 
BRANCH   3   4
ATOM      4  C   UNL     1     -52.667  16.058 -12.568  1.00  0.00     0.004 C 
BRANCH   4   5
ATOM      5  C   UNL     1     -51.729  16.236 -11.363  1.00  0.00     0.000 C 
BRANCH   5   6
ATOM      6  C   UNL     1     -52.040  15.254 -10.221  1.00  0.00     0.000 C 
BRANCH   6   7
ATOM      7  C   UNL     1     -52.338  13.819 -10.708  1.00  0.00     0.000 C 
BRANCH   7   8
ATOM      8  C   UNL     1     -51.086  12.916 -10.761  1.00  0.00     0.006 C 
BRANCH   8   9
ATOM      9  C   UNL     1     -51.326  11.582 -11.487  1.00  0.00     0.053 C 
BRANCH   9  10
ATOM     10  C   UNL     1     -50.169  10.643 -11.342  1.00  0.00     0.041 C 
ATOM     11  O   UNL     1     -49.211  10.689 -12.159  1.00  0.00    -0.550 OA
ATOM     12  O   UNL     1     -50.162   9.697 -10.326  1.00  0.00    -0.550 OA
ENDBRANCH   9  10
ENDBRANCH   8   9
ENDBRANCH   7   8
ENDBRANCH   6   7
ENDBRANCH   5   6
ENDBRANCH   4   5
ENDBRANCH   3   4
ENDBRANCH   1   3
BRANCH   2  13
ATOM     13  C   UNL     1     -51.861  12.339 -15.161  1.00  0.00     0.027 C 
BRANCH  13  14
ATOM     14  C   UNL     1     -50.605  11.496 -15.421  1.00  0.00     0.004 C 
BRANCH  14  15
ATOM     15  C   UNL     1     -49.313  12.328 -15.351  1.00  0.00     0.000 C 
BRANCH  15  16
ATOM     16  C   UNL     1     -48.491  12.240 -16.655  1.00  0.00     0.000 C 
BRANCH  16  17
ATOM     17  C   UNL     1     -48.959  13.223 -17.746  1.00  0.00    -0.000 C 
BRANCH  17  18
ATOM     18  C   UNL     1     -49.320  14.628 -17.236  1.00  0.00    -0.000 C 
BRANCH  18  19
ATOM     19  C   UNL     1     -50.574  15.200 -17.913  1.00  0.00    -0.003 C 
ATOM     20  C   UNL     1     -51.504  14.082 -18.375  1.00  0.00     0.004 C 
ENDBRANCH  18  19
ENDBRANCH  17  18
ENDBRANCH  16  17
ENDBRANCH  15  16
ENDBRANCH  14  15
ENDBRANCH  13  14
ENDBRANCH   2  13
TORSDOF 15
ENDMDL
