MODEL 1
REMARK VINA RESULT:    -4.584      0.000      0.000
REMARK INTER + INTRA:          -8.992
REMARK INTER:                  -7.800
REMARK INTRA:                  -1.192
REMARK UNBOUND:                -1.192
REMARK SMILES CCCCCCCCCCCCCC(=O)[O-]
REMARK SMILES IDX 8 1 9 2 10 3 11 4 12 5 13 6 14 7 15 8 16 9 7 10 6 11 5 12
REMARK SMILES IDX 4 13 3 14 2 15 1 16
REMARK H PARENT
REMARK Flexibility Score: inf
ROOT
ATOM      1  C   UNL     1      86.678  76.963  70.495  1.00  0.00     0.000 C 
ENDROOT
BRANCH   1   2
ATOM      2  C   UNL     1      86.156  78.036  69.517  1.00  0.00     0.000 C 
BRANCH   2   3
ATOM      3  C   UNL     1      86.754  77.876  68.108  1.00  0.00     0.000 C 
BRANCH   3   4
ATOM      4  C   UNL     1      88.058  77.064  68.105  1.00  0.00     0.000 C 
BRANCH   4   5
ATOM      5  C   UNL     1      88.170  76.127  66.891  1.00  0.00     0.006 C 
BRANCH   5   6
ATOM      6  C   UNL     1      87.061  75.065  66.875  1.00  0.00     0.053 C 
BRANCH   6   7
ATOM      7  C   UNL     1      87.517  73.772  67.477  1.00  0.00     0.041 C 
ATOM      8  O   UNL     1      86.779  72.753  67.422  1.00  0.00    -0.550 OA
ATOM      9  O   UNL     1      88.744  73.699  68.126  1.00  0.00    -0.550 OA
ENDBRANCH   6   7
ENDBRANCH   5   6
ENDBRANCH   4   5
ENDBRANCH   3   4
ENDBRANCH   2   3
ENDBRANCH   1   2
BRANCH   1  10
ATOM     10  C   UNL     1      85.764  75.729  70.601  1.00  0.00     0.000 C 
BRANCH  10  11
ATOM     11  C   UNL     1      86.520  74.458  71.009  1.00  0.00    -0.000 C 
BRANCH  11  12
ATOM     12  C   UNL     1      86.902  74.498  72.493  1.00  0.00    -0.000 C 
BRANCH  12  13
ATOM     13  C   UNL     1      88.421  74.398  72.673  1.00  0.00    -0.000 C 
BRANCH  13  14
ATOM     14  C   UNL     1      88.798  73.156  73.490  1.00  0.00    -0.000 C 
BRANCH  14  15
ATOM     15  C   UNL     1      89.970  72.407  72.845  1.00  0.00    -0.003 C 
ATOM     16  C   UNL     1      89.784  72.288  71.335  1.00  0.00     0.004 C 
ENDBRANCH  14  15
ENDBRANCH  13  14
ENDBRANCH  12  13
ENDBRANCH  11  12
ENDBRANCH  10  11
ENDBRANCH   1  10
TORSDOF 12
ENDMDL
MODEL 2
REMARK VINA RESULT:    -4.371      2.175      4.684
REMARK INTER + INTRA:          -8.629
REMARK INTER:                  -7.133
REMARK INTRA:                  -1.496
REMARK UNBOUND:                -1.192
REMARK SMILES CCCCCCCCCCCCCC(=O)[O-]
REMARK SMILES IDX 8 1 9 2 10 3 11 4 12 5 13 6 14 7 15 8 16 9 7 10 6 11 5 12
REMARK SMILES IDX 4 13 3 14 2 15 1 16
REMARK H PARENT
REMARK Flexibility Score: inf
ROOT
ATOM      1  C   UNL     1      87.340  75.730  67.179  1.00  0.00     0.000 C 
ENDROOT
BRANCH   1   2
ATOM      2  C   UNL     1      86.951  74.267  66.875  1.00  0.00     0.000 C 
BRANCH   2   3
ATOM      3  C   UNL     1      87.518  73.288  67.919  1.00  0.00     0.000 C 
BRANCH   3   4
ATOM      4  C   UNL     1      88.541  73.947  68.857  1.00  0.00     0.000 C 
BRANCH   4   5
ATOM      5  C   UNL     1      89.126  72.961  69.882  1.00  0.00     0.006 C 
BRANCH   5   6
ATOM      6  C   UNL     1      88.733  73.320  71.321  1.00  0.00     0.053 C 
BRANCH   6   7
ATOM      7  C   UNL     1      89.592  72.617  72.326  1.00  0.00     0.041 C 
ATOM      8  O   UNL     1      90.711  72.149  71.986  1.00  0.00    -0.550 OA
ATOM      9  O   UNL     1      89.145  72.453  73.632  1.00  0.00    -0.550 OA
ENDBRANCH   6   7
ENDBRANCH   5   6
ENDBRANCH   4   5
ENDBRANCH   3   4
ENDBRANCH   2   3
ENDBRANCH   1   2
BRANCH   1  10
ATOM     10  C   UNL     1      86.144  76.615  67.574  1.00  0.00     0.000 C 
BRANCH  10  11
ATOM     11  C   UNL     1      86.568  77.919  68.263  1.00  0.00    -0.000 C 
BRANCH  11  12
ATOM     12  C   UNL     1      86.285  77.862  69.768  1.00  0.00    -0.000 C 
BRANCH  12  13
ATOM     13  C   UNL     1      87.219  76.865  70.465  1.00  0.00    -0.000 C 
BRANCH  13  14
ATOM     14  C   UNL     1      86.444  75.977  71.445  1.00  0.00    -0.000 C 
BRANCH  14  15
ATOM     15  C   UNL     1      85.523  75.006  70.697  1.00  0.00    -0.003 C 
ATOM     16  C   UNL     1      84.610  74.256  71.662  1.00  0.00     0.004 C 
ENDBRANCH  14  15
ENDBRANCH  13  14
ENDBRANCH  12  13
ENDBRANCH  11  12
ENDBRANCH  10  11
ENDBRANCH   1  10
TORSDOF 12
ENDMDL
MODEL 3
REMARK VINA RESULT:    -4.111     13.776     15.008
REMARK INTER + INTRA:          -8.186
REMARK INTER:                  -6.876
REMARK INTRA:                  -1.310
REMARK UNBOUND:                -1.192
REMARK SMILES CCCCCCCCCCCCCC(=O)[O-]
REMARK SMILES IDX 8 1 9 2 10 3 11 4 12 5 13 6 14 7 15 8 16 9 7 10 6 11 5 12
REMARK SMILES IDX 4 13 3 14 2 15 1 16
REMARK H PARENT
REMARK Flexibility Score: inf
ROOT
ATOM      1  C   UNL     1      94.996  85.196  79.019  1.00  0.00     0.000 C 
ENDROOT
BRANCH   1   2
ATOM      2  C   UNL     1      93.884  85.684  78.067  1.00  0.00     0.000 C 
BRANCH   2   3
ATOM      3  C   UNL     1      93.705  84.750  76.857  1.00  0.00     0.000 C 
BRANCH   3   4
ATOM      4  C   UNL     1      92.340  84.043  76.850  1.00  0.00     0.000 C 
BRANCH   4   5
ATOM      5  C   UNL     1      92.241  82.937  77.913  1.00  0.00     0.006 C 
BRANCH   5   6
ATOM      6  C   UNL     1      90.937  83.023  78.718  1.00  0.00     0.053 C 
BRANCH   6   7
ATOM      7  C   UNL     1      90.921  84.213  79.628  1.00  0.00     0.041 C 
ATOM      8  O   UNL     1      90.109  85.155  79.425  1.00  0.00    -0.550 OA
ATOM      9  O   UNL     1      91.821  84.296  80.683  1.00  0.00    -0.550 OA
ENDBRANCH   6   7
ENDBRANCH   5   6
ENDBRANCH   4   5
ENDBRANCH   3   4
ENDBRANCH   2   3
ENDBRANCH   1   2
BRANCH   1  10
ATOM     10  C   UNL     1      96.383  85.118  78.357  1.00  0.00     0.000 C 
BRANCH  10  11
ATOM     11  C   UNL     1      96.914  83.682  78.249  1.00  0.00    -0.000 C 
BRANCH  11  12
ATOM     12  C   UNL     1      95.990  82.698  78.975  1.00  0.00    -0.000 C 
BRANCH  12  13
ATOM     13  C   UNL     1      96.793  81.566  79.624  1.00  0.00    -0.000 C 
BRANCH  13  14
ATOM     14  C   UNL     1      98.296  81.874  79.602  1.00  0.00    -0.000 C 
BRANCH  14  15
ATOM     15  C   UNL     1      98.812  82.192  81.010  1.00  0.00    -0.003 C 
ATOM     16  C   UNL     1      99.971  83.183  80.962  1.00  0.00     0.004 C 
ENDBRANCH  14  15
ENDBRANCH  13  14
ENDBRANCH  12  13
ENDBRANCH  11  12
ENDBRANCH  10  11
ENDBRANCH   1  10
TORSDOF 12
ENDMDL
MODEL 4
REMARK VINA RESULT:    -4.083     14.442     16.398
REMARK INTER + INTRA:          -8.140
REMARK INTER:                  -7.396
REMARK INTRA:                  -0.744
REMARK UNBOUND:                -1.192
REMARK SMILES CCCCCCCCCCCCCC(=O)[O-]
REMARK SMILES IDX 8 1 9 2 10 3 11 4 12 5 13 6 14 7 15 8 16 9 7 10 6 11 5 12
REMARK SMILES IDX 4 13 3 14 2 15 1 16
REMARK H PARENT
REMARK Flexibility Score: inf
ROOT
ATOM      1  C   UNL     1      96.194  84.086  78.447  1.00  0.00     0.000 C 
ENDROOT
BRANCH   1   2
ATOM      2  C   UNL     1      96.019  82.640  78.961  1.00  0.00     0.000 C 
BRANCH   2   3
ATOM      3  C   UNL     1      97.023  82.295  80.075  1.00  0.00     0.000 C 
BRANCH   3   4
ATOM      4  C   UNL     1      98.429  81.992  79.533  1.00  0.00     0.000 C 
BRANCH   4   5
ATOM      5  C   UNL     1      99.541  82.395  80.515  1.00  0.00     0.006 C 
BRANCH   5   6
ATOM      6  C   UNL     1      99.005  83.228  81.687  1.00  0.00     0.053 C 
BRANCH   6   7
ATOM      7  C   UNL     1      99.556  82.764  83.001  1.00  0.00     0.041 C 
ATOM      8  O   UNL     1     100.246  83.545  83.709  1.00  0.00    -0.550 OA
ATOM      9  O   UNL     1      99.333  81.461  83.429  1.00  0.00    -0.550 OA
ENDBRANCH   6   7
ENDBRANCH   5   6
ENDBRANCH   4   5
ENDBRANCH   3   4
ENDBRANCH   2   3
ENDBRANCH   1   2
BRANCH   1  10
ATOM     10  C   UNL     1      95.132  84.505  77.416  1.00  0.00     0.000 C 
BRANCH  10  11
ATOM     11  C   UNL     1      93.721  84.597  78.013  1.00  0.00    -0.000 C 
BRANCH  11  12
ATOM     12  C   UNL     1      92.808  83.509  77.436  1.00  0.00    -0.000 C 
BRANCH  12  13
ATOM     13  C   UNL     1      91.667  83.179  78.405  1.00  0.00    -0.000 C 
BRANCH  13  14
ATOM     14  C   UNL     1      90.321  83.670  77.857  1.00  0.00    -0.000 C 
BRANCH  14  15
ATOM     15  C   UNL     1      90.383  83.861  76.337  1.00  0.00    -0.003 C 
ATOM     16  C   UNL     1      89.876  85.243  75.934  1.00  0.00     0.004 C 
ENDBRANCH  14  15
ENDBRANCH  13  14
ENDBRANCH  12  13
ENDBRANCH  11  12
ENDBRANCH  10  11
ENDBRANCH   1  10
TORSDOF 12
ENDMDL
MODEL 5
REMARK VINA RESULT:    -4.074     14.230     15.518
REMARK INTER + INTRA:          -8.123
REMARK INTER:                  -7.189
REMARK INTRA:                  -0.934
REMARK UNBOUND:                -1.192
REMARK SMILES CCCCCCCCCCCCCC(=O)[O-]
REMARK SMILES IDX 8 1 9 2 10 3 11 4 12 5 13 6 14 7 15 8 16 9 7 10 6 11 5 12
REMARK SMILES IDX 4 13 3 14 2 15 1 16
REMARK H PARENT
REMARK Flexibility Score: inf
ROOT
ATOM      1  C   UNL     1      95.706  82.877  78.975  1.00  0.00     0.000 C 
ENDROOT
BRANCH   1   2
ATOM      2  C   UNL     1      96.426  83.930  78.105  1.00  0.00     0.000 C 
BRANCH   2   3
ATOM      3  C   UNL     1      95.534  85.149  77.813  1.00  0.00     0.000 C 
BRANCH   3   4
ATOM      4  C   UNL     1      94.045  84.869  78.069  1.00  0.00     0.000 C 
BRANCH   4   5
ATOM      5  C   UNL     1      93.306  84.393  76.807  1.00  0.00     0.006 C 
BRANCH   5   6
ATOM      6  C   UNL     1      92.437  83.157  77.076  1.00  0.00     0.053 C 
BRANCH   6   7
ATOM      7  C   UNL     1      91.131  83.520  77.713  1.00  0.00     0.041 C 
ATOM      8  O   UNL     1      90.869  83.137  78.884  1.00  0.00    -0.550 OA
ATOM      9  O   UNL     1      90.190  84.256  77.003  1.00  0.00    -0.550 OA
ENDBRANCH   6   7
ENDBRANCH   5   6
ENDBRANCH   4   5
ENDBRANCH   3   4
ENDBRANCH   2   3
ENDBRANCH   1   2
BRANCH   1  10
ATOM     10  C   UNL     1      96.658  81.849  79.612  1.00  0.00     0.000 C 
BRANCH  10  11
ATOM     11  C   UNL     1      98.107  81.996  79.128  1.00  0.00    -0.000 C 
BRANCH  11  12
ATOM     12  C   UNL     1      99.073  82.115  80.313  1.00  0.00    -0.000 C 
BRANCH  12  13
ATOM     13  C   UNL     1      99.357  83.585  80.645  1.00  0.00    -0.000 C 
BRANCH  13  14
ATOM     14  C   UNL     1      99.484  83.792  82.159  1.00  0.00    -0.000 C 
BRANCH  14  15
ATOM     15  C   UNL     1      99.815  82.475  82.869  1.00  0.00    -0.003 C 
ATOM     16  C   UNL     1      98.952  82.287  84.114  1.00  0.00     0.004 C 
ENDBRANCH  14  15
ENDBRANCH  13  14
ENDBRANCH  12  13
ENDBRANCH  11  12
ENDBRANCH  10  11
ENDBRANCH   1  10
TORSDOF 12
ENDMDL
MODEL 6
REMARK VINA RESULT:    -4.035     14.719     16.669
REMARK INTER + INTRA:          -8.057
REMARK INTER:                  -7.270
REMARK INTRA:                  -0.786
REMARK UNBOUND:                -1.192
REMARK SMILES CCCCCCCCCCCCCC(=O)[O-]
REMARK SMILES IDX 8 1 9 2 10 3 11 4 12 5 13 6 14 7 15 8 16 9 7 10 6 11 5 12
REMARK SMILES IDX 4 13 3 14 2 15 1 16
REMARK H PARENT
REMARK Flexibility Score: inf
ROOT
ATOM      1  C   UNL     1      95.749  82.857  79.090  1.00  0.00     0.000 C 
ENDROOT
BRANCH   1   2
ATOM      2  C   UNL     1      96.656  81.660  79.444  1.00  0.00     0.000 C 
BRANCH   2   3
ATOM      3  C   UNL     1      98.149  82.000  79.298  1.00  0.00     0.000 C 
BRANCH   3   4
ATOM      4  C   UNL     1      98.871  82.099  80.651  1.00  0.00     0.000 C 
BRANCH   4   5
ATOM      5  C   UNL     1     100.281  82.700  80.527  1.00  0.00     0.006 C 
BRANCH   5   6
ATOM      6  C   UNL     1     100.459  83.945  81.406  1.00  0.00     0.053 C 
BRANCH   6   7
ATOM      7  C   UNL     1      99.391  84.965  81.154  1.00  0.00     0.041 C 
ATOM      8  O   UNL     1      98.617  85.315  82.084  1.00  0.00    -0.550 OA
ATOM      9  O   UNL     1      99.231  85.507  79.885  1.00  0.00    -0.550 OA
ENDBRANCH   6   7
ENDBRANCH   5   6
ENDBRANCH   4   5
ENDBRANCH   3   4
ENDBRANCH   2   3
ENDBRANCH   1   2
BRANCH   1  10
ATOM     10  C   UNL     1      96.401  83.857  78.118  1.00  0.00     0.000 C 
BRANCH  10  11
ATOM     11  C   UNL     1      95.467  85.011  77.732  1.00  0.00    -0.000 C 
BRANCH  11  12
ATOM     12  C   UNL     1      94.008  84.670  78.056  1.00  0.00    -0.000 C 
BRANCH  12  13
ATOM     13  C   UNL     1      93.173  84.551  76.776  1.00  0.00    -0.000 C 
BRANCH  13  14
ATOM     14  C   UNL     1      92.110  83.454  76.911  1.00  0.00    -0.000 C 
BRANCH  14  15
ATOM     15  C   UNL     1      90.716  84.061  77.111  1.00  0.00    -0.003 C 
ATOM     16  C   UNL     1      90.276  84.848  75.881  1.00  0.00     0.004 C 
ENDBRANCH  14  15
ENDBRANCH  13  14
ENDBRANCH  12  13
ENDBRANCH  11  12
ENDBRANCH  10  11
ENDBRANCH   1  10
TORSDOF 12
ENDMDL
MODEL 7
REMARK VINA RESULT:    -4.004     13.369     14.580
REMARK INTER + INTRA:          -8.004
REMARK INTER:                  -7.010
REMARK INTRA:                  -0.994
REMARK UNBOUND:                -1.192
REMARK SMILES CCCCCCCCCCCCCC(=O)[O-]
REMARK SMILES IDX 8 1 9 2 10 3 11 4 12 5 13 6 14 7 15 8 16 9 7 10 6 11 5 12
REMARK SMILES IDX 4 13 3 14 2 15 1 16
REMARK H PARENT
REMARK Flexibility Score: inf
ROOT
ATOM      1  C   UNL     1      94.820  85.670  77.940  1.00  0.00     0.000 C 
ENDROOT
BRANCH   1   2
ATOM      2  C   UNL     1      93.627  85.961  78.875  1.00  0.00     0.000 C 
BRANCH   2   3
ATOM      3  C   UNL     1      93.141  84.698  79.606  1.00  0.00     0.000 C 
BRANCH   3   4
ATOM      4  C   UNL     1      91.724  84.277  79.187  1.00  0.00     0.000 C 
BRANCH   4   5
ATOM      5  C   UNL     1      91.724  83.102  78.196  1.00  0.00     0.006 C 
BRANCH   5   6
ATOM      6  C   UNL     1      91.547  83.568  76.744  1.00  0.00     0.053 C 
BRANCH   6   7
ATOM      7  C   UNL     1      90.174  84.112  76.496  1.00  0.00     0.041 C 
ATOM      8  O   UNL     1      89.162  83.499  76.928  1.00  0.00    -0.550 OA
ATOM      9  O   UNL     1      90.009  85.279  75.761  1.00  0.00    -0.550 OA
ENDBRANCH   6   7
ENDBRANCH   5   6
ENDBRANCH   4   5
ENDBRANCH   3   4
ENDBRANCH   2   3
ENDBRANCH   1   2
BRANCH   1  10
ATOM     10  C   UNL     1      95.176  84.176  77.844  1.00  0.00     0.000 C 
BRANCH  10  11
ATOM     11  C   UNL     1      96.457  83.816  78.610  1.00  0.00    -0.000 C 
BRANCH  11  12
ATOM     12  C   UNL     1      96.163  82.811  79.730  1.00  0.00    -0.000 C 
BRANCH  12  13
ATOM     13  C   UNL     1      97.074  81.583  79.618  1.00  0.00    -0.000 C 
BRANCH  13  14
ATOM     14  C   UNL     1      98.542  81.999  79.455  1.00  0.00    -0.000 C 
BRANCH  14  15
ATOM     15  C   UNL     1      99.175  82.323  80.813  1.00  0.00    -0.003 C 
ATOM     16  C   UNL     1     100.554  82.953  80.642  1.00  0.00     0.004 C 
ENDBRANCH  14  15
ENDBRANCH  13  14
ENDBRANCH  12  13
ENDBRANCH  11  12
ENDBRANCH  10  11
ENDBRANCH   1  10
TORSDOF 12
ENDMDL
MODEL 8
REMARK VINA RESULT:    -3.993     14.086     15.949
REMARK INTER + INTRA:          -7.986
REMARK INTER:                  -7.238
REMARK INTRA:                  -0.749
REMARK UNBOUND:                -1.192
REMARK SMILES CCCCCCCCCCCCCC(=O)[O-]
REMARK SMILES IDX 8 1 9 2 10 3 11 4 12 5 13 6 14 7 15 8 16 9 7 10 6 11 5 12
REMARK SMILES IDX 4 13 3 14 2 15 1 16
REMARK H PARENT
REMARK Flexibility Score: inf
ROOT
ATOM      1  C   UNL     1      95.193  84.408  78.369  1.00  0.00     0.000 C 
ENDROOT
BRANCH   1   2
ATOM      2  C   UNL     1      96.499  83.590  78.475  1.00  0.00     0.000 C 
BRANCH   2   3
ATOM      3  C   UNL     1      96.235  82.127  78.872  1.00  0.00     0.000 C 
BRANCH   3   4
ATOM      4  C   UNL     1      97.150  81.648  80.011  1.00  0.00     0.000 C 
BRANCH   4   5
ATOM      5  C   UNL     1      98.556  82.264  79.940  1.00  0.00     0.006 C 
BRANCH   5   6
ATOM      6  C   UNL     1      99.210  82.376  81.324  1.00  0.00     0.053 C 
BRANCH   6   7
ATOM      7  C   UNL     1     100.433  83.241  81.296  1.00  0.00     0.041 C 
ATOM      8  O   UNL     1     100.603  84.126  82.177  1.00  0.00    -0.550 OA
ATOM      9  O   UNL     1     101.370  83.090  80.282  1.00  0.00    -0.550 OA
ENDBRANCH   6   7
ENDBRANCH   5   6
ENDBRANCH   4   5
ENDBRANCH   3   4
ENDBRANCH   2   3
ENDBRANCH   1   2
BRANCH   1  10
ATOM     10  C   UNL     1      93.937  83.540  78.174  1.00  0.00     0.000 C 
BRANCH  10  11
ATOM     11  C   UNL     1      93.069  84.002  76.996  1.00  0.00    -0.000 C 
BRANCH  11  12
ATOM     12  C   UNL     1      91.782  83.174  76.904  1.00  0.00    -0.000 C 
BRANCH  12  13
ATOM     13  C   UNL     1      90.584  84.059  76.543  1.00  0.00    -0.000 C 
BRANCH  13  14
ATOM     14  C   UNL     1      89.592  84.145  77.709  1.00  0.00    -0.000 C 
BRANCH  14  15
ATOM     15  C   UNL     1      89.929  83.118  78.795  1.00  0.00    -0.003 C 
ATOM     16  C   UNL     1      90.145  83.794  80.146  1.00  0.00     0.004 C 
ENDBRANCH  14  15
ENDBRANCH  13  14
ENDBRANCH  12  13
ENDBRANCH  11  12
ENDBRANCH  10  11
ENDBRANCH   1  10
TORSDOF 12
ENDMDL
MODEL 9
REMARK VINA RESULT:    -3.886     13.641     15.327
REMARK INTER + INTRA:          -7.804
REMARK INTER:                  -6.596
REMARK INTRA:                  -1.208
REMARK UNBOUND:                -1.192
REMARK SMILES CCCCCCCCCCCCCC(=O)[O-]
REMARK SMILES IDX 8 1 9 2 10 3 11 4 12 5 13 6 14 7 15 8 16 9 7 10 6 11 5 12
REMARK SMILES IDX 4 13 3 14 2 15 1 16
REMARK H PARENT
REMARK Flexibility Score: inf
ROOT
ATOM      1  C   UNL     1      93.766  84.670  78.777  1.00  0.00     0.000 C 
ENDROOT
BRANCH   1   2
ATOM      2  C   UNL     1      95.294  84.859  78.901  1.00  0.00     0.000 C 
BRANCH   2   3
ATOM      3  C   UNL     1      96.073  83.645  78.366  1.00  0.00     0.000 C 
BRANCH   3   4
ATOM      4  C   UNL     1      95.561  82.312  78.934  1.00  0.00     0.000 C 
BRANCH   4   5
ATOM      5  C   UNL     1      96.670  81.495  79.617  1.00  0.00     0.006 C 
BRANCH   5   6
ATOM      6  C   UNL     1      97.999  82.259  79.678  1.00  0.00     0.053 C 
BRANCH   6   7
ATOM      7  C   UNL     1      98.321  82.710  81.070  1.00  0.00     0.041 C 
ATOM      8  O   UNL     1      97.719  83.696  81.572  1.00  0.00    -0.550 OA
ATOM      9  O   UNL     1      99.306  82.059  81.803  1.00  0.00    -0.550 OA
ENDBRANCH   6   7
ENDBRANCH   5   6
ENDBRANCH   4   5
ENDBRANCH   3   4
ENDBRANCH   2   3
ENDBRANCH   1   2
BRANCH   1  10
ATOM     10  C   UNL     1      93.261  84.686  77.323  1.00  0.00     0.000 C 
BRANCH  10  11
ATOM     11  C   UNL     1      92.524  83.397  76.933  1.00  0.00    -0.000 C 
BRANCH  11  12
ATOM     12  C   UNL     1      91.671  82.878  78.096  1.00  0.00    -0.000 C 
BRANCH  12  13
ATOM     13  C   UNL     1      90.267  83.494  78.064  1.00  0.00    -0.000 C 
BRANCH  13  14
ATOM     14  C   UNL     1      89.478  83.130  79.328  1.00  0.00    -0.000 C 
BRANCH  14  15
ATOM     15  C   UNL     1      90.011  83.892  80.547  1.00  0.00    -0.003 C 
ATOM     16  C   UNL     1      90.175  85.377  80.241  1.00  0.00     0.004 C 
ENDBRANCH  14  15
ENDBRANCH  13  14
ENDBRANCH  12  13
ENDBRANCH  11  12
ENDBRANCH  10  11
ENDBRANCH   1  10
TORSDOF 12
ENDMDL
