MODEL 1
REMARK VINA RESULT:     2.823      0.000      0.000
REMARK INTER + INTRA:           3.807
REMARK INTER:                   4.474
REMARK INTRA:                  -0.667
REMARK UNBOUND:                -0.667
REMARK SMILES CCCCCCCCCCCC(=O)[O-]
REMARK SMILES IDX 7 1 8 2 9 3 10 4 11 5 12 6 13 7 14 8 6 9 5 10 4 11 3 12 2 13
REMARK SMILES IDX 1 14
REMARK H PARENT
REMARK Flexibility Score: inf
ROOT
ATOM      1  C   UNL     1      -3.525 -12.907   7.345  1.00  0.00     0.000 C 
ENDROOT
BRANCH   1   2
ATOM      2  C   UNL     1      -5.042 -12.679   7.226  1.00  0.00     0.000 C 
BRANCH   2   3
ATOM      3  C   UNL     1      -5.605 -13.152   5.876  1.00  0.00     0.000 C 
BRANCH   3   4
ATOM      4  C   UNL     1      -6.810 -14.096   6.038  1.00  0.00     0.006 C 
BRANCH   4   5
ATOM      5  C   UNL     1      -6.770 -14.863   7.367  1.00  0.00     0.053 C 
BRANCH   5   6
ATOM      6  C   UNL     1      -6.152 -16.218   7.207  1.00  0.00     0.041 C 
ATOM      7  O   UNL     1      -6.812 -17.253   7.489  1.00  0.00    -0.550 OA
ATOM      8  O   UNL     1      -4.836 -16.337   6.779  1.00  0.00    -0.550 OA
ENDBRANCH   5   6
ENDBRANCH   4   5
ENDBRANCH   3   4
ENDBRANCH   2   3
ENDBRANCH   1   2
BRANCH   1   9
ATOM      9  C   UNL     1      -2.943 -13.651   6.132  1.00  0.00     0.000 C 
BRANCH   9  10
ATOM     10  C   UNL     1      -1.893 -14.699   6.530  1.00  0.00    -0.000 C 
BRANCH  10  11
ATOM     11  C   UNL     1      -1.469 -14.523   7.993  1.00  0.00    -0.000 C 
BRANCH  11  12
ATOM     12  C   UNL     1      -0.164 -13.726   8.096  1.00  0.00    -0.000 C 
BRANCH  12  13
ATOM     13  C   UNL     1       1.031 -14.655   8.340  1.00  0.00    -0.003 C 
ATOM     14  C   UNL     1       1.315 -14.810   9.831  1.00  0.00     0.004 C 
ENDBRANCH  12  13
ENDBRANCH  11  12
ENDBRANCH  10  11
ENDBRANCH   9  10
ENDBRANCH   1   9
TORSDOF 10
ENDMDL
MODEL 2
REMARK VINA RESULT:     2.853      2.827      5.460
REMARK INTER + INTRA:           3.854
REMARK INTER:                   4.858
REMARK INTRA:                  -1.004
REMARK UNBOUND:                -0.667
REMARK SMILES CCCCCCCCCCCC(=O)[O-]
REMARK SMILES IDX 7 1 8 2 9 3 10 4 11 5 12 6 13 7 14 8 6 9 5 10 4 11 3 12 2 13
REMARK SMILES IDX 1 14
REMARK H PARENT
REMARK Flexibility Score: inf
ROOT
ATOM      1  C   UNL     1      -5.067 -12.654   7.270  1.00  0.00     0.000 C 
ENDROOT
BRANCH   1   2
ATOM      2  C   UNL     1      -3.549 -12.891   7.346  1.00  0.00     0.000 C 
BRANCH   2   3
ATOM      3  C   UNL     1      -3.024 -13.734   6.173  1.00  0.00     0.000 C 
BRANCH   3   4
ATOM      4  C   UNL     1      -1.680 -14.413   6.489  1.00  0.00     0.006 C 
BRANCH   4   5
ATOM      5  C   UNL     1      -1.382 -14.434   7.995  1.00  0.00     0.053 C 
BRANCH   5   6
ATOM      6  C   UNL     1       0.040 -14.060   8.284  1.00  0.00     0.041 C 
ATOM      7  O   UNL     1       0.447 -12.891   8.055  1.00  0.00    -0.550 OA
ATOM      8  O   UNL     1       0.923 -15.012   8.776  1.00  0.00    -0.550 OA
ENDBRANCH   5   6
ENDBRANCH   4   5
ENDBRANCH   3   4
ENDBRANCH   2   3
ENDBRANCH   1   2
BRANCH   1   9
ATOM      9  C   UNL     1      -5.649 -12.992   5.888  1.00  0.00     0.000 C 
BRANCH   9  10
ATOM     10  C   UNL     1      -6.809 -13.996   5.965  1.00  0.00    -0.000 C 
BRANCH  10  11
ATOM     11  C   UNL     1      -6.844 -14.690   7.332  1.00  0.00    -0.000 C 
BRANCH  11  12
ATOM     12  C   UNL     1      -6.443 -16.165   7.212  1.00  0.00    -0.000 C 
BRANCH  12  13
ATOM     13  C   UNL     1      -5.180 -16.323   6.357  1.00  0.00    -0.003 C 
ATOM     14  C   UNL     1      -4.050 -16.965   7.156  1.00  0.00     0.004 C 
ENDBRANCH  12  13
ENDBRANCH  11  12
ENDBRANCH  10  11
ENDBRANCH   9  10
ENDBRANCH   1   9
TORSDOF 10
ENDMDL
MODEL 3
REMARK VINA RESULT:     2.997      2.278      5.228
REMARK INTER + INTRA:           4.082
REMARK INTER:                   4.423
REMARK INTRA:                  -0.342
REMARK UNBOUND:                -0.667
REMARK SMILES CCCCCCCCCCCC(=O)[O-]
REMARK SMILES IDX 7 1 8 2 9 3 10 4 11 5 12 6 13 7 14 8 6 9 5 10 4 11 3 12 2 13
REMARK SMILES IDX 1 14
REMARK H PARENT
REMARK Flexibility Score: inf
ROOT
ATOM      1  C   UNL     1      -5.227 -16.186   6.336  1.00  0.00     0.000 C 
ENDROOT
BRANCH   1   2
ATOM      2  C   UNL     1      -4.036 -16.518   7.253  1.00  0.00     0.000 C 
BRANCH   2   3
ATOM      3  C   UNL     1      -2.689 -16.100   6.644  1.00  0.00     0.000 C 
BRANCH   3   4
ATOM      4  C   UNL     1      -2.702 -14.654   6.119  1.00  0.00     0.006 C 
BRANCH   4   5
ATOM      5  C   UNL     1      -1.399 -13.909   6.442  1.00  0.00     0.053 C 
BRANCH   5   6
ATOM      6  C   UNL     1      -1.014 -14.064   7.882  1.00  0.00     0.041 C 
ATOM      7  O   UNL     1      -1.902 -14.198   8.765  1.00  0.00    -0.550 OA
ATOM      8  O   UNL     1       0.324 -14.026   8.252  1.00  0.00    -0.550 OA
ENDBRANCH   5   6
ENDBRANCH   4   5
ENDBRANCH   3   4
ENDBRANCH   2   3
ENDBRANCH   1   2
BRANCH   1   9
ATOM      9  C   UNL     1      -6.523 -15.930   7.121  1.00  0.00     0.000 C 
BRANCH   9  10
ATOM     10  C   UNL     1      -6.798 -14.433   7.336  1.00  0.00    -0.000 C 
BRANCH  10  11
ATOM     11  C   UNL     1      -6.580 -13.644   6.040  1.00  0.00    -0.000 C 
BRANCH  11  12
ATOM     12  C   UNL     1      -5.571 -12.509   6.250  1.00  0.00    -0.000 C 
BRANCH  12  13
ATOM     13  C   UNL     1      -4.658 -12.798   7.447  1.00  0.00    -0.003 C 
ATOM     14  C   UNL     1      -3.802 -11.584   7.795  1.00  0.00     0.004 C 
ENDBRANCH  12  13
ENDBRANCH  11  12
ENDBRANCH  10  11
ENDBRANCH   9  10
ENDBRANCH   1   9
TORSDOF 10
ENDMDL
MODEL 4
REMARK VINA RESULT:     3.309      3.026      6.108
REMARK INTER + INTRA:           4.576
REMARK INTER:                   5.146
REMARK INTRA:                  -0.570
REMARK UNBOUND:                -0.667
REMARK SMILES CCCCCCCCCCCC(=O)[O-]
REMARK SMILES IDX 7 1 8 2 9 3 10 4 11 5 12 6 13 7 14 8 6 9 5 10 4 11 3 12 2 13
REMARK SMILES IDX 1 14
REMARK H PARENT
REMARK Flexibility Score: inf
ROOT
ATOM      1  C   UNL     1      -2.898 -15.602   6.466  1.00  0.00     0.000 C 
ENDROOT
BRANCH   1   2
ATOM      2  C   UNL     1      -3.139 -14.099   6.247  1.00  0.00     0.000 C 
BRANCH   2   3
ATOM      3  C   UNL     1      -3.115 -13.300   7.559  1.00  0.00     0.000 C 
BRANCH   3   4
ATOM      4  C   UNL     1      -1.902 -13.650   8.440  1.00  0.00     0.006 C 
BRANCH   4   5
ATOM      5  C   UNL     1      -0.650 -13.957   7.606  1.00  0.00     0.053 C 
BRANCH   5   6
ATOM      6  C   UNL     1       0.594 -13.928   8.441  1.00  0.00     0.041 C 
ATOM      7  O   UNL     1       1.049 -12.833   8.863  1.00  0.00    -0.550 OA
ATOM      8  O   UNL     1       1.268 -15.109   8.725  1.00  0.00    -0.550 OA
ENDBRANCH   5   6
ENDBRANCH   4   5
ENDBRANCH   3   4
ENDBRANCH   2   3
ENDBRANCH   1   2
BRANCH   1   9
ATOM      9  C   UNL     1      -4.047 -16.278   7.233  1.00  0.00     0.000 C 
BRANCH   9  10
ATOM     10  C   UNL     1      -5.321 -16.419   6.385  1.00  0.00    -0.000 C 
BRANCH  10  11
ATOM     11  C   UNL     1      -6.564 -16.031   7.195  1.00  0.00    -0.000 C 
BRANCH  11  12
ATOM     12  C   UNL     1      -6.702 -14.508   7.296  1.00  0.00    -0.000 C 
BRANCH  12  13
ATOM     13  C   UNL     1      -7.008 -13.890   5.926  1.00  0.00    -0.003 C 
ATOM     14  C   UNL     1      -6.589 -12.425   5.875  1.00  0.00     0.004 C 
ENDBRANCH  12  13
ENDBRANCH  11  12
ENDBRANCH  10  11
ENDBRANCH   9  10
ENDBRANCH   1   9
TORSDOF 10
ENDMDL
MODEL 5
REMARK VINA RESULT:     3.814      2.127      3.340
REMARK INTER + INTRA:           5.376
REMARK INTER:                   4.959
REMARK INTRA:                   0.417
REMARK UNBOUND:                -0.667
REMARK SMILES CCCCCCCCCCCC(=O)[O-]
REMARK SMILES IDX 7 1 8 2 9 3 10 4 11 5 12 6 13 7 14 8 6 9 5 10 4 11 3 12 2 13
REMARK SMILES IDX 1 14
REMARK H PARENT
REMARK Flexibility Score: inf
ROOT
ATOM      1  C   UNL     1      -5.532 -15.354   7.511  1.00  0.00     0.000 C 
ENDROOT
BRANCH   1   2
ATOM      2  C   UNL     1      -6.818 -14.929   6.780  1.00  0.00     0.000 C 
BRANCH   2   3
ATOM      3  C   UNL     1      -6.605 -13.705   5.875  1.00  0.00     0.000 C 
BRANCH   3   4
ATOM      4  C   UNL     1      -5.972 -12.521   6.626  1.00  0.00     0.006 C 
BRANCH   4   5
ATOM      5  C   UNL     1      -4.442 -12.506   6.499  1.00  0.00     0.053 C 
BRANCH   5   6
ATOM      6  C   UNL     1      -3.785 -12.048   7.766  1.00  0.00     0.041 C 
ATOM      7  O   UNL     1      -3.545 -10.826   7.949  1.00  0.00    -0.550 OA
ATOM      8  O   UNL     1      -3.408 -12.975   8.729  1.00  0.00    -0.550 OA
ENDBRANCH   5   6
ENDBRANCH   4   5
ENDBRANCH   3   4
ENDBRANCH   2   3
ENDBRANCH   1   2
BRANCH   1   9
ATOM      9  C   UNL     1      -4.519 -16.034   6.576  1.00  0.00     0.000 C 
BRANCH   9  10
ATOM     10  C   UNL     1      -3.063 -15.770   6.990  1.00  0.00    -0.000 C 
BRANCH  10  11
ATOM     11  C   UNL     1      -2.320 -14.979   5.907  1.00  0.00    -0.000 C 
BRANCH  11  12
ATOM     12  C   UNL     1      -1.362 -13.957   6.531  1.00  0.00    -0.000 C 
BRANCH  12  13
ATOM     13  C   UNL     1      -1.003 -14.346   7.970  1.00  0.00    -0.003 C 
ATOM     14  C   UNL     1       0.430 -13.948   8.308  1.00  0.00     0.004 C 
ENDBRANCH  12  13
ENDBRANCH  11  12
ENDBRANCH  10  11
ENDBRANCH   9  10
ENDBRANCH   1   9
TORSDOF 10
ENDMDL
MODEL 6
REMARK VINA RESULT:     4.254      3.088      6.255
REMARK INTER + INTRA:           6.074
REMARK INTER:                   6.400
REMARK INTRA:                  -0.326
REMARK UNBOUND:                -0.667
REMARK SMILES CCCCCCCCCCCC(=O)[O-]
REMARK SMILES IDX 7 1 8 2 9 3 10 4 11 5 12 6 13 7 14 8 6 9 5 10 4 11 3 12 2 13
REMARK SMILES IDX 1 14
REMARK H PARENT
REMARK Flexibility Score: inf
ROOT
ATOM      1  C   UNL     1      -2.567 -14.694   6.110  1.00  0.00     0.000 C 
ENDROOT
BRANCH   1   2
ATOM      2  C   UNL     1      -2.309 -15.003   7.595  1.00  0.00     0.000 C 
BRANCH   2   3
ATOM      3  C   UNL     1      -1.794 -13.780   8.371  1.00  0.00     0.000 C 
BRANCH   3   4
ATOM      4  C   UNL     1      -0.290 -13.536   8.155  1.00  0.00     0.006 C 
BRANCH   4   5
ATOM      5  C   UNL     1       0.519 -14.840   8.184  1.00  0.00     0.053 C 
BRANCH   5   6
ATOM      6  C   UNL     1       1.469 -14.877   9.343  1.00  0.00     0.041 C 
ATOM      7  O   UNL     1       1.045 -14.704  10.515  1.00  0.00    -0.550 OA
ATOM      8  O   UNL     1       2.826 -15.070   9.123  1.00  0.00    -0.550 OA
ENDBRANCH   5   6
ENDBRANCH   4   5
ENDBRANCH   3   4
ENDBRANCH   2   3
ENDBRANCH   1   2
BRANCH   1   9
ATOM      9  C   UNL     1      -3.308 -13.362   5.904  1.00  0.00     0.000 C 
BRANCH   9  10
ATOM     10  C   UNL     1      -4.291 -13.051   7.042  1.00  0.00    -0.000 C 
BRANCH  10  11
ATOM     11  C   UNL     1      -5.654 -12.621   6.487  1.00  0.00    -0.000 C 
BRANCH  11  12
ATOM     12  C   UNL     1      -6.470 -13.836   6.030  1.00  0.00    -0.000 C 
BRANCH  12  13
ATOM     13  C   UNL     1      -6.634 -14.849   7.169  1.00  0.00    -0.003 C 
ATOM     14  C   UNL     1      -5.895 -16.148   6.862  1.00  0.00     0.004 C 
ENDBRANCH  12  13
ENDBRANCH  11  12
ENDBRANCH  10  11
ENDBRANCH   9  10
ENDBRANCH   1   9
TORSDOF 10
ENDMDL
MODEL 7
REMARK VINA RESULT:     4.718      1.833      2.646
REMARK INTER + INTRA:           6.809
REMARK INTER:                   7.046
REMARK INTRA:                  -0.236
REMARK UNBOUND:                -0.667
REMARK SMILES CCCCCCCCCCCC(=O)[O-]
REMARK SMILES IDX 7 1 8 2 9 3 10 4 11 5 12 6 13 7 14 8 6 9 5 10 4 11 3 12 2 13
REMARK SMILES IDX 1 14
REMARK H PARENT
REMARK Flexibility Score: inf
ROOT
ATOM      1  C   UNL     1      -2.347 -15.721   6.297  1.00  0.00     0.000 C 
ENDROOT
BRANCH   1   2
ATOM      2  C   UNL     1      -3.501 -16.186   7.202  1.00  0.00     0.000 C 
BRANCH   2   3
ATOM      3  C   UNL     1      -4.824 -16.347   6.436  1.00  0.00     0.000 C 
BRANCH   3   4
ATOM      4  C   UNL     1      -6.004 -15.662   7.148  1.00  0.00     0.006 C 
BRANCH   4   5
ATOM      5  C   UNL     1      -6.752 -14.690   6.224  1.00  0.00     0.053 C 
BRANCH   5   6
ATOM      6  C   UNL     1      -6.254 -13.285   6.378  1.00  0.00     0.041 C 
ATOM      7  O   UNL     1      -5.178 -13.058   6.991  1.00  0.00    -0.550 OA
ATOM      8  O   UNL     1      -6.996 -12.225   5.875  1.00  0.00    -0.550 OA
ENDBRANCH   5   6
ENDBRANCH   4   5
ENDBRANCH   3   4
ENDBRANCH   2   3
ENDBRANCH   1   2
BRANCH   1   9
ATOM      9  C   UNL     1      -2.335 -14.197   6.091  1.00  0.00     0.000 C 
BRANCH   9  10
ATOM     10  C   UNL     1      -2.057 -13.428   7.392  1.00  0.00    -0.000 C 
BRANCH  10  11
ATOM     11  C   UNL     1      -1.104 -14.213   8.300  1.00  0.00    -0.000 C 
BRANCH  11  12
ATOM     12  C   UNL     1       0.326 -13.672   8.197  1.00  0.00    -0.000 C 
BRANCH  12  13
ATOM     13  C   UNL     1       1.350 -14.741   8.598  1.00  0.00    -0.003 C 
ATOM     14  C   UNL     1       1.430 -14.887  10.114  1.00  0.00     0.004 C 
ENDBRANCH  12  13
ENDBRANCH  11  12
ENDBRANCH  10  11
ENDBRANCH   9  10
ENDBRANCH   1   9
TORSDOF 10
ENDMDL
MODEL 8
REMARK VINA RESULT:     5.589      2.900      5.739
REMARK INTER + INTRA:           8.190
REMARK INTER:                   8.679
REMARK INTRA:                  -0.489
REMARK UNBOUND:                -0.667
REMARK SMILES CCCCCCCCCCCC(=O)[O-]
REMARK SMILES IDX 7 1 8 2 9 3 10 4 11 5 12 6 13 7 14 8 6 9 5 10 4 11 3 12 2 13
REMARK SMILES IDX 1 14
REMARK H PARENT
REMARK Flexibility Score: inf
ROOT
ATOM      1  C   UNL     1      -3.729 -12.882   7.151  1.00  0.00     0.000 C 
ENDROOT
BRANCH   1   2
ATOM      2  C   UNL     1      -3.296 -13.626   5.875  1.00  0.00     0.000 C 
BRANCH   2   3
ATOM      3  C   UNL     1      -1.914 -14.283   6.017  1.00  0.00     0.000 C 
BRANCH   3   4
ATOM      4  C   UNL     1      -1.783 -15.107   7.310  1.00  0.00     0.006 C 
BRANCH   4   5
ATOM      5  C   UNL     1      -1.279 -14.261   8.487  1.00  0.00     0.053 C 
BRANCH   5   6
ATOM      6  C   UNL     1       0.210 -14.096   8.454  1.00  0.00     0.041 C 
ATOM      7  O   UNL     1       0.731 -13.185   7.759  1.00  0.00    -0.550 OA
ATOM      8  O   UNL     1       1.023 -14.970   9.164  1.00  0.00    -0.550 OA
ENDBRANCH   5   6
ENDBRANCH   4   5
ENDBRANCH   3   4
ENDBRANCH   2   3
ENDBRANCH   1   2
BRANCH   1   9
ATOM      9  C   UNL     1      -5.251 -12.678   7.226  1.00  0.00     0.000 C 
BRANCH   9  10
ATOM     10  C   UNL     1      -5.948 -12.922   5.879  1.00  0.00    -0.000 C 
BRANCH  10  11
ATOM     11  C   UNL     1      -6.992 -14.038   5.995  1.00  0.00    -0.000 C 
BRANCH  11  12
ATOM     12  C   UNL     1      -6.819 -14.821   7.302  1.00  0.00    -0.000 C 
BRANCH  12  13
ATOM     13  C   UNL     1      -6.431 -16.278   7.024  1.00  0.00    -0.003 C 
ATOM     14  C   UNL     1      -4.922 -16.426   6.860  1.00  0.00     0.004 C 
ENDBRANCH  12  13
ENDBRANCH  11  12
ENDBRANCH  10  11
ENDBRANCH   9  10
ENDBRANCH   1   9
TORSDOF 10
ENDMDL
