MODEL 1
REMARK VINA RESULT:    -2.584      0.000      0.000
REMARK INTER + INTRA:          -3.073
REMARK INTER:                  -3.037
REMARK INTRA:                  -0.035
REMARK UNBOUND:                -0.035
REMARK SMILES O=c1c(O)c(-c2ccc(O)cc2)oc2cc(O)cc(O)c12
REMARK SMILES IDX 5 1 3 2 2 3 1 4 21 5 19 6 18 7 16 8 15 9 14 10 13 11 6 12
REMARK SMILES IDX 7 13 8 14 9 15 12 16 11 17 10 18 4 20 20 22 17 24
REMARK H PARENT 10 19 4 21 20 23 17 25
REMARK Flexibility Score: inf
ROOT
ATOM      1  C   UNL     1       3.215  11.295  11.791  1.00  0.00     0.180 A 
ATOM      2  C   UNL     1       1.855  11.575  11.577  1.00  0.00     0.208 A 
ATOM      3  C   UNL     1       1.451  12.911  11.422  1.00  0.00     0.238 A 
ATOM      4  O   UNL     1       0.225  13.160  11.284  1.00  0.00    -0.285 OA
ATOM      5  C   UNL     1       2.415  13.948  11.467  1.00  0.00     0.111 A 
ATOM      6  C   UNL     1       2.123  15.333  11.282  1.00  0.00     0.134 A 
ATOM      7  C   UNL     1       3.133  16.283  11.478  1.00  0.00     0.093 A 
ATOM      8  C   UNL     1       4.437  15.896  11.786  1.00  0.00     0.123 A 
ATOM      9  C   UNL     1       4.746  14.541  11.911  1.00  0.00     0.094 A 
ATOM     10  C   UNL     1       3.751  13.571  11.757  1.00  0.00     0.146 A 
ATOM     11  O   UNL     1       4.085  12.294  11.894  1.00  0.00    -0.452 OA
ENDROOT
BRANCH   1  12
ATOM     12  C   UNL     1       3.721   9.911  11.939  1.00  0.00     0.021 A 
ATOM     13  C   UNL     1       3.222   9.098  12.970  1.00  0.00     0.016 A 
ATOM     14  C   UNL     1       3.703   7.796  13.141  1.00  0.00     0.047 A 
ATOM     15  C   UNL     1       4.700   7.297  12.294  1.00  0.00     0.115 A 
ATOM     16  C   UNL     1       4.737   9.410  11.104  1.00  0.00     0.016 A 
ATOM     17  C   UNL     1       5.217   8.107  11.279  1.00  0.00     0.047 A 
BRANCH  15  18
ATOM     18  O   UNL     1       5.186   6.001  12.455  1.00  0.00    -0.508 OA
ATOM     19  H   UNL     1       5.213   5.346  11.682  1.00  0.00     0.293 HD
ENDBRANCH  15  18
ENDBRANCH   1  12
BRANCH   2  20
ATOM     20  O   UNL     1       0.918  10.539  11.558  1.00  0.00    -0.502 OA
ATOM     21  H   UNL     1       0.993   9.726  12.159  1.00  0.00     0.293 HD
ENDBRANCH   2  20
BRANCH   6  22
ATOM     22  O   UNL     1       0.876  15.822  10.882  1.00  0.00    -0.507 OA
ATOM     23  H   UNL     1       0.016  15.693  11.395  1.00  0.00     0.293 HD
ENDBRANCH   6  22
BRANCH   8  24
ATOM     24  O   UNL     1       5.420  16.868  11.958  1.00  0.00    -0.508 OA
ATOM     25  H   UNL     1       5.977  16.914  12.803  1.00  0.00     0.293 HD
ENDBRANCH   8  24
TORSDOF 5
ENDMDL
MODEL 2
REMARK VINA RESULT:    -2.386      1.714      2.668
REMARK INTER + INTRA:          -2.839
REMARK INTER:                  -3.318
REMARK INTRA:                   0.478
REMARK UNBOUND:                -0.035
REMARK SMILES O=c1c(O)c(-c2ccc(O)cc2)oc2cc(O)cc(O)c12
REMARK SMILES IDX 5 1 3 2 2 3 1 4 21 5 19 6 18 7 16 8 15 9 14 10 13 11 6 12
REMARK SMILES IDX 7 13 8 14 9 15 12 16 11 17 10 18 4 20 20 22 17 24
REMARK H PARENT 10 19 4 21 20 23 17 25
REMARK Flexibility Score: inf
ROOT
ATOM      1  C   UNL     1       4.214   9.346  12.359  1.00  0.00     0.180 A 
ATOM      2  C   UNL     1       2.881   9.185  12.774  1.00  0.00     0.208 A 
ATOM      3  C   UNL     1       2.003  10.277  12.682  1.00  0.00     0.238 A 
ATOM      4  O   UNL     1       0.825  10.143  13.105  1.00  0.00    -0.285 OA
ATOM      5  C   UNL     1       2.466  11.510  12.162  1.00  0.00     0.111 A 
ATOM      6  C   UNL     1       1.652  12.671  11.987  1.00  0.00     0.134 A 
ATOM      7  C   UNL     1       2.245  13.875  11.587  1.00  0.00     0.093 A 
ATOM      8  C   UNL     1       3.607  13.945  11.292  1.00  0.00     0.123 A 
ATOM      9  C   UNL     1       4.400  12.802  11.404  1.00  0.00     0.094 A 
ATOM     10  C   UNL     1       3.844  11.594  11.836  1.00  0.00     0.146 A 
ATOM     11  O   UNL     1       4.634  10.533  11.938  1.00  0.00    -0.452 OA
ENDROOT
BRANCH   1  12
ATOM     12  C   UNL     1       5.193   8.235  12.402  1.00  0.00     0.021 A 
ATOM     13  C   UNL     1       4.734   6.911  12.508  1.00  0.00     0.016 A 
ATOM     14  C   UNL     1       5.642   5.850  12.574  1.00  0.00     0.047 A 
ATOM     15  C   UNL     1       7.020   6.100  12.549  1.00  0.00     0.115 A 
ATOM     16  C   UNL     1       6.579   8.479  12.398  1.00  0.00     0.016 A 
ATOM     17  C   UNL     1       7.484   7.415  12.465  1.00  0.00     0.047 A 
BRANCH  15  18
ATOM     18  O   UNL     1       7.934   5.050  12.613  1.00  0.00    -0.508 OA
ATOM     19  H   UNL     1       8.287   4.604  11.775  1.00  0.00     0.293 HD
ENDBRANCH  15  18
ENDBRANCH   1  12
BRANCH   2  20
ATOM     20  O   UNL     1       2.452   7.966  13.304  1.00  0.00    -0.502 OA
ATOM     21  H   UNL     1       2.553   7.089  12.806  1.00  0.00     0.293 HD
ENDBRANCH   2  20
BRANCH   6  22
ATOM     22  O   UNL     1       0.266  12.687  12.163  1.00  0.00    -0.507 OA
ATOM     23  H   UNL     1      -0.398  12.994  11.467  1.00  0.00     0.293 HD
ENDBRANCH   6  22
BRANCH   8  24
ATOM     24  O   UNL     1       4.160  15.156  10.881  1.00  0.00    -0.508 OA
ATOM     25  H   UNL     1       4.656  15.757  11.528  1.00  0.00     0.293 HD
ENDBRANCH   8  24
TORSDOF 5
ENDMDL
MODEL 3
REMARK VINA RESULT:    -1.472      1.872      7.032
REMARK INTER + INTRA:          -1.766
REMARK INTER:                  -1.583
REMARK INTRA:                  -0.183
REMARK UNBOUND:                -0.035
REMARK SMILES O=c1c(O)c(-c2ccc(O)cc2)oc2cc(O)cc(O)c12
REMARK SMILES IDX 5 1 3 2 2 3 1 4 21 5 19 6 18 7 16 8 15 9 14 10 13 11 6 12
REMARK SMILES IDX 7 13 8 14 9 15 12 16 11 17 10 18 4 20 20 22 17 24
REMARK H PARENT 10 19 4 21 20 23 17 25
REMARK Flexibility Score: inf
ROOT
ATOM      1  C   UNL     1       4.168  10.447  12.452  1.00  0.00     0.180 A 
ATOM      2  C   UNL     1       3.146   9.613  12.937  1.00  0.00     0.208 A 
ATOM      3  C   UNL     1       3.395   8.237  13.068  1.00  0.00     0.238 A 
ATOM      4  O   UNL     1       2.459   7.487  13.451  1.00  0.00    -0.285 OA
ATOM      5  C   UNL     1       4.667   7.716  12.728  1.00  0.00     0.111 A 
ATOM      6  C   UNL     1       5.042   6.345  12.860  1.00  0.00     0.134 A 
ATOM      7  C   UNL     1       6.282   5.918  12.370  1.00  0.00     0.093 A 
ATOM      8  C   UNL     1       7.188   6.823  11.815  1.00  0.00     0.123 A 
ATOM      9  C   UNL     1       6.855   8.176  11.735  1.00  0.00     0.094 A 
ATOM     10  C   UNL     1       5.609   8.625  12.182  1.00  0.00     0.146 A 
ATOM     11  O   UNL     1       5.328   9.918  12.079  1.00  0.00    -0.452 OA
ENDROOT
BRANCH   1  12
ATOM     12  C   UNL     1       3.990  11.910  12.308  1.00  0.00     0.021 A 
ATOM     13  C   UNL     1       4.035  12.491  11.030  1.00  0.00     0.016 A 
ATOM     14  C   UNL     1       3.892  13.873  10.875  1.00  0.00     0.047 A 
ATOM     15  C   UNL     1       3.717  14.693  11.997  1.00  0.00     0.115 A 
ATOM     16  C   UNL     1       3.834  12.743  13.432  1.00  0.00     0.016 A 
ATOM     17  C   UNL     1       3.692  14.125  13.274  1.00  0.00     0.047 A 
BRANCH  15  18
ATOM     18  O   UNL     1       3.572  16.072  11.854  1.00  0.00    -0.508 OA
ATOM     19  H   UNL     1       4.278  16.634  11.392  1.00  0.00     0.293 HD
ENDBRANCH  15  18
ENDBRANCH   1  12
BRANCH   2  20
ATOM     20  O   UNL     1       1.892  10.145  13.245  1.00  0.00    -0.502 OA
ATOM     21  H   UNL     1       1.130  10.167  12.577  1.00  0.00     0.293 HD
ENDBRANCH   2  20
BRANCH   6  22
ATOM     22  O   UNL     1       4.251   5.375  13.483  1.00  0.00    -0.507 OA
ATOM     23  H   UNL     1       4.596   4.498  13.846  1.00  0.00     0.293 HD
ENDBRANCH   6  22
BRANCH   8  24
ATOM     24  O   UNL     1       8.420   6.365  11.353  1.00  0.00    -0.508 OA
ATOM     25  H   UNL     1       9.103   6.999  10.954  1.00  0.00     0.293 HD
ENDBRANCH   8  24
TORSDOF 5
ENDMDL
MODEL 4
REMARK VINA RESULT:    -1.148      2.290      7.089
REMARK INTER + INTRA:          -1.385
REMARK INTER:                  -1.145
REMARK INTRA:                  -0.240
REMARK UNBOUND:                -0.035
REMARK SMILES O=c1c(O)c(-c2ccc(O)cc2)oc2cc(O)cc(O)c12
REMARK SMILES IDX 5 1 3 2 2 3 1 4 21 5 19 6 18 7 16 8 15 9 14 10 13 11 6 12
REMARK SMILES IDX 7 13 8 14 9 15 12 16 11 17 10 18 4 20 20 22 17 24
REMARK H PARENT 10 19 4 21 20 23 17 25
REMARK Flexibility Score: inf
ROOT
ATOM      1  C   UNL     1       4.637  10.104  12.112  1.00  0.00     0.180 A 
ATOM      2  C   UNL     1       3.967   8.922  11.751  1.00  0.00     0.208 A 
ATOM      3  C   UNL     1       4.622   7.691  11.917  1.00  0.00     0.238 A 
ATOM      4  O   UNL     1       4.037   6.641  11.542  1.00  0.00    -0.285 OA
ATOM      5  C   UNL     1       5.930   7.656  12.456  1.00  0.00     0.111 A 
ATOM      6  C   UNL     1       6.672   6.461  12.704  1.00  0.00     0.134 A 
ATOM      7  C   UNL     1       8.007   6.551  13.117  1.00  0.00     0.093 A 
ATOM      8  C   UNL     1       8.607   7.788  13.353  1.00  0.00     0.123 A 
ATOM      9  C   UNL     1       7.872   8.961  13.170  1.00  0.00     0.094 A 
ATOM     10  C   UNL     1       6.549   8.904  12.724  1.00  0.00     0.146 A 
ATOM     11  O   UNL     1       5.889  10.043  12.553  1.00  0.00    -0.452 OA
ENDROOT
BRANCH   1  12
ATOM     12  C   UNL     1       4.005  11.437  11.990  1.00  0.00     0.021 A 
ATOM     13  C   UNL     1       4.446  12.324  10.993  1.00  0.00     0.016 A 
ATOM     14  C   UNL     1       3.878  13.596  10.875  1.00  0.00     0.047 A 
ATOM     15  C   UNL     1       2.873  14.004  11.762  1.00  0.00     0.115 A 
ATOM     16  C   UNL     1       3.009  11.861  12.889  1.00  0.00     0.016 A 
ATOM     17  C   UNL     1       2.444  13.135  12.769  1.00  0.00     0.047 A 
BRANCH  15  18
ATOM     18  O   UNL     1       2.299  15.269  11.653  1.00  0.00    -0.508 OA
ATOM     19  H   UNL     1       2.502  15.876  10.868  1.00  0.00     0.293 HD
ENDBRANCH  15  18
ENDBRANCH   1  12
BRANCH   2  20
ATOM     20  O   UNL     1       2.685   8.982  11.201  1.00  0.00    -0.502 OA
ATOM     21  H   UNL     1       1.852   9.082  11.770  1.00  0.00     0.293 HD
ENDBRANCH   2  20
BRANCH   6  22
ATOM     22  O   UNL     1       6.140   5.174  12.590  1.00  0.00    -0.507 OA
ATOM     23  H   UNL     1       5.879   4.735  11.719  1.00  0.00     0.293 HD
ENDBRANCH   6  22
BRANCH   8  24
ATOM     24  O   UNL     1       9.933   7.839  13.779  1.00  0.00    -0.508 OA
ATOM     25  H   UNL     1      10.508   8.657  13.618  1.00  0.00     0.293 HD
ENDBRANCH   8  24
TORSDOF 5
ENDMDL
MODEL 5
REMARK VINA RESULT:    -0.377      1.398      6.610
REMARK INTER + INTRA:          -0.479
REMARK INTER:                  -0.502
REMARK INTRA:                   0.023
REMARK UNBOUND:                -0.035
REMARK SMILES O=c1c(O)c(-c2ccc(O)cc2)oc2cc(O)cc(O)c12
REMARK SMILES IDX 5 1 3 2 2 3 1 4 21 5 19 6 18 7 16 8 15 9 14 10 13 11 6 12
REMARK SMILES IDX 7 13 8 14 9 15 12 16 11 17 10 18 4 20 20 22 17 24
REMARK H PARENT 10 19 4 21 20 23 17 25
REMARK Flexibility Score: inf
ROOT
ATOM      1  C   UNL     1       3.305  11.696  12.154  1.00  0.00     0.180 A 
ATOM      2  C   UNL     1       2.272  10.940  12.734  1.00  0.00     0.208 A 
ATOM      3  C   UNL     1       2.478   9.570  12.964  1.00  0.00     0.238 A 
ATOM      4  O   UNL     1       1.530   8.888  13.433  1.00  0.00    -0.285 OA
ATOM      5  C   UNL     1       3.718   8.978  12.626  1.00  0.00     0.111 A 
ATOM      6  C   UNL     1       4.049   7.608  12.852  1.00  0.00     0.134 A 
ATOM      7  C   UNL     1       5.257   7.099  12.358  1.00  0.00     0.093 A 
ATOM      8  C   UNL     1       6.174   7.924  11.707  1.00  0.00     0.123 A 
ATOM      9  C   UNL     1       5.886   9.278  11.533  1.00  0.00     0.094 A 
ATOM     10  C   UNL     1       4.672   9.807  11.982  1.00  0.00     0.146 A 
ATOM     11  O   UNL     1       4.433  11.098  11.788  1.00  0.00    -0.452 OA
ENDROOT
BRANCH   1  12
ATOM     12  C   UNL     1       3.173  13.150  11.903  1.00  0.00     0.021 A 
ATOM     13  C   UNL     1       2.090  13.627  11.146  1.00  0.00     0.016 A 
ATOM     14  C   UNL     1       1.960  14.992  10.878  1.00  0.00     0.047 A 
ATOM     15  C   UNL     1       2.919  15.898  11.351  1.00  0.00     0.115 A 
ATOM     16  C   UNL     1       4.143  14.063  12.358  1.00  0.00     0.016 A 
ATOM     17  C   UNL     1       4.010  15.428  12.088  1.00  0.00     0.047 A 
BRANCH  15  18
ATOM     18  O   UNL     1       2.798  17.261  11.092  1.00  0.00    -0.508 OA
ATOM     19  H   UNL     1       2.213  17.859  11.663  1.00  0.00     0.293 HD
ENDBRANCH  15  18
ENDBRANCH   1  12
BRANCH   2  20
ATOM     20  O   UNL     1       1.048  11.541  13.039  1.00  0.00    -0.502 OA
ATOM     21  H   UNL     1       0.796  11.815  13.981  1.00  0.00     0.293 HD
ENDBRANCH   2  20
BRANCH   6  22
ATOM     22  O   UNL     1       3.247   6.719  13.573  1.00  0.00    -0.507 OA
ATOM     23  H   UNL     1       3.583   6.095  14.292  1.00  0.00     0.293 HD
ENDBRANCH   6  22
BRANCH   8  24
ATOM     24  O   UNL     1       7.373   7.387  11.243  1.00  0.00    -0.508 OA
ATOM     25  H   UNL     1       7.631   6.426  11.432  1.00  0.00     0.293 HD
ENDBRANCH   8  24
TORSDOF 5
ENDMDL
