MODEL 1
REMARK VINA RESULT:    -3.697      0.000      0.000
REMARK INTER + INTRA:          -8.864
REMARK INTER:                  -6.723
REMARK INTRA:                  -2.140
REMARK UNBOUND:                -2.140
REMARK SMILES CCCCCCCCCCCCCCCC(=O)[O-]
REMARK SMILES IDX 9 1 10 2 11 3 12 4 13 5 14 6 15 7 16 8 17 9 18 10 8 11 7 12
REMARK SMILES IDX 6 13 5 14 4 15 3 16 2 17 1 18
REMARK H PARENT
REMARK Flexibility Score: inf
ROOT
ATOM      1  C   UNL     1      77.843 -74.228  -2.187  1.00  0.00     0.000 C 
ENDROOT
BRANCH   1   2
ATOM      2  C   UNL     1      78.268 -75.598  -1.639  1.00  0.00     0.000 C 
BRANCH   2   3
ATOM      3  C   UNL     1      77.265 -76.169  -0.622  1.00  0.00     0.000 C 
BRANCH   3   4
ATOM      4  C   UNL     1      75.915 -75.432  -0.647  1.00  0.00     0.000 C 
BRANCH   4   5
ATOM      5  C   UNL     1      74.845 -76.187  -1.452  1.00  0.00     0.000 C 
BRANCH   5   6
ATOM      6  C   UNL     1      73.429 -75.989  -0.889  1.00  0.00     0.006 C 
BRANCH   6   7
ATOM      7  C   UNL     1      73.479 -75.612   0.594  1.00  0.00     0.053 C 
BRANCH   7   8
ATOM      8  C   UNL     1      73.210 -76.809   1.450  1.00  0.00     0.041 C 
ATOM      9  O   UNL     1      73.336 -76.735   2.701  1.00  0.00    -0.550 OA
ATOM     10  O   UNL     1      72.775 -77.995   0.871  1.00  0.00    -0.550 OA
ENDBRANCH   7   8
ENDBRANCH   6   7
ENDBRANCH   5   6
ENDBRANCH   4   5
ENDBRANCH   3   4
ENDBRANCH   2   3
ENDBRANCH   1   2
BRANCH   1  11
ATOM     11  C   UNL     1      77.525 -74.311  -3.685  1.00  0.00     0.000 C 
BRANCH  11  12
ATOM     12  C   UNL     1      76.160 -73.679  -3.995  1.00  0.00    -0.000 C 
BRANCH  12  13
ATOM     13  C   UNL     1      76.196 -72.144  -3.944  1.00  0.00    -0.000 C 
BRANCH  13  14
ATOM     14  C   UNL     1      74.963 -71.546  -3.244  1.00  0.00    -0.000 C 
BRANCH  14  15
ATOM     15  C   UNL     1      74.256 -72.552  -2.319  1.00  0.00    -0.000 C 
BRANCH  15  16
ATOM     16  C   UNL     1      74.164 -72.124  -0.840  1.00  0.00    -0.000 C 
BRANCH  16  17
ATOM     17  C   UNL     1      72.733 -71.936  -0.306  1.00  0.00    -0.003 C 
ATOM     18  C   UNL     1      71.669 -72.524  -1.233  1.00  0.00     0.004 C 
ENDBRANCH  16  17
ENDBRANCH  15  16
ENDBRANCH  14  15
ENDBRANCH  13  14
ENDBRANCH  12  13
ENDBRANCH  11  12
ENDBRANCH   1  11
TORSDOF 14
ENDMDL
MODEL 2
REMARK VINA RESULT:    -3.648      2.473      4.650
REMARK INTER + INTRA:          -8.774
REMARK INTER:                  -6.358
REMARK INTRA:                  -2.415
REMARK UNBOUND:                -2.140
REMARK SMILES CCCCCCCCCCCCCCCC(=O)[O-]
REMARK SMILES IDX 9 1 10 2 11 3 12 4 13 5 14 6 15 7 16 8 17 9 18 10 8 11 7 12
REMARK SMILES IDX 6 13 5 14 4 15 3 16 2 17 1 18
REMARK H PARENT
REMARK Flexibility Score: inf
ROOT
ATOM      1  C   UNL     1      75.277 -73.266  -4.104  1.00  0.00     0.000 C 
ENDROOT
BRANCH   1   2
ATOM      2  C   UNL     1      76.551 -72.457  -3.815  1.00  0.00     0.000 C 
BRANCH   2   3
ATOM      3  C   UNL     1      77.771 -73.350  -3.536  1.00  0.00     0.000 C 
BRANCH   3   4
ATOM      4  C   UNL     1      77.380 -74.729  -2.978  1.00  0.00     0.000 C 
BRANCH   4   5
ATOM      5  C   UNL     1      78.326 -75.205  -1.864  1.00  0.00     0.000 C 
BRANCH   5   6
ATOM      6  C   UNL     1      77.827 -76.479  -1.165  1.00  0.00     0.006 C 
BRANCH   6   7
ATOM      7  C   UNL     1      78.702 -77.681  -1.533  1.00  0.00     0.053 C 
BRANCH   7   8
ATOM      8  C   UNL     1      77.940 -78.643  -2.389  1.00  0.00     0.041 C 
ATOM      9  O   UNL     1      77.326 -79.609  -1.864  1.00  0.00    -0.550 OA
ATOM     10  O   UNL     1      77.867 -78.445  -3.762  1.00  0.00    -0.550 OA
ENDBRANCH   7   8
ENDBRANCH   6   7
ENDBRANCH   5   6
ENDBRANCH   4   5
ENDBRANCH   3   4
ENDBRANCH   2   3
ENDBRANCH   1   2
BRANCH   1  11
ATOM     11  C   UNL     1      74.066 -72.654  -3.390  1.00  0.00     0.000 C 
BRANCH  11  12
ATOM     12  C   UNL     1      74.508 -71.729  -2.246  1.00  0.00    -0.000 C 
BRANCH  12  13
ATOM     13  C   UNL     1      74.133 -72.282  -0.863  1.00  0.00    -0.000 C 
BRANCH  13  14
ATOM     14  C   UNL     1      74.903 -73.568  -0.512  1.00  0.00    -0.000 C 
BRANCH  14  15
ATOM     15  C   UNL     1      73.977 -74.782  -0.317  1.00  0.00    -0.000 C 
BRANCH  15  16
ATOM     16  C   UNL     1      74.416 -76.060  -1.059  1.00  0.00    -0.000 C 
BRANCH  16  17
ATOM     17  C   UNL     1      73.786 -76.252  -2.451  1.00  0.00    -0.003 C 
ATOM     18  C   UNL     1      74.574 -77.219  -3.334  1.00  0.00     0.004 C 
ENDBRANCH  16  17
ENDBRANCH  15  16
ENDBRANCH  14  15
ENDBRANCH  13  14
ENDBRANCH  12  13
ENDBRANCH  11  12
ENDBRANCH   1  11
TORSDOF 14
ENDMDL
MODEL 3
REMARK VINA RESULT:    -3.636      2.364      4.718
REMARK INTER + INTRA:          -8.752
REMARK INTER:                  -6.694
REMARK INTRA:                  -2.058
REMARK UNBOUND:                -2.140
REMARK SMILES CCCCCCCCCCCCCCCC(=O)[O-]
REMARK SMILES IDX 9 1 10 2 11 3 12 4 13 5 14 6 15 7 16 8 17 9 18 10 8 11 7 12
REMARK SMILES IDX 6 13 5 14 4 15 3 16 2 17 1 18
REMARK H PARENT
REMARK Flexibility Score: inf
ROOT
ATOM      1  C   UNL     1      77.534 -73.996  -2.242  1.00  0.00     0.000 C 
ENDROOT
BRANCH   1   2
ATOM      2  C   UNL     1      77.352 -73.821  -3.757  1.00  0.00     0.000 C 
BRANCH   2   3
ATOM      3  C   UNL     1      76.014 -73.158  -4.122  1.00  0.00     0.000 C 
BRANCH   3   4
ATOM      4  C   UNL     1      74.800 -74.004  -3.701  1.00  0.00     0.000 C 
BRANCH   4   5
ATOM      5  C   UNL     1      73.768 -73.197  -2.897  1.00  0.00     0.000 C 
BRANCH   5   6
ATOM      6  C   UNL     1      74.393 -72.010  -2.149  1.00  0.00     0.006 C 
BRANCH   6   7
ATOM      7  C   UNL     1      74.195 -72.152  -0.637  1.00  0.00     0.053 C 
BRANCH   7   8
ATOM      8  C   UNL     1      73.294 -71.074  -0.122  1.00  0.00     0.041 C 
ATOM      9  O   UNL     1      72.054 -71.277  -0.028  1.00  0.00    -0.550 OA
ATOM     10  O   UNL     1      73.827 -69.862   0.296  1.00  0.00    -0.550 OA
ENDBRANCH   7   8
ENDBRANCH   6   7
ENDBRANCH   5   6
ENDBRANCH   4   5
ENDBRANCH   3   4
ENDBRANCH   2   3
ENDBRANCH   1   2
BRANCH   1  11
ATOM     11  C   UNL     1      78.289 -75.292  -1.927  1.00  0.00     0.000 C 
BRANCH  11  12
ATOM     12  C   UNL     1      77.627 -76.048  -0.765  1.00  0.00    -0.000 C 
BRANCH  12  13
ATOM     13  C   UNL     1      76.193 -75.570  -0.491  1.00  0.00    -0.000 C 
BRANCH  13  14
ATOM     14  C   UNL     1      75.135 -76.601  -0.921  1.00  0.00    -0.000 C 
BRANCH  14  15
ATOM     15  C   UNL     1      73.696 -76.072  -0.778  1.00  0.00    -0.000 C 
BRANCH  15  16
ATOM     16  C   UNL     1      73.311 -75.607   0.640  1.00  0.00    -0.000 C 
BRANCH  16  17
ATOM     17  C   UNL     1      73.167 -76.736   1.677  1.00  0.00    -0.003 C 
ATOM     18  C   UNL     1      72.372 -77.930   1.151  1.00  0.00     0.004 C 
ENDBRANCH  16  17
ENDBRANCH  15  16
ENDBRANCH  14  15
ENDBRANCH  13  14
ENDBRANCH  12  13
ENDBRANCH  11  12
ENDBRANCH   1  11
TORSDOF 14
ENDMDL
MODEL 4
REMARK VINA RESULT:    -3.629      2.671      5.081
REMARK INTER + INTRA:          -8.739
REMARK INTER:                  -6.440
REMARK INTRA:                  -2.299
REMARK UNBOUND:                -2.140
REMARK SMILES CCCCCCCCCCCCCCCC(=O)[O-]
REMARK SMILES IDX 9 1 10 2 11 3 12 4 13 5 14 6 15 7 16 8 17 9 18 10 8 11 7 12
REMARK SMILES IDX 6 13 5 14 4 15 3 16 2 17 1 18
REMARK H PARENT
REMARK Flexibility Score: inf
ROOT
ATOM      1  C   UNL     1      77.498 -74.252  -3.711  1.00  0.00     0.000 C 
ENDROOT
BRANCH   1   2
ATOM      2  C   UNL     1      76.176 -73.541  -4.036  1.00  0.00     0.000 C 
BRANCH   2   3
ATOM      3  C   UNL     1      74.968 -74.493  -4.010  1.00  0.00     0.000 C 
BRANCH   3   4
ATOM      4  C   UNL     1      73.898 -74.063  -2.992  1.00  0.00     0.000 C 
BRANCH   4   5
ATOM      5  C   UNL     1      74.256 -74.470  -1.553  1.00  0.00     0.000 C 
BRANCH   5   6
ATOM      6  C   UNL     1      74.631 -73.268  -0.672  1.00  0.00     0.006 C 
BRANCH   6   7
ATOM      7  C   UNL     1      74.100 -71.963  -1.274  1.00  0.00     0.053 C 
BRANCH   7   8
ATOM      8  C   UNL     1      73.495 -71.103  -0.210  1.00  0.00     0.041 C 
ATOM      9  O   UNL     1      74.117 -70.095   0.219  1.00  0.00    -0.550 OA
ATOM     10  O   UNL     1      72.225 -71.386   0.276  1.00  0.00    -0.550 OA
ENDBRANCH   7   8
ENDBRANCH   6   7
ENDBRANCH   5   6
ENDBRANCH   4   5
ENDBRANCH   3   4
ENDBRANCH   2   3
ENDBRANCH   1   2
BRANCH   1  11
ATOM     11  C   UNL     1      77.883 -74.050  -2.241  1.00  0.00     0.000 C 
BRANCH  11  12
ATOM     12  C   UNL     1      78.529 -75.318  -1.660  1.00  0.00    -0.000 C 
BRANCH  12  13
ATOM     13  C   UNL     1      77.566 -76.114  -0.767  1.00  0.00    -0.000 C 
BRANCH  13  14
ATOM     14  C   UNL     1      77.680 -77.633  -0.981  1.00  0.00    -0.000 C 
BRANCH  14  15
ATOM     15  C   UNL     1      77.429 -78.049  -2.441  1.00  0.00    -0.000 C 
BRANCH  15  16
ATOM     16  C   UNL     1      76.023 -77.717  -2.981  1.00  0.00    -0.000 C 
BRANCH  16  17
ATOM     17  C   UNL     1      74.862 -78.083  -2.039  1.00  0.00    -0.003 C 
ATOM     18  C   UNL     1      73.533 -78.259  -2.772  1.00  0.00     0.004 C 
ENDBRANCH  16  17
ENDBRANCH  15  16
ENDBRANCH  14  15
ENDBRANCH  13  14
ENDBRANCH  12  13
ENDBRANCH  11  12
ENDBRANCH   1  11
TORSDOF 14
ENDMDL
MODEL 5
REMARK VINA RESULT:    -3.620      2.744      5.379
REMARK INTER + INTRA:          -8.722
REMARK INTER:                  -6.151
REMARK INTRA:                  -2.571
REMARK UNBOUND:                -2.140
REMARK SMILES CCCCCCCCCCCCCCCC(=O)[O-]
REMARK SMILES IDX 9 1 10 2 11 3 12 4 13 5 14 6 15 7 16 8 17 9 18 10 8 11 7 12
REMARK SMILES IDX 6 13 5 14 4 15 3 16 2 17 1 18
REMARK H PARENT
REMARK Flexibility Score: inf
ROOT
ATOM      1  C   UNL     1      77.164 -76.250  -0.438  1.00  0.00     0.000 C 
ENDROOT
BRANCH   1   2
ATOM      2  C   UNL     1      76.837 -74.966  -1.215  1.00  0.00     0.000 C 
BRANCH   2   3
ATOM      3  C   UNL     1      77.848 -74.679  -2.339  1.00  0.00     0.000 C 
BRANCH   3   4
ATOM      4  C   UNL     1      77.174 -74.164  -3.622  1.00  0.00     0.000 C 
BRANCH   4   5
ATOM      5  C   UNL     1      77.100 -72.630  -3.676  1.00  0.00     0.000 C 
BRANCH   5   6
ATOM      6  C   UNL     1      75.683 -72.113  -3.970  1.00  0.00     0.006 C 
BRANCH   6   7
ATOM      7  C   UNL     1      74.637 -73.195  -3.684  1.00  0.00     0.053 C 
BRANCH   7   8
ATOM      8  C   UNL     1      73.939 -72.920  -2.390  1.00  0.00     0.041 C 
ATOM      9  O   UNL     1      73.226 -73.810  -1.854  1.00  0.00    -0.550 OA
ATOM     10  O   UNL     1      74.111 -71.699  -1.751  1.00  0.00    -0.550 OA
ENDBRANCH   7   8
ENDBRANCH   6   7
ENDBRANCH   5   6
ENDBRANCH   4   5
ENDBRANCH   3   4
ENDBRANCH   2   3
ENDBRANCH   1   2
BRANCH   1  11
ATOM     11  C   UNL     1      78.264 -77.053  -1.142  1.00  0.00     0.000 C 
BRANCH  11  12
ATOM     12  C   UNL     1      77.972 -78.560  -1.082  1.00  0.00    -0.000 C 
BRANCH  12  13
ATOM     13  C   UNL     1      77.958 -79.214  -2.472  1.00  0.00    -0.000 C 
BRANCH  13  14
ATOM     14  C   UNL     1      77.420 -78.272  -3.563  1.00  0.00    -0.000 C 
BRANCH  14  15
ATOM     15  C   UNL     1      75.908 -78.436  -3.800  1.00  0.00    -0.000 C 
BRANCH  15  16
ATOM     16  C   UNL     1      75.069 -77.167  -3.554  1.00  0.00    -0.000 C 
BRANCH  16  17
ATOM     17  C   UNL     1      74.097 -77.251  -2.363  1.00  0.00    -0.003 C 
ATOM     18  C   UNL     1      74.269 -78.529  -1.543  1.00  0.00     0.004 C 
ENDBRANCH  16  17
ENDBRANCH  15  16
ENDBRANCH  14  15
ENDBRANCH  13  14
ENDBRANCH  12  13
ENDBRANCH  11  12
ENDBRANCH   1  11
TORSDOF 14
ENDMDL
MODEL 6
REMARK VINA RESULT:    -3.606      2.948      5.808
REMARK INTER + INTRA:          -8.698
REMARK INTER:                  -6.344
REMARK INTRA:                  -2.353
REMARK UNBOUND:                -2.140
REMARK SMILES CCCCCCCCCCCCCCCC(=O)[O-]
REMARK SMILES IDX 9 1 10 2 11 3 12 4 13 5 14 6 15 7 16 8 17 9 18 10 8 11 7 12
REMARK SMILES IDX 6 13 5 14 4 15 3 16 2 17 1 18
REMARK H PARENT
REMARK Flexibility Score: inf
ROOT
ATOM      1  C   UNL     1      76.837 -75.127  -1.143  1.00  0.00     0.000 C 
ENDROOT
BRANCH   1   2
ATOM      2  C   UNL     1      77.189 -74.860  -2.614  1.00  0.00     0.000 C 
BRANCH   2   3
ATOM      3  C   UNL     1      77.282 -73.359  -2.939  1.00  0.00     0.000 C 
BRANCH   3   4
ATOM      4  C   UNL     1      76.146 -72.883  -3.860  1.00  0.00     0.000 C 
BRANCH   4   5
ATOM      5  C   UNL     1      75.174 -71.925  -3.152  1.00  0.00     0.000 C 
BRANCH   5   6
ATOM      6  C   UNL     1      74.092 -72.663  -2.349  1.00  0.00     0.006 C 
BRANCH   6   7
ATOM      7  C   UNL     1      74.275 -72.431  -0.846  1.00  0.00     0.053 C 
BRANCH   7   8
ATOM      8  C   UNL     1      73.464 -71.258  -0.394  1.00  0.00     0.041 C 
ATOM      9  O   UNL     1      72.207 -71.333  -0.359  1.00  0.00    -0.550 OA
ATOM     10  O   UNL     1      74.096 -70.097   0.034  1.00  0.00    -0.550 OA
ENDBRANCH   7   8
ENDBRANCH   6   7
ENDBRANCH   5   6
ENDBRANCH   4   5
ENDBRANCH   3   4
ENDBRANCH   2   3
ENDBRANCH   1   2
BRANCH   1  11
ATOM     11  C   UNL     1      75.569 -75.981  -1.029  1.00  0.00     0.000 C 
BRANCH  11  12
ATOM     12  C   UNL     1      75.010 -76.326  -2.418  1.00  0.00    -0.000 C 
BRANCH  12  13
ATOM     13  C   UNL     1      74.798 -77.836  -2.610  1.00  0.00    -0.000 C 
BRANCH  13  14
ATOM     14  C   UNL     1      75.678 -78.419  -3.729  1.00  0.00    -0.000 C 
BRANCH  14  15
ATOM     15  C   UNL     1      76.820 -79.300  -3.191  1.00  0.00    -0.000 C 
BRANCH  15  16
ATOM     16  C   UNL     1      76.901 -79.395  -1.654  1.00  0.00    -0.000 C 
BRANCH  16  17
ATOM     17  C   UNL     1      78.158 -78.764  -1.029  1.00  0.00    -0.003 C 
ATOM     18  C   UNL     1      79.051 -78.071  -2.058  1.00  0.00     0.004 C 
ENDBRANCH  16  17
ENDBRANCH  15  16
ENDBRANCH  14  15
ENDBRANCH  13  14
ENDBRANCH  12  13
ENDBRANCH  11  12
ENDBRANCH   1  11
TORSDOF 14
ENDMDL
MODEL 7
REMARK VINA RESULT:    -3.596      2.673      5.146
REMARK INTER + INTRA:          -8.679
REMARK INTER:                  -6.194
REMARK INTRA:                  -2.485
REMARK UNBOUND:                -2.140
REMARK SMILES CCCCCCCCCCCCCCCC(=O)[O-]
REMARK SMILES IDX 9 1 10 2 11 3 12 4 13 5 14 6 15 7 16 8 17 9 18 10 8 11 7 12
REMARK SMILES IDX 6 13 5 14 4 15 3 16 2 17 1 18
REMARK H PARENT
REMARK Flexibility Score: inf
ROOT
ATOM      1  C   UNL     1      77.084 -75.039  -1.156  1.00  0.00     0.000 C 
ENDROOT
BRANCH   1   2
ATOM      2  C   UNL     1      78.115 -75.029  -2.295  1.00  0.00     0.000 C 
BRANCH   2   3
ATOM      3  C   UNL     1      77.549 -74.451  -3.603  1.00  0.00     0.000 C 
BRANCH   3   4
ATOM      4  C   UNL     1      77.059 -73.001  -3.445  1.00  0.00     0.000 C 
BRANCH   4   5
ATOM      5  C   UNL     1      75.580 -72.832  -3.832  1.00  0.00     0.000 C 
BRANCH   5   6
ATOM      6  C   UNL     1      74.838 -71.842  -2.923  1.00  0.00     0.006 C 
BRANCH   6   7
ATOM      7  C   UNL     1      74.477 -72.494  -1.584  1.00  0.00     0.053 C 
BRANCH   7   8
ATOM      8  C   UNL     1      73.037 -72.256  -1.256  1.00  0.00     0.041 C 
ATOM      9  O   UNL     1      72.704 -71.272  -0.544  1.00  0.00    -0.550 OA
ATOM     10  O   UNL     1      72.057 -73.094  -1.773  1.00  0.00    -0.550 OA
ENDBRANCH   7   8
ENDBRANCH   6   7
ENDBRANCH   5   6
ENDBRANCH   4   5
ENDBRANCH   3   4
ENDBRANCH   2   3
ENDBRANCH   1   2
BRANCH   1  11
ATOM     11  C   UNL     1      77.118 -76.371  -0.399  1.00  0.00     0.000 C 
BRANCH  11  12
ATOM     12  C   UNL     1      78.002 -77.397  -1.125  1.00  0.00    -0.000 C 
BRANCH  12  13
ATOM     13  C   UNL     1      77.283 -78.734  -1.358  1.00  0.00    -0.000 C 
BRANCH  13  14
ATOM     14  C   UNL     1      77.269 -79.147  -2.840  1.00  0.00    -0.000 C 
BRANCH  14  15
ATOM     15  C   UNL     1      76.623 -78.087  -3.749  1.00  0.00    -0.000 C 
BRANCH  15  16
ATOM     16  C   UNL     1      75.094 -77.952  -3.607  1.00  0.00    -0.000 C 
BRANCH  16  17
ATOM     17  C   UNL     1      74.570 -76.505  -3.572  1.00  0.00    -0.003 C 
ATOM     18  C   UNL     1      73.834 -76.169  -2.276  1.00  0.00     0.004 C 
ENDBRANCH  16  17
ENDBRANCH  15  16
ENDBRANCH  14  15
ENDBRANCH  13  14
ENDBRANCH  12  13
ENDBRANCH  11  12
ENDBRANCH   1  11
TORSDOF 14
ENDMDL
MODEL 8
REMARK VINA RESULT:    -3.567      2.698      5.206
REMARK INTER + INTRA:          -8.626
REMARK INTER:                  -6.841
REMARK INTRA:                  -1.785
REMARK UNBOUND:                -2.140
REMARK SMILES CCCCCCCCCCCCCCCC(=O)[O-]
REMARK SMILES IDX 9 1 10 2 11 3 12 4 13 5 14 6 15 7 16 8 17 9 18 10 8 11 7 12
REMARK SMILES IDX 6 13 5 14 4 15 3 16 2 17 1 18
REMARK H PARENT
REMARK Flexibility Score: inf
ROOT
ATOM      1  C   UNL     1      76.746 -72.531  -3.683  1.00  0.00     0.000 C 
ENDROOT
BRANCH   1   2
ATOM      2  C   UNL     1      75.221 -72.348  -3.633  1.00  0.00     0.000 C 
BRANCH   2   3
ATOM      3  C   UNL     1      74.483 -73.631  -3.213  1.00  0.00     0.000 C 
BRANCH   3   4
ATOM      4  C   UNL     1      73.728 -73.469  -1.883  1.00  0.00     0.000 C 
BRANCH   4   5
ATOM      5  C   UNL     1      74.185 -72.233  -1.091  1.00  0.00     0.000 C 
BRANCH   5   6
ATOM      6  C   UNL     1      73.010 -71.418  -0.531  1.00  0.00     0.006 C 
BRANCH   6   7
ATOM      7  C   UNL     1      73.512 -70.269   0.350  1.00  0.00     0.053 C 
BRANCH   7   8
ATOM      8  C   UNL     1      72.494 -69.921   1.389  1.00  0.00     0.041 C 
ATOM      9  O   UNL     1      71.715 -70.806   1.834  1.00  0.00    -0.550 OA
ATOM     10  O   UNL     1      72.434 -68.631   1.901  1.00  0.00    -0.550 OA
ENDBRANCH   7   8
ENDBRANCH   6   7
ENDBRANCH   5   6
ENDBRANCH   4   5
ENDBRANCH   3   4
ENDBRANCH   2   3
ENDBRANCH   1   2
BRANCH   1  11
ATOM     11  C   UNL     1      77.126 -74.009  -3.541  1.00  0.00     0.000 C 
BRANCH  11  12
ATOM     12  C   UNL     1      77.945 -74.248  -2.263  1.00  0.00    -0.000 C 
BRANCH  12  13
ATOM     13  C   UNL     1      78.256 -75.734  -2.032  1.00  0.00    -0.000 C 
BRANCH  13  14
ATOM     14  C   UNL     1      77.623 -76.277  -0.739  1.00  0.00    -0.000 C 
BRANCH  14  15
ATOM     15  C   UNL     1      76.173 -75.802  -0.540  1.00  0.00    -0.000 C 
BRANCH  15  16
ATOM     16  C   UNL     1      75.097 -76.882  -0.769  1.00  0.00    -0.000 C 
BRANCH  16  17
ATOM     17  C   UNL     1      75.351 -77.807  -1.973  1.00  0.00    -0.003 C 
ATOM     18  C   UNL     1      75.025 -77.146  -3.312  1.00  0.00     0.004 C 
ENDBRANCH  16  17
ENDBRANCH  15  16
ENDBRANCH  14  15
ENDBRANCH  13  14
ENDBRANCH  12  13
ENDBRANCH  11  12
ENDBRANCH   1  11
TORSDOF 14
ENDMDL
MODEL 9
REMARK VINA RESULT:    -3.513      2.029      4.317
REMARK INTER + INTRA:          -8.528
REMARK INTER:                  -5.953
REMARK INTRA:                  -2.575
REMARK UNBOUND:                -2.140
REMARK SMILES CCCCCCCCCCCCCCCC(=O)[O-]
REMARK SMILES IDX 9 1 10 2 11 3 12 4 13 5 14 6 15 7 16 8 17 9 18 10 8 11 7 12
REMARK SMILES IDX 6 13 5 14 4 15 3 16 2 17 1 18
REMARK H PARENT
REMARK Flexibility Score: inf
ROOT
ATOM      1  C   UNL     1      77.512 -74.371  -3.784  1.00  0.00     0.000 C 
ENDROOT
BRANCH   1   2
ATOM      2  C   UNL     1      76.099 -73.860  -4.100  1.00  0.00     0.000 C 
BRANCH   2   3
ATOM      3  C   UNL     1      75.972 -72.334  -3.951  1.00  0.00     0.000 C 
BRANCH   3   4
ATOM      4  C   UNL     1      74.954 -71.928  -2.872  1.00  0.00     0.000 C 
BRANCH   4   5
ATOM      5  C   UNL     1      74.145 -73.123  -2.343  1.00  0.00     0.000 C 
BRANCH   5   6
ATOM      6  C   UNL     1      74.299 -73.321  -0.828  1.00  0.00     0.006 C 
BRANCH   6   7
ATOM      7  C   UNL     1      73.399 -74.457  -0.331  1.00  0.00     0.053 C 
BRANCH   7   8
ATOM      8  C   UNL     1      71.982 -73.990  -0.217  1.00  0.00     0.041 C 
ATOM      9  O   UNL     1      71.654 -73.177   0.687  1.00  0.00    -0.550 OA
ATOM     10  O   UNL     1      71.032 -74.417  -1.137  1.00  0.00    -0.550 OA
ENDBRANCH   7   8
ENDBRANCH   6   7
ENDBRANCH   5   6
ENDBRANCH   4   5
ENDBRANCH   3   4
ENDBRANCH   2   3
ENDBRANCH   1   2
BRANCH   1  11
ATOM     11  C   UNL     1      77.825 -74.229  -2.290  1.00  0.00     0.000 C 
BRANCH  11  12
ATOM     12  C   UNL     1      78.178 -75.590  -1.669  1.00  0.00    -0.000 C 
BRANCH  12  13
ATOM     13  C   UNL     1      77.199 -76.004  -0.561  1.00  0.00    -0.000 C 
BRANCH  13  14
ATOM     14  C   UNL     1      75.987 -76.782  -1.103  1.00  0.00    -0.000 C 
BRANCH  14  15
ATOM     15  C   UNL     1      76.318 -77.594  -2.367  1.00  0.00    -0.000 C 
BRANCH  15  16
ATOM     16  C   UNL     1      75.266 -77.506  -3.491  1.00  0.00    -0.000 C 
BRANCH  16  17
ATOM     17  C   UNL     1      73.881 -77.000  -3.047  1.00  0.00    -0.003 C 
ATOM     18  C   UNL     1      73.173 -76.180  -4.125  1.00  0.00     0.004 C 
ENDBRANCH  16  17
ENDBRANCH  15  16
ENDBRANCH  14  15
ENDBRANCH  13  14
ENDBRANCH  12  13
ENDBRANCH  11  12
ENDBRANCH   1  11
TORSDOF 14
ENDMDL
