MODEL 1
REMARK VINA RESULT:     5.040      0.000      0.000
REMARK INTER + INTRA:          10.709
REMARK INTER:                  11.522
REMARK INTRA:                  -0.812
REMARK UNBOUND:                -0.812
REMARK SMILES CCCCCCCCCCCCCCCCCCCCCCCC(=O)[O-]
REMARK SMILES IDX 13 1 14 2 15 3 16 4 17 5 18 6 19 7 20 8 21 9 22 10 23 11
REMARK SMILES IDX 24 12 25 13 26 14 12 15 11 16 10 17 9 18 8 19 7 20 6 21 5 22
REMARK SMILES IDX 4 23 3 24 2 25 1 26
REMARK H PARENT
REMARK Flexibility Score: inf
ROOT
ATOM      1  C   UNL     1      -5.228  37.529  21.306  1.00  0.00     0.000 C 
ENDROOT
BRANCH   1   2
ATOM      2  C   UNL     1      -6.024  36.229  21.495  1.00  0.00     0.000 C 
BRANCH   2   3
ATOM      3  C   UNL     1      -5.195  35.128  22.179  1.00  0.00     0.000 C 
BRANCH   3   4
ATOM      4  C   UNL     1      -4.078  34.580  21.273  1.00  0.00     0.000 C 
BRANCH   4   5
ATOM      5  C   UNL     1      -4.225  35.039  19.814  1.00  0.00     0.000 C 
BRANCH   5   6
ATOM      6  C   UNL     1      -5.131  34.104  18.992  1.00  0.00     0.000 C 
BRANCH   6   7
ATOM      7  C   UNL     1      -4.861  34.189  17.480  1.00  0.00     0.000 C 
BRANCH   7   8
ATOM      8  C   UNL     1      -3.978  35.375  17.043  1.00  0.00     0.000 C 
BRANCH   8   9
ATOM      9  C   UNL     1      -2.955  35.052  15.938  1.00  0.00     0.000 C 
BRANCH   9  10
ATOM     10  C   UNL     1      -2.303  36.308  15.342  1.00  0.00     0.006 C 
BRANCH  10  11
ATOM     11  C   UNL     1      -2.876  36.618  13.955  1.00  0.00     0.053 C 
BRANCH  11  12
ATOM     12  C   UNL     1      -4.133  37.423  14.071  1.00  0.00     0.041 C 
ATOM     13  O   UNL     1      -5.255  36.869  13.933  1.00  0.00    -0.550 OA
ATOM     14  O   UNL     1      -4.065  38.781  14.361  1.00  0.00    -0.550 OA
ENDBRANCH  11  12
ENDBRANCH  10  11
ENDBRANCH   9  10
ENDBRANCH   8   9
ENDBRANCH   7   8
ENDBRANCH   6   7
ENDBRANCH   5   6
ENDBRANCH   4   5
ENDBRANCH   3   4
ENDBRANCH   2   3
ENDBRANCH   1   2
BRANCH   1  15
ATOM     15  C   UNL     1      -5.879  38.430  20.246  1.00  0.00     0.000 C 
BRANCH  15  16
ATOM     16  C   UNL     1      -6.065  39.876  20.734  1.00  0.00     0.000 C 
BRANCH  16  17
ATOM     17  C   UNL     1      -5.266  40.177  22.013  1.00  0.00     0.000 C 
BRANCH  17  18
ATOM     18  C   UNL     1      -6.077  39.824  23.264  1.00  0.00    -0.000 C 
BRANCH  18  19
ATOM     19  C   UNL     1      -5.279  38.893  24.190  1.00  0.00    -0.000 C 
BRANCH  19  20
ATOM     20  C   UNL     1      -6.094  37.675  24.652  1.00  0.00    -0.000 C 
BRANCH  20  21
ATOM     21  C   UNL     1      -5.409  36.900  25.792  1.00  0.00    -0.000 C 
BRANCH  21  22
ATOM     22  C   UNL     1      -3.879  37.064  25.784  1.00  0.00    -0.000 C 
BRANCH  22  23
ATOM     23  C   UNL     1      -3.310  37.926  26.930  1.00  0.00    -0.000 C 
BRANCH  23  24
ATOM     24  C   UNL     1      -2.025  37.382  27.575  1.00  0.00    -0.000 C 
BRANCH  24  25
ATOM     25  C   UNL     1      -1.836  35.876  27.348  1.00  0.00    -0.003 C 
ATOM     26  C   UNL     1      -1.856  35.114  28.668  1.00  0.00     0.004 C 
ENDBRANCH  24  25
ENDBRANCH  23  24
ENDBRANCH  22  23
ENDBRANCH  21  22
ENDBRANCH  20  21
ENDBRANCH  19  20
ENDBRANCH  18  19
ENDBRANCH  17  18
ENDBRANCH  16  17
ENDBRANCH  15  16
ENDBRANCH   1  15
TORSDOF 22
ENDMDL
MODEL 2
REMARK VINA RESULT:     5.136      2.234      8.708
REMARK INTER + INTRA:          10.930
REMARK INTER:                  11.083
REMARK INTRA:                  -0.153
REMARK UNBOUND:                -0.812
REMARK SMILES CCCCCCCCCCCCCCCCCCCCCCCC(=O)[O-]
REMARK SMILES IDX 13 1 14 2 15 3 16 4 17 5 18 6 19 7 20 8 21 9 22 10 23 11
REMARK SMILES IDX 24 12 25 13 26 14 12 15 11 16 10 17 9 18 8 19 7 20 6 21 5 22
REMARK SMILES IDX 4 23 3 24 2 25 1 26
REMARK H PARENT
REMARK Flexibility Score: inf
ROOT
ATOM      1  C   UNL     1      -5.397  34.570  23.404  1.00  0.00     0.000 C 
ENDROOT
BRANCH   1   2
ATOM      2  C   UNL     1      -6.080  34.116  24.703  1.00  0.00     0.000 C 
BRANCH   2   3
ATOM      3  C   UNL     1      -5.893  35.126  25.848  1.00  0.00     0.000 C 
BRANCH   3   4
ATOM      4  C   UNL     1      -6.123  36.580  25.398  1.00  0.00     0.000 C 
BRANCH   4   5
ATOM      5  C   UNL     1      -5.762  37.598  26.491  1.00  0.00     0.000 C 
BRANCH   5   6
ATOM      6  C   UNL     1      -4.274  37.991  26.460  1.00  0.00     0.000 C 
BRANCH   6   7
ATOM      7  C   UNL     1      -3.897  38.804  25.211  1.00  0.00     0.000 C 
BRANCH   7   8
ATOM      8  C   UNL     1      -5.088  39.440  24.465  1.00  0.00     0.000 C 
BRANCH   8   9
ATOM      9  C   UNL     1      -4.763  39.981  23.061  1.00  0.00     0.000 C 
BRANCH   9  10
ATOM     10  C   UNL     1      -6.018  40.235  22.214  1.00  0.00     0.006 C 
BRANCH  10  11
ATOM     11  C   UNL     1      -5.752  39.938  20.735  1.00  0.00     0.053 C 
BRANCH  11  12
ATOM     12  C   UNL     1      -5.796  38.464  20.476  1.00  0.00     0.041 C 
ATOM     13  O   UNL     1      -5.767  38.026  19.296  1.00  0.00    -0.550 OA
ATOM     14  O   UNL     1      -5.841  37.572  21.541  1.00  0.00    -0.550 OA
ENDBRANCH  11  12
ENDBRANCH  10  11
ENDBRANCH   9  10
ENDBRANCH   8   9
ENDBRANCH   7   8
ENDBRANCH   6   7
ENDBRANCH   5   6
ENDBRANCH   4   5
ENDBRANCH   3   4
ENDBRANCH   2   3
ENDBRANCH   1   2
BRANCH   1  15
ATOM     15  C   UNL     1      -6.079  33.953  22.173  1.00  0.00     0.000 C 
BRANCH  15  16
ATOM     16  C   UNL     1      -6.106  34.913  20.971  1.00  0.00     0.000 C 
BRANCH  16  17
ATOM     17  C   UNL     1      -4.814  34.860  20.140  1.00  0.00     0.000 C 
BRANCH  17  18
ATOM     18  C   UNL     1      -5.117  34.990  18.644  1.00  0.00    -0.000 C 
BRANCH  18  19
ATOM     19  C   UNL     1      -4.165  34.116  17.813  1.00  0.00    -0.000 C 
BRANCH  19  20
ATOM     20  C   UNL     1      -3.174  34.943  16.982  1.00  0.00    -0.000 C 
BRANCH  20  21
ATOM     21  C   UNL     1      -3.793  35.478  15.678  1.00  0.00    -0.000 C 
BRANCH  21  22
ATOM     22  C   UNL     1      -2.766  36.196  14.785  1.00  0.00    -0.000 C 
BRANCH  22  23
ATOM     23  C   UNL     1      -3.348  37.303  13.883  1.00  0.00    -0.000 C 
BRANCH  23  24
ATOM     24  C   UNL     1      -4.696  37.879  14.349  1.00  0.00    -0.000 C 
BRANCH  24  25
ATOM     25  C   UNL     1      -4.923  39.321  13.876  1.00  0.00    -0.003 C 
ATOM     26  C   UNL     1      -4.908  40.294  15.051  1.00  0.00     0.004 C 
ENDBRANCH  24  25
ENDBRANCH  23  24
ENDBRANCH  22  23
ENDBRANCH  21  22
ENDBRANCH  20  21
ENDBRANCH  19  20
ENDBRANCH  18  19
ENDBRANCH  17  18
ENDBRANCH  16  17
ENDBRANCH  15  16
ENDBRANCH   1  15
TORSDOF 22
ENDMDL
MODEL 3
REMARK VINA RESULT:     5.813      4.736     10.451
REMARK INTER + INTRA:          12.478
REMARK INTER:                  13.539
REMARK INTRA:                  -1.061
REMARK UNBOUND:                -0.812
REMARK SMILES CCCCCCCCCCCCCCCCCCCCCCCC(=O)[O-]
REMARK SMILES IDX 13 1 14 2 15 3 16 4 17 5 18 6 19 7 20 8 21 9 22 10 23 11
REMARK SMILES IDX 24 12 25 13 26 14 12 15 11 16 10 17 9 18 8 19 7 20 6 21 5 22
REMARK SMILES IDX 4 23 3 24 2 25 1 26
REMARK H PARENT
REMARK Flexibility Score: inf
ROOT
ATOM      1  C   UNL     1      -4.546  34.049  22.367  1.00  0.00     0.000 C 
ENDROOT
BRANCH   1   2
ATOM      2  C   UNL     1      -5.953  34.197  22.965  1.00  0.00     0.000 C 
BRANCH   2   3
ATOM      3  C   UNL     1      -6.016  33.750  24.435  1.00  0.00     0.000 C 
BRANCH   3   4
ATOM      4  C   UNL     1      -6.096  34.937  25.412  1.00  0.00     0.000 C 
BRANCH   4   5
ATOM      5  C   UNL     1      -5.785  36.279  24.733  1.00  0.00     0.000 C 
BRANCH   5   6
ATOM      6  C   UNL     1      -5.174  37.303  25.707  1.00  0.00     0.000 C 
BRANCH   6   7
ATOM      7  C   UNL     1      -3.641  37.208  25.788  1.00  0.00     0.000 C 
BRANCH   7   8
ATOM      8  C   UNL     1      -3.020  37.803  27.068  1.00  0.00     0.000 C 
BRANCH   8   9
ATOM      9  C   UNL     1      -1.578  37.348  27.364  1.00  0.00     0.000 C 
BRANCH   9  10
ATOM     10  C   UNL     1      -1.441  35.822  27.461  1.00  0.00     0.006 C 
BRANCH  10  11
ATOM     11  C   UNL     1      -2.313  35.264  28.590  1.00  0.00     0.053 C 
BRANCH  11  12
ATOM     12  C   UNL     1      -1.520  34.344  29.464  1.00  0.00     0.041 C 
ATOM     13  O   UNL     1      -2.061  33.786  30.455  1.00  0.00    -0.550 OA
ATOM     14  O   UNL     1      -0.188  34.077  29.167  1.00  0.00    -0.550 OA
ENDBRANCH  11  12
ENDBRANCH  10  11
ENDBRANCH   9  10
ENDBRANCH   8   9
ENDBRANCH   7   8
ENDBRANCH   6   7
ENDBRANCH   5   6
ENDBRANCH   4   5
ENDBRANCH   3   4
ENDBRANCH   2   3
ENDBRANCH   1   2
BRANCH   1  15
ATOM     15  C   UNL     1      -4.311  35.067  21.241  1.00  0.00     0.000 C 
BRANCH  15  16
ATOM     16  C   UNL     1      -5.555  35.924  20.951  1.00  0.00     0.000 C 
BRANCH  16  17
ATOM     17  C   UNL     1      -5.287  37.027  19.915  1.00  0.00     0.000 C 
BRANCH  17  18
ATOM     18  C   UNL     1      -5.305  36.460  18.491  1.00  0.00    -0.000 C 
BRANCH  18  19
ATOM     19  C   UNL     1      -4.270  35.335  18.336  1.00  0.00    -0.000 C 
BRANCH  19  20
ATOM     20  C   UNL     1      -4.012  34.965  16.868  1.00  0.00    -0.000 C 
BRANCH  20  21
ATOM     21  C   UNL     1      -2.598  35.349  16.398  1.00  0.00    -0.000 C 
BRANCH  21  22
ATOM     22  C   UNL     1      -2.606  36.130  15.072  1.00  0.00    -0.000 C 
BRANCH  22  23
ATOM     23  C   UNL     1      -3.805  35.833  14.148  1.00  0.00    -0.000 C 
BRANCH  23  24
ATOM     24  C   UNL     1      -4.749  37.023  13.908  1.00  0.00    -0.000 C 
BRANCH  24  25
ATOM     25  C   UNL     1      -4.025  38.375  13.945  1.00  0.00    -0.003 C 
ATOM     26  C   UNL     1      -5.016  39.533  13.898  1.00  0.00     0.004 C 
ENDBRANCH  24  25
ENDBRANCH  23  24
ENDBRANCH  22  23
ENDBRANCH  21  22
ENDBRANCH  20  21
ENDBRANCH  19  20
ENDBRANCH  18  19
ENDBRANCH  17  18
ENDBRANCH  16  17
ENDBRANCH  15  16
ENDBRANCH   1  15
TORSDOF 22
ENDMDL
MODEL 4
REMARK VINA RESULT:     6.159      4.699     10.036
REMARK INTER + INTRA:          13.268
REMARK INTER:                  13.236
REMARK INTRA:                   0.032
REMARK UNBOUND:                -0.812
REMARK SMILES CCCCCCCCCCCCCCCCCCCCCCCC(=O)[O-]
REMARK SMILES IDX 13 1 14 2 15 3 16 4 17 5 18 6 19 7 20 8 21 9 22 10 23 11
REMARK SMILES IDX 24 12 25 13 26 14 12 15 11 16 10 17 9 18 8 19 7 20 6 21 5 22
REMARK SMILES IDX 4 23 3 24 2 25 1 26
REMARK H PARENT
REMARK Flexibility Score: inf
ROOT
ATOM      1  C   UNL     1      -5.383  39.130  23.295  1.00  0.00     0.000 C 
ENDROOT
BRANCH   1   2
ATOM      2  C   UNL     1      -6.124  37.787  23.370  1.00  0.00     0.000 C 
BRANCH   2   3
ATOM      3  C   UNL     1      -5.163  36.591  23.475  1.00  0.00     0.000 C 
BRANCH   3   4
ATOM      4  C   UNL     1      -5.391  35.759  24.749  1.00  0.00     0.000 C 
BRANCH   4   5
ATOM      5  C   UNL     1      -6.077  36.565  25.863  1.00  0.00     0.000 C 
BRANCH   5   6
ATOM      6  C   UNL     1      -5.301  37.844  26.226  1.00  0.00     0.000 C 
BRANCH   6   7
ATOM      7  C   UNL     1      -3.779  37.684  26.073  1.00  0.00     0.000 C 
BRANCH   7   8
ATOM      8  C   UNL     1      -2.945  38.247  27.241  1.00  0.00     0.000 C 
BRANCH   8   9
ATOM      9  C   UNL     1      -1.840  37.310  27.763  1.00  0.00     0.000 C 
BRANCH   9  10
ATOM     10  C   UNL     1      -2.277  35.838  27.807  1.00  0.00     0.006 C 
BRANCH  10  11
ATOM     11  C   UNL     1      -1.067  34.912  27.965  1.00  0.00     0.053 C 
BRANCH  11  12
ATOM     12  C   UNL     1      -1.072  34.263  29.313  1.00  0.00     0.041 C 
ATOM     13  O   UNL     1      -2.067  34.388  30.074  1.00  0.00    -0.550 OA
ATOM     14  O   UNL     1       0.013  33.494  29.719  1.00  0.00    -0.550 OA
ENDBRANCH  11  12
ENDBRANCH  10  11
ENDBRANCH   9  10
ENDBRANCH   8   9
ENDBRANCH   7   8
ENDBRANCH   6   7
ENDBRANCH   5   6
ENDBRANCH   4   5
ENDBRANCH   3   4
ENDBRANCH   2   3
ENDBRANCH   1   2
BRANCH   1  15
ATOM     15  C   UNL     1      -5.504  39.756  21.898  1.00  0.00     0.000 C 
BRANCH  15  16
ATOM     16  C   UNL     1      -6.057  38.769  20.856  1.00  0.00     0.000 C 
BRANCH  16  17
ATOM     17  C   UNL     1      -4.949  37.965  20.155  1.00  0.00     0.000 C 
BRANCH  17  18
ATOM     18  C   UNL     1      -5.515  36.697  19.508  1.00  0.00    -0.000 C 
BRANCH  18  19
ATOM     19  C   UNL     1      -4.976  35.438  20.207  1.00  0.00    -0.000 C 
BRANCH  19  20
ATOM     20  C   UNL     1      -4.242  34.494  19.242  1.00  0.00    -0.000 C 
BRANCH  20  21
ATOM     21  C   UNL     1      -4.786  34.574  17.805  1.00  0.00    -0.000 C 
BRANCH  21  22
ATOM     22  C   UNL     1      -4.111  35.682  16.977  1.00  0.00    -0.000 C 
BRANCH  22  23
ATOM     23  C   UNL     1      -3.198  35.180  15.839  1.00  0.00    -0.000 C 
BRANCH  23  24
ATOM     24  C   UNL     1      -2.809  36.247  14.801  1.00  0.00    -0.000 C 
BRANCH  24  25
ATOM     25  C   UNL     1      -3.997  36.711  13.949  1.00  0.00    -0.003 C 
ATOM     26  C   UNL     1      -4.281  38.194  14.161  1.00  0.00     0.004 C 
ENDBRANCH  24  25
ENDBRANCH  23  24
ENDBRANCH  22  23
ENDBRANCH  21  22
ENDBRANCH  20  21
ENDBRANCH  19  20
ENDBRANCH  18  19
ENDBRANCH  17  18
ENDBRANCH  16  17
ENDBRANCH  15  16
ENDBRANCH   1  15
TORSDOF 22
ENDMDL
MODEL 5
REMARK VINA RESULT:     6.187      2.068      4.773
REMARK INTER + INTRA:          13.331
REMARK INTER:                  13.765
REMARK INTRA:                  -0.434
REMARK UNBOUND:                -0.812
REMARK SMILES CCCCCCCCCCCCCCCCCCCCCCCC(=O)[O-]
REMARK SMILES IDX 13 1 14 2 15 3 16 4 17 5 18 6 19 7 20 8 21 9 22 10 23 11
REMARK SMILES IDX 24 12 25 13 26 14 12 15 11 16 10 17 9 18 8 19 7 20 6 21 5 22
REMARK SMILES IDX 4 23 3 24 2 25 1 26
REMARK H PARENT
REMARK Flexibility Score: inf
ROOT
ATOM      1  C   UNL     1      -4.989  34.561  22.124  1.00  0.00     0.000 C 
ENDROOT
BRANCH   1   2
ATOM      2  C   UNL     1      -3.586  34.773  21.536  1.00  0.00     0.000 C 
BRANCH   2   3
ATOM      3  C   UNL     1      -3.617  35.033  20.021  1.00  0.00     0.000 C 
BRANCH   3   4
ATOM      4  C   UNL     1      -5.040  34.958  19.437  1.00  0.00     0.000 C 
BRANCH   4   5
ATOM      5  C   UNL     1      -5.044  34.593  17.944  1.00  0.00     0.000 C 
BRANCH   5   6
ATOM      6  C   UNL     1      -3.832  35.173  17.193  1.00  0.00     0.000 C 
BRANCH   6   7
ATOM      7  C   UNL     1      -4.127  35.454  15.710  1.00  0.00     0.000 C 
BRANCH   7   8
ATOM      8  C   UNL     1      -3.227  36.524  15.060  1.00  0.00     0.000 C 
BRANCH   8   9
ATOM      9  C   UNL     1      -3.963  37.531  14.156  1.00  0.00     0.000 C 
BRANCH   9  10
ATOM     10  C   UNL     1      -4.629  38.667  14.946  1.00  0.00     0.006 C 
BRANCH  10  11
ATOM     11  C   UNL     1      -5.441  39.577  14.020  1.00  0.00     0.053 C 
BRANCH  11  12
ATOM     12  C   UNL     1      -5.163  41.017  14.318  1.00  0.00     0.041 C 
ATOM     13  O   UNL     1      -4.074  41.540  13.960  1.00  0.00    -0.550 OA
ATOM     14  O   UNL     1      -6.119  41.791  14.965  1.00  0.00    -0.550 OA
ENDBRANCH  11  12
ENDBRANCH  10  11
ENDBRANCH   9  10
ENDBRANCH   8   9
ENDBRANCH   7   8
ENDBRANCH   6   7
ENDBRANCH   5   6
ENDBRANCH   4   5
ENDBRANCH   3   4
ENDBRANCH   2   3
ENDBRANCH   1   2
BRANCH   1  15
ATOM     15  C   UNL     1      -4.969  33.517  23.250  1.00  0.00     0.000 C 
BRANCH  15  16
ATOM     16  C   UNL     1      -5.815  33.942  24.463  1.00  0.00     0.000 C 
BRANCH  16  17
ATOM     17  C   UNL     1      -5.138  35.036  25.304  1.00  0.00     0.000 C 
BRANCH  17  18
ATOM     18  C   UNL     1      -6.124  36.161  25.638  1.00  0.00    -0.000 C 
BRANCH  18  19
ATOM     19  C   UNL     1      -5.997  37.318  24.634  1.00  0.00    -0.000 C 
BRANCH  19  20
ATOM     20  C   UNL     1      -4.985  38.383  25.082  1.00  0.00    -0.000 C 
BRANCH  20  21
ATOM     21  C   UNL     1      -5.338  39.790  24.570  1.00  0.00    -0.000 C 
BRANCH  21  22
ATOM     22  C   UNL     1      -5.389  39.866  23.034  1.00  0.00    -0.000 C 
BRANCH  22  23
ATOM     23  C   UNL     1      -5.891  38.586  22.334  1.00  0.00    -0.000 C 
BRANCH  23  24
ATOM     24  C   UNL     1      -5.181  38.248  21.013  1.00  0.00    -0.000 C 
BRANCH  24  25
ATOM     25  C   UNL     1      -5.729  39.045  19.821  1.00  0.00    -0.003 C 
ATOM     26  C   UNL     1      -6.100  40.465  20.233  1.00  0.00     0.004 C 
ENDBRANCH  24  25
ENDBRANCH  23  24
ENDBRANCH  22  23
ENDBRANCH  21  22
ENDBRANCH  20  21
ENDBRANCH  19  20
ENDBRANCH  18  19
ENDBRANCH  17  18
ENDBRANCH  16  17
ENDBRANCH  15  16
ENDBRANCH   1  15
TORSDOF 22
ENDMDL
MODEL 6
REMARK VINA RESULT:     7.562      1.377      2.947
REMARK INTER + INTRA:          16.475
REMARK INTER:                  15.779
REMARK INTRA:                   0.696
REMARK UNBOUND:                -0.812
REMARK SMILES CCCCCCCCCCCCCCCCCCCCCCCC(=O)[O-]
REMARK SMILES IDX 13 1 14 2 15 3 16 4 17 5 18 6 19 7 20 8 21 9 22 10 23 11
REMARK SMILES IDX 24 12 25 13 26 14 12 15 11 16 10 17 9 18 8 19 7 20 6 21 5 22
REMARK SMILES IDX 4 23 3 24 2 25 1 26
REMARK H PARENT
REMARK Flexibility Score: inf
ROOT
ATOM      1  C   UNL     1      -5.925  34.268  23.625  1.00  0.00     0.000 C 
ENDROOT
BRANCH   1   2
ATOM      2  C   UNL     1      -4.448  34.191  23.210  1.00  0.00     0.000 C 
BRANCH   2   3
ATOM      3  C   UNL     1      -4.214  34.695  21.776  1.00  0.00     0.000 C 
BRANCH   3   4
ATOM      4  C   UNL     1      -5.349  35.607  21.277  1.00  0.00     0.000 C 
BRANCH   4   5
ATOM      5  C   UNL     1      -4.862  37.027  20.949  1.00  0.00     0.000 C 
BRANCH   5   6
ATOM      6  C   UNL     1      -5.282  37.483  19.540  1.00  0.00     0.000 C 
BRANCH   6   7
ATOM      7  C   UNL     1      -5.394  36.316  18.544  1.00  0.00     0.000 C 
BRANCH   7   8
ATOM      8  C   UNL     1      -4.427  35.143  18.805  1.00  0.00     0.000 C 
BRANCH   8   9
ATOM      9  C   UNL     1      -4.099  34.284  17.570  1.00  0.00     0.000 C 
BRANCH   9  10
ATOM     10  C   UNL     1      -3.301  35.050  16.505  1.00  0.00     0.006 C 
BRANCH  10  11
ATOM     11  C   UNL     1      -4.218  35.962  15.683  1.00  0.00     0.053 C 
BRANCH  11  12
ATOM     12  C   UNL     1      -3.431  36.718  14.659  1.00  0.00     0.041 C 
ATOM     13  O   UNL     1      -2.258  36.362  14.371  1.00  0.00    -0.550 OA
ATOM     14  O   UNL     1      -4.003  37.800  14.000  1.00  0.00    -0.550 OA
ENDBRANCH  11  12
ENDBRANCH  10  11
ENDBRANCH   9  10
ENDBRANCH   8   9
ENDBRANCH   7   8
ENDBRANCH   6   7
ENDBRANCH   5   6
ENDBRANCH   4   5
ENDBRANCH   3   4
ENDBRANCH   2   3
ENDBRANCH   1   2
BRANCH   1  15
ATOM     15  C   UNL     1      -6.066  34.592  25.119  1.00  0.00     0.000 C 
BRANCH  15  16
ATOM     16  C   UNL     1      -6.115  36.106  25.392  1.00  0.00     0.000 C 
BRANCH  16  17
ATOM     17  C   UNL     1      -5.955  36.944  24.113  1.00  0.00     0.000 C 
BRANCH  17  18
ATOM     18  C   UNL     1      -5.810  38.432  24.446  1.00  0.00    -0.000 C 
BRANCH  18  19
ATOM     19  C   UNL     1      -5.113  38.626  25.803  1.00  0.00    -0.000 C 
BRANCH  19  20
ATOM     20  C   UNL     1      -3.639  38.195  25.778  1.00  0.00    -0.000 C 
BRANCH  20  21
ATOM     21  C   UNL     1      -3.224  37.427  27.046  1.00  0.00    -0.000 C 
BRANCH  21  22
ATOM     22  C   UNL     1      -1.701  37.237  27.151  1.00  0.00    -0.000 C 
BRANCH  22  23
ATOM     23  C   UNL     1      -1.252  35.898  27.772  1.00  0.00    -0.000 C 
BRANCH  23  24
ATOM     24  C   UNL     1      -2.391  35.030  28.334  1.00  0.00    -0.000 C 
BRANCH  24  25
ATOM     25  C   UNL     1      -1.926  34.094  29.458  1.00  0.00    -0.003 C 
ATOM     26  C   UNL     1      -0.425  34.220  29.694  1.00  0.00     0.004 C 
ENDBRANCH  24  25
ENDBRANCH  23  24
ENDBRANCH  22  23
ENDBRANCH  21  22
ENDBRANCH  20  21
ENDBRANCH  19  20
ENDBRANCH  18  19
ENDBRANCH  17  18
ENDBRANCH  16  17
ENDBRANCH  15  16
ENDBRANCH   1  15
TORSDOF 22
ENDMDL
MODEL 7
REMARK VINA RESULT:     7.819      3.869      9.248
REMARK INTER + INTRA:          17.063
REMARK INTER:                  14.603
REMARK INTRA:                   2.460
REMARK UNBOUND:                -0.812
REMARK SMILES CCCCCCCCCCCCCCCCCCCCCCCC(=O)[O-]
REMARK SMILES IDX 13 1 14 2 15 3 16 4 17 5 18 6 19 7 20 8 21 9 22 10 23 11
REMARK SMILES IDX 24 12 25 13 26 14 12 15 11 16 10 17 9 18 8 19 7 20 6 21 5 22
REMARK SMILES IDX 4 23 3 24 2 25 1 26
REMARK H PARENT
REMARK Flexibility Score: inf
ROOT
ATOM      1  C   UNL     1      -4.838  37.441  22.118  1.00  0.00     0.000 C 
ENDROOT
BRANCH   1   2
ATOM      2  C   UNL     1      -6.119  36.601  22.002  1.00  0.00     0.000 C 
BRANCH   2   3
ATOM      3  C   UNL     1      -5.836  35.158  21.553  1.00  0.00     0.000 C 
BRANCH   3   4
ATOM      4  C   UNL     1      -5.066  34.348  22.611  1.00  0.00     0.000 C 
BRANCH   4   5
ATOM      5  C   UNL     1      -5.985  33.782  23.704  1.00  0.00     0.000 C 
BRANCH   5   6
ATOM      6  C   UNL     1      -6.125  34.733  24.906  1.00  0.00     0.000 C 
BRANCH   6   7
ATOM      7  C   UNL     1      -5.863  36.203  24.538  1.00  0.00     0.000 C 
BRANCH   7   8
ATOM      8  C   UNL     1      -5.956  37.195  25.715  1.00  0.00     0.000 C 
BRANCH   8   9
ATOM      9  C   UNL     1      -5.413  38.605  25.423  1.00  0.00     0.000 C 
BRANCH   9  10
ATOM     10  C   UNL     1      -3.969  38.801  25.905  1.00  0.00     0.006 C 
BRANCH  10  11
ATOM     11  C   UNL     1      -3.701  37.993  27.179  1.00  0.00     0.053 C 
BRANCH  11  12
ATOM     12  C   UNL     1      -2.362  37.329  27.112  1.00  0.00     0.041 C 
ATOM     13  O   UNL     1      -1.330  38.007  26.865  1.00  0.00    -0.550 OA
ATOM     14  O   UNL     1      -2.248  35.965  27.352  1.00  0.00    -0.550 OA
ENDBRANCH  11  12
ENDBRANCH  10  11
ENDBRANCH   9  10
ENDBRANCH   8   9
ENDBRANCH   7   8
ENDBRANCH   6   7
ENDBRANCH   5   6
ENDBRANCH   4   5
ENDBRANCH   3   4
ENDBRANCH   2   3
ENDBRANCH   1   2
BRANCH   1  15
ATOM     15  C   UNL     1      -5.083  38.892  21.676  1.00  0.00     0.000 C 
BRANCH  15  16
ATOM     16  C   UNL     1      -6.019  38.988  20.460  1.00  0.00     0.000 C 
BRANCH  16  17
ATOM     17  C   UNL     1      -5.419  38.347  19.198  1.00  0.00     0.000 C 
BRANCH  17  18
ATOM     18  C   UNL     1      -4.865  36.950  19.501  1.00  0.00    -0.000 C 
BRANCH  18  19
ATOM     19  C   UNL     1      -4.950  36.045  18.262  1.00  0.00    -0.000 C 
BRANCH  19  20
ATOM     20  C   UNL     1      -3.906  34.920  18.278  1.00  0.00    -0.000 C 
BRANCH  20  21
ATOM     21  C   UNL     1      -3.270  34.680  16.897  1.00  0.00    -0.000 C 
BRANCH  21  22
ATOM     22  C   UNL     1      -3.948  35.497  15.783  1.00  0.00    -0.000 C 
BRANCH  22  23
ATOM     23  C   UNL     1      -3.028  35.882  14.606  1.00  0.00    -0.000 C 
BRANCH  23  24
ATOM     24  C   UNL     1      -3.144  37.344  14.142  1.00  0.00    -0.000 C 
BRANCH  24  25
ATOM     25  C   UNL     1      -4.578  37.882  14.224  1.00  0.00    -0.003 C 
ATOM     26  C   UNL     1      -4.593  39.407  14.257  1.00  0.00     0.004 C 
ENDBRANCH  24  25
ENDBRANCH  23  24
ENDBRANCH  22  23
ENDBRANCH  21  22
ENDBRANCH  20  21
ENDBRANCH  19  20
ENDBRANCH  18  19
ENDBRANCH  17  18
ENDBRANCH  16  17
ENDBRANCH  15  16
ENDBRANCH   1  15
TORSDOF 22
ENDMDL
