MODEL 1
REMARK VINA RESULT:    -5.218      0.000      0.000
REMARK INTER + INTRA:         -11.430
REMARK INTER:                  -8.573
REMARK INTRA:                  -2.857
REMARK UNBOUND:                -2.857
REMARK SMILES C[C@H]1O[C@@H](OC[C@@H]2O[C@H](Oc3c(-c4ccc(O)c(O)c4)oc4cc(O)cc(O)c4c3=O)[C@@H](O)[C@H](O)[C@H]2O)[C@H](O)[C@@H](O)[C@H]1O
REMARK SMILES IDX 7 1 36 2 34 3 32 4 9 5 8 6 6 7 5 8 4 9 1 10 2 11 42 12 3 13
REMARK SMILES IDX 40 14 38 15 43 16 41 18 39 20 37 22 35 24 10 26 11 27 12 28
REMARK SMILES IDX 30 29 21 30 29 31 31 32 22 33 27 34 23 35 26 36 24 37 13 38
REMARK SMILES IDX 20 39 14 40 18 41 15 42 16 43 19 44 17 46 28 48 25 50 33 52
REMARK H PARENT 43 17 41 19 39 21 37 23 35 25 19 45 17 47 28 49 25 51 33 53
REMARK Flexibility Score: inf
ROOT
ATOM      1  C   UNL     1      30.624 171.783  28.087  1.00  0.00     0.180 C 
ATOM      2  C   UNL     1      29.427 172.263  27.339  1.00  0.00     0.177 C 
ATOM      3  C   UNL     1      28.652 173.382  28.101  1.00  0.00     0.180 C 
ATOM      4  C   UNL     1      29.483 174.037  29.289  1.00  0.00     0.214 C 
ATOM      5  C   UNL     1      31.010 173.804  29.305  1.00  0.00     0.339 C 
ATOM      6  O   UNL     1      31.525 172.850  28.384  1.00  0.00    -0.332 OA
ENDROOT
BRANCH   1   7
ATOM      7  C   UNL     1      30.520 170.794  29.285  1.00  0.00     0.198 C 
BRANCH   7   8
ATOM      8  O   UNL     1      29.370 170.688  30.140  1.00  0.00    -0.347 OA
BRANCH   8   9
ATOM      9  C   UNL     1      29.635 170.972  31.558  1.00  0.00     0.281 C 
ATOM     10  C   UNL     1      31.973 170.467  33.801  1.00  0.00     0.041 C 
ATOM     11  C   UNL     1      30.458 170.390  33.655  1.00  0.00     0.150 C 
ATOM     12  C   UNL     1      29.272 170.596  34.616  1.00  0.00     0.174 C 
ATOM     13  O   UNL     1      30.029 169.831  32.352  1.00  0.00    -0.344 OA
ATOM     14  C   UNL     1      28.086 171.419  33.833  1.00  0.00     0.179 C 
ATOM     15  C   UNL     1      28.152 171.284  32.211  1.00  0.00     0.202 C 
BRANCH  12  16
ATOM     16  O   UNL     1      28.898 169.306  35.013  1.00  0.00    -0.388 OA
ATOM     17  H   UNL     1      29.620 169.008  35.687  1.00  0.00     0.211 HD
ENDBRANCH  12  16
BRANCH  14  18
ATOM     18  O   UNL     1      26.811 171.124  34.332  1.00  0.00    -0.387 OA
ATOM     19  H   UNL     1      26.313 171.933  34.100  1.00  0.00     0.211 HD
ENDBRANCH  14  18
BRANCH  15  20
ATOM     20  O   UNL     1      27.338 172.311  31.529  1.00  0.00    -0.385 OA
ATOM     21  H   UNL     1      26.409 172.042  31.638  1.00  0.00     0.211 HD
ENDBRANCH  15  20
ENDBRANCH   8   9
ENDBRANCH   7   8
ENDBRANCH   1   7
BRANCH   2  22
ATOM     22  O   UNL     1      29.843 172.724  26.045  1.00  0.00    -0.387 OA
ATOM     23  H   UNL     1      30.556 173.440  26.106  1.00  0.00     0.211 HD
ENDBRANCH   2  22
BRANCH   3  24
ATOM     24  O   UNL     1      27.431 172.983  28.763  1.00  0.00    -0.387 OA
ATOM     25  H   UNL     1      26.672 173.520  28.383  1.00  0.00     0.211 HD
ENDBRANCH   3  24
BRANCH   5  26
ATOM     26  O   UNL     1      31.594 173.550  30.646  1.00  0.00    -0.454 OA
BRANCH  26  27
ATOM     27  C   UNL     1      32.793 174.021  31.115  1.00  0.00     0.214 A 
ATOM     28  C   UNL     1      32.920 175.301  31.685  1.00  0.00     0.180 A 
ATOM     29  C   UNL     1      33.974 173.245  30.922  1.00  0.00     0.239 A 
ATOM     30  O   UNL     1      34.104 175.680  32.153  1.00  0.00    -0.452 OA
ATOM     31  C   UNL     1      35.194 173.767  31.317  1.00  0.00     0.111 A 
ATOM     32  O   UNL     1      33.878 172.167  30.276  1.00  0.00    -0.285 OA
ATOM     33  C   UNL     1      35.187 174.963  32.072  1.00  0.00     0.146 A 
ATOM     34  C   UNL     1      36.446 173.186  30.941  1.00  0.00     0.134 A 
ATOM     35  C   UNL     1      36.408 175.468  32.575  1.00  0.00     0.094 A 
ATOM     36  C   UNL     1      37.607 173.786  31.353  1.00  0.00     0.093 A 
ATOM     37  C   UNL     1      37.635 174.868  32.222  1.00  0.00     0.123 A 
BRANCH  28  38
ATOM     38  C   UNL     1      31.863 176.361  31.623  1.00  0.00     0.025 A 
ATOM     39  C   UNL     1      31.857 177.428  30.696  1.00  0.00     0.062 A 
ATOM     40  C   UNL     1      30.778 176.279  32.518  1.00  0.00     0.016 A 
ATOM     41  C   UNL     1      30.934 178.460  30.778  1.00  0.00     0.158 A 
ATOM     42  C   UNL     1      29.734 177.195  32.438  1.00  0.00     0.051 A 
ATOM     43  C   UNL     1      29.803 178.329  31.604  1.00  0.00     0.157 A 
BRANCH  41  44
ATOM     44  O   UNL     1      31.294 179.704  30.277  1.00  0.00    -0.504 OA
ATOM     45  H   UNL     1      30.650 180.496  30.057  1.00  0.00     0.293 HD
ENDBRANCH  41  44
BRANCH  43  46
ATOM     46  O   UNL     1      28.763 179.238  31.543  1.00  0.00    -0.504 OA
ATOM     47  H   UNL     1      28.457 179.663  30.637  1.00  0.00     0.293 HD
ENDBRANCH  43  46
ENDBRANCH  28  38
BRANCH  34  48
ATOM     48  O   UNL     1      36.574 172.130  30.048  1.00  0.00    -0.507 OA
ATOM     49  H   UNL     1      36.978 171.224  30.251  1.00  0.00     0.293 HD
ENDBRANCH  34  48
BRANCH  37  50
ATOM     50  O   UNL     1      38.856 175.407  32.652  1.00  0.00    -0.508 OA
ATOM     51  H   UNL     1      39.676 175.348  32.027  1.00  0.00     0.293 HD
ENDBRANCH  37  50
ENDBRANCH  26  27
ENDBRANCH   5  26
BRANCH   4  52
ATOM     52  O   UNL     1      29.207 175.428  29.358  1.00  0.00    -0.384 OA
ATOM     53  H   UNL     1      30.076 175.857  29.658  1.00  0.00     0.211 HD
ENDBRANCH   4  52
TORSDOF 16
ENDMDL
MODEL 2
REMARK VINA RESULT:    -5.173      1.815      4.015
REMARK INTER + INTRA:         -11.358
REMARK INTER:                  -8.653
REMARK INTRA:                  -2.704
REMARK UNBOUND:                -2.857
REMARK SMILES C[C@H]1O[C@@H](OC[C@@H]2O[C@H](Oc3c(-c4ccc(O)c(O)c4)oc4cc(O)cc(O)c4c3=O)[C@@H](O)[C@H](O)[C@H]2O)[C@H](O)[C@@H](O)[C@H]1O
REMARK SMILES IDX 7 1 36 2 34 3 32 4 9 5 8 6 6 7 5 8 4 9 1 10 2 11 42 12 3 13
REMARK SMILES IDX 40 14 38 15 43 16 41 18 39 20 37 22 35 24 10 26 11 27 12 28
REMARK SMILES IDX 30 29 21 30 29 31 31 32 22 33 27 34 23 35 26 36 24 37 13 38
REMARK SMILES IDX 20 39 14 40 18 41 15 42 16 43 19 44 17 46 28 48 25 50 33 52
REMARK H PARENT 43 17 41 19 39 21 37 23 35 25 19 45 17 47 28 49 25 51 33 53
REMARK Flexibility Score: inf
ROOT
ATOM      1  C   UNL     1      28.890 174.028  31.800  1.00  0.00     0.180 C 
ATOM      2  C   UNL     1      28.474 173.177  32.952  1.00  0.00     0.177 C 
ATOM      3  C   UNL     1      29.675 172.430  33.610  1.00  0.00     0.180 C 
ATOM      4  C   UNL     1      31.095 173.009  33.189  1.00  0.00     0.214 C 
ATOM      5  C   UNL     1      31.131 174.412  32.543  1.00  0.00     0.339 C 
ATOM      6  O   UNL     1      29.879 174.984  32.179  1.00  0.00    -0.332 OA
ENDROOT
BRANCH   1   7
ATOM      7  C   UNL     1      29.199 173.436  30.393  1.00  0.00     0.198 C 
BRANCH   7   8
ATOM      8  O   UNL     1      28.563 172.264  29.859  1.00  0.00    -0.347 OA
BRANCH   8   9
ATOM      9  C   UNL     1      29.481 171.159  29.544  1.00  0.00     0.281 C 
ATOM     10  C   UNL     1      31.248 168.875  31.099  1.00  0.00     0.041 C 
ATOM     11  C   UNL     1      31.380 169.880  29.961  1.00  0.00     0.150 C 
ATOM     12  C   UNL     1      32.176 169.914  28.642  1.00  0.00     0.174 C 
ATOM     13  O   UNL     1      30.738 171.181  30.258  1.00  0.00    -0.344 OA
ATOM     14  C   UNL     1      31.223 170.536  27.458  1.00  0.00     0.179 C 
ATOM     15  C   UNL     1      30.010 171.472  28.013  1.00  0.00     0.202 C 
BRANCH  12  16
ATOM     16  O   UNL     1      33.309 170.688  28.922  1.00  0.00    -0.388 OA
ATOM     17  H   UNL     1      33.034 171.301  29.705  1.00  0.00     0.211 HD
ENDBRANCH  12  16
BRANCH  14  18
ATOM     18  O   UNL     1      31.964 171.178  26.457  1.00  0.00    -0.387 OA
ATOM     19  H   UNL     1      32.606 171.695  26.983  1.00  0.00     0.211 HD
ENDBRANCH  14  18
BRANCH  15  20
ATOM     20  O   UNL     1      28.967 171.700  26.993  1.00  0.00    -0.385 OA
ATOM     21  H   UNL     1      28.113 171.649  27.457  1.00  0.00     0.211 HD
ENDBRANCH  15  20
ENDBRANCH   8   9
ENDBRANCH   7   8
ENDBRANCH   1   7
BRANCH   2  22
ATOM     22  O   UNL     1      27.798 173.999  33.915  1.00  0.00    -0.387 OA
ATOM     23  H   UNL     1      27.321 174.779  33.482  1.00  0.00     0.211 HD
ENDBRANCH   2  22
BRANCH   3  24
ATOM     24  O   UNL     1      29.810 171.025  33.296  1.00  0.00    -0.387 OA
ATOM     25  H   UNL     1      30.184 170.553  34.100  1.00  0.00     0.211 HD
ENDBRANCH   3  24
BRANCH   5  26
ATOM     26  O   UNL     1      32.080 174.561  31.412  1.00  0.00    -0.454 OA
BRANCH  26  27
ATOM     27  C   UNL     1      33.445 174.640  31.499  1.00  0.00     0.214 A 
ATOM     28  C   UNL     1      34.112 175.868  31.668  1.00  0.00     0.180 A 
ATOM     29  C   UNL     1      34.230 173.465  31.299  1.00  0.00     0.239 A 
ATOM     30  O   UNL     1      35.436 175.868  31.780  1.00  0.00    -0.452 OA
ATOM     31  C   UNL     1      35.610 173.569  31.298  1.00  0.00     0.111 A 
ATOM     32  O   UNL     1      33.632 172.396  30.998  1.00  0.00    -0.285 OA
ATOM     33  C   UNL     1      36.179 174.804  31.689  1.00  0.00     0.146 A 
ATOM     34  C   UNL     1      36.468 172.512  30.860  1.00  0.00     0.134 A 
ATOM     35  C   UNL     1      37.585 174.912  31.794  1.00  0.00     0.094 A 
ATOM     36  C   UNL     1      37.824 172.712  30.865  1.00  0.00     0.093 A 
ATOM     37  C   UNL     1      38.421 173.851  31.388  1.00  0.00     0.123 A 
BRANCH  28  38
ATOM     38  C   UNL     1      33.459 177.208  31.525  1.00  0.00     0.025 A 
ATOM     39  C   UNL     1      32.248 177.437  30.834  1.00  0.00     0.062 A 
ATOM     40  C   UNL     1      34.065 178.319  32.147  1.00  0.00     0.016 A 
ATOM     41  C   UNL     1      31.766 178.718  30.609  1.00  0.00     0.158 A 
ATOM     42  C   UNL     1      33.449 179.565  32.110  1.00  0.00     0.051 A 
ATOM     43  C   UNL     1      32.315 179.809  31.308  1.00  0.00     0.157 A 
BRANCH  41  44
ATOM     44  O   UNL     1      30.965 178.932  29.496  1.00  0.00    -0.504 OA
ATOM     45  H   UNL     1      29.967 178.644  29.383  1.00  0.00     0.293 HD
ENDBRANCH  41  44
BRANCH  43  46
ATOM     46  O   UNL     1      31.719 181.055  31.270  1.00  0.00    -0.504 OA
ATOM     47  H   UNL     1      32.236 181.902  30.940  1.00  0.00     0.293 HD
ENDBRANCH  43  46
ENDBRANCH  28  38
BRANCH  34  48
ATOM     48  O   UNL     1      36.015 171.336  30.277  1.00  0.00    -0.507 OA
ATOM     49  H   UNL     1      36.513 170.779  29.593  1.00  0.00     0.293 HD
ENDBRANCH  34  48
BRANCH  37  50
ATOM     50  O   UNL     1      39.817 173.977  31.415  1.00  0.00    -0.508 OA
ATOM     51  H   UNL     1      40.396 173.122  31.450  1.00  0.00     0.293 HD
ENDBRANCH  37  50
ENDBRANCH  26  27
ENDBRANCH   5  26
BRANCH   4  52
ATOM     52  O   UNL     1      31.978 172.968  34.300  1.00  0.00    -0.384 OA
ATOM     53  H   UNL     1      31.960 173.905  34.689  1.00  0.00     0.211 HD
ENDBRANCH   4  52
TORSDOF 16
ENDMDL
MODEL 3
REMARK VINA RESULT:    -5.134      1.799      4.737
REMARK INTER + INTRA:         -11.293
REMARK INTER:                  -8.983
REMARK INTRA:                  -2.310
REMARK UNBOUND:                -2.857
REMARK SMILES C[C@H]1O[C@@H](OC[C@@H]2O[C@H](Oc3c(-c4ccc(O)c(O)c4)oc4cc(O)cc(O)c4c3=O)[C@@H](O)[C@H](O)[C@H]2O)[C@H](O)[C@@H](O)[C@H]1O
REMARK SMILES IDX 7 1 36 2 34 3 32 4 9 5 8 6 6 7 5 8 4 9 1 10 2 11 42 12 3 13
REMARK SMILES IDX 40 14 38 15 43 16 41 18 39 20 37 22 35 24 10 26 11 27 12 28
REMARK SMILES IDX 30 29 21 30 29 31 31 32 22 33 27 34 23 35 26 36 24 37 13 38
REMARK SMILES IDX 20 39 14 40 18 41 15 42 16 43 19 44 17 46 28 48 25 50 33 52
REMARK H PARENT 43 17 41 19 39 21 37 23 35 25 19 45 17 47 28 49 25 51 33 53
REMARK Flexibility Score: inf
ROOT
ATOM      1  C   UNL     1      28.920 174.483  31.393  1.00  0.00     0.180 C 
ATOM      2  C   UNL     1      28.317 173.328  32.118  1.00  0.00     0.177 C 
ATOM      3  C   UNL     1      29.341 172.179  32.374  1.00  0.00     0.180 C 
ATOM      4  C   UNL     1      30.856 172.618  32.171  1.00  0.00     0.214 C 
ATOM      5  C   UNL     1      31.163 174.132  32.145  1.00  0.00     0.339 C 
ATOM      6  O   UNL     1      30.047 175.013  32.090  1.00  0.00    -0.332 OA
ENDROOT
BRANCH   1   7
ATOM      7  C   UNL     1      29.175 174.464  29.857  1.00  0.00     0.198 C 
BRANCH   7   8
ATOM      8  O   UNL     1      29.028 173.296  29.033  1.00  0.00    -0.347 OA
BRANCH   8   9
ATOM      9  C   UNL     1      29.904 173.266  27.853  1.00  0.00     0.281 C 
ATOM     10  C   UNL     1      30.253 174.805  24.977  1.00  0.00     0.041 C 
ATOM     11  C   UNL     1      30.269 173.396  25.558  1.00  0.00     0.150 C 
ATOM     12  C   UNL     1      31.012 172.093  25.203  1.00  0.00     0.174 C 
ATOM     13  O   UNL     1      29.221 173.178  26.582  1.00  0.00    -0.344 OA
ATOM     14  C   UNL     1      31.498 171.359  26.590  1.00  0.00     0.179 C 
ATOM     15  C   UNL     1      30.627 171.784  27.899  1.00  0.00     0.202 C 
BRANCH  12  16
ATOM     16  O   UNL     1      30.093 171.344  24.458  1.00  0.00    -0.388 OA
ATOM     17  H   UNL     1      29.246 171.290  25.044  1.00  0.00     0.211 HD
ENDBRANCH  12  16
BRANCH  14  18
ATOM     18  O   UNL     1      31.594 169.969  26.453  1.00  0.00    -0.387 OA
ATOM     19  H   UNL     1      32.561 169.841  26.379  1.00  0.00     0.211 HD
ENDBRANCH  14  18
BRANCH  15  20
ATOM     20  O   UNL     1      31.302 171.423  29.162  1.00  0.00    -0.385 OA
ATOM     21  H   UNL     1      31.825 172.200  29.426  1.00  0.00     0.211 HD
ENDBRANCH  15  20
ENDBRANCH   8   9
ENDBRANCH   7   8
ENDBRANCH   1   7
BRANCH   2  22
ATOM     22  O   UNL     1      27.760 173.797  33.354  1.00  0.00    -0.387 OA
ATOM     23  H   UNL     1      27.657 174.803  33.369  1.00  0.00     0.211 HD
ENDBRANCH   2  22
BRANCH   3  24
ATOM     24  O   UNL     1      29.238 171.021  31.515  1.00  0.00    -0.387 OA
ATOM     25  H   UNL     1      28.777 170.287  32.023  1.00  0.00     0.211 HD
ENDBRANCH   3  24
BRANCH   5  26
ATOM     26  O   UNL     1      32.167 174.553  31.137  1.00  0.00    -0.454 OA
BRANCH  26  27
ATOM     27  C   UNL     1      33.522 174.642  31.323  1.00  0.00     0.214 A 
ATOM     28  C   UNL     1      34.159 175.866  31.599  1.00  0.00     0.180 A 
ATOM     29  C   UNL     1      34.334 173.486  31.121  1.00  0.00     0.239 A 
ATOM     30  O   UNL     1      35.472 175.874  31.803  1.00  0.00    -0.452 OA
ATOM     31  C   UNL     1      35.709 173.604  31.221  1.00  0.00     0.111 A 
ATOM     32  O   UNL     1      33.773 172.428  30.726  1.00  0.00    -0.285 OA
ATOM     33  C   UNL     1      36.233 174.823  31.712  1.00  0.00     0.146 A 
ATOM     34  C   UNL     1      36.610 172.579  30.792  1.00  0.00     0.134 A 
ATOM     35  C   UNL     1      37.627 174.940  31.920  1.00  0.00     0.094 A 
ATOM     36  C   UNL     1      37.960 172.792  30.902  1.00  0.00     0.093 A 
ATOM     37  C   UNL     1      38.503 173.909  31.521  1.00  0.00     0.123 A 
BRANCH  28  38
ATOM     38  C   UNL     1      33.500 177.206  31.477  1.00  0.00     0.025 A 
ATOM     39  C   UNL     1      32.280 177.437  30.801  1.00  0.00     0.062 A 
ATOM     40  C   UNL     1      34.108 178.312  32.105  1.00  0.00     0.016 A 
ATOM     41  C   UNL     1      31.791 178.718  30.596  1.00  0.00     0.158 A 
ATOM     42  C   UNL     1      33.486 179.556  32.087  1.00  0.00     0.051 A 
ATOM     43  C   UNL     1      32.344 179.804  31.300  1.00  0.00     0.157 A 
BRANCH  41  44
ATOM     44  O   UNL     1      30.977 178.941  29.493  1.00  0.00    -0.504 OA
ATOM     45  H   UNL     1      30.599 179.861  29.174  1.00  0.00     0.293 HD
ENDBRANCH  41  44
BRANCH  43  46
ATOM     46  O   UNL     1      31.742 181.048  31.282  1.00  0.00    -0.504 OA
ATOM     47  H   UNL     1      31.605 181.606  32.156  1.00  0.00     0.293 HD
ENDBRANCH  43  46
ENDBRANCH  28  38
BRANCH  34  48
ATOM     48  O   UNL     1      36.214 171.429  30.122  1.00  0.00    -0.507 OA
ATOM     49  H   UNL     1      36.817 170.806  29.600  1.00  0.00     0.293 HD
ENDBRANCH  34  48
BRANCH  37  50
ATOM     50  O   UNL     1      39.893 174.047  31.652  1.00  0.00    -0.508 OA
ATOM     51  H   UNL     1      40.444 173.246  31.999  1.00  0.00     0.293 HD
ENDBRANCH  37  50
ENDBRANCH  26  27
ENDBRANCH   5  26
BRANCH   4  52
ATOM     52  O   UNL     1      31.674 171.977  33.138  1.00  0.00    -0.384 OA
ATOM     53  H   UNL     1      31.482 170.986  33.035  1.00  0.00     0.211 HD
ENDBRANCH   4  52
TORSDOF 16
ENDMDL
MODEL 4
REMARK VINA RESULT:    -5.129      2.090      5.561
REMARK INTER + INTRA:         -11.285
REMARK INTER:                  -7.510
REMARK INTRA:                  -3.775
REMARK UNBOUND:                -2.857
REMARK SMILES C[C@H]1O[C@@H](OC[C@@H]2O[C@H](Oc3c(-c4ccc(O)c(O)c4)oc4cc(O)cc(O)c4c3=O)[C@@H](O)[C@H](O)[C@H]2O)[C@H](O)[C@@H](O)[C@H]1O
REMARK SMILES IDX 7 1 36 2 34 3 32 4 9 5 8 6 6 7 5 8 4 9 1 10 2 11 42 12 3 13
REMARK SMILES IDX 40 14 38 15 43 16 41 18 39 20 37 22 35 24 10 26 11 27 12 28
REMARK SMILES IDX 30 29 21 30 29 31 31 32 22 33 27 34 23 35 26 36 24 37 13 38
REMARK SMILES IDX 20 39 14 40 18 41 15 42 16 43 19 44 17 46 28 48 25 50 33 52
REMARK H PARENT 43 17 41 19 39 21 37 23 35 25 19 45 17 47 28 49 25 51 33 53
REMARK Flexibility Score: inf
ROOT
ATOM      1  C   UNL     1      32.727 169.713  31.580  1.00  0.00     0.180 C 
ATOM      2  C   UNL     1      32.540 169.584  30.107  1.00  0.00     0.177 C 
ATOM      3  C   UNL     1      32.148 170.935  29.431  1.00  0.00     0.180 C 
ATOM      4  C   UNL     1      32.404 172.206  30.351  1.00  0.00     0.214 C 
ATOM      5  C   UNL     1      33.331 172.027  31.574  1.00  0.00     0.339 C 
ATOM      6  O   UNL     1      33.710 170.696  31.904  1.00  0.00    -0.332 OA
ENDROOT
BRANCH   1   7
ATOM      7  C   UNL     1      31.528 169.778  32.572  1.00  0.00     0.198 C 
BRANCH   7   8
ATOM      8  O   UNL     1      30.395 168.897  32.519  1.00  0.00    -0.347 OA
BRANCH   8   9
ATOM      9  C   UNL     1      29.101 169.574  32.345  1.00  0.00     0.281 C 
ATOM     10  C   UNL     1      27.187 170.694  29.929  1.00  0.00     0.041 C 
ATOM     11  C   UNL     1      27.712 171.118  31.295  1.00  0.00     0.150 C 
ATOM     12  C   UNL     1      27.158 171.991  32.438  1.00  0.00     0.174 C 
ATOM     13  O   UNL     1      29.131 170.753  31.510  1.00  0.00    -0.344 OA
ATOM     14  C   UNL     1      27.512 171.278  33.875  1.00  0.00     0.179 C 
ATOM     15  C   UNL     1      28.783 170.262  33.810  1.00  0.00     0.202 C 
BRANCH  12  16
ATOM     16  O   UNL     1      27.762 173.242  32.263  1.00  0.00    -0.388 OA
ATOM     17  H   UNL     1      27.754 173.682  33.196  1.00  0.00     0.211 HD
ENDBRANCH  12  16
BRANCH  14  18
ATOM     18  O   UNL     1      27.636 172.207  34.916  1.00  0.00    -0.387 OA
ATOM     19  H   UNL     1      28.574 172.472  34.837  1.00  0.00     0.211 HD
ENDBRANCH  14  18
BRANCH  15  20
ATOM     20  O   UNL     1      28.843 169.365  34.982  1.00  0.00    -0.385 OA
ATOM     21  H   UNL     1      28.738 168.460  34.641  1.00  0.00     0.211 HD
ENDBRANCH  15  20
ENDBRANCH   8   9
ENDBRANCH   7   8
ENDBRANCH   1   7
BRANCH   2  22
ATOM     22  O   UNL     1      33.745 169.059  29.530  1.00  0.00    -0.387 OA
ATOM     23  H   UNL     1      34.509 169.045  30.193  1.00  0.00     0.211 HD
ENDBRANCH   2  22
BRANCH   3  24
ATOM     24  O   UNL     1      30.758 171.093  29.066  1.00  0.00    -0.387 OA
ATOM     25  H   UNL     1      30.269 170.246  29.297  1.00  0.00     0.211 HD
ENDBRANCH   3  24
BRANCH   5  26
ATOM     26  O   UNL     1      32.890 172.727  32.806  1.00  0.00    -0.454 OA
BRANCH  26  27
ATOM     27  C   UNL     1      32.400 174.004  32.888  1.00  0.00     0.214 A 
ATOM     28  C   UNL     1      33.219 175.131  32.691  1.00  0.00     0.180 A 
ATOM     29  C   UNL     1      31.049 174.212  33.297  1.00  0.00     0.239 A 
ATOM     30  O   UNL     1      32.672 176.340  32.750  1.00  0.00    -0.452 OA
ATOM     31  C   UNL     1      30.589 175.506  33.465  1.00  0.00     0.111 A 
ATOM     32  O   UNL     1      30.364 173.203  33.618  1.00  0.00    -0.285 OA
ATOM     33  C   UNL     1      31.422 176.564  33.035  1.00  0.00     0.146 A 
ATOM     34  C   UNL     1      29.348 175.811  34.107  1.00  0.00     0.134 A 
ATOM     35  C   UNL     1      30.940 177.892  33.101  1.00  0.00     0.094 A 
ATOM     36  C   UNL     1      28.982 177.124  34.257  1.00  0.00     0.093 A 
ATOM     37  C   UNL     1      29.700 178.178  33.710  1.00  0.00     0.123 A 
BRANCH  28  38
ATOM     38  C   UNL     1      34.715 175.085  32.621  1.00  0.00     0.025 A 
ATOM     39  C   UNL     1      35.460 175.131  31.421  1.00  0.00     0.062 A 
ATOM     40  C   UNL     1      35.441 175.026  33.828  1.00  0.00     0.016 A 
ATOM     41  C   UNL     1      36.833 174.938  31.407  1.00  0.00     0.158 A 
ATOM     42  C   UNL     1      36.832 175.065  33.811  1.00  0.00     0.051 A 
ATOM     43  C   UNL     1      37.562 174.977  32.609  1.00  0.00     0.157 A 
BRANCH  41  44
ATOM     44  O   UNL     1      37.412 174.423  30.254  1.00  0.00    -0.504 OA
ATOM     45  H   UNL     1      38.111 174.899  29.642  1.00  0.00     0.293 HD
ENDBRANCH  41  44
BRANCH  43  46
ATOM     46  O   UNL     1      38.944 175.005  32.607  1.00  0.00    -0.504 OA
ATOM     47  H   UNL     1      39.488 175.220  31.740  1.00  0.00     0.293 HD
ENDBRANCH  43  46
ENDBRANCH  28  38
BRANCH  34  48
ATOM     48  O   UNL     1      28.546 174.866  34.736  1.00  0.00    -0.507 OA
ATOM     49  H   UNL     1      28.120 174.960  35.649  1.00  0.00     0.293 HD
ENDBRANCH  34  48
BRANCH  37  50
ATOM     50  O   UNL     1      29.248 179.498  33.850  1.00  0.00    -0.508 OA
ATOM     51  H   UNL     1      28.584 179.876  33.155  1.00  0.00     0.293 HD
ENDBRANCH  37  50
ENDBRANCH  26  27
ENDBRANCH   5  26
BRANCH   4  52
ATOM     52  O   UNL     1      32.860 173.290  29.556  1.00  0.00    -0.384 OA
ATOM     53  H   UNL     1      32.646 174.124  30.094  1.00  0.00     0.211 HD
ENDBRANCH   4  52
TORSDOF 16
ENDMDL
MODEL 5
REMARK VINA RESULT:    -5.093      2.242      7.432
REMARK INTER + INTRA:         -11.226
REMARK INTER:                  -8.873
REMARK INTRA:                  -2.353
REMARK UNBOUND:                -2.857
REMARK SMILES C[C@H]1O[C@@H](OC[C@@H]2O[C@H](Oc3c(-c4ccc(O)c(O)c4)oc4cc(O)cc(O)c4c3=O)[C@@H](O)[C@H](O)[C@H]2O)[C@H](O)[C@@H](O)[C@H]1O
REMARK SMILES IDX 7 1 36 2 34 3 32 4 9 5 8 6 6 7 5 8 4 9 1 10 2 11 42 12 3 13
REMARK SMILES IDX 40 14 38 15 43 16 41 18 39 20 37 22 35 24 10 26 11 27 12 28
REMARK SMILES IDX 30 29 21 30 29 31 31 32 22 33 27 34 23 35 26 36 24 37 13 38
REMARK SMILES IDX 20 39 14 40 18 41 15 42 16 43 19 44 17 46 28 48 25 50 33 52
REMARK H PARENT 43 17 41 19 39 21 37 23 35 25 19 45 17 47 28 49 25 51 33 53
REMARK Flexibility Score: inf
ROOT
ATOM      1  C   UNL     1      29.058 177.157  32.625  1.00  0.00     0.180 C 
ATOM      2  C   UNL     1      28.506 177.542  31.295  1.00  0.00     0.177 C 
ATOM      3  C   UNL     1      29.352 176.981  30.109  1.00  0.00     0.180 C 
ATOM      4  C   UNL     1      30.362 175.830  30.536  1.00  0.00     0.214 C 
ATOM      5  C   UNL     1      30.130 175.146  31.902  1.00  0.00     0.339 C 
ATOM      6  O   UNL     1      29.166 175.741  32.763  1.00  0.00    -0.332 OA
ENDROOT
BRANCH   1   7
ATOM      7  C   UNL     1      30.288 177.873  33.258  1.00  0.00     0.198 C 
BRANCH   7   8
ATOM      8  O   UNL     1      31.442 178.294  32.514  1.00  0.00    -0.347 OA
BRANCH   8   9
ATOM      9  C   UNL     1      31.566 179.749  32.349  1.00  0.00     0.281 C 
ATOM     10  C   UNL     1      29.923 182.248  31.002  1.00  0.00     0.041 C 
ATOM     11  C   UNL     1      31.344 181.707  31.109  1.00  0.00     0.150 C 
ATOM     12  C   UNL     1      32.743 182.351  31.136  1.00  0.00     0.174 C 
ATOM     13  O   UNL     1      31.412 180.231  30.995  1.00  0.00    -0.344 OA
ATOM     14  C   UNL     1      33.666 181.582  32.256  1.00  0.00     0.179 C 
ATOM     15  C   UNL     1      33.167 180.068  32.592  1.00  0.00     0.202 C 
BRANCH  12  16
ATOM     16  O   UNL     1      33.223 182.229  29.826  1.00  0.00    -0.388 OA
ATOM     17  H   UNL     1      32.501 181.693  29.319  1.00  0.00     0.211 HD
ENDBRANCH  12  16
BRANCH  14  18
ATOM     18  O   UNL     1      35.031 181.628  31.947  1.00  0.00    -0.387 OA
ATOM     19  H   UNL     1      35.166 180.764  31.508  1.00  0.00     0.211 HD
ENDBRANCH  14  18
BRANCH  15  20
ATOM     20  O   UNL     1      33.756 179.549  33.842  1.00  0.00    -0.385 OA
ATOM     21  H   UNL     1      33.169 179.836  34.563  1.00  0.00     0.211 HD
ENDBRANCH  15  20
ENDBRANCH   8   9
ENDBRANCH   7   8
ENDBRANCH   1   7
BRANCH   2  22
ATOM     22  O   UNL     1      27.147 177.090  31.208  1.00  0.00    -0.387 OA
ATOM     23  H   UNL     1      27.064 176.097  31.385  1.00  0.00     0.211 HD
ENDBRANCH   2  22
BRANCH   3  24
ATOM     24  O   UNL     1      30.221 177.920  29.437  1.00  0.00    -0.387 OA
ATOM     25  H   UNL     1      29.672 178.455  28.788  1.00  0.00     0.211 HD
ENDBRANCH   3  24
BRANCH   5  26
ATOM     26  O   UNL     1      31.361 174.854  32.678  1.00  0.00    -0.454 OA
BRANCH  26  27
ATOM     27  C   UNL     1      32.480 174.208  32.220  1.00  0.00     0.214 A 
ATOM     28  C   UNL     1      32.588 172.805  32.233  1.00  0.00     0.180 A 
ATOM     29  C   UNL     1      33.618 174.971  31.823  1.00  0.00     0.239 A 
ATOM     30  O   UNL     1      33.686 172.242  31.741  1.00  0.00    -0.452 OA
ATOM     31  C   UNL     1      34.774 174.310  31.449  1.00  0.00     0.111 A 
ATOM     32  O   UNL     1      33.568 176.224  31.957  1.00  0.00    -0.285 OA
ATOM     33  C   UNL     1      34.710 172.906  31.291  1.00  0.00     0.146 A 
ATOM     34  C   UNL     1      36.030 174.975  31.282  1.00  0.00     0.134 A 
ATOM     35  C   UNL     1      35.847 172.213  30.813  1.00  0.00     0.094 A 
ATOM     36  C   UNL     1      37.132 174.236  30.938  1.00  0.00     0.093 A 
ATOM     37  C   UNL     1      37.072 172.886  30.622  1.00  0.00     0.123 A 
BRANCH  28  38
ATOM     38  C   UNL     1      31.641 171.892  32.950  1.00  0.00     0.025 A 
ATOM     39  C   UNL     1      30.634 171.129  32.317  1.00  0.00     0.062 A 
ATOM     40  C   UNL     1      31.774 171.751  34.346  1.00  0.00     0.016 A 
ATOM     41  C   UNL     1      29.693 170.415  33.045  1.00  0.00     0.158 A 
ATOM     42  C   UNL     1      30.970 170.851  35.039  1.00  0.00     0.051 A 
ATOM     43  C   UNL     1      29.885 170.197  34.421  1.00  0.00     0.157 A 
BRANCH  41  44
ATOM     44  O   UNL     1      28.451 170.187  32.467  1.00  0.00    -0.504 OA
ATOM     45  H   UNL     1      28.247 170.095  31.447  1.00  0.00     0.293 HD
ENDBRANCH  41  44
BRANCH  43  46
ATOM     46  O   UNL     1      29.086 169.315  35.124  1.00  0.00    -0.504 OA
ATOM     47  H   UNL     1      28.306 168.793  34.662  1.00  0.00     0.293 HD
ENDBRANCH  43  46
ENDBRANCH  28  38
BRANCH  34  48
ATOM     48  O   UNL     1      36.249 176.310  31.598  1.00  0.00    -0.507 OA
ATOM     49  H   UNL     1      37.127 176.806  31.511  1.00  0.00     0.293 HD
ENDBRANCH  34  48
BRANCH  37  50
ATOM     50  O   UNL     1      38.225 172.194  30.224  1.00  0.00    -0.508 OA
ATOM     51  H   UNL     1      39.132 172.450  30.646  1.00  0.00     0.293 HD
ENDBRANCH  37  50
ENDBRANCH  26  27
ENDBRANCH   5  26
BRANCH   4  52
ATOM     52  O   UNL     1      30.432 174.849  29.512  1.00  0.00    -0.384 OA
ATOM     53  H   UNL     1      29.840 174.088  29.831  1.00  0.00     0.211 HD
ENDBRANCH   4  52
TORSDOF 16
ENDMDL
MODEL 6
REMARK VINA RESULT:    -5.076      3.869      9.756
REMARK INTER + INTRA:         -11.198
REMARK INTER:                  -8.640
REMARK INTRA:                  -2.558
REMARK UNBOUND:                -2.857
REMARK SMILES C[C@H]1O[C@@H](OC[C@@H]2O[C@H](Oc3c(-c4ccc(O)c(O)c4)oc4cc(O)cc(O)c4c3=O)[C@@H](O)[C@H](O)[C@H]2O)[C@H](O)[C@@H](O)[C@H]1O
REMARK SMILES IDX 7 1 36 2 34 3 32 4 9 5 8 6 6 7 5 8 4 9 1 10 2 11 42 12 3 13
REMARK SMILES IDX 40 14 38 15 43 16 41 18 39 20 37 22 35 24 10 26 11 27 12 28
REMARK SMILES IDX 30 29 21 30 29 31 31 32 22 33 27 34 23 35 26 36 24 37 13 38
REMARK SMILES IDX 20 39 14 40 18 41 15 42 16 43 19 44 17 46 28 48 25 50 33 52
REMARK H PARENT 43 17 41 19 39 21 37 23 35 25 19 45 17 47 28 49 25 51 33 53
REMARK Flexibility Score: inf
ROOT
ATOM      1  C   UNL     1      32.367 177.917  31.690  1.00  0.00     0.180 C 
ATOM      2  C   UNL     1      33.021 176.603  31.952  1.00  0.00     0.177 C 
ATOM      3  C   UNL     1      32.014 175.412  31.910  1.00  0.00     0.180 C 
ATOM      4  C   UNL     1      30.622 175.778  31.234  1.00  0.00     0.214 C 
ATOM      5  C   UNL     1      30.560 177.062  30.377  1.00  0.00     0.339 C 
ATOM      6  O   UNL     1      31.688 177.928  30.435  1.00  0.00    -0.332 OA
ENDROOT
BRANCH   1   7
ATOM      7  C   UNL     1      31.543 178.671  32.775  1.00  0.00     0.198 C 
BRANCH   7   8
ATOM      8  O   UNL     1      31.430 180.102  32.846  1.00  0.00    -0.347 OA
BRANCH   8   9
ATOM      9  C   UNL     1      32.715 180.816  32.877  1.00  0.00     0.281 C 
ATOM     10  C   UNL     1      34.909 181.892  35.064  1.00  0.00     0.041 C 
ATOM     11  C   UNL     1      34.190 182.359  33.804  1.00  0.00     0.150 C 
ATOM     12  C   UNL     1      34.556 183.301  32.641  1.00  0.00     0.174 C 
ATOM     13  O   UNL     1      32.766 181.954  33.765  1.00  0.00    -0.344 OA
ATOM     14  C   UNL     1      34.031 182.642  31.232  1.00  0.00     0.179 C 
ATOM     15  C   UNL     1      32.810 181.580  31.417  1.00  0.00     0.202 C 
BRANCH  12  16
ATOM     16  O   UNL     1      33.947 184.522  32.958  1.00  0.00    -0.388 OA
ATOM     17  H   UNL     1      32.974 184.436  32.625  1.00  0.00     0.211 HD
ENDBRANCH  12  16
BRANCH  14  18
ATOM     18  O   UNL     1      33.739 183.612  30.265  1.00  0.00    -0.387 OA
ATOM     19  H   UNL     1      32.902 183.274  29.888  1.00  0.00     0.211 HD
ENDBRANCH  14  18
BRANCH  15  20
ATOM     20  O   UNL     1      32.616 180.735  30.222  1.00  0.00    -0.385 OA
ATOM     21  H   UNL     1      33.502 180.571  29.854  1.00  0.00     0.211 HD
ENDBRANCH  15  20
ENDBRANCH   8   9
ENDBRANCH   7   8
ENDBRANCH   1   7
BRANCH   2  22
ATOM     22  O   UNL     1      34.074 176.411  30.996  1.00  0.00    -0.387 OA
ATOM     23  H   UNL     1      34.188 177.211  30.388  1.00  0.00     0.211 HD
ENDBRANCH   2  22
BRANCH   3  24
ATOM     24  O   UNL     1      31.603 174.872  33.187  1.00  0.00    -0.387 OA
ATOM     25  H   UNL     1      30.972 175.522  33.621  1.00  0.00     0.211 HD
ENDBRANCH   3  24
BRANCH   5  26
ATOM     26  O   UNL     1      29.322 177.865  30.535  1.00  0.00    -0.454 OA
BRANCH  26  27
ATOM     27  C   UNL     1      28.687 178.586  29.557  1.00  0.00     0.214 A 
ATOM     28  C   UNL     1      27.936 177.965  28.542  1.00  0.00     0.180 A 
ATOM     29  C   UNL     1      28.881 179.997  29.488  1.00  0.00     0.239 A 
ATOM     30  O   UNL     1      27.317 178.726  27.645  1.00  0.00    -0.452 OA
ATOM     31  C   UNL     1      28.312 180.705  28.444  1.00  0.00     0.111 A 
ATOM     32  O   UNL     1      29.677 180.528  30.310  1.00  0.00    -0.285 OA
ATOM     33  C   UNL     1      27.402 180.023  27.603  1.00  0.00     0.146 A 
ATOM     34  C   UNL     1      28.653 182.063  28.149  1.00  0.00     0.134 A 
ATOM     35  C   UNL     1      26.727 180.743  26.590  1.00  0.00     0.094 A 
ATOM     36  C   UNL     1      28.060 182.679  27.077  1.00  0.00     0.093 A 
ATOM     37  C   UNL     1      27.050 182.091  26.328  1.00  0.00     0.123 A 
BRANCH  28  38
ATOM     38  C   UNL     1      27.944 176.492  28.267  1.00  0.00     0.025 A 
ATOM     39  C   UNL     1      27.096 175.557  28.905  1.00  0.00     0.062 A 
ATOM     40  C   UNL     1      28.825 175.998  27.286  1.00  0.00     0.016 A 
ATOM     41  C   UNL     1      27.247 174.191  28.719  1.00  0.00     0.158 A 
ATOM     42  C   UNL     1      28.806 174.650  26.942  1.00  0.00     0.051 A 
ATOM     43  C   UNL     1      28.056 173.708  27.674  1.00  0.00     0.157 A 
BRANCH  41  44
ATOM     44  O   UNL     1      26.839 173.341  29.738  1.00  0.00    -0.504 OA
ATOM     45  H   UNL     1      27.252 173.273  30.695  1.00  0.00     0.293 HD
ENDBRANCH  41  44
BRANCH  43  46
ATOM     46  O   UNL     1      28.054 172.369  27.330  1.00  0.00    -0.504 OA
ATOM     47  H   UNL     1      28.926 171.792  27.361  1.00  0.00     0.293 HD
ENDBRANCH  43  46
ENDBRANCH  28  38
BRANCH  34  48
ATOM     48  O   UNL     1      29.670 182.763  28.786  1.00  0.00    -0.507 OA
ATOM     49  H   UNL     1      29.640 183.738  29.059  1.00  0.00     0.293 HD
ENDBRANCH  34  48
BRANCH  37  50
ATOM     50  O   UNL     1      26.443 182.791  25.275  1.00  0.00    -0.508 OA
ATOM     51  H   UNL     1      26.999 183.486  24.751  1.00  0.00     0.293 HD
ENDBRANCH  37  50
ENDBRANCH  26  27
ENDBRANCH   5  26
BRANCH   4  52
ATOM     52  O   UNL     1      30.150 174.672  30.479  1.00  0.00    -0.384 OA
ATOM     53  H   UNL     1      29.186 174.896  30.253  1.00  0.00     0.211 HD
ENDBRANCH   4  52
TORSDOF 16
ENDMDL
MODEL 7
REMARK VINA RESULT:    -5.041      2.125      2.963
REMARK INTER + INTRA:         -11.139
REMARK INTER:                  -8.441
REMARK INTRA:                  -2.698
REMARK UNBOUND:                -2.857
REMARK SMILES C[C@H]1O[C@@H](OC[C@@H]2O[C@H](Oc3c(-c4ccc(O)c(O)c4)oc4cc(O)cc(O)c4c3=O)[C@@H](O)[C@H](O)[C@H]2O)[C@H](O)[C@@H](O)[C@H]1O
REMARK SMILES IDX 7 1 36 2 34 3 32 4 9 5 8 6 6 7 5 8 4 9 1 10 2 11 42 12 3 13
REMARK SMILES IDX 40 14 38 15 43 16 41 18 39 20 37 22 35 24 10 26 11 27 12 28
REMARK SMILES IDX 30 29 21 30 29 31 31 32 22 33 27 34 23 35 26 36 24 37 13 38
REMARK SMILES IDX 20 39 14 40 18 41 15 42 16 43 19 44 17 46 28 48 25 50 33 52
REMARK H PARENT 43 17 41 19 39 21 37 23 35 25 19 45 17 47 28 49 25 51 33 53
REMARK Flexibility Score: inf
ROOT
ATOM      1  C   UNL     1      29.968 174.442  30.181  1.00  0.00     0.180 C 
ATOM      2  C   UNL     1      28.874 175.442  30.022  1.00  0.00     0.177 C 
ATOM      3  C   UNL     1      28.906 176.546  31.124  1.00  0.00     0.180 C 
ATOM      4  C   UNL     1      30.276 176.605  31.929  1.00  0.00     0.214 C 
ATOM      5  C   UNL     1      31.499 175.892  31.309  1.00  0.00     0.339 C 
ATOM      6  O   UNL     1      31.255 175.061  30.180  1.00  0.00    -0.332 OA
ENDROOT
BRANCH   1   7
ATOM      7  C   UNL     1      29.904 173.294  31.230  1.00  0.00     0.198 C 
BRANCH   7   8
ATOM      8  O   UNL     1      29.359 173.443  32.551  1.00  0.00    -0.347 OA
BRANCH   8   9
ATOM      9  C   UNL     1      30.087 172.714  33.600  1.00  0.00     0.281 C 
ATOM     10  C   UNL     1      33.170 172.241  34.615  1.00  0.00     0.041 C 
ATOM     11  C   UNL     1      31.891 171.453  34.355  1.00  0.00     0.150 C 
ATOM     12  C   UNL     1      31.259 170.191  34.973  1.00  0.00     0.174 C 
ATOM     13  O   UNL     1      31.179 171.891  33.132  1.00  0.00    -0.344 OA
ATOM     14  C   UNL     1      29.640 170.423  35.125  1.00  0.00     0.179 C 
ATOM     15  C   UNL     1      29.039 171.547  34.110  1.00  0.00     0.202 C 
BRANCH  12  16
ATOM     16  O   UNL     1      31.603 169.149  34.103  1.00  0.00    -0.388 OA
ATOM     17  H   UNL     1      31.962 168.395  34.708  1.00  0.00     0.211 HD
ENDBRANCH  12  16
BRANCH  14  18
ATOM     18  O   UNL     1      28.920 169.223  35.064  1.00  0.00    -0.387 OA
ATOM     19  H   UNL     1      29.567 168.583  35.424  1.00  0.00     0.211 HD
ENDBRANCH  14  18
BRANCH  15  20
ATOM     20  O   UNL     1      27.694 172.005  34.514  1.00  0.00    -0.385 OA
ATOM     21  H   UNL     1      27.758 172.247  35.454  1.00  0.00     0.211 HD
ENDBRANCH  15  20
ENDBRANCH   8   9
ENDBRANCH   7   8
ENDBRANCH   1   7
BRANCH   2  22
ATOM     22  O   UNL     1      28.968 176.028  28.715  1.00  0.00    -0.387 OA
ATOM     23  H   UNL     1      28.346 176.818  28.606  1.00  0.00     0.211 HD
ENDBRANCH   2  22
BRANCH   3  24
ATOM     24  O   UNL     1      27.931 176.425  32.185  1.00  0.00    -0.387 OA
ATOM     25  H   UNL     1      27.191 175.822  31.871  1.00  0.00     0.211 HD
ENDBRANCH   3  24
BRANCH   5  26
ATOM     26  O   UNL     1      32.358 175.162  32.274  1.00  0.00    -0.454 OA
BRANCH  26  27
ATOM     27  C   UNL     1      33.726 175.075  32.245  1.00  0.00     0.214 A 
ATOM     28  C   UNL     1      34.549 176.118  32.709  1.00  0.00     0.180 A 
ATOM     29  C   UNL     1      34.344 173.950  31.624  1.00  0.00     0.239 A 
ATOM     30  O   UNL     1      35.867 175.953  32.685  1.00  0.00    -0.452 OA
ATOM     31  C   UNL     1      35.723 173.913  31.517  1.00  0.00     0.111 A 
ATOM     32  O   UNL     1      33.601 173.092  31.075  1.00  0.00    -0.285 OA
ATOM     33  C   UNL     1      36.465 174.903  32.204  1.00  0.00     0.146 A 
ATOM     34  C   UNL     1      36.414 172.966  30.698  1.00  0.00     0.134 A 
ATOM     35  C   UNL     1      37.877 174.834  32.197  1.00  0.00     0.094 A 
ATOM     36  C   UNL     1      37.782 173.020  30.629  1.00  0.00     0.093 A 
ATOM     37  C   UNL     1      38.548 173.875  31.410  1.00  0.00     0.123 A 
BRANCH  28  38
ATOM     38  C   UNL     1      34.060 177.494  33.043  1.00  0.00     0.025 A 
ATOM     39  C   UNL     1      34.097 178.592  32.154  1.00  0.00     0.062 A 
ATOM     40  C   UNL     1      33.490 177.713  34.314  1.00  0.00     0.016 A 
ATOM     41  C   UNL     1      33.766 179.875  32.565  1.00  0.00     0.158 A 
ATOM     42  C   UNL     1      32.948 178.954  34.634  1.00  0.00     0.051 A 
ATOM     43  C   UNL     1      33.110 180.074  33.793  1.00  0.00     0.157 A 
BRANCH  41  44
ATOM     44  O   UNL     1      34.346 180.947  31.900  1.00  0.00    -0.504 OA
ATOM     45  H   UNL     1      34.293 181.953  32.176  1.00  0.00     0.293 HD
ENDBRANCH  41  44
BRANCH  43  46
ATOM     46  O   UNL     1      32.577 181.304  34.128  1.00  0.00    -0.504 OA
ATOM     47  H   UNL     1      33.120 182.006  34.683  1.00  0.00     0.293 HD
ENDBRANCH  43  46
ENDBRANCH  28  38
BRANCH  34  48
ATOM     48  O   UNL     1      35.782 172.079  29.835  1.00  0.00    -0.507 OA
ATOM     49  H   UNL     1      36.015 171.102  29.710  1.00  0.00     0.293 HD
ENDBRANCH  34  48
BRANCH  37  50
ATOM     50  O   UNL     1      39.948 173.849  31.335  1.00  0.00    -0.508 OA
ATOM     51  H   UNL     1      40.415 172.988  31.007  1.00  0.00     0.293 HD
ENDBRANCH  37  50
ENDBRANCH  26  27
ENDBRANCH   5  26
BRANCH   4  52
ATOM     52  O   UNL     1      30.604 177.955  32.221  1.00  0.00    -0.384 OA
ATOM     53  H   UNL     1      30.654 178.004  33.234  1.00  0.00     0.211 HD
ENDBRANCH   4  52
TORSDOF 16
ENDMDL
MODEL 8
REMARK VINA RESULT:    -4.927      2.825      5.640
REMARK INTER + INTRA:         -10.952
REMARK INTER:                  -8.761
REMARK INTRA:                  -2.191
REMARK UNBOUND:                -2.857
REMARK SMILES C[C@H]1O[C@@H](OC[C@@H]2O[C@H](Oc3c(-c4ccc(O)c(O)c4)oc4cc(O)cc(O)c4c3=O)[C@@H](O)[C@H](O)[C@H]2O)[C@H](O)[C@@H](O)[C@H]1O
REMARK SMILES IDX 7 1 36 2 34 3 32 4 9 5 8 6 6 7 5 8 4 9 1 10 2 11 42 12 3 13
REMARK SMILES IDX 40 14 38 15 43 16 41 18 39 20 37 22 35 24 10 26 11 27 12 28
REMARK SMILES IDX 30 29 21 30 29 31 31 32 22 33 27 34 23 35 26 36 24 37 13 38
REMARK SMILES IDX 20 39 14 40 18 41 15 42 16 43 19 44 17 46 28 48 25 50 33 52
REMARK H PARENT 43 17 41 19 39 21 37 23 35 25 19 45 17 47 28 49 25 51 33 53
REMARK Flexibility Score: inf
ROOT
ATOM      1  C   UNL     1      30.045 174.885  30.474  1.00  0.00     0.180 C 
ATOM      2  C   UNL     1      29.152 174.952  29.282  1.00  0.00     0.177 C 
ATOM      3  C   UNL     1      28.694 176.408  28.957  1.00  0.00     0.180 C 
ATOM      4  C   UNL     1      29.553 177.526  29.692  1.00  0.00     0.214 C 
ATOM      5  C   UNL     1      30.916 177.104  30.284  1.00  0.00     0.339 C 
ATOM      6  O   UNL     1      31.199 175.710  30.316  1.00  0.00    -0.332 OA
ENDROOT
BRANCH   1   7
ATOM      7  C   UNL     1      29.501 174.962  31.931  1.00  0.00     0.198 C 
BRANCH   7   8
ATOM      8  O   UNL     1      28.901 173.855  32.622  1.00  0.00    -0.347 OA
BRANCH   8   9
ATOM      9  C   UNL     1      29.861 172.891  33.181  1.00  0.00     0.281 C 
ATOM     10  C   UNL     1      32.881 171.759  32.586  1.00  0.00     0.041 C 
ATOM     11  C   UNL     1      31.494 171.248  32.958  1.00  0.00     0.150 C 
ATOM     12  C   UNL     1      30.971 170.057  33.784  1.00  0.00     0.174 C 
ATOM     13  O   UNL     1      30.406 171.945  32.234  1.00  0.00    -0.344 OA
ATOM     14  C   UNL     1      29.700 170.556  34.697  1.00  0.00     0.179 C 
ATOM     15  C   UNL     1      28.950 171.879  34.113  1.00  0.00     0.202 C 
BRANCH  12  16
ATOM     16  O   UNL     1      30.640 169.078  32.838  1.00  0.00    -0.388 OA
ATOM     17  H   UNL     1      31.334 168.326  32.969  1.00  0.00     0.211 HD
ENDBRANCH  12  16
BRANCH  14  18
ATOM     18  O   UNL     1      28.799 169.519  34.969  1.00  0.00    -0.387 OA
ATOM     19  H   UNL     1      28.894 168.956  34.175  1.00  0.00     0.211 HD
ENDBRANCH  14  18
BRANCH  15  20
ATOM     20  O   UNL     1      28.080 172.519  35.120  1.00  0.00    -0.385 OA
ATOM     21  H   UNL     1      27.598 173.227  34.657  1.00  0.00     0.211 HD
ENDBRANCH  15  20
ENDBRANCH   8   9
ENDBRANCH   7   8
ENDBRANCH   1   7
BRANCH   2  22
ATOM     22  O   UNL     1      29.832 174.372  28.160  1.00  0.00    -0.387 OA
ATOM     23  H   UNL     1      30.012 175.049  27.431  1.00  0.00     0.211 HD
ENDBRANCH   2  22
BRANCH   3  24
ATOM     24  O   UNL     1      27.344 176.758  29.337  1.00  0.00    -0.387 OA
ATOM     25  H   UNL     1      27.386 177.397  30.112  1.00  0.00     0.211 HD
ENDBRANCH   3  24
BRANCH   5  26
ATOM     26  O   UNL     1      31.239 177.697  31.606  1.00  0.00    -0.454 OA
BRANCH  26  27
ATOM     27  C   UNL     1      32.095 178.740  31.845  1.00  0.00     0.214 A 
ATOM     28  C   UNL     1      33.465 178.539  32.093  1.00  0.00     0.180 A 
ATOM     29  C   UNL     1      31.572 180.062  31.962  1.00  0.00     0.239 A 
ATOM     30  O   UNL     1      34.244 179.598  32.282  1.00  0.00    -0.452 OA
ATOM     31  C   UNL     1      32.428 181.098  32.293  1.00  0.00     0.111 A 
ATOM     32  O   UNL     1      30.322 180.216  31.889  1.00  0.00    -0.285 OA
ATOM     33  C   UNL     1      33.816 180.827  32.309  1.00  0.00     0.146 A 
ATOM     34  C   UNL     1      31.966 182.395  32.679  1.00  0.00     0.134 A 
ATOM     35  C   UNL     1      34.723 181.886  32.546  1.00  0.00     0.094 A 
ATOM     36  C   UNL     1      32.884 183.354  33.019  1.00  0.00     0.093 A 
ATOM     37  C   UNL     1      34.254 183.170  32.895  1.00  0.00     0.123 A 
BRANCH  28  38
ATOM     38  C   UNL     1      34.086 177.203  32.366  1.00  0.00     0.025 A 
ATOM     39  C   UNL     1      34.536 176.313  31.366  1.00  0.00     0.062 A 
ATOM     40  C   UNL     1      34.271 176.812  33.708  1.00  0.00     0.016 A 
ATOM     41  C   UNL     1      34.967 175.030  31.670  1.00  0.00     0.158 A 
ATOM     42  C   UNL     1      34.918 175.617  34.005  1.00  0.00     0.051 A 
ATOM     43  C   UNL     1      35.241 174.678  33.005  1.00  0.00     0.157 A 
BRANCH  41  44
ATOM     44  O   UNL     1      34.838 174.046  30.700  1.00  0.00    -0.504 OA
ATOM     45  H   UNL     1      33.990 173.850  30.122  1.00  0.00     0.293 HD
ENDBRANCH  41  44
BRANCH  43  46
ATOM     46  O   UNL     1      35.874 173.489  33.315  1.00  0.00    -0.504 OA
ATOM     47  H   UNL     1      36.345 173.341  34.237  1.00  0.00     0.293 HD
ENDBRANCH  43  46
ENDBRANCH  28  38
BRANCH  34  48
ATOM     48  O   UNL     1      30.629 182.713  32.883  1.00  0.00    -0.507 OA
ATOM     49  H   UNL     1      30.052 182.396  33.652  1.00  0.00     0.293 HD
ENDBRANCH  34  48
BRANCH  37  50
ATOM     50  O   UNL     1      35.145 184.207  33.208  1.00  0.00    -0.508 OA
ATOM     51  H   UNL     1      34.766 185.137  33.447  1.00  0.00     0.293 HD
ENDBRANCH  37  50
ENDBRANCH  26  27
ENDBRANCH   5  26
BRANCH   4  52
ATOM     52  O   UNL     1      29.727 178.641  28.830  1.00  0.00    -0.384 OA
ATOM     53  H   UNL     1      29.143 178.447  28.023  1.00  0.00     0.211 HD
ENDBRANCH   4  52
TORSDOF 16
ENDMDL
MODEL 9
REMARK VINA RESULT:    -4.031      3.724      9.382
REMARK INTER + INTRA:          -9.480
REMARK INTER:                  -6.247
REMARK INTRA:                  -3.233
REMARK UNBOUND:                -2.857
REMARK SMILES C[C@H]1O[C@@H](OC[C@@H]2O[C@H](Oc3c(-c4ccc(O)c(O)c4)oc4cc(O)cc(O)c4c3=O)[C@@H](O)[C@H](O)[C@H]2O)[C@H](O)[C@@H](O)[C@H]1O
REMARK SMILES IDX 7 1 36 2 34 3 32 4 9 5 8 6 6 7 5 8 4 9 1 10 2 11 42 12 3 13
REMARK SMILES IDX 40 14 38 15 43 16 41 18 39 20 37 22 35 24 10 26 11 27 12 28
REMARK SMILES IDX 30 29 21 30 29 31 31 32 22 33 27 34 23 35 26 36 24 37 13 38
REMARK SMILES IDX 20 39 14 40 18 41 15 42 16 43 19 44 17 46 28 48 25 50 33 52
REMARK H PARENT 43 17 41 19 39 21 37 23 35 25 19 45 17 47 28 49 25 51 33 53
REMARK Flexibility Score: inf
ROOT
ATOM      1  C   UNL     1      31.487 177.108  31.393  1.00  0.00     0.180 C 
ATOM      2  C   UNL     1      31.928 175.693  31.558  1.00  0.00     0.177 C 
ATOM      3  C   UNL     1      30.767 174.673  31.343  1.00  0.00     0.180 C 
ATOM      4  C   UNL     1      29.491 175.301  30.631  1.00  0.00     0.214 C 
ATOM      5  C   UNL     1      29.672 176.653  29.904  1.00  0.00     0.339 C 
ATOM      6  O   UNL     1      30.905 177.333  30.109  1.00  0.00    -0.332 OA
ENDROOT
BRANCH   1   7
ATOM      7  C   UNL     1      30.706 177.874  32.501  1.00  0.00     0.198 C 
BRANCH   7   8
ATOM      8  O   UNL     1      31.334 178.569  33.590  1.00  0.00    -0.347 OA
BRANCH   8   9
ATOM      9  C   UNL     1      31.178 180.031  33.553  1.00  0.00     0.281 C 
ATOM     10  C   UNL     1      29.312 182.367  34.903  1.00  0.00     0.041 C 
ATOM     11  C   UNL     1      29.880 181.962  33.547  1.00  0.00     0.150 C 
ATOM     12  C   UNL     1      30.331 182.737  32.294  1.00  0.00     0.174 C 
ATOM     13  O   UNL     1      29.833 180.501  33.311  1.00  0.00    -0.344 OA
ATOM     14  C   UNL     1      31.707 182.056  31.710  1.00  0.00     0.179 C 
ATOM     15  C   UNL     1      31.908 180.500  32.149  1.00  0.00     0.202 C 
BRANCH  12  16
ATOM     16  O   UNL     1      29.245 182.666  31.413  1.00  0.00    -0.388 OA
ATOM     17  H   UNL     1      29.212 181.683  31.100  1.00  0.00     0.211 HD
ENDBRANCH  12  16
BRANCH  14  18
ATOM     18  O   UNL     1      31.846 182.232  30.328  1.00  0.00    -0.387 OA
ATOM     19  H   UNL     1      31.460 183.122  30.200  1.00  0.00     0.211 HD
ENDBRANCH  14  18
BRANCH  15  20
ATOM     20  O   UNL     1      33.294 180.034  31.944  1.00  0.00    -0.385 OA
ATOM     21  H   UNL     1      33.624 180.493  31.153  1.00  0.00     0.211 HD
ENDBRANCH  15  20
ENDBRANCH   8   9
ENDBRANCH   7   8
ENDBRANCH   1   7
BRANCH   2  22
ATOM     22  O   UNL     1      33.006 175.434  30.647  1.00  0.00    -0.387 OA
ATOM     23  H   UNL     1      33.519 176.274  30.414  1.00  0.00     0.211 HD
ENDBRANCH   2  22
BRANCH   3  24
ATOM     24  O   UNL     1      30.197 174.086  32.534  1.00  0.00    -0.387 OA
ATOM     25  H   UNL     1      29.555 173.364  32.259  1.00  0.00     0.211 HD
ENDBRANCH   3  24
BRANCH   5  26
ATOM     26  O   UNL     1      28.553 177.613  30.072  1.00  0.00    -0.454 OA
BRANCH  26  27
ATOM     27  C   UNL     1      28.066 178.473  29.122  1.00  0.00     0.214 A 
ATOM     28  C   UNL     1      27.269 178.027  28.051  1.00  0.00     0.180 A 
ATOM     29  C   UNL     1      28.467 179.842  29.145  1.00  0.00     0.239 A 
ATOM     30  O   UNL     1      26.802 178.920  27.186  1.00  0.00    -0.452 OA
ATOM     31  C   UNL     1      28.045 180.683  28.131  1.00  0.00     0.111 A 
ATOM     32  O   UNL     1      29.302 180.202  30.019  1.00  0.00    -0.285 OA
ATOM     33  C   UNL     1      27.076 180.191  27.225  1.00  0.00     0.146 A 
ATOM     34  C   UNL     1      28.592 181.989  27.927  1.00  0.00     0.134 A 
ATOM     35  C   UNL     1      26.552 181.058  26.239  1.00  0.00     0.094 A 
ATOM     36  C   UNL     1      28.135 182.745  26.879  1.00  0.00     0.093 A 
ATOM     37  C   UNL     1      27.077 182.356  26.068  1.00  0.00     0.123 A 
BRANCH  28  38
ATOM     38  C   UNL     1      27.072 176.587  27.689  1.00  0.00     0.025 A 
ATOM     39  C   UNL     1      27.877 175.878  26.769  1.00  0.00     0.062 A 
ATOM     40  C   UNL     1      26.039 175.871  28.327  1.00  0.00     0.016 A 
ATOM     41  C   UNL     1      27.559 174.591  26.362  1.00  0.00     0.158 A 
ATOM     42  C   UNL     1      25.875 174.511  28.081  1.00  0.00     0.051 A 
ATOM     43  C   UNL     1      26.594 173.848  27.066  1.00  0.00     0.157 A 
BRANCH  41  44
ATOM     44  O   UNL     1      27.981 174.176  25.106  1.00  0.00    -0.504 OA
ATOM     45  H   UNL     1      28.967 174.001  24.807  1.00  0.00     0.293 HD
ENDBRANCH  41  44
BRANCH  43  46
ATOM     46  O   UNL     1      26.413 172.499  26.824  1.00  0.00    -0.504 OA
ATOM     47  H   UNL     1      26.374 171.801  27.602  1.00  0.00     0.293 HD
ENDBRANCH  43  46
ENDBRANCH  28  38
BRANCH  34  48
ATOM     48  O   UNL     1      29.676 182.495  28.633  1.00  0.00    -0.507 OA
ATOM     49  H   UNL     1      30.406 181.950  29.074  1.00  0.00     0.293 HD
ENDBRANCH  34  48
BRANCH  37  50
ATOM     50  O   UNL     1      26.618 183.195  25.043  1.00  0.00    -0.508 OA
ATOM     51  H   UNL     1      25.604 183.374  24.959  1.00  0.00     0.293 HD
ENDBRANCH  37  50
ENDBRANCH  26  27
ENDBRANCH   5  26
BRANCH   4  52
ATOM     52  O   UNL     1      28.920 174.351  29.744  1.00  0.00    -0.384 OA
ATOM     53  H   UNL     1      27.993 174.705  29.535  1.00  0.00     0.211 HD
ENDBRANCH   4  52
TORSDOF 16
ENDMDL
