MODEL 1
REMARK VINA RESULT:    -4.526      0.000      0.000
REMARK INTER + INTRA:         -10.135
REMARK INTER:                  -8.230
REMARK INTRA:                  -1.905
REMARK UNBOUND:                -1.905
REMARK SMILES CCCCCCCCCCCCCCCC(=O)[O-]
REMARK SMILES IDX 9 1 10 2 11 3 12 4 13 5 14 6 15 7 16 8 17 9 18 10 8 11 7 12
REMARK SMILES IDX 6 13 5 14 4 15 3 16 2 17 1 18
REMARK H PARENT
REMARK Flexibility Score: inf
ROOT
ATOM      1  C   UNL     1      13.804   7.986   4.243  1.00  0.00     0.000 C 
ENDROOT
BRANCH   1   2
ATOM      2  C   UNL     1      14.556   8.637   3.069  1.00  0.00     0.000 C 
BRANCH   2   3
ATOM      3  C   UNL     1      14.891   7.690   1.899  1.00  0.00     0.000 C 
BRANCH   3   4
ATOM      4  C   UNL     1      16.352   7.205   1.847  1.00  0.00     0.000 C 
BRANCH   4   5
ATOM      5  C   UNL     1      16.505   5.852   1.136  1.00  0.00     0.000 C 
BRANCH   5   6
ATOM      6  C   UNL     1      15.433   5.679   0.050  1.00  0.00     0.006 C 
BRANCH   6   7
ATOM      7  C   UNL     1      16.034   5.662  -1.362  1.00  0.00     0.053 C 
BRANCH   7   8
ATOM      8  C   UNL     1      15.578   6.833  -2.176  1.00  0.00     0.041 C 
ATOM      9  O   UNL     1      16.285   7.873  -2.240  1.00  0.00    -0.550 OA
ATOM     10  O   UNL     1      14.357   6.788  -2.836  1.00  0.00    -0.550 OA
ENDBRANCH   7   8
ENDBRANCH   6   7
ENDBRANCH   5   6
ENDBRANCH   4   5
ENDBRANCH   3   4
ENDBRANCH   2   3
ENDBRANCH   1   2
BRANCH   1  11
ATOM     11  C   UNL     1      14.674   6.996   5.031  1.00  0.00     0.000 C 
BRANCH  11  12
ATOM     12  C   UNL     1      15.900   7.695   5.629  1.00  0.00    -0.000 C 
BRANCH  12  13
ATOM     13  C   UNL     1      17.170   6.859   5.415  1.00  0.00    -0.000 C 
BRANCH  13  14
ATOM     14  C   UNL     1      18.405   7.722   5.109  1.00  0.00    -0.000 C 
BRANCH  14  15
ATOM     15  C   UNL     1      18.040   9.177   4.773  1.00  0.00    -0.000 C 
BRANCH  15  16
ATOM     16  C   UNL     1      18.484   9.595   3.359  1.00  0.00    -0.000 C 
BRANCH  16  17
ATOM     17  C   UNL     1      18.100  11.029   2.954  1.00  0.00    -0.003 C 
ATOM     18  C   UNL     1      16.633  11.356   3.231  1.00  0.00     0.004 C 
ENDBRANCH  16  17
ENDBRANCH  15  16
ENDBRANCH  14  15
ENDBRANCH  13  14
ENDBRANCH  12  13
ENDBRANCH  11  12
ENDBRANCH   1  11
TORSDOF 14
ENDMDL
MODEL 2
REMARK VINA RESULT:    -4.457      0.755      1.405
REMARK INTER + INTRA:         -10.009
REMARK INTER:                  -8.391
REMARK INTRA:                  -1.618
REMARK UNBOUND:                -1.905
REMARK SMILES CCCCCCCCCCCCCCCC(=O)[O-]
REMARK SMILES IDX 9 1 10 2 11 3 12 4 13 5 14 6 15 7 16 8 17 9 18 10 8 11 7 12
REMARK SMILES IDX 6 13 5 14 4 15 3 16 2 17 1 18
REMARK H PARENT
REMARK Flexibility Score: inf
ROOT
ATOM      1  C   UNL     1      14.613   7.244   4.861  1.00  0.00     0.000 C 
ENDROOT
BRANCH   1   2
ATOM      2  C   UNL     1      14.033   8.389   4.011  1.00  0.00     0.000 C 
BRANCH   2   3
ATOM      3  C   UNL     1      14.625   8.517   2.593  1.00  0.00     0.000 C 
BRANCH   3   4
ATOM      4  C   UNL     1      14.712   7.201   1.799  1.00  0.00     0.000 C 
BRANCH   4   5
ATOM      5  C   UNL     1      16.153   6.830   1.418  1.00  0.00     0.000 C 
BRANCH   5   6
ATOM      6  C   UNL     1      16.170   5.733   0.343  1.00  0.00     0.006 C 
BRANCH   6   7
ATOM      7  C   UNL     1      15.151   5.998  -0.773  1.00  0.00     0.053 C 
BRANCH   7   8
ATOM      8  C   UNL     1      15.784   6.658  -1.960  1.00  0.00     0.041 C 
ATOM      9  O   UNL     1      15.633   7.893  -2.152  1.00  0.00    -0.550 OA
ATOM     10  O   UNL     1      16.512   5.903  -2.871  1.00  0.00    -0.550 OA
ENDBRANCH   7   8
ENDBRANCH   6   7
ENDBRANCH   5   6
ENDBRANCH   4   5
ENDBRANCH   3   4
ENDBRANCH   2   3
ENDBRANCH   1   2
BRANCH   1  11
ATOM     11  C   UNL     1      15.975   7.593   5.480  1.00  0.00     0.000 C 
BRANCH  11  12
ATOM     12  C   UNL     1      17.111   6.862   4.756  1.00  0.00    -0.000 C 
BRANCH  12  13
ATOM     13  C   UNL     1      18.424   7.652   4.855  1.00  0.00    -0.000 C 
BRANCH  13  14
ATOM     14  C   UNL     1      18.215   9.170   4.728  1.00  0.00    -0.000 C 
BRANCH  14  15
ATOM     15  C   UNL     1      18.687   9.718   3.371  1.00  0.00    -0.000 C 
BRANCH  15  16
ATOM     16  C   UNL     1      17.930  10.989   2.943  1.00  0.00    -0.000 C 
BRANCH  16  17
ATOM     17  C   UNL     1      16.448  11.033   3.354  1.00  0.00    -0.003 C 
ATOM     18  C   UNL     1      15.738  12.308   2.901  1.00  0.00     0.004 C 
ENDBRANCH  16  17
ENDBRANCH  15  16
ENDBRANCH  14  15
ENDBRANCH  13  14
ENDBRANCH  12  13
ENDBRANCH  11  12
ENDBRANCH   1  11
TORSDOF 14
ENDMDL
MODEL 3
REMARK VINA RESULT:    -4.342      2.439      5.623
REMARK INTER + INTRA:          -9.800
REMARK INTER:                  -8.018
REMARK INTRA:                  -1.783
REMARK UNBOUND:                -1.905
REMARK SMILES CCCCCCCCCCCCCCCC(=O)[O-]
REMARK SMILES IDX 9 1 10 2 11 3 12 4 13 5 14 6 15 7 16 8 17 9 18 10 8 11 7 12
REMARK SMILES IDX 6 13 5 14 4 15 3 16 2 17 1 18
REMARK H PARENT
REMARK Flexibility Score: inf
ROOT
ATOM      1  C   UNL     1      14.228   8.859   4.068  1.00  0.00     0.000 C 
ENDROOT
BRANCH   1   2
ATOM      2  C   UNL     1      13.859   7.469   4.615  1.00  0.00     0.000 C 
BRANCH   2   3
ATOM      3  C   UNL     1      14.907   6.834   5.552  1.00  0.00     0.000 C 
BRANCH   3   4
ATOM      4  C   UNL     1      16.249   7.584   5.636  1.00  0.00     0.000 C 
BRANCH   4   5
ATOM      5  C   UNL     1      17.344   6.943   4.770  1.00  0.00     0.000 C 
BRANCH   5   6
ATOM      6  C   UNL     1      18.282   8.013   4.192  1.00  0.00     0.006 C 
BRANCH   6   7
ATOM      7  C   UNL     1      17.845   9.434   4.571  1.00  0.00     0.053 C 
BRANCH   7   8
ATOM      8  C   UNL     1      17.923  10.371   3.404  1.00  0.00     0.041 C 
ATOM      9  O   UNL     1      17.020  11.229   3.220  1.00  0.00    -0.550 OA
ATOM     10  O   UNL     1      18.974  10.273   2.502  1.00  0.00    -0.550 OA
ENDBRANCH   7   8
ENDBRANCH   6   7
ENDBRANCH   5   6
ENDBRANCH   4   5
ENDBRANCH   3   4
ENDBRANCH   2   3
ENDBRANCH   1   2
BRANCH   1  11
ATOM     11  C   UNL     1      14.698   8.819   2.606  1.00  0.00     0.000 C 
BRANCH  11  12
ATOM     12  C   UNL     1      14.826   7.375   2.109  1.00  0.00    -0.000 C 
BRANCH  12  13
ATOM     13  C   UNL     1      16.172   7.153   1.404  1.00  0.00    -0.000 C 
BRANCH  13  14
ATOM     14  C   UNL     1      16.254   5.791   0.694  1.00  0.00    -0.000 C 
BRANCH  14  15
ATOM     15  C   UNL     1      15.342   5.715  -0.542  1.00  0.00    -0.000 C 
BRANCH  15  16
ATOM     16  C   UNL     1      15.466   6.950  -1.454  1.00  0.00    -0.000 C 
BRANCH  16  17
ATOM     17  C   UNL     1      15.809   6.642  -2.922  1.00  0.00    -0.003 C 
ATOM     18  C   UNL     1      17.103   5.843  -3.080  1.00  0.00     0.004 C 
ENDBRANCH  16  17
ENDBRANCH  15  16
ENDBRANCH  14  15
ENDBRANCH  13  14
ENDBRANCH  12  13
ENDBRANCH  11  12
ENDBRANCH   1  11
TORSDOF 14
ENDMDL
MODEL 4
REMARK VINA RESULT:    -4.063      2.411      5.467
REMARK INTER + INTRA:          -9.294
REMARK INTER:                  -7.569
REMARK INTRA:                  -1.724
REMARK UNBOUND:                -1.905
REMARK SMILES CCCCCCCCCCCCCCCC(=O)[O-]
REMARK SMILES IDX 9 1 10 2 11 3 12 4 13 5 14 6 15 7 16 8 17 9 18 10 8 11 7 12
REMARK SMILES IDX 6 13 5 14 4 15 3 16 2 17 1 18
REMARK H PARENT
REMARK Flexibility Score: inf
ROOT
ATOM      1  C   UNL     1      15.934   7.412   5.460  1.00  0.00     0.000 C 
ENDROOT
BRANCH   1   2
ATOM      2  C   UNL     1      17.007   6.552   4.768  1.00  0.00     0.000 C 
BRANCH   2   3
ATOM      3  C   UNL     1      18.139   7.344   4.082  1.00  0.00     0.000 C 
BRANCH   3   4
ATOM      4  C   UNL     1      18.505   8.678   4.756  1.00  0.00     0.000 C 
BRANCH   4   5
ATOM      5  C   UNL     1      18.521   9.858   3.773  1.00  0.00     0.000 C 
BRANCH   5   6
ATOM      6  C   UNL     1      17.092  10.276   3.395  1.00  0.00     0.006 C 
BRANCH   6   7
ATOM      7  C   UNL     1      16.961  11.793   3.208  1.00  0.00     0.053 C 
BRANCH   7   8
ATOM      8  C   UNL     1      15.590  12.181   2.745  1.00  0.00     0.041 C 
ATOM      9  O   UNL     1      14.616  11.404   2.930  1.00  0.00    -0.550 OA
ATOM     10  O   UNL     1      15.395  13.385   2.081  1.00  0.00    -0.550 OA
ENDBRANCH   7   8
ENDBRANCH   6   7
ENDBRANCH   5   6
ENDBRANCH   4   5
ENDBRANCH   3   4
ENDBRANCH   2   3
ENDBRANCH   1   2
BRANCH   1  11
ATOM     11  C   UNL     1      14.527   7.180   4.892  1.00  0.00     0.000 C 
BRANCH  11  12
ATOM     12  C   UNL     1      14.221   8.166   3.760  1.00  0.00    -0.000 C 
BRANCH  12  13
ATOM     13  C   UNL     1      14.235   7.460   2.396  1.00  0.00    -0.000 C 
BRANCH  13  14
ATOM     14  C   UNL     1      15.563   7.647   1.643  1.00  0.00    -0.000 C 
BRANCH  14  15
ATOM     15  C   UNL     1      16.127   6.322   1.105  1.00  0.00    -0.000 C 
BRANCH  15  16
ATOM     16  C   UNL     1      15.314   5.760  -0.076  1.00  0.00    -0.000 C 
BRANCH  16  17
ATOM     17  C   UNL     1      15.902   6.050  -1.467  1.00  0.00    -0.003 C 
ATOM     18  C   UNL     1      15.305   7.295  -2.123  1.00  0.00     0.004 C 
ENDBRANCH  16  17
ENDBRANCH  15  16
ENDBRANCH  14  15
ENDBRANCH  13  14
ENDBRANCH  12  13
ENDBRANCH  11  12
ENDBRANCH   1  11
TORSDOF 14
ENDMDL
MODEL 5
REMARK VINA RESULT:    -3.986      2.634      3.824
REMARK INTER + INTRA:          -9.153
REMARK INTER:                  -8.330
REMARK INTRA:                  -0.823
REMARK UNBOUND:                -1.905
REMARK SMILES CCCCCCCCCCCCCCCC(=O)[O-]
REMARK SMILES IDX 9 1 10 2 11 3 12 4 13 5 14 6 15 7 16 8 17 9 18 10 8 11 7 12
REMARK SMILES IDX 6 13 5 14 4 15 3 16 2 17 1 18
REMARK H PARENT
REMARK Flexibility Score: inf
ROOT
ATOM      1  C   UNL     1      16.029   7.994   4.991  1.00  0.00     0.000 C 
ENDROOT
BRANCH   1   2
ATOM      2  C   UNL     1      14.692   7.973   4.229  1.00  0.00     0.000 C 
BRANCH   2   3
ATOM      3  C   UNL     1      14.772   8.419   2.755  1.00  0.00     0.000 C 
BRANCH   3   4
ATOM      4  C   UNL     1      14.762   7.276   1.723  1.00  0.00     0.000 C 
BRANCH   4   5
ATOM      5  C   UNL     1      16.164   6.720   1.435  1.00  0.00     0.000 C 
BRANCH   5   6
ATOM      6  C   UNL     1      16.125   5.699   0.289  1.00  0.00     0.006 C 
BRANCH   6   7
ATOM      7  C   UNL     1      15.102   6.077  -0.791  1.00  0.00     0.053 C 
BRANCH   7   8
ATOM      8  C   UNL     1      15.758   6.688  -1.991  1.00  0.00     0.041 C 
ATOM      9  O   UNL     1      15.657   7.925  -2.207  1.00  0.00    -0.550 OA
ATOM     10  O   UNL     1      16.453   5.887  -2.887  1.00  0.00    -0.550 OA
ENDBRANCH   7   8
ENDBRANCH   6   7
ENDBRANCH   5   6
ENDBRANCH   4   5
ENDBRANCH   3   4
ENDBRANCH   2   3
ENDBRANCH   1   2
BRANCH   1  11
ATOM     11  C   UNL     1      17.148   8.702   4.213  1.00  0.00     0.000 C 
BRANCH  11  12
ATOM     12  C   UNL     1      18.512   8.073   4.516  1.00  0.00    -0.000 C 
BRANCH  12  13
ATOM     13  C   UNL     1      18.669   7.796   6.018  1.00  0.00    -0.000 C 
BRANCH  13  14
ATOM     14  C   UNL     1      19.714   8.706   6.685  1.00  0.00    -0.000 C 
BRANCH  14  15
ATOM     15  C   UNL     1      20.356   8.058   7.923  1.00  0.00    -0.000 C 
BRANCH  15  16
ATOM     16  C   UNL     1      21.527   8.883   8.490  1.00  0.00    -0.000 C 
BRANCH  16  17
ATOM     17  C   UNL     1      22.544   8.081   9.321  1.00  0.00    -0.003 C 
ATOM     18  C   UNL     1      21.886   7.073  10.263  1.00  0.00     0.004 C 
ENDBRANCH  16  17
ENDBRANCH  15  16
ENDBRANCH  14  15
ENDBRANCH  13  14
ENDBRANCH  12  13
ENDBRANCH  11  12
ENDBRANCH   1  11
TORSDOF 14
ENDMDL
MODEL 6
REMARK VINA RESULT:    -3.850      1.069      3.349
REMARK INTER + INTRA:          -8.906
REMARK INTER:                  -6.933
REMARK INTRA:                  -1.972
REMARK UNBOUND:                -1.905
REMARK SMILES CCCCCCCCCCCCCCCC(=O)[O-]
REMARK SMILES IDX 9 1 10 2 11 3 12 4 13 5 14 6 15 7 16 8 17 9 18 10 8 11 7 12
REMARK SMILES IDX 6 13 5 14 4 15 3 16 2 17 1 18
REMARK H PARENT
REMARK Flexibility Score: inf
ROOT
ATOM      1  C   UNL     1      17.319   7.771   5.616  1.00  0.00     0.000 C 
ENDROOT
BRANCH   1   2
ATOM      2  C   UNL     1      17.977   6.773   4.645  1.00  0.00     0.000 C 
BRANCH   2   3
ATOM      3  C   UNL     1      17.025   6.142   3.610  1.00  0.00     0.000 C 
BRANCH   3   4
ATOM      4  C   UNL     1      17.196   6.651   2.167  1.00  0.00     0.000 C 
BRANCH   4   5
ATOM      5  C   UNL     1      15.882   6.639   1.372  1.00  0.00     0.000 C 
BRANCH   5   6
ATOM      6  C   UNL     1      15.985   5.705   0.157  1.00  0.00     0.006 C 
BRANCH   6   7
ATOM      7  C   UNL     1      15.016   6.101  -0.964  1.00  0.00     0.053 C 
BRANCH   7   8
ATOM      8  C   UNL     1      15.732   6.709  -2.131  1.00  0.00     0.041 C 
ATOM      9  O   UNL     1      16.545   6.021  -2.803  1.00  0.00    -0.550 OA
ATOM     10  O   UNL     1      15.526   8.044  -2.456  1.00  0.00    -0.550 OA
ENDBRANCH   7   8
ENDBRANCH   6   7
ENDBRANCH   5   6
ENDBRANCH   4   5
ENDBRANCH   3   4
ENDBRANCH   2   3
ENDBRANCH   1   2
BRANCH   1  11
ATOM     11  C   UNL     1      17.815   9.210   5.418  1.00  0.00     0.000 C 
BRANCH  11  12
ATOM     12  C   UNL     1      18.580   9.351   4.097  1.00  0.00    -0.000 C 
BRANCH  12  13
ATOM     13  C   UNL     1      17.818  10.252   3.114  1.00  0.00    -0.000 C 
BRANCH  13  14
ATOM     14  C   UNL     1      16.388  10.567   3.583  1.00  0.00    -0.000 C 
BRANCH  14  15
ATOM     15  C   UNL     1      15.343   9.625   2.963  1.00  0.00    -0.000 C 
BRANCH  15  16
ATOM     16  C   UNL     1      14.242   9.214   3.959  1.00  0.00    -0.000 C 
BRANCH  16  17
ATOM     17  C   UNL     1      13.798   7.743   3.867  1.00  0.00    -0.003 C 
ATOM     18  C   UNL     1      13.751   7.046   5.226  1.00  0.00     0.004 C 
ENDBRANCH  16  17
ENDBRANCH  15  16
ENDBRANCH  14  15
ENDBRANCH  13  14
ENDBRANCH  12  13
ENDBRANCH  11  12
ENDBRANCH   1  11
TORSDOF 14
ENDMDL
MODEL 7
REMARK VINA RESULT:    -3.807      1.062      2.538
REMARK INTER + INTRA:          -8.827
REMARK INTER:                  -7.224
REMARK INTRA:                  -1.603
REMARK UNBOUND:                -1.905
REMARK SMILES CCCCCCCCCCCCCCCC(=O)[O-]
REMARK SMILES IDX 9 1 10 2 11 3 12 4 13 5 14 6 15 7 16 8 17 9 18 10 8 11 7 12
REMARK SMILES IDX 6 13 5 14 4 15 3 16 2 17 1 18
REMARK H PARENT
REMARK Flexibility Score: inf
ROOT
ATOM      1  C   UNL     1      17.218   7.314   5.266  1.00  0.00     0.000 C 
ENDROOT
BRANCH   1   2
ATOM      2  C   UNL     1      17.141   6.168   4.242  1.00  0.00     0.000 C 
BRANCH   2   3
ATOM      3  C   UNL     1      17.781   6.470   2.872  1.00  0.00     0.000 C 
BRANCH   3   4
ATOM      4  C   UNL     1      16.844   7.122   1.840  1.00  0.00     0.000 C 
BRANCH   4   5
ATOM      5  C   UNL     1      15.707   6.190   1.394  1.00  0.00     0.000 C 
BRANCH   5   6
ATOM      6  C   UNL     1      16.038   5.526   0.049  1.00  0.00     0.006 C 
BRANCH   6   7
ATOM      7  C   UNL     1      15.152   6.047  -1.089  1.00  0.00     0.053 C 
BRANCH   7   8
ATOM      8  C   UNL     1      15.962   6.665  -2.188  1.00  0.00     0.041 C 
ATOM      9  O   UNL     1      16.061   7.917  -2.273  1.00  0.00    -0.550 OA
ATOM     10  O   UNL     1      16.579   5.858  -3.135  1.00  0.00    -0.550 OA
ENDBRANCH   7   8
ENDBRANCH   6   7
ENDBRANCH   5   6
ENDBRANCH   4   5
ENDBRANCH   3   4
ENDBRANCH   2   3
ENDBRANCH   1   2
BRANCH   1  11
ATOM     11  C   UNL     1      15.840   7.734   5.796  1.00  0.00     0.000 C 
BRANCH  11  12
ATOM     12  C   UNL     1      14.723   7.264   4.858  1.00  0.00    -0.000 C 
BRANCH  12  13
ATOM     13  C   UNL     1      13.982   8.460   4.242  1.00  0.00    -0.000 C 
BRANCH  13  14
ATOM     14  C   UNL     1      14.730   9.069   3.044  1.00  0.00    -0.000 C 
BRANCH  14  15
ATOM     15  C   UNL     1      14.697  10.607   3.049  1.00  0.00    -0.000 C 
BRANCH  15  16
ATOM     16  C   UNL     1      16.100  11.235   3.141  1.00  0.00    -0.000 C 
BRANCH  16  17
ATOM     17  C   UNL     1      17.191  10.311   3.710  1.00  0.00    -0.003 C 
ATOM     18  C   UNL     1      18.545  10.491   3.026  1.00  0.00     0.004 C 
ENDBRANCH  16  17
ENDBRANCH  15  16
ENDBRANCH  14  15
ENDBRANCH  13  14
ENDBRANCH  12  13
ENDBRANCH  11  12
ENDBRANCH   1  11
TORSDOF 14
ENDMDL
MODEL 8
REMARK VINA RESULT:    -3.472      3.296      6.102
REMARK INTER + INTRA:          -8.218
REMARK INTER:                  -6.682
REMARK INTRA:                  -1.536
REMARK UNBOUND:                -1.905
REMARK SMILES CCCCCCCCCCCCCCCC(=O)[O-]
REMARK SMILES IDX 9 1 10 2 11 3 12 4 13 5 14 6 15 7 16 8 17 9 18 10 8 11 7 12
REMARK SMILES IDX 6 13 5 14 4 15 3 16 2 17 1 18
REMARK H PARENT
REMARK Flexibility Score: inf
ROOT
ATOM      1  C   UNL     1      14.400   7.631   3.446  1.00  0.00     0.000 C 
ENDROOT
BRANCH   1   2
ATOM      2  C   UNL     1      14.224   9.108   3.842  1.00  0.00     0.000 C 
BRANCH   2   3
ATOM      3  C   UNL     1      14.766  10.129   2.821  1.00  0.00     0.000 C 
BRANCH   3   4
ATOM      4  C   UNL     1      15.874  11.058   3.349  1.00  0.00     0.000 C 
BRANCH   4   5
ATOM      5  C   UNL     1      17.262  10.399   3.333  1.00  0.00     0.000 C 
BRANCH   5   6
ATOM      6  C   UNL     1      17.590   9.780   4.700  1.00  0.00     0.006 C 
BRANCH   6   7
ATOM      7  C   UNL     1      18.770   8.802   4.626  1.00  0.00     0.053 C 
BRANCH   7   8
ATOM      8  C   UNL     1      18.982   8.086   5.925  1.00  0.00     0.041 C 
ATOM      9  O   UNL     1      19.918   8.431   6.693  1.00  0.00    -0.550 OA
ATOM     10  O   UNL     1      18.167   7.015   6.270  1.00  0.00    -0.550 OA
ENDBRANCH   7   8
ENDBRANCH   6   7
ENDBRANCH   5   6
ENDBRANCH   4   5
ENDBRANCH   3   4
ENDBRANCH   2   3
ENDBRANCH   1   2
BRANCH   1  11
ATOM     11  C   UNL     1      15.611   6.974   4.122  1.00  0.00     0.000 C 
BRANCH  11  12
ATOM     12  C   UNL     1      16.641   6.518   3.082  1.00  0.00    -0.000 C 
BRANCH  12  13
ATOM     13  C   UNL     1      16.177   6.863   1.660  1.00  0.00    -0.000 C 
BRANCH  13  14
ATOM     14  C   UNL     1      16.444   5.730   0.655  1.00  0.00    -0.000 C 
BRANCH  14  15
ATOM     15  C   UNL     1      15.304   5.564  -0.363  1.00  0.00    -0.000 C 
BRANCH  15  16
ATOM     16  C   UNL     1      14.981   6.867  -1.118  1.00  0.00    -0.000 C 
BRANCH  16  17
ATOM     17  C   UNL     1      15.985   7.245  -2.222  1.00  0.00    -0.003 C 
ATOM     18  C   UNL     1      16.524   6.034  -2.982  1.00  0.00     0.004 C 
ENDBRANCH  16  17
ENDBRANCH  15  16
ENDBRANCH  14  15
ENDBRANCH  13  14
ENDBRANCH  12  13
ENDBRANCH  11  12
ENDBRANCH   1  11
TORSDOF 14
ENDMDL
MODEL 9
REMARK VINA RESULT:    -3.357      4.936      8.020
REMARK INTER + INTRA:          -8.009
REMARK INTER:                  -7.124
REMARK INTRA:                  -0.885
REMARK UNBOUND:                -1.905
REMARK SMILES CCCCCCCCCCCCCCCC(=O)[O-]
REMARK SMILES IDX 9 1 10 2 11 3 12 4 13 5 14 6 15 7 16 8 17 9 18 10 8 11 7 12
REMARK SMILES IDX 6 13 5 14 4 15 3 16 2 17 1 18
REMARK H PARENT
REMARK Flexibility Score: inf
ROOT
ATOM      1  C   UNL     1      16.369   9.445   3.503  1.00  0.00     0.000 C 
ENDROOT
BRANCH   1   2
ATOM      2  C   UNL     1      17.812   9.124   3.932  1.00  0.00     0.000 C 
BRANCH   2   3
ATOM      3  C   UNL     1      18.034   7.693   4.464  1.00  0.00     0.000 C 
BRANCH   3   4
ATOM      4  C   UNL     1      18.331   7.594   5.971  1.00  0.00     0.000 C 
BRANCH   4   5
ATOM      5  C   UNL     1      19.487   8.504   6.411  1.00  0.00     0.000 C 
BRANCH   5   6
ATOM      6  C   UNL     1      20.178   7.946   7.664  1.00  0.00     0.006 C 
BRANCH   6   7
ATOM      7  C   UNL     1      21.146   8.956   8.293  1.00  0.00     0.053 C 
BRANCH   7   8
ATOM      8  C   UNL     1      22.132   8.291   9.203  1.00  0.00     0.041 C 
ATOM      9  O   UNL     1      23.364   8.524   9.081  1.00  0.00    -0.550 OA
ATOM     10  O   UNL     1      21.694   7.389  10.165  1.00  0.00    -0.550 OA
ENDBRANCH   7   8
ENDBRANCH   6   7
ENDBRANCH   5   6
ENDBRANCH   4   5
ENDBRANCH   3   4
ENDBRANCH   2   3
ENDBRANCH   1   2
BRANCH   1  11
ATOM     11  C   UNL     1      15.379   8.324   3.854  1.00  0.00     0.000 C 
BRANCH  11  12
ATOM     12  C   UNL     1      14.727   7.751   2.590  1.00  0.00    -0.000 C 
BRANCH  12  13
ATOM     13  C   UNL     1      15.755   7.604   1.459  1.00  0.00    -0.000 C 
BRANCH  13  14
ATOM     14  C   UNL     1      16.081   6.135   1.140  1.00  0.00    -0.000 C 
BRANCH  14  15
ATOM     15  C   UNL     1      15.615   5.720  -0.265  1.00  0.00    -0.000 C 
BRANCH  15  16
ATOM     16  C   UNL     1      15.324   6.925  -1.180  1.00  0.00    -0.000 C 
BRANCH  16  17
ATOM     17  C   UNL     1      15.484   6.652  -2.686  1.00  0.00    -0.003 C 
ATOM     18  C   UNL     1      16.793   5.943  -3.030  1.00  0.00     0.004 C 
ENDBRANCH  16  17
ENDBRANCH  15  16
ENDBRANCH  14  15
ENDBRANCH  13  14
ENDBRANCH  12  13
ENDBRANCH  11  12
ENDBRANCH   1  11
TORSDOF 14
ENDMDL
