MODEL 1
REMARK VINA RESULT:    -3.647      0.000      0.000
REMARK INTER + INTRA:          -9.824
REMARK INTER:                  -7.058
REMARK INTRA:                  -2.766
REMARK UNBOUND:                -2.766
REMARK SMILES CCCCCCCCCCCCCCCCCC(=O)[O-]
REMARK SMILES IDX 10 1 11 2 12 3 13 4 14 5 15 6 16 7 17 8 18 9 19 10 20 11
REMARK SMILES IDX 9 12 8 13 7 14 6 15 5 16 4 17 3 18 2 19 1 20
REMARK H PARENT
REMARK Flexibility Score: inf
ROOT
ATOM      1  C   UNL     1      -4.060  17.304 -10.336  1.00  0.00     0.000 C 
ENDROOT
BRANCH   1   2
ATOM      2  C   UNL     1      -4.614  18.598 -10.967  1.00  0.00     0.000 C 
BRANCH   2   3
ATOM      3  C   UNL     1      -5.046  18.477 -12.442  1.00  0.00     0.000 C 
BRANCH   3   4
ATOM      4  C   UNL     1      -6.376  19.170 -12.785  1.00  0.00     0.000 C 
BRANCH   4   5
ATOM      5  C   UNL     1      -6.931  20.004 -11.616  1.00  0.00     0.000 C 
BRANCH   5   6
ATOM      6  C   UNL     1      -8.362  19.598 -11.231  1.00  0.00     0.000 C 
BRANCH   6   7
ATOM      7  C   UNL     1      -8.853  18.360 -12.001  1.00  0.00     0.006 C 
BRANCH   7   8
ATOM      8  C   UNL     1     -10.002  17.647 -11.278  1.00  0.00     0.053 C 
BRANCH   8   9
ATOM      9  C   UNL     1     -11.334  18.013 -11.859  1.00  0.00     0.041 C 
ATOM     10  O   UNL     1     -12.055  17.131 -12.396  1.00  0.00    -0.550 OA
ATOM     11  O   UNL     1     -11.762  19.333 -11.838  1.00  0.00    -0.550 OA
ENDBRANCH   8   9
ENDBRANCH   7   8
ENDBRANCH   6   7
ENDBRANCH   5   6
ENDBRANCH   4   5
ENDBRANCH   3   4
ENDBRANCH   2   3
ENDBRANCH   1   2
BRANCH   1  12
ATOM     12  C   UNL     1      -5.122  16.263  -9.936  1.00  0.00     0.000 C 
BRANCH  12  13
ATOM     13  C   UNL     1      -6.425  16.904  -9.429  1.00  0.00    -0.000 C 
BRANCH  13  14
ATOM     14  C   UNL     1      -6.670  16.661  -7.928  1.00  0.00    -0.000 C 
BRANCH  14  15
ATOM     15  C   UNL     1      -5.424  16.270  -7.110  1.00  0.00    -0.000 C 
BRANCH  15  16
ATOM     16  C   UNL     1      -4.965  17.379  -6.148  1.00  0.00    -0.000 C 
BRANCH  16  17
ATOM     17  C   UNL     1      -4.147  18.471  -6.856  1.00  0.00    -0.000 C 
BRANCH  17  18
ATOM     18  C   UNL     1      -4.638  19.891  -6.521  1.00  0.00    -0.000 C 
BRANCH  18  19
ATOM     19  C   UNL     1      -5.250  20.603  -7.737  1.00  0.00    -0.003 C 
ATOM     20  C   UNL     1      -6.744  20.323  -7.894  1.00  0.00     0.004 C 
ENDBRANCH  18  19
ENDBRANCH  17  18
ENDBRANCH  16  17
ENDBRANCH  15  16
ENDBRANCH  14  15
ENDBRANCH  13  14
ENDBRANCH  12  13
ENDBRANCH   1  12
TORSDOF 16
ENDMDL
MODEL 2
REMARK VINA RESULT:    -3.627      1.524      3.508
REMARK INTER + INTRA:          -9.785
REMARK INTER:                  -7.344
REMARK INTRA:                  -2.441
REMARK UNBOUND:                -2.766
REMARK SMILES CCCCCCCCCCCCCCCCCC(=O)[O-]
REMARK SMILES IDX 10 1 11 2 12 3 13 4 14 5 15 6 16 7 17 8 18 9 19 10 20 11
REMARK SMILES IDX 9 12 8 13 7 14 6 15 5 16 4 17 3 18 2 19 1 20
REMARK H PARENT
REMARK Flexibility Score: inf
ROOT
ATOM      1  C   UNL     1      -7.418  20.593  -8.251  1.00  0.00     0.000 C 
ENDROOT
BRANCH   1   2
ATOM      2  C   UNL     1      -7.011  20.653  -9.738  1.00  0.00     0.000 C 
BRANCH   2   3
ATOM      3  C   UNL     1      -8.144  20.364 -10.742  1.00  0.00     0.000 C 
BRANCH   3   4
ATOM      4  C   UNL     1      -9.558  20.700 -10.236  1.00  0.00     0.000 C 
BRANCH   4   5
ATOM      5  C   UNL     1     -10.610  19.670 -10.685  1.00  0.00     0.000 C 
BRANCH   5   6
ATOM      6  C   UNL     1      -9.978  18.411 -11.298  1.00  0.00     0.000 C 
BRANCH   6   7
ATOM      7  C   UNL     1     -10.625  18.018 -12.637  1.00  0.00     0.006 C 
BRANCH   7   8
ATOM      8  C   UNL     1     -11.532  19.125 -13.189  1.00  0.00     0.053 C 
BRANCH   8   9
ATOM      9  C   UNL     1     -12.876  18.594 -13.584  1.00  0.00     0.041 C 
ATOM     10  O   UNL     1     -13.682  19.321 -14.223  1.00  0.00    -0.550 OA
ATOM     11  O   UNL     1     -13.251  17.309 -13.216  1.00  0.00    -0.550 OA
ENDBRANCH   8   9
ENDBRANCH   7   8
ENDBRANCH   6   7
ENDBRANCH   5   6
ENDBRANCH   4   5
ENDBRANCH   3   4
ENDBRANCH   2   3
ENDBRANCH   1   2
BRANCH   1  12
ATOM     12  C   UNL     1      -6.270  20.300  -7.268  1.00  0.00     0.000 C 
BRANCH  12  13
ATOM     13  C   UNL     1      -4.897  20.225  -7.959  1.00  0.00    -0.000 C 
BRANCH  13  14
ATOM     14  C   UNL     1      -4.096  18.969  -7.570  1.00  0.00    -0.000 C 
BRANCH  14  15
ATOM     15  C   UNL     1      -4.397  18.400  -6.171  1.00  0.00    -0.000 C 
BRANCH  15  16
ATOM     16  C   UNL     1      -4.957  16.968  -6.212  1.00  0.00    -0.000 C 
BRANCH  16  17
ATOM     17  C   UNL     1      -5.328  16.522  -7.636  1.00  0.00    -0.000 C 
BRANCH  17  18
ATOM     18  C   UNL     1      -6.829  16.683  -7.937  1.00  0.00    -0.000 C 
BRANCH  18  19
ATOM     19  C   UNL     1      -7.114  16.847  -9.438  1.00  0.00    -0.003 C 
ATOM     20  C   UNL     1      -5.872  17.245 -10.234  1.00  0.00     0.004 C 
ENDBRANCH  18  19
ENDBRANCH  17  18
ENDBRANCH  16  17
ENDBRANCH  15  16
ENDBRANCH  14  15
ENDBRANCH  13  14
ENDBRANCH  12  13
ENDBRANCH   1  12
TORSDOF 16
ENDMDL
MODEL 3
REMARK VINA RESULT:    -3.617      0.969      3.401
REMARK INTER + INTRA:          -9.767
REMARK INTER:                  -6.766
REMARK INTRA:                  -3.001
REMARK UNBOUND:                -2.766
REMARK SMILES CCCCCCCCCCCCCCCCCC(=O)[O-]
REMARK SMILES IDX 10 1 11 2 12 3 13 4 14 5 15 6 16 7 17 8 18 9 19 10 20 11
REMARK SMILES IDX 9 12 8 13 7 14 6 15 5 16 4 17 3 18 2 19 1 20
REMARK H PARENT
REMARK Flexibility Score: inf
ROOT
ATOM      1  C   UNL     1      -4.501  19.478  -6.566  1.00  0.00     0.000 C 
ENDROOT
BRANCH   1   2
ATOM      2  C   UNL     1      -4.196  19.713  -8.059  1.00  0.00     0.000 C 
BRANCH   2   3
ATOM      3  C   UNL     1      -5.298  20.449  -8.847  1.00  0.00     0.000 C 
BRANCH   3   4
ATOM      4  C   UNL     1      -6.623  20.632  -8.087  1.00  0.00     0.000 C 
BRANCH   4   5
ATOM      5  C   UNL     1      -7.845  20.177  -8.905  1.00  0.00     0.000 C 
BRANCH   5   6
ATOM      6  C   UNL     1      -7.560  20.131 -10.414  1.00  0.00     0.000 C 
BRANCH   6   7
ATOM      7  C   UNL     1      -8.761  19.616 -11.226  1.00  0.00     0.006 C 
BRANCH   7   8
ATOM      8  C   UNL     1      -8.901  18.090 -11.149  1.00  0.00     0.053 C 
BRANCH   8   9
ATOM      9  C   UNL     1     -10.295  17.645 -11.468  1.00  0.00     0.041 C 
ATOM     10  O   UNL     1     -10.512  16.463 -11.845  1.00  0.00    -0.550 OA
ATOM     11  O   UNL     1     -11.348  18.545 -11.383  1.00  0.00    -0.550 OA
ENDBRANCH   8   9
ENDBRANCH   7   8
ENDBRANCH   6   7
ENDBRANCH   5   6
ENDBRANCH   4   5
ENDBRANCH   3   4
ENDBRANCH   2   3
ENDBRANCH   1   2
BRANCH   1  12
ATOM     12  C   UNL     1      -3.903  18.190  -5.969  1.00  0.00     0.000 C 
BRANCH  12  13
ATOM     13  C   UNL     1      -4.963  17.110  -5.696  1.00  0.00    -0.000 C 
BRANCH  13  14
ATOM     14  C   UNL     1      -5.254  16.228  -6.925  1.00  0.00    -0.000 C 
BRANCH  14  15
ATOM     15  C   UNL     1      -6.444  16.679  -7.794  1.00  0.00    -0.000 C 
BRANCH  15  16
ATOM     16  C   UNL     1      -6.113  16.712  -9.295  1.00  0.00    -0.000 C 
BRANCH  16  17
ATOM     17  C   UNL     1      -4.708  16.167  -9.601  1.00  0.00    -0.000 C 
BRANCH  17  18
ATOM     18  C   UNL     1      -4.047  16.870 -10.800  1.00  0.00    -0.000 C 
BRANCH  18  19
ATOM     19  C   UNL     1      -5.034  17.750 -11.583  1.00  0.00    -0.003 C 
ATOM     20  C   UNL     1      -4.396  19.041 -12.093  1.00  0.00     0.004 C 
ENDBRANCH  18  19
ENDBRANCH  17  18
ENDBRANCH  16  17
ENDBRANCH  15  16
ENDBRANCH  14  15
ENDBRANCH  13  14
ENDBRANCH  12  13
ENDBRANCH   1  12
TORSDOF 16
ENDMDL
MODEL 4
REMARK VINA RESULT:    -3.567      1.209      3.438
REMARK INTER + INTRA:          -9.670
REMARK INTER:                  -7.268
REMARK INTRA:                  -2.403
REMARK UNBOUND:                -2.766
REMARK SMILES CCCCCCCCCCCCCCCCCC(=O)[O-]
REMARK SMILES IDX 10 1 11 2 12 3 13 4 14 5 15 6 16 7 17 8 18 9 19 10 20 11
REMARK SMILES IDX 9 12 8 13 7 14 6 15 5 16 4 17 3 18 2 19 1 20
REMARK H PARENT
REMARK Flexibility Score: inf
ROOT
ATOM      1  C   UNL     1      -5.867  20.264  -7.434  1.00  0.00     0.000 C 
ENDROOT
BRANCH   1   2
ATOM      2  C   UNL     1      -6.674  20.937  -8.564  1.00  0.00     0.000 C 
BRANCH   2   3
ATOM      3  C   UNL     1      -8.188  21.064  -8.305  1.00  0.00     0.000 C 
BRANCH   3   4
ATOM      4  C   UNL     1      -9.072  20.929  -9.556  1.00  0.00     0.000 C 
BRANCH   4   5
ATOM      5  C   UNL     1      -8.285  21.125 -10.864  1.00  0.00     0.000 C 
BRANCH   5   6
ATOM      6  C   UNL     1      -8.246  19.853 -11.725  1.00  0.00     0.000 C 
BRANCH   6   7
ATOM      7  C   UNL     1      -9.651  19.342 -12.087  1.00  0.00     0.006 C 
BRANCH   7   8
ATOM      8  C   UNL     1      -9.664  17.834 -12.369  1.00  0.00     0.053 C 
BRANCH   8   9
ATOM      9  C   UNL     1     -10.781  17.145 -11.648  1.00  0.00     0.041 C 
ATOM     10  O   UNL     1     -10.530  16.282 -10.765  1.00  0.00    -0.550 OA
ATOM     11  O   UNL     1     -12.100  17.430 -11.975  1.00  0.00    -0.550 OA
ENDBRANCH   8   9
ENDBRANCH   7   8
ENDBRANCH   6   7
ENDBRANCH   5   6
ENDBRANCH   4   5
ENDBRANCH   3   4
ENDBRANCH   2   3
ENDBRANCH   1   2
BRANCH   1  12
ATOM     12  C   UNL     1      -4.364  20.088  -7.718  1.00  0.00     0.000 C 
BRANCH  12  13
ATOM     13  C   UNL     1      -3.875  18.650  -7.477  1.00  0.00    -0.000 C 
BRANCH  13  14
ATOM     14  C   UNL     1      -4.579  17.966  -6.290  1.00  0.00    -0.000 C 
BRANCH  14  15
ATOM     15  C   UNL     1      -5.341  16.671  -6.631  1.00  0.00    -0.000 C 
BRANCH  15  16
ATOM     16  C   UNL     1      -6.723  16.933  -7.253  1.00  0.00    -0.000 C 
BRANCH  16  17
ATOM     17  C   UNL     1      -6.870  16.303  -8.648  1.00  0.00    -0.000 C 
BRANCH  17  18
ATOM     18  C   UNL     1      -6.819  17.346  -9.779  1.00  0.00    -0.000 C 
BRANCH  18  19
ATOM     19  C   UNL     1      -5.416  17.483 -10.390  1.00  0.00    -0.003 C 
ATOM     20  C   UNL     1      -4.601  16.194 -10.292  1.00  0.00     0.004 C 
ENDBRANCH  18  19
ENDBRANCH  17  18
ENDBRANCH  16  17
ENDBRANCH  15  16
ENDBRANCH  14  15
ENDBRANCH  13  14
ENDBRANCH  12  13
ENDBRANCH   1  12
TORSDOF 16
ENDMDL
MODEL 5
REMARK VINA RESULT:    -3.512      1.476      1.979
REMARK INTER + INTRA:          -9.564
REMARK INTER:                  -7.360
REMARK INTRA:                  -2.204
REMARK UNBOUND:                -2.766
REMARK SMILES CCCCCCCCCCCCCCCCCC(=O)[O-]
REMARK SMILES IDX 10 1 11 2 12 3 13 4 14 5 15 6 16 7 17 8 18 9 19 10 20 11
REMARK SMILES IDX 9 12 8 13 7 14 6 15 5 16 4 17 3 18 2 19 1 20
REMARK H PARENT
REMARK Flexibility Score: inf
ROOT
ATOM      1  C   UNL     1      -7.201  18.950  -9.772  1.00  0.00     0.000 C 
ENDROOT
BRANCH   1   2
ATOM      2  C   UNL     1      -6.928  19.776 -11.046  1.00  0.00     0.000 C 
BRANCH   2   3
ATOM      3  C   UNL     1      -6.940  18.975 -12.363  1.00  0.00     0.000 C 
BRANCH   3   4
ATOM      4  C   UNL     1      -8.023  19.401 -13.369  1.00  0.00     0.000 C 
BRANCH   4   5
ATOM      5  C   UNL     1      -9.007  20.430 -12.784  1.00  0.00     0.000 C 
BRANCH   5   6
ATOM      6  C   UNL     1     -10.473  20.076 -13.076  1.00  0.00     0.000 C 
BRANCH   6   7
ATOM      7  C   UNL     1     -11.294  19.853 -11.794  1.00  0.00     0.006 C 
BRANCH   7   8
ATOM      8  C   UNL     1     -10.959  18.518 -11.117  1.00  0.00     0.053 C 
BRANCH   8   9
ATOM      9  C   UNL     1     -11.240  17.355 -12.018  1.00  0.00     0.041 C 
ATOM     10  O   UNL     1     -10.342  16.504 -12.254  1.00  0.00    -0.550 OA
ATOM     11  O   UNL     1     -12.484  17.229 -12.623  1.00  0.00    -0.550 OA
ENDBRANCH   8   9
ENDBRANCH   7   8
ENDBRANCH   6   7
ENDBRANCH   5   6
ENDBRANCH   4   5
ENDBRANCH   3   4
ENDBRANCH   2   3
ENDBRANCH   1   2
BRANCH   1  12
ATOM     12  C   UNL     1      -7.561  17.472 -10.013  1.00  0.00     0.000 C 
BRANCH  12  13
ATOM     13  C   UNL     1      -6.795  16.512  -9.087  1.00  0.00    -0.000 C 
BRANCH  13  14
ATOM     14  C   UNL     1      -6.787  16.973  -7.617  1.00  0.00    -0.000 C 
BRANCH  14  15
ATOM     15  C   UNL     1      -5.518  16.613  -6.821  1.00  0.00    -0.000 C 
BRANCH  15  16
ATOM     16  C   UNL     1      -4.225  17.099  -7.498  1.00  0.00    -0.000 C 
BRANCH  16  17
ATOM     17  C   UNL     1      -4.030  18.619  -7.373  1.00  0.00    -0.000 C 
BRANCH  17  18
ATOM     18  C   UNL     1      -4.073  19.104  -5.913  1.00  0.00    -0.000 C 
BRANCH  18  19
ATOM     19  C   UNL     1      -4.782  20.459  -5.764  1.00  0.00    -0.003 C 
ATOM     20  C   UNL     1      -5.842  20.691  -6.839  1.00  0.00     0.004 C 
ENDBRANCH  18  19
ENDBRANCH  17  18
ENDBRANCH  16  17
ENDBRANCH  15  16
ENDBRANCH  14  15
ENDBRANCH  13  14
ENDBRANCH  12  13
ENDBRANCH   1  12
TORSDOF 16
ENDMDL
MODEL 6
REMARK VINA RESULT:    -3.489      2.667      6.573
REMARK INTER + INTRA:          -9.519
REMARK INTER:                  -7.120
REMARK INTRA:                  -2.400
REMARK UNBOUND:                -2.766
REMARK SMILES CCCCCCCCCCCCCCCCCC(=O)[O-]
REMARK SMILES IDX 10 1 11 2 12 3 13 4 14 5 15 6 16 7 17 8 18 9 19 10 20 11
REMARK SMILES IDX 9 12 8 13 7 14 6 15 5 16 4 17 3 18 2 19 1 20
REMARK H PARENT
REMARK Flexibility Score: inf
ROOT
ATOM      1  C   UNL     1      -7.255  18.607 -10.655  1.00  0.00     0.000 C 
ENDROOT
BRANCH   1   2
ATOM      2  C   UNL     1      -7.690  19.797  -9.775  1.00  0.00     0.000 C 
BRANCH   2   3
ATOM      3  C   UNL     1      -6.721  20.156  -8.631  1.00  0.00     0.000 C 
BRANCH   3   4
ATOM      4  C   UNL     1      -5.250  20.309  -9.054  1.00  0.00     0.000 C 
BRANCH   4   5
ATOM      5  C   UNL     1      -4.269  19.760  -8.002  1.00  0.00     0.000 C 
BRANCH   5   6
ATOM      6  C   UNL     1      -4.984  19.037  -6.851  1.00  0.00     0.000 C 
BRANCH   6   7
ATOM      7  C   UNL     1      -4.318  17.698  -6.491  1.00  0.00     0.006 C 
BRANCH   7   8
ATOM      8  C   UNL     1      -5.293  16.518  -6.601  1.00  0.00     0.053 C 
BRANCH   8   9
ATOM      9  C   UNL     1      -5.892  16.420  -7.971  1.00  0.00     0.041 C 
ATOM     10  O   UNL     1      -7.142  16.441  -8.120  1.00  0.00    -0.550 OA
ATOM     11  O   UNL     1      -5.068  16.272  -9.079  1.00  0.00    -0.550 OA
ENDBRANCH   8   9
ENDBRANCH   7   8
ENDBRANCH   6   7
ENDBRANCH   5   6
ENDBRANCH   4   5
ENDBRANCH   3   4
ENDBRANCH   2   3
ENDBRANCH   1   2
BRANCH   1  12
ATOM     12  C   UNL     1      -7.108  18.922 -12.155  1.00  0.00     0.000 C 
BRANCH  12  13
ATOM     13  C   UNL     1      -7.869  20.189 -12.577  1.00  0.00    -0.000 C 
BRANCH  13  14
ATOM     14  C   UNL     1      -8.741  19.979 -13.829  1.00  0.00    -0.000 C 
BRANCH  14  15
ATOM     15  C   UNL     1     -10.263  20.002 -13.586  1.00  0.00    -0.000 C 
BRANCH  15  16
ATOM     16  C   UNL     1     -10.632  20.264 -12.116  1.00  0.00    -0.000 C 
BRANCH  16  17
ATOM     17  C   UNL     1     -11.196  19.015 -11.419  1.00  0.00    -0.000 C 
BRANCH  17  18
ATOM     18  C   UNL     1     -11.605  17.914 -12.414  1.00  0.00    -0.000 C 
BRANCH  18  19
ATOM     19  C   UNL     1     -10.841  16.600 -12.183  1.00  0.00    -0.003 C 
ATOM     20  C   UNL     1     -10.109  16.571 -10.843  1.00  0.00     0.004 C 
ENDBRANCH  18  19
ENDBRANCH  17  18
ENDBRANCH  16  17
ENDBRANCH  15  16
ENDBRANCH  14  15
ENDBRANCH  13  14
ENDBRANCH  12  13
ENDBRANCH   1  12
TORSDOF 16
ENDMDL
MODEL 7
REMARK VINA RESULT:    -3.440      1.430      3.363
REMARK INTER + INTRA:          -9.425
REMARK INTER:                  -6.781
REMARK INTRA:                  -2.643
REMARK UNBOUND:                -2.766
REMARK SMILES CCCCCCCCCCCCCCCCCC(=O)[O-]
REMARK SMILES IDX 10 1 11 2 12 3 13 4 14 5 15 6 16 7 17 8 18 9 19 10 20 11
REMARK SMILES IDX 9 12 8 13 7 14 6 15 5 16 4 17 3 18 2 19 1 20
REMARK H PARENT
REMARK Flexibility Score: inf
ROOT
ATOM      1  C   UNL     1      -6.324  19.815 -11.617  1.00  0.00     0.000 C 
ENDROOT
BRANCH   1   2
ATOM      2  C   UNL     1      -7.543  20.266 -10.786  1.00  0.00     0.000 C 
BRANCH   2   3
ATOM      3  C   UNL     1      -8.780  19.352 -10.886  1.00  0.00     0.000 C 
BRANCH   3   4
ATOM      4  C   UNL     1      -8.467  17.849 -10.984  1.00  0.00     0.000 C 
BRANCH   4   5
ATOM      5  C   UNL     1      -9.735  16.977 -10.998  1.00  0.00     0.000 C 
BRANCH   5   6
ATOM      6  C   UNL     1     -11.018  17.805 -11.169  1.00  0.00     0.000 C 
BRANCH   6   7
ATOM      7  C   UNL     1     -11.885  17.317 -12.342  1.00  0.00     0.006 C 
BRANCH   7   8
ATOM      8  C   UNL     1     -12.245  18.453 -13.308  1.00  0.00     0.053 C 
BRANCH   8   9
ATOM      9  C   UNL     1     -11.025  19.170 -13.800  1.00  0.00     0.041 C 
ATOM     10  O   UNL     1     -10.140  18.547 -14.444  1.00  0.00    -0.550 OA
ATOM     11  O   UNL     1     -10.851  20.518 -13.517  1.00  0.00    -0.550 OA
ENDBRANCH   8   9
ENDBRANCH   7   8
ENDBRANCH   6   7
ENDBRANCH   5   6
ENDBRANCH   4   5
ENDBRANCH   3   4
ENDBRANCH   2   3
ENDBRANCH   1   2
BRANCH   1  12
ATOM     12  C   UNL     1      -4.952  20.134 -10.993  1.00  0.00     0.000 C 
BRANCH  12  13
ATOM     13  C   UNL     1      -4.108  18.875 -10.733  1.00  0.00    -0.000 C 
BRANCH  13  14
ATOM     14  C   UNL     1      -4.626  17.636 -11.487  1.00  0.00    -0.000 C 
BRANCH  14  15
ATOM     15  C   UNL     1      -4.313  16.281 -10.824  1.00  0.00    -0.000 C 
BRANCH  15  16
ATOM     16  C   UNL     1      -4.574  16.279  -9.308  1.00  0.00    -0.000 C 
BRANCH  16  17
ATOM     17  C   UNL     1      -6.073  16.220  -8.969  1.00  0.00    -0.000 C 
BRANCH  17  18
ATOM     18  C   UNL     1      -6.416  16.962  -7.665  1.00  0.00    -0.000 C 
BRANCH  18  19
ATOM     19  C   UNL     1      -6.517  18.482  -7.862  1.00  0.00    -0.003 C 
ATOM     20  C   UNL     1      -5.350  19.238  -7.229  1.00  0.00     0.004 C 
ENDBRANCH  18  19
ENDBRANCH  17  18
ENDBRANCH  16  17
ENDBRANCH  15  16
ENDBRANCH  14  15
ENDBRANCH  13  14
ENDBRANCH  12  13
ENDBRANCH   1  12
TORSDOF 16
ENDMDL
MODEL 8
REMARK VINA RESULT:    -3.423      2.613      6.397
REMARK INTER + INTRA:          -9.391
REMARK INTER:                  -7.197
REMARK INTRA:                  -2.194
REMARK UNBOUND:                -2.766
REMARK SMILES CCCCCCCCCCCCCCCCCC(=O)[O-]
REMARK SMILES IDX 10 1 11 2 12 3 13 4 14 5 15 6 16 7 17 8 18 9 19 10 20 11
REMARK SMILES IDX 9 12 8 13 7 14 6 15 5 16 4 17 3 18 2 19 1 20
REMARK H PARENT
REMARK Flexibility Score: inf
ROOT
ATOM      1  C   UNL     1      -6.804  20.716  -7.463  1.00  0.00     0.000 C 
ENDROOT
BRANCH   1   2
ATOM      2  C   UNL     1      -5.311  20.344  -7.576  1.00  0.00     0.000 C 
BRANCH   2   3
ATOM      3  C   UNL     1      -4.666  19.816  -6.279  1.00  0.00     0.000 C 
BRANCH   3   4
ATOM      4  C   UNL     1      -3.977  18.446  -6.411  1.00  0.00     0.000 C 
BRANCH   4   5
ATOM      5  C   UNL     1      -4.837  17.293  -5.862  1.00  0.00     0.000 C 
BRANCH   5   6
ATOM      6  C   UNL     1      -5.328  16.347  -6.969  1.00  0.00     0.000 C 
BRANCH   6   7
ATOM      7  C   UNL     1      -6.563  16.892  -7.706  1.00  0.00     0.006 C 
BRANCH   7   8
ATOM      8  C   UNL     1      -6.561  16.519  -9.194  1.00  0.00     0.053 C 
BRANCH   8   9
ATOM      9  C   UNL     1      -5.199  16.666  -9.800  1.00  0.00     0.041 C 
ATOM     10  O   UNL     1      -4.688  17.808  -9.941  1.00  0.00    -0.550 OA
ATOM     11  O   UNL     1      -4.510  15.544 -10.240  1.00  0.00    -0.550 OA
ENDBRANCH   8   9
ENDBRANCH   7   8
ENDBRANCH   6   7
ENDBRANCH   5   6
ENDBRANCH   4   5
ENDBRANCH   3   4
ENDBRANCH   2   3
ENDBRANCH   1   2
BRANCH   1  12
ATOM     12  C   UNL     1      -7.487  21.095  -8.789  1.00  0.00     0.000 C 
BRANCH  12  13
ATOM     13  C   UNL     1      -7.550  19.925  -9.785  1.00  0.00    -0.000 C 
BRANCH  13  14
ATOM     14  C   UNL     1      -7.036  20.299 -11.187  1.00  0.00    -0.000 C 
BRANCH  14  15
ATOM     15  C   UNL     1      -7.033  19.152 -12.217  1.00  0.00    -0.000 C 
BRANCH  15  16
ATOM     16  C   UNL     1      -7.838  19.482 -13.485  1.00  0.00    -0.000 C 
BRANCH  16  17
ATOM     17  C   UNL     1      -9.356  19.442 -13.245  1.00  0.00    -0.000 C 
BRANCH  17  18
ATOM     18  C   UNL     1      -9.855  18.045 -12.831  1.00  0.00    -0.000 C 
BRANCH  18  19
ATOM     19  C   UNL     1     -10.345  18.004 -11.375  1.00  0.00    -0.003 C 
ATOM     20  C   UNL     1     -10.381  16.586 -10.805  1.00  0.00     0.004 C 
ENDBRANCH  18  19
ENDBRANCH  17  18
ENDBRANCH  16  17
ENDBRANCH  15  16
ENDBRANCH  14  15
ENDBRANCH  13  14
ENDBRANCH  12  13
ENDBRANCH   1  12
TORSDOF 16
ENDMDL
MODEL 9
REMARK VINA RESULT:    -3.399      3.415      6.887
REMARK INTER + INTRA:          -9.345
REMARK INTER:                  -7.595
REMARK INTRA:                  -1.750
REMARK UNBOUND:                -2.766
REMARK SMILES CCCCCCCCCCCCCCCCCC(=O)[O-]
REMARK SMILES IDX 10 1 11 2 12 3 13 4 14 5 15 6 16 7 17 8 18 9 19 10 20 11
REMARK SMILES IDX 9 12 8 13 7 14 6 15 5 16 4 17 3 18 2 19 1 20
REMARK H PARENT
REMARK Flexibility Score: inf
ROOT
ATOM      1  C   UNL     1      -6.364  20.508 -10.126  1.00  0.00     0.000 C 
ENDROOT
BRANCH   1   2
ATOM      2  C   UNL     1      -5.233  19.597 -10.647  1.00  0.00     0.000 C 
BRANCH   2   3
ATOM      3  C   UNL     1      -5.668  18.174 -11.049  1.00  0.00     0.000 C 
BRANCH   3   4
ATOM      4  C   UNL     1      -4.728  17.052 -10.574  1.00  0.00     0.000 C 
BRANCH   4   5
ATOM      5  C   UNL     1      -5.378  16.139  -9.519  1.00  0.00     0.000 C 
BRANCH   5   6
ATOM      6  C   UNL     1      -6.642  16.758  -8.903  1.00  0.00     0.000 C 
BRANCH   6   7
ATOM      7  C   UNL     1      -6.496  17.019  -7.394  1.00  0.00     0.006 C 
BRANCH   7   8
ATOM      8  C   UNL     1      -5.170  16.484  -6.839  1.00  0.00     0.053 C 
BRANCH   8   9
ATOM      9  C   UNL     1      -4.542  17.447  -5.879  1.00  0.00     0.041 C 
ATOM     10  O   UNL     1      -4.110  18.558  -6.286  1.00  0.00    -0.550 OA
ATOM     11  O   UNL     1      -4.403  17.102  -4.541  1.00  0.00    -0.550 OA
ENDBRANCH   8   9
ENDBRANCH   7   8
ENDBRANCH   6   7
ENDBRANCH   5   6
ENDBRANCH   4   5
ENDBRANCH   3   4
ENDBRANCH   2   3
ENDBRANCH   1   2
BRANCH   1  12
ATOM     12  C   UNL     1      -7.481  20.812 -11.142  1.00  0.00     0.000 C 
BRANCH  12  13
ATOM     13  C   UNL     1      -8.857  20.995 -10.480  1.00  0.00    -0.000 C 
BRANCH  13  14
ATOM     14  C   UNL     1     -10.004  21.125 -11.500  1.00  0.00    -0.000 C 
BRANCH  14  15
ATOM     15  C   UNL     1     -11.344  20.500 -11.069  1.00  0.00    -0.000 C 
BRANCH  15  16
ATOM     16  C   UNL     1     -12.036  19.723 -12.201  1.00  0.00    -0.000 C 
BRANCH  16  17
ATOM     17  C   UNL     1     -11.174  18.568 -12.736  1.00  0.00    -0.000 C 
BRANCH  17  18
ATOM     18  C   UNL     1     -11.591  17.201 -12.163  1.00  0.00    -0.000 C 
BRANCH  18  19
ATOM     19  C   UNL     1     -10.505  16.582 -11.269  1.00  0.00    -0.003 C 
ATOM     20  C   UNL     1      -9.267  17.469 -11.144  1.00  0.00     0.004 C 
ENDBRANCH  18  19
ENDBRANCH  17  18
ENDBRANCH  16  17
ENDBRANCH  15  16
ENDBRANCH  14  15
ENDBRANCH  13  14
ENDBRANCH  12  13
ENDBRANCH   1  12
TORSDOF 16
ENDMDL
