MODEL 1
REMARK VINA RESULT:    -4.459      0.000      0.000
REMARK INTER + INTRA:         -14.640
REMARK INTER:                 -10.193
REMARK INTRA:                  -4.447
REMARK UNBOUND:                -4.447
REMARK SMILES CCCCCCCCCCCCCCCCCCCCCCCC(=O)[O-]
REMARK SMILES IDX 13 1 14 2 15 3 16 4 17 5 18 6 19 7 20 8 21 9 22 10 23 11
REMARK SMILES IDX 24 12 25 13 26 14 12 15 11 16 10 17 9 18 8 19 7 20 6 21 5 22
REMARK SMILES IDX 4 23 3 24 2 25 1 26
REMARK H PARENT
REMARK Flexibility Score: inf
ROOT
ATOM      1  C   UNL     1      17.010  -6.242 -18.374  1.00  0.00     0.000 C 
ENDROOT
BRANCH   1   2
ATOM      2  C   UNL     1      17.964  -6.197 -19.585  1.00  0.00     0.000 C 
BRANCH   2   3
ATOM      3  C   UNL     1      17.347  -6.637 -20.926  1.00  0.00     0.000 C 
BRANCH   3   4
ATOM      4  C   UNL     1      17.823  -5.810 -22.140  1.00  0.00     0.000 C 
BRANCH   4   5
ATOM      5  C   UNL     1      17.298  -4.368 -22.112  1.00  0.00     0.000 C 
BRANCH   5   6
ATOM      6  C   UNL     1      16.185  -4.162 -23.150  1.00  0.00     0.000 C 
BRANCH   6   7
ATOM      7  C   UNL     1      14.785  -4.490 -22.601  1.00  0.00     0.000 C 
BRANCH   7   8
ATOM      8  C   UNL     1      14.478  -3.914 -21.204  1.00  0.00     0.000 C 
BRANCH   8   9
ATOM      9  C   UNL     1      14.036  -4.985 -20.197  1.00  0.00     0.000 C 
BRANCH   9  10
ATOM     10  C   UNL     1      12.675  -4.628 -19.581  1.00  0.00     0.006 C 
BRANCH  10  11
ATOM     11  C   UNL     1      11.595  -4.416 -20.651  1.00  0.00     0.053 C 
BRANCH  11  12
ATOM     12  C   UNL     1      11.137  -5.715 -21.238  1.00  0.00     0.041 C 
ATOM     13  O   UNL     1      11.668  -6.161 -22.290  1.00  0.00    -0.550 OA
ATOM     14  O   UNL     1      10.150  -6.456 -20.603  1.00  0.00    -0.550 OA
ENDBRANCH  11  12
ENDBRANCH  10  11
ENDBRANCH   9  10
ENDBRANCH   8   9
ENDBRANCH   7   8
ENDBRANCH   6   7
ENDBRANCH   5   6
ENDBRANCH   4   5
ENDBRANCH   3   4
ENDBRANCH   2   3
ENDBRANCH   1   2
BRANCH   1  15
ATOM     15  C   UNL     1      17.674  -6.002 -17.007  1.00  0.00     0.000 C 
BRANCH  15  16
ATOM     16  C   UNL     1      16.890  -5.024 -16.118  1.00  0.00     0.000 C 
BRANCH  16  17
ATOM     17  C   UNL     1      15.968  -4.140 -16.973  1.00  0.00     0.000 C 
BRANCH  17  18
ATOM     18  C   UNL     1      16.603  -2.779 -17.324  1.00  0.00    -0.000 C 
BRANCH  18  19
ATOM     19  C   UNL     1      16.800  -2.561 -18.834  1.00  0.00    -0.000 C 
BRANCH  19  20
ATOM     20  C   UNL     1      18.229  -2.117 -19.195  1.00  0.00    -0.000 C 
BRANCH  20  21
ATOM     21  C   UNL     1      19.297  -2.971 -18.492  1.00  0.00    -0.000 C 
BRANCH  21  22
ATOM     22  C   UNL     1      20.575  -3.128 -19.337  1.00  0.00    -0.000 C 
BRANCH  22  23
ATOM     23  C   UNL     1      20.286  -3.031 -20.845  1.00  0.00    -0.000 C 
BRANCH  23  24
ATOM     24  C   UNL     1      21.146  -4.019 -21.655  1.00  0.00    -0.000 C 
BRANCH  24  25
ATOM     25  C   UNL     1      21.460  -5.309 -20.881  1.00  0.00    -0.003 C 
ATOM     26  C   UNL     1      21.314  -6.567 -21.738  1.00  0.00     0.004 C 
ENDBRANCH  24  25
ENDBRANCH  23  24
ENDBRANCH  22  23
ENDBRANCH  21  22
ENDBRANCH  20  21
ENDBRANCH  19  20
ENDBRANCH  18  19
ENDBRANCH  17  18
ENDBRANCH  16  17
ENDBRANCH  15  16
ENDBRANCH   1  15
TORSDOF 22
ENDMDL
MODEL 2
REMARK VINA RESULT:    -4.452      1.683      3.999
REMARK INTER + INTRA:         -14.624
REMARK INTER:                 -11.443
REMARK INTRA:                  -3.181
REMARK UNBOUND:                -4.447
REMARK SMILES CCCCCCCCCCCCCCCCCCCCCCCC(=O)[O-]
REMARK SMILES IDX 13 1 14 2 15 3 16 4 17 5 18 6 19 7 20 8 21 9 22 10 23 11
REMARK SMILES IDX 24 12 25 13 26 14 12 15 11 16 10 17 9 18 8 19 7 20 6 21 5 22
REMARK SMILES IDX 4 23 3 24 2 25 1 26
REMARK H PARENT
REMARK Flexibility Score: inf
ROOT
ATOM      1  C   UNL     1      19.242  -4.893 -22.415  1.00  0.00     0.000 C 
ENDROOT
BRANCH   1   2
ATOM      2  C   UNL     1      17.753  -5.272 -22.291  1.00  0.00     0.000 C 
BRANCH   2   3
ATOM      3  C   UNL     1      16.762  -4.102 -22.443  1.00  0.00     0.000 C 
BRANCH   3   4
ATOM      4  C   UNL     1      15.561  -4.165 -21.474  1.00  0.00     0.000 C 
BRANCH   4   5
ATOM      5  C   UNL     1      15.696  -5.291 -20.441  1.00  0.00     0.000 C 
BRANCH   5   6
ATOM      6  C   UNL     1      14.329  -5.683 -19.863  1.00  0.00     0.000 C 
BRANCH   6   7
ATOM      7  C   UNL     1      13.472  -4.465 -19.475  1.00  0.00     0.000 C 
BRANCH   7   8
ATOM      8  C   UNL     1      11.948  -4.686 -19.548  1.00  0.00     0.000 C 
BRANCH   8   9
ATOM      9  C   UNL     1      11.398  -4.604 -20.979  1.00  0.00     0.000 C 
BRANCH   9  10
ATOM     10  C   UNL     1      10.229  -5.582 -21.172  1.00  0.00     0.006 C 
BRANCH  10  11
ATOM     11  C   UNL     1       9.568  -5.425 -22.549  1.00  0.00     0.053 C 
BRANCH  11  12
ATOM     12  C   UNL     1       8.155  -4.942 -22.431  1.00  0.00     0.041 C 
ATOM     13  O   UNL     1       7.366  -5.475 -21.606  1.00  0.00    -0.550 OA
ATOM     14  O   UNL     1       7.718  -3.876 -23.206  1.00  0.00    -0.550 OA
ENDBRANCH  11  12
ENDBRANCH  10  11
ENDBRANCH   9  10
ENDBRANCH   8   9
ENDBRANCH   7   8
ENDBRANCH   6   7
ENDBRANCH   5   6
ENDBRANCH   4   5
ENDBRANCH   3   4
ENDBRANCH   2   3
ENDBRANCH   1   2
BRANCH   1  15
ATOM     15  C   UNL     1      20.046  -4.957 -21.104  1.00  0.00     0.000 C 
BRANCH  15  16
ATOM     16  C   UNL     1      20.731  -3.628 -20.750  1.00  0.00     0.000 C 
BRANCH  16  17
ATOM     17  C   UNL     1      19.687  -2.576 -20.342  1.00  0.00     0.000 C 
BRANCH  17  18
ATOM     18  C   UNL     1      19.011  -2.899 -18.994  1.00  0.00    -0.000 C 
BRANCH  18  19
ATOM     19  C   UNL     1      17.571  -2.366 -18.883  1.00  0.00    -0.000 C 
BRANCH  19  20
ATOM     20  C   UNL     1      16.995  -2.486 -17.461  1.00  0.00    -0.000 C 
BRANCH  20  21
ATOM     21  C   UNL     1      16.208  -3.791 -17.261  1.00  0.00    -0.000 C 
BRANCH  21  22
ATOM     22  C   UNL     1      16.652  -4.561 -16.004  1.00  0.00    -0.000 C 
BRANCH  22  23
ATOM     23  C   UNL     1      17.083  -6.002 -16.331  1.00  0.00    -0.000 C 
BRANCH  23  24
ATOM     24  C   UNL     1      18.065  -6.049 -17.517  1.00  0.00    -0.000 C 
BRANCH  24  25
ATOM     25  C   UNL     1      19.511  -6.338 -17.082  1.00  0.00    -0.003 C 
ATOM     26  C   UNL     1      20.284  -7.169 -18.107  1.00  0.00     0.004 C 
ENDBRANCH  24  25
ENDBRANCH  23  24
ENDBRANCH  22  23
ENDBRANCH  21  22
ENDBRANCH  20  21
ENDBRANCH  19  20
ENDBRANCH  18  19
ENDBRANCH  17  18
ENDBRANCH  16  17
ENDBRANCH  15  16
ENDBRANCH   1  15
TORSDOF 22
ENDMDL
MODEL 3
REMARK VINA RESULT:    -4.411      1.122      3.515
REMARK INTER + INTRA:         -14.530
REMARK INTER:                 -10.477
REMARK INTRA:                  -4.053
REMARK UNBOUND:                -4.447
REMARK SMILES CCCCCCCCCCCCCCCCCCCCCCCC(=O)[O-]
REMARK SMILES IDX 13 1 14 2 15 3 16 4 17 5 18 6 19 7 20 8 21 9 22 10 23 11
REMARK SMILES IDX 24 12 25 13 26 14 12 15 11 16 10 17 9 18 8 19 7 20 6 21 5 22
REMARK SMILES IDX 4 23 3 24 2 25 1 26
REMARK H PARENT
REMARK Flexibility Score: inf
ROOT
ATOM      1  C   UNL     1      20.498  -3.371 -21.018  1.00  0.00     0.000 C 
ENDROOT
BRANCH   1   2
ATOM      2  C   UNL     1      20.651  -4.539 -22.014  1.00  0.00     0.000 C 
BRANCH   2   3
ATOM      3  C   UNL     1      19.368  -5.350 -22.279  1.00  0.00     0.000 C 
BRANCH   3   4
ATOM      4  C   UNL     1      18.069  -4.518 -22.199  1.00  0.00     0.000 C 
BRANCH   4   5
ATOM      5  C   UNL     1      16.855  -5.267 -22.763  1.00  0.00     0.000 C 
BRANCH   5   6
ATOM      6  C   UNL     1      15.655  -5.180 -21.809  1.00  0.00     0.000 C 
BRANCH   6   7
ATOM      7  C   UNL     1      14.835  -3.891 -21.994  1.00  0.00     0.000 C 
BRANCH   7   8
ATOM      8  C   UNL     1      13.971  -3.485 -20.783  1.00  0.00     0.000 C 
BRANCH   8   9
ATOM      9  C   UNL     1      13.729  -4.642 -19.804  1.00  0.00     0.000 C 
BRANCH   9  10
ATOM     10  C   UNL     1      12.446  -5.406 -20.166  1.00  0.00     0.006 C 
BRANCH  10  11
ATOM     11  C   UNL     1      11.268  -4.459 -20.436  1.00  0.00     0.053 C 
BRANCH  11  12
ATOM     12  C   UNL     1      10.409  -4.953 -21.559  1.00  0.00     0.041 C 
ATOM     13  O   UNL     1      10.162  -6.183 -21.678  1.00  0.00    -0.550 OA
ATOM     14  O   UNL     1       9.847  -4.052 -22.453  1.00  0.00    -0.550 OA
ENDBRANCH  11  12
ENDBRANCH  10  11
ENDBRANCH   9  10
ENDBRANCH   8   9
ENDBRANCH   7   8
ENDBRANCH   6   7
ENDBRANCH   5   6
ENDBRANCH   4   5
ENDBRANCH   3   4
ENDBRANCH   2   3
ENDBRANCH   1   2
BRANCH   1  15
ATOM     15  C   UNL     1      20.713  -3.740 -19.539  1.00  0.00     0.000 C 
BRANCH  15  16
ATOM     16  C   UNL     1      19.716  -3.051 -18.594  1.00  0.00     0.000 C 
BRANCH  16  17
ATOM     17  C   UNL     1      18.620  -2.333 -19.398  1.00  0.00     0.000 C 
BRANCH  17  18
ATOM     18  C   UNL     1      17.204  -2.846 -19.065  1.00  0.00    -0.000 C 
BRANCH  18  19
ATOM     19  C   UNL     1      16.796  -2.622 -17.598  1.00  0.00    -0.000 C 
BRANCH  19  20
ATOM     20  C   UNL     1      15.975  -3.787 -17.019  1.00  0.00    -0.000 C 
BRANCH  20  21
ATOM     21  C   UNL     1      16.767  -4.593 -15.976  1.00  0.00    -0.000 C 
BRANCH  21  22
ATOM     22  C   UNL     1      17.015  -6.046 -16.419  1.00  0.00    -0.000 C 
BRANCH  22  23
ATOM     23  C   UNL     1      18.057  -6.136 -17.548  1.00  0.00    -0.000 C 
BRANCH  23  24
ATOM     24  C   UNL     1      17.422  -6.593 -18.875  1.00  0.00    -0.000 C 
BRANCH  24  25
ATOM     25  C   UNL     1      16.003  -7.154 -18.694  1.00  0.00    -0.003 C 
ATOM     26  C   UNL     1      15.662  -8.246 -19.710  1.00  0.00     0.004 C 
ENDBRANCH  24  25
ENDBRANCH  23  24
ENDBRANCH  22  23
ENDBRANCH  21  22
ENDBRANCH  20  21
ENDBRANCH  19  20
ENDBRANCH  18  19
ENDBRANCH  17  18
ENDBRANCH  16  17
ENDBRANCH  15  16
ENDBRANCH   1  15
TORSDOF 22
ENDMDL
MODEL 4
REMARK VINA RESULT:    -4.408      2.845      6.547
REMARK INTER + INTRA:         -14.524
REMARK INTER:                  -9.941
REMARK INTRA:                  -4.583
REMARK UNBOUND:                -4.447
REMARK SMILES CCCCCCCCCCCCCCCCCCCCCCCC(=O)[O-]
REMARK SMILES IDX 13 1 14 2 15 3 16 4 17 5 18 6 19 7 20 8 21 9 22 10 23 11
REMARK SMILES IDX 24 12 25 13 26 14 12 15 11 16 10 17 9 18 8 19 7 20 6 21 5 22
REMARK SMILES IDX 4 23 3 24 2 25 1 26
REMARK H PARENT
REMARK Flexibility Score: inf
ROOT
ATOM      1  C   UNL     1      17.769  -5.839 -21.826  1.00  0.00     0.000 C 
ENDROOT
BRANCH   1   2
ATOM      2  C   UNL     1      19.275  -5.868 -21.494  1.00  0.00     0.000 C 
BRANCH   2   3
ATOM      3  C   UNL     1      20.163  -4.984 -22.390  1.00  0.00     0.000 C 
BRANCH   3   4
ATOM      4  C   UNL     1      20.866  -3.831 -21.639  1.00  0.00     0.000 C 
BRANCH   4   5
ATOM      5  C   UNL     1      19.881  -2.954 -20.855  1.00  0.00     0.000 C 
BRANCH   5   6
ATOM      6  C   UNL     1      20.245  -2.908 -19.363  1.00  0.00     0.000 C 
BRANCH   6   7
ATOM      7  C   UNL     1      21.351  -3.910 -18.985  1.00  0.00     0.000 C 
BRANCH   7   8
ATOM      8  C   UNL     1      21.088  -4.722 -17.701  1.00  0.00     0.000 C 
BRANCH   8   9
ATOM      9  C   UNL     1      20.492  -6.108 -17.980  1.00  0.00     0.000 C 
BRANCH   9  10
ATOM     10  C   UNL     1      19.171  -6.299 -17.219  1.00  0.00     0.006 C 
BRANCH  10  11
ATOM     11  C   UNL     1      18.006  -5.558 -17.890  1.00  0.00     0.053 C 
BRANCH  11  12
ATOM     12  C   UNL     1      17.364  -4.578 -16.958  1.00  0.00     0.041 C 
ATOM     13  O   UNL     1      16.852  -4.970 -15.876  1.00  0.00    -0.550 OA
ATOM     14  O   UNL     1      17.365  -3.224 -17.265  1.00  0.00    -0.550 OA
ENDBRANCH  11  12
ENDBRANCH  10  11
ENDBRANCH   9  10
ENDBRANCH   8   9
ENDBRANCH   7   8
ENDBRANCH   6   7
ENDBRANCH   5   6
ENDBRANCH   4   5
ENDBRANCH   3   4
ENDBRANCH   2   3
ENDBRANCH   1   2
BRANCH   1  15
ATOM     15  C   UNL     1      17.365  -4.870 -22.952  1.00  0.00     0.000 C 
BRANCH  15  16
ATOM     16  C   UNL     1      16.294  -3.856 -22.522  1.00  0.00     0.000 C 
BRANCH  16  17
ATOM     17  C   UNL     1      16.252  -3.734 -20.990  1.00  0.00     0.000 C 
BRANCH  17  18
ATOM     18  C   UNL     1      14.819  -3.560 -20.445  1.00  0.00    -0.000 C 
BRANCH  18  19
ATOM     19  C   UNL     1      14.501  -4.469 -19.245  1.00  0.00    -0.000 C 
BRANCH  19  20
ATOM     20  C   UNL     1      14.642  -5.966 -19.573  1.00  0.00    -0.000 C 
BRANCH  20  21
ATOM     21  C   UNL     1      13.683  -6.409 -20.691  1.00  0.00    -0.000 C 
BRANCH  21  22
ATOM     22  C   UNL     1      14.407  -7.152 -21.828  1.00  0.00    -0.000 C 
BRANCH  22  23
ATOM     23  C   UNL     1      13.996  -6.627 -23.215  1.00  0.00    -0.000 C 
BRANCH  23  24
ATOM     24  C   UNL     1      12.940  -5.512 -23.113  1.00  0.00    -0.000 C 
BRANCH  24  25
ATOM     25  C   UNL     1      13.038  -4.491 -24.259  1.00  0.00    -0.003 C 
ATOM     26  C   UNL     1      12.389  -4.987 -25.552  1.00  0.00     0.004 C 
ENDBRANCH  24  25
ENDBRANCH  23  24
ENDBRANCH  22  23
ENDBRANCH  21  22
ENDBRANCH  20  21
ENDBRANCH  19  20
ENDBRANCH  18  19
ENDBRANCH  17  18
ENDBRANCH  16  17
ENDBRANCH  15  16
ENDBRANCH   1  15
TORSDOF 22
ENDMDL
MODEL 5
REMARK VINA RESULT:    -4.381      4.430     10.125
REMARK INTER + INTRA:         -14.463
REMARK INTER:                 -10.350
REMARK INTRA:                  -4.113
REMARK UNBOUND:                -4.447
REMARK SMILES CCCCCCCCCCCCCCCCCCCCCCCC(=O)[O-]
REMARK SMILES IDX 13 1 14 2 15 3 16 4 17 5 18 6 19 7 20 8 21 9 22 10 23 11
REMARK SMILES IDX 24 12 25 13 26 14 12 15 11 16 10 17 9 18 8 19 7 20 6 21 5 22
REMARK SMILES IDX 4 23 3 24 2 25 1 26
REMARK H PARENT
REMARK Flexibility Score: inf
ROOT
ATOM      1  C   UNL     1      10.065  -5.425 -21.972  1.00  0.00     0.000 C 
ENDROOT
BRANCH   1   2
ATOM      2  C   UNL     1       9.432  -4.131 -22.524  1.00  0.00     0.000 C 
BRANCH   2   3
ATOM      3  C   UNL     1      10.302  -3.349 -23.527  1.00  0.00     0.000 C 
BRANCH   3   4
ATOM      4  C   UNL     1      10.147  -3.814 -24.991  1.00  0.00     0.000 C 
BRANCH   4   5
ATOM      5  C   UNL     1      11.478  -4.261 -25.611  1.00  0.00     0.000 C 
BRANCH   5   6
ATOM      6  C   UNL     1      11.789  -5.724 -25.264  1.00  0.00     0.000 C 
BRANCH   6   7
ATOM      7  C   UNL     1      12.969  -5.870 -24.288  1.00  0.00     0.000 C 
BRANCH   7   8
ATOM      8  C   UNL     1      13.762  -4.575 -24.020  1.00  0.00     0.000 C 
BRANCH   8   9
ATOM      9  C   UNL     1      14.169  -4.414 -22.549  1.00  0.00     0.000 C 
BRANCH   9  10
ATOM     10  C   UNL     1      13.746  -5.641 -21.727  1.00  0.00     0.006 C 
BRANCH  10  11
ATOM     11  C   UNL     1      13.305  -5.259 -20.307  1.00  0.00     0.053 C 
BRANCH  11  12
ATOM     12  C   UNL     1      14.470  -4.860 -19.455  1.00  0.00     0.041 C 
ATOM     13  O   UNL     1      15.179  -5.738 -18.894  1.00  0.00    -0.550 OA
ATOM     14  O   UNL     1      14.800  -3.519 -19.311  1.00  0.00    -0.550 OA
ENDBRANCH  11  12
ENDBRANCH  10  11
ENDBRANCH   9  10
ENDBRANCH   8   9
ENDBRANCH   7   8
ENDBRANCH   6   7
ENDBRANCH   5   6
ENDBRANCH   4   5
ENDBRANCH   3   4
ENDBRANCH   2   3
ENDBRANCH   1   2
BRANCH   1  15
ATOM     15  C   UNL     1       9.068  -6.450 -21.402  1.00  0.00     0.000 C 
BRANCH  15  16
ATOM     16  C   UNL     1       7.603  -6.003 -21.527  1.00  0.00     0.000 C 
BRANCH  16  17
ATOM     17  C   UNL     1       6.687  -7.215 -21.761  1.00  0.00     0.000 C 
BRANCH  17  18
ATOM     18  C   UNL     1       7.474  -8.504 -22.078  1.00  0.00    -0.000 C 
BRANCH  18  19
ATOM     19  C   UNL     1       7.374  -8.941 -23.550  1.00  0.00    -0.000 C 
BRANCH  19  20
ATOM     20  C   UNL     1       8.597  -8.523 -24.385  1.00  0.00    -0.000 C 
BRANCH  20  21
ATOM     21  C   UNL     1       8.285  -7.344 -25.322  1.00  0.00    -0.000 C 
BRANCH  21  22
ATOM     22  C   UNL     1       6.833  -7.368 -25.833  1.00  0.00    -0.000 C 
BRANCH  22  23
ATOM     23  C   UNL     1       6.230  -5.955 -25.927  1.00  0.00    -0.000 C 
BRANCH  23  24
ATOM     24  C   UNL     1       6.799  -5.019 -24.844  1.00  0.00    -0.000 C 
BRANCH  24  25
ATOM     25  C   UNL     1       6.326  -3.565 -25.005  1.00  0.00    -0.003 C 
ATOM     26  C   UNL     1       5.156  -3.426 -25.980  1.00  0.00     0.004 C 
ENDBRANCH  24  25
ENDBRANCH  23  24
ENDBRANCH  22  23
ENDBRANCH  21  22
ENDBRANCH  20  21
ENDBRANCH  19  20
ENDBRANCH  18  19
ENDBRANCH  17  18
ENDBRANCH  16  17
ENDBRANCH  15  16
ENDBRANCH   1  15
TORSDOF 22
ENDMDL
MODEL 6
REMARK VINA RESULT:    -4.378      2.676      6.612
REMARK INTER + INTRA:         -14.456
REMARK INTER:                 -10.093
REMARK INTRA:                  -4.363
REMARK UNBOUND:                -4.447
REMARK SMILES CCCCCCCCCCCCCCCCCCCCCCCC(=O)[O-]
REMARK SMILES IDX 13 1 14 2 15 3 16 4 17 5 18 6 19 7 20 8 21 9 22 10 23 11
REMARK SMILES IDX 24 12 25 13 26 14 12 15 11 16 10 17 9 18 8 19 7 20 6 21 5 22
REMARK SMILES IDX 4 23 3 24 2 25 1 26
REMARK H PARENT
REMARK Flexibility Score: inf
ROOT
ATOM      1  C   UNL     1      19.214  -3.360 -20.740  1.00  0.00     0.000 C 
ENDROOT
BRANCH   1   2
ATOM      2  C   UNL     1      19.712  -2.601 -19.493  1.00  0.00     0.000 C 
BRANCH   2   3
ATOM      3  C   UNL     1      21.131  -2.973 -19.020  1.00  0.00     0.000 C 
BRANCH   3   4
ATOM      4  C   UNL     1      21.161  -3.910 -17.793  1.00  0.00     0.000 C 
BRANCH   4   5
ATOM      5  C   UNL     1      21.884  -5.232 -18.080  1.00  0.00     0.000 C 
BRANCH   5   6
ATOM      6  C   UNL     1      21.218  -6.402 -17.341  1.00  0.00     0.000 C 
BRANCH   6   7
ATOM      7  C   UNL     1      19.701  -6.210 -17.160  1.00  0.00     0.000 C 
BRANCH   7   8
ATOM      8  C   UNL     1      18.835  -6.684 -18.344  1.00  0.00     0.000 C 
BRANCH   8   9
ATOM      9  C   UNL     1      17.482  -5.964 -18.423  1.00  0.00     0.000 C 
BRANCH   9  10
ATOM     10  C   UNL     1      17.506  -4.663 -17.607  1.00  0.00     0.006 C 
BRANCH  10  11
ATOM     11  C   UNL     1      16.456  -4.665 -16.487  1.00  0.00     0.053 C 
BRANCH  11  12
ATOM     12  C   UNL     1      15.957  -3.283 -16.195  1.00  0.00     0.041 C 
ATOM     13  O   UNL     1      15.186  -3.076 -15.221  1.00  0.00    -0.550 OA
ATOM     14  O   UNL     1      16.375  -2.214 -16.977  1.00  0.00    -0.550 OA
ENDBRANCH  11  12
ENDBRANCH  10  11
ENDBRANCH   9  10
ENDBRANCH   8   9
ENDBRANCH   7   8
ENDBRANCH   6   7
ENDBRANCH   5   6
ENDBRANCH   4   5
ENDBRANCH   3   4
ENDBRANCH   2   3
ENDBRANCH   1   2
BRANCH   1  15
ATOM     15  C   UNL     1      20.307  -4.086 -21.546  1.00  0.00     0.000 C 
BRANCH  15  16
ATOM     16  C   UNL     1      20.182  -5.616 -21.491  1.00  0.00     0.000 C 
BRANCH  16  17
ATOM     17  C   UNL     1      19.351  -6.132 -22.677  1.00  0.00     0.000 C 
BRANCH  17  18
ATOM     18  C   UNL     1      17.908  -6.502 -22.277  1.00  0.00    -0.000 C 
BRANCH  18  19
ATOM     19  C   UNL     1      16.879  -5.404 -22.596  1.00  0.00    -0.000 C 
BRANCH  19  20
ATOM     20  C   UNL     1      15.855  -5.196 -21.466  1.00  0.00    -0.000 C 
BRANCH  20  21
ATOM     21  C   UNL     1      15.500  -3.712 -21.271  1.00  0.00    -0.000 C 
BRANCH  21  22
ATOM     22  C   UNL     1      14.798  -3.447 -19.927  1.00  0.00    -0.000 C 
BRANCH  22  23
ATOM     23  C   UNL     1      14.051  -4.689 -19.409  1.00  0.00    -0.000 C 
BRANCH  23  24
ATOM     24  C   UNL     1      12.540  -4.428 -19.270  1.00  0.00    -0.000 C 
BRANCH  24  25
ATOM     25  C   UNL     1      11.684  -5.502 -19.961  1.00  0.00    -0.003 C 
ATOM     26  C   UNL     1      12.169  -5.829 -21.374  1.00  0.00     0.004 C 
ENDBRANCH  24  25
ENDBRANCH  23  24
ENDBRANCH  22  23
ENDBRANCH  21  22
ENDBRANCH  20  21
ENDBRANCH  19  20
ENDBRANCH  18  19
ENDBRANCH  17  18
ENDBRANCH  16  17
ENDBRANCH  15  16
ENDBRANCH   1  15
TORSDOF 22
ENDMDL
MODEL 7
REMARK VINA RESULT:    -4.372      1.714      4.458
REMARK INTER + INTRA:         -14.441
REMARK INTER:                 -10.468
REMARK INTRA:                  -3.974
REMARK UNBOUND:                -4.447
REMARK SMILES CCCCCCCCCCCCCCCCCCCCCCCC(=O)[O-]
REMARK SMILES IDX 13 1 14 2 15 3 16 4 17 5 18 6 19 7 20 8 21 9 22 10 23 11
REMARK SMILES IDX 24 12 25 13 26 14 12 15 11 16 10 17 9 18 8 19 7 20 6 21 5 22
REMARK SMILES IDX 4 23 3 24 2 25 1 26
REMARK H PARENT
REMARK Flexibility Score: inf
ROOT
ATOM      1  C   UNL     1      17.480  -4.813 -22.869  1.00  0.00     0.000 C 
ENDROOT
BRANCH   1   2
ATOM      2  C   UNL     1      16.382  -3.747 -22.682  1.00  0.00     0.000 C 
BRANCH   2   3
ATOM      3  C   UNL     1      15.132  -4.218 -21.915  1.00  0.00     0.000 C 
BRANCH   3   4
ATOM      4  C   UNL     1      14.842  -3.413 -20.629  1.00  0.00     0.000 C 
BRANCH   4   5
ATOM      5  C   UNL     1      14.119  -4.248 -19.563  1.00  0.00     0.000 C 
BRANCH   5   6
ATOM      6  C   UNL     1      14.396  -5.747 -19.749  1.00  0.00     0.000 C 
BRANCH   6   7
ATOM      7  C   UNL     1      13.147  -6.538 -20.177  1.00  0.00     0.000 C 
BRANCH   7   8
ATOM      8  C   UNL     1      11.801  -5.843 -19.887  1.00  0.00     0.000 C 
BRANCH   8   9
ATOM      9  C   UNL     1      10.947  -5.642 -21.147  1.00  0.00     0.000 C 
BRANCH   9  10
ATOM     10  C   UNL     1      11.104  -4.213 -21.691  1.00  0.00     0.006 C 
BRANCH  10  11
ATOM     11  C   UNL     1      11.089  -4.176 -23.226  1.00  0.00     0.053 C 
BRANCH  11  12
ATOM     12  C   UNL     1       9.717  -3.899 -23.758  1.00  0.00     0.041 C 
ATOM     13  O   UNL     1       9.544  -3.666 -24.984  1.00  0.00    -0.550 OA
ATOM     14  O   UNL     1       8.621  -3.937 -22.907  1.00  0.00    -0.550 OA
ENDBRANCH  11  12
ENDBRANCH  10  11
ENDBRANCH   9  10
ENDBRANCH   8   9
ENDBRANCH   7   8
ENDBRANCH   6   7
ENDBRANCH   5   6
ENDBRANCH   4   5
ENDBRANCH   3   4
ENDBRANCH   2   3
ENDBRANCH   1   2
BRANCH   1  15
ATOM     15  C   UNL     1      17.697  -5.749 -21.666  1.00  0.00     0.000 C 
BRANCH  15  16
ATOM     16  C   UNL     1      19.179  -5.924 -21.297  1.00  0.00     0.000 C 
BRANCH  16  17
ATOM     17  C   UNL     1      20.079  -5.255 -22.349  1.00  0.00     0.000 C 
BRANCH  17  18
ATOM     18  C   UNL     1      20.894  -4.078 -21.774  1.00  0.00    -0.000 C 
BRANCH  18  19
ATOM     19  C   UNL     1      21.256  -4.246 -20.288  1.00  0.00    -0.000 C 
BRANCH  19  20
ATOM     20  C   UNL     1      20.854  -3.032 -19.432  1.00  0.00    -0.000 C 
BRANCH  20  21
ATOM     21  C   UNL     1      19.704  -2.231 -20.064  1.00  0.00    -0.000 C 
BRANCH  21  22
ATOM     22  C   UNL     1      18.321  -2.709 -19.587  1.00  0.00    -0.000 C 
BRANCH  22  23
ATOM     23  C   UNL     1      18.359  -3.239 -18.143  1.00  0.00    -0.000 C 
BRANCH  23  24
ATOM     24  C   UNL     1      17.809  -4.674 -18.047  1.00  0.00    -0.000 C 
BRANCH  24  25
ATOM     25  C   UNL     1      16.766  -4.839 -16.930  1.00  0.00    -0.003 C 
ATOM     26  C   UNL     1      16.092  -3.520 -16.548  1.00  0.00     0.004 C 
ENDBRANCH  24  25
ENDBRANCH  23  24
ENDBRANCH  22  23
ENDBRANCH  21  22
ENDBRANCH  20  21
ENDBRANCH  19  20
ENDBRANCH  18  19
ENDBRANCH  17  18
ENDBRANCH  16  17
ENDBRANCH  15  16
ENDBRANCH   1  15
TORSDOF 22
ENDMDL
MODEL 8
REMARK VINA RESULT:    -4.325      1.803      4.516
REMARK INTER + INTRA:         -14.334
REMARK INTER:                 -11.086
REMARK INTRA:                  -3.248
REMARK UNBOUND:                -4.447
REMARK SMILES CCCCCCCCCCCCCCCCCCCCCCCC(=O)[O-]
REMARK SMILES IDX 13 1 14 2 15 3 16 4 17 5 18 6 19 7 20 8 21 9 22 10 23 11
REMARK SMILES IDX 24 12 25 13 26 14 12 15 11 16 10 17 9 18 8 19 7 20 6 21 5 22
REMARK SMILES IDX 4 23 3 24 2 25 1 26
REMARK H PARENT
REMARK Flexibility Score: inf
ROOT
ATOM      1  C   UNL     1      18.455  -4.954 -21.743  1.00  0.00     0.000 C 
ENDROOT
BRANCH   1   2
ATOM      2  C   UNL     1      17.329  -5.288 -22.742  1.00  0.00     0.000 C 
BRANCH   2   3
ATOM      3  C   UNL     1      16.383  -4.119 -23.081  1.00  0.00     0.000 C 
BRANCH   3   4
ATOM      4  C   UNL     1      15.077  -4.108 -22.257  1.00  0.00     0.000 C 
BRANCH   4   5
ATOM      5  C   UNL     1      15.159  -3.179 -21.038  1.00  0.00     0.000 C 
BRANCH   5   6
ATOM      6  C   UNL     1      14.469  -3.803 -19.816  1.00  0.00     0.000 C 
BRANCH   6   7
ATOM      7  C   UNL     1      13.473  -4.915 -20.194  1.00  0.00     0.000 C 
BRANCH   7   8
ATOM      8  C   UNL     1      12.009  -4.646 -19.796  1.00  0.00     0.000 C 
BRANCH   8   9
ATOM      9  C   UNL     1      11.002  -5.123 -20.853  1.00  0.00     0.000 C 
BRANCH   9  10
ATOM     10  C   UNL     1      11.311  -4.499 -22.223  1.00  0.00     0.006 C 
BRANCH  10  11
ATOM     11  C   UNL     1      10.061  -3.891 -22.875  1.00  0.00     0.053 C 
BRANCH  11  12
ATOM     12  C   UNL     1      10.288  -3.585 -24.323  1.00  0.00     0.041 C 
ATOM     13  O   UNL     1       9.342  -3.677 -25.149  1.00  0.00    -0.550 OA
ATOM     14  O   UNL     1      11.536  -3.158 -24.756  1.00  0.00    -0.550 OA
ENDBRANCH  11  12
ENDBRANCH  10  11
ENDBRANCH   9  10
ENDBRANCH   8   9
ENDBRANCH   7   8
ENDBRANCH   6   7
ENDBRANCH   5   6
ENDBRANCH   4   5
ENDBRANCH   3   4
ENDBRANCH   2   3
ENDBRANCH   1   2
BRANCH   1  15
ATOM     15  C   UNL     1      19.872  -4.910 -22.344  1.00  0.00     0.000 C 
BRANCH  15  16
ATOM     16  C   UNL     1      20.709  -3.729 -21.829  1.00  0.00     0.000 C 
BRANCH  16  17
ATOM     17  C   UNL     1      19.986  -3.018 -20.674  1.00  0.00     0.000 C 
BRANCH  17  18
ATOM     18  C   UNL     1      20.941  -2.608 -19.534  1.00  0.00    -0.000 C 
BRANCH  18  19
ATOM     19  C   UNL     1      20.681  -3.352 -18.213  1.00  0.00    -0.000 C 
BRANCH  19  20
ATOM     20  C   UNL     1      20.804  -4.879 -18.350  1.00  0.00    -0.000 C 
BRANCH  20  21
ATOM     21  C   UNL     1      19.816  -5.626 -17.437  1.00  0.00    -0.000 C 
BRANCH  21  22
ATOM     22  C   UNL     1      18.675  -6.293 -18.226  1.00  0.00    -0.000 C 
BRANCH  22  23
ATOM     23  C   UNL     1      17.411  -5.417 -18.267  1.00  0.00    -0.000 C 
BRANCH  23  24
ATOM     24  C   UNL     1      16.827  -5.193 -16.860  1.00  0.00    -0.000 C 
BRANCH  24  25
ATOM     25  C   UNL     1      16.348  -3.749 -16.637  1.00  0.00    -0.003 C 
ATOM     26  C   UNL     1      17.123  -2.731 -17.474  1.00  0.00     0.004 C 
ENDBRANCH  24  25
ENDBRANCH  23  24
ENDBRANCH  22  23
ENDBRANCH  21  22
ENDBRANCH  20  21
ENDBRANCH  19  20
ENDBRANCH  18  19
ENDBRANCH  17  18
ENDBRANCH  16  17
ENDBRANCH  15  16
ENDBRANCH   1  15
TORSDOF 22
ENDMDL
MODEL 9
REMARK VINA RESULT:    -4.306      2.358      5.864
REMARK INTER + INTRA:         -14.292
REMARK INTER:                  -9.299
REMARK INTRA:                  -4.993
REMARK UNBOUND:                -4.447
REMARK SMILES CCCCCCCCCCCCCCCCCCCCCCCC(=O)[O-]
REMARK SMILES IDX 13 1 14 2 15 3 16 4 17 5 18 6 19 7 20 8 21 9 22 10 23 11
REMARK SMILES IDX 24 12 25 13 26 14 12 15 11 16 10 17 9 18 8 19 7 20 6 21 5 22
REMARK SMILES IDX 4 23 3 24 2 25 1 26
REMARK H PARENT
REMARK Flexibility Score: inf
ROOT
ATOM      1  C   UNL     1      17.770  -6.178 -17.653  1.00  0.00     0.000 C 
ENDROOT
BRANCH   1   2
ATOM      2  C   UNL     1      19.131  -5.812 -18.278  1.00  0.00     0.000 C 
BRANCH   2   3
ATOM      3  C   UNL     1      19.942  -4.748 -17.514  1.00  0.00     0.000 C 
BRANCH   3   4
ATOM      4  C   UNL     1      19.800  -3.320 -18.082  1.00  0.00     0.000 C 
BRANCH   4   5
ATOM      5  C   UNL     1      20.909  -2.971 -19.083  1.00  0.00     0.000 C 
BRANCH   5   6
ATOM      6  C   UNL     1      20.326  -2.625 -20.461  1.00  0.00     0.000 C 
BRANCH   6   7
ATOM      7  C   UNL     1      20.644  -3.687 -21.529  1.00  0.00     0.000 C 
BRANCH   7   8
ATOM      8  C   UNL     1      21.605  -4.804 -21.076  1.00  0.00     0.000 C 
BRANCH   8   9
ATOM      9  C   UNL     1      21.085  -6.211 -21.399  1.00  0.00     0.000 C 
BRANCH   9  10
ATOM     10  C   UNL     1      19.694  -6.145 -22.049  1.00  0.00     0.006 C 
BRANCH  10  11
ATOM     11  C   UNL     1      18.817  -7.343 -21.660  1.00  0.00     0.053 C 
BRANCH  11  12
ATOM     12  C   UNL     1      18.491  -8.197 -22.846  1.00  0.00     0.041 C 
ATOM     13  O   UNL     1      19.380  -8.913 -23.379  1.00  0.00    -0.550 OA
ATOM     14  O   UNL     1      17.194  -8.234 -23.340  1.00  0.00    -0.550 OA
ENDBRANCH  11  12
ENDBRANCH  10  11
ENDBRANCH   9  10
ENDBRANCH   8   9
ENDBRANCH   7   8
ENDBRANCH   6   7
ENDBRANCH   5   6
ENDBRANCH   4   5
ENDBRANCH   3   4
ENDBRANCH   2   3
ENDBRANCH   1   2
BRANCH   1  15
ATOM     15  C   UNL     1      17.402  -5.394 -16.380  1.00  0.00     0.000 C 
BRANCH  15  16
ATOM     16  C   UNL     1      16.351  -4.300 -16.627  1.00  0.00     0.000 C 
BRANCH  16  17
ATOM     17  C   UNL     1      15.687  -4.491 -18.000  1.00  0.00     0.000 C 
BRANCH  17  18
ATOM     18  C   UNL     1      15.562  -3.172 -18.790  1.00  0.00    -0.000 C 
BRANCH  18  19
ATOM     19  C   UNL     1      16.673  -2.971 -19.835  1.00  0.00    -0.000 C 
BRANCH  19  20
ATOM     20  C   UNL     1      16.955  -4.238 -20.662  1.00  0.00    -0.000 C 
BRANCH  20  21
ATOM     21  C   UNL     1      16.539  -4.076 -22.133  1.00  0.00    -0.000 C 
BRANCH  21  22
ATOM     22  C   UNL     1      15.536  -5.153 -22.584  1.00  0.00    -0.000 C 
BRANCH  22  23
ATOM     23  C   UNL     1      15.106  -6.065 -21.421  1.00  0.00    -0.000 C 
BRANCH  23  24
ATOM     24  C   UNL     1      13.575  -6.102 -21.261  1.00  0.00    -0.000 C 
BRANCH  24  25
ATOM     25  C   UNL     1      12.974  -4.720 -20.958  1.00  0.00    -0.003 C 
ATOM     26  C   UNL     1      12.242  -4.672 -19.616  1.00  0.00     0.004 C 
ENDBRANCH  24  25
ENDBRANCH  23  24
ENDBRANCH  22  23
ENDBRANCH  21  22
ENDBRANCH  20  21
ENDBRANCH  19  20
ENDBRANCH  18  19
ENDBRANCH  17  18
ENDBRANCH  16  17
ENDBRANCH  15  16
ENDBRANCH   1  15
TORSDOF 22
ENDMDL
