MODEL 1
REMARK VINA RESULT:    -3.811      0.000      0.000
REMARK INTER + INTRA:          -5.337
REMARK INTER:                  -4.925
REMARK INTRA:                  -0.412
REMARK UNBOUND:                -0.412
REMARK SMILES CCOC(=O)C=Cc1ccc(O)c(O)c1
REMARK SMILES IDX 6 1 7 2 4 3 5 4 3 5 2 6 1 7 8 8 15 9 9 10 13 11 10 12 11 13
REMARK SMILES IDX 14 14 12 16
REMARK H PARENT 14 15 12 17
REMARK Flexibility Score: inf
ROOT
ATOM      1  C   UNL     1      35.578  20.802  13.941  1.00  0.00     0.094 C 
ATOM      2  C   UNL     1      34.694  21.217  13.024  1.00  0.00     0.016 C 
ENDROOT
BRANCH   1   3
ATOM      3  C   UNL     1      35.166  20.313  15.268  1.00  0.00     0.330 C 
ATOM      4  O   UNL     1      36.023  19.910  16.102  1.00  0.00    -0.247 OA
BRANCH   3   5
ATOM      5  O   UNL     1      33.802  20.297  15.585  1.00  0.00    -0.463 OA
BRANCH   5   6
ATOM      6  C   UNL     1      33.080  19.103  15.884  1.00  0.00     0.230 C 
ATOM      7  C   UNL     1      32.964  18.220  14.647  1.00  0.00     0.049 C 
ENDBRANCH   5   6
ENDBRANCH   3   5
ENDBRANCH   1   3
BRANCH   2   8
ATOM      8  C   UNL     1      35.073  21.703  11.674  1.00  0.00    -0.021 A 
ATOM      9  C   UNL     1      34.278  21.469  10.533  1.00  0.00     0.058 A 
ATOM     10  C   UNL     1      36.288  22.390  11.524  1.00  0.00     0.012 A 
ATOM     11  C   UNL     1      34.683  21.938   9.274  1.00  0.00     0.157 A 
ATOM     12  C   UNL     1      36.690  22.858  10.270  1.00  0.00     0.051 A 
ATOM     13  C   UNL     1      35.893  22.639   9.144  1.00  0.00     0.157 A 
BRANCH  11  14
ATOM     14  O   UNL     1      33.889  21.705   8.151  1.00  0.00    -0.504 OA
ATOM     15  H   UNL     1      34.132  22.081   7.242  1.00  0.00     0.293 HD
ENDBRANCH  11  14
BRANCH  13  16
ATOM     16  O   UNL     1      36.320  23.120   7.907  1.00  0.00    -0.504 OA
ATOM     17  H   UNL     1      37.259  23.472   7.761  1.00  0.00     0.293 HD
ENDBRANCH  13  16
ENDBRANCH   2   8
TORSDOF 6
ENDMDL
MODEL 2
REMARK VINA RESULT:    -3.565      1.146      2.047
REMARK INTER + INTRA:          -5.019
REMARK INTER:                  -4.709
REMARK INTRA:                  -0.310
REMARK UNBOUND:                -0.412
REMARK SMILES CCOC(=O)C=Cc1ccc(O)c(O)c1
REMARK SMILES IDX 6 1 7 2 4 3 5 4 3 5 2 6 1 7 8 8 15 9 9 10 13 11 10 12 11 13
REMARK SMILES IDX 14 14 12 16
REMARK H PARENT 14 15 12 17
REMARK Flexibility Score: inf
ROOT
ATOM      1  C   UNL     1      35.003  20.763  13.785  1.00  0.00     0.094 C 
ATOM      2  C   UNL     1      34.732  20.086  12.660  1.00  0.00     0.016 C 
ENDROOT
BRANCH   1   3
ATOM      3  C   UNL     1      35.236  20.088  15.073  1.00  0.00     0.330 C 
ATOM      4  O   UNL     1      36.171  20.460  15.836  1.00  0.00    -0.247 OA
BRANCH   3   5
ATOM      5  O   UNL     1      34.407  19.020  15.434  1.00  0.00    -0.463 OA
BRANCH   5   6
ATOM      6  C   UNL     1      33.032  19.175  15.784  1.00  0.00     0.230 C 
ATOM      7  C   UNL     1      32.890  20.029  17.039  1.00  0.00     0.049 C 
ENDBRANCH   5   6
ENDBRANCH   3   5
ENDBRANCH   1   3
BRANCH   2   8
ATOM      8  C   UNL     1      34.504  20.732  11.344  1.00  0.00    -0.021 A 
ATOM      9  C   UNL     1      35.563  21.142  10.508  1.00  0.00     0.058 A 
ATOM     10  C   UNL     1      33.184  20.975  10.934  1.00  0.00     0.012 A 
ATOM     11  C   UNL     1      35.300  21.759   9.276  1.00  0.00     0.157 A 
ATOM     12  C   UNL     1      32.922  21.589   9.706  1.00  0.00     0.051 A 
ATOM     13  C   UNL     1      33.972  21.980   8.873  1.00  0.00     0.157 A 
BRANCH  11  14
ATOM     14  O   UNL     1      36.353  22.158   8.453  1.00  0.00    -0.504 OA
ATOM     15  H   UNL     1      36.855  21.495   7.874  1.00  0.00     0.293 HD
ENDBRANCH  11  14
BRANCH  13  16
ATOM     16  O   UNL     1      33.680  22.588   7.653  1.00  0.00    -0.504 OA
ATOM     17  H   UNL     1      32.815  22.409   7.155  1.00  0.00     0.293 HD
ENDBRANCH  13  16
ENDBRANCH   2   8
TORSDOF 6
ENDMDL
MODEL 3
REMARK VINA RESULT:    -3.564      1.375      6.662
REMARK INTER + INTRA:          -5.018
REMARK INTER:                  -4.680
REMARK INTRA:                  -0.337
REMARK UNBOUND:                -0.412
REMARK SMILES CCOC(=O)C=Cc1ccc(O)c(O)c1
REMARK SMILES IDX 6 1 7 2 4 3 5 4 3 5 2 6 1 7 8 8 15 9 9 10 13 11 10 12 11 13
REMARK SMILES IDX 14 14 12 16
REMARK H PARENT 14 15 12 17
REMARK Flexibility Score: inf
ROOT
ATOM      1  C   UNL     1      33.530  21.109  10.741  1.00  0.00     0.094 C 
ATOM      2  C   UNL     1      34.293  21.140  11.842  1.00  0.00     0.016 C 
ENDROOT
BRANCH   1   3
ATOM      3  C   UNL     1      33.837  21.914   9.547  1.00  0.00     0.330 C 
ATOM      4  O   UNL     1      33.084  21.882   8.535  1.00  0.00    -0.247 OA
BRANCH   3   5
ATOM      5  O   UNL     1      34.987  22.712   9.551  1.00  0.00    -0.463 OA
BRANCH   5   6
ATOM      6  C   UNL     1      36.155  22.413   8.788  1.00  0.00     0.230 C 
ATOM      7  C   UNL     1      36.789  21.111   9.264  1.00  0.00     0.049 C 
ENDBRANCH   5   6
ENDBRANCH   3   5
ENDBRANCH   1   3
BRANCH   2   8
ATOM      8  C   UNL     1      34.021  20.332  13.057  1.00  0.00    -0.021 A 
ATOM      9  C   UNL     1      34.503  20.694  14.331  1.00  0.00     0.058 A 
ATOM     10  C   UNL     1      33.285  19.144  12.923  1.00  0.00     0.012 A 
ATOM     11  C   UNL     1      34.230  19.893  15.450  1.00  0.00     0.157 A 
ATOM     12  C   UNL     1      33.011  18.347  14.038  1.00  0.00     0.051 A 
ATOM     13  C   UNL     1      33.477  18.717  15.302  1.00  0.00     0.157 A 
BRANCH  11  14
ATOM     14  O   UNL     1      34.708  20.259  16.708  1.00  0.00    -0.504 OA
ATOM     15  H   UNL     1      35.687  20.162  16.953  1.00  0.00     0.293 HD
ENDBRANCH  11  14
BRANCH  13  16
ATOM     16  O   UNL     1      33.186  17.902  16.396  1.00  0.00    -0.504 OA
ATOM     17  H   UNL     1      33.227  18.245  17.349  1.00  0.00     0.293 HD
ENDBRANCH  13  16
ENDBRANCH   2   8
TORSDOF 6
ENDMDL
MODEL 4
REMARK VINA RESULT:    -3.035     13.836     15.482
REMARK INTER + INTRA:          -4.334
REMARK INTER:                  -4.039
REMARK INTRA:                  -0.295
REMARK UNBOUND:                -0.412
REMARK SMILES CCOC(=O)C=Cc1ccc(O)c(O)c1
REMARK SMILES IDX 6 1 7 2 4 3 5 4 3 5 2 6 1 7 8 8 15 9 9 10 13 11 10 12 11 13
REMARK SMILES IDX 14 14 12 16
REMARK H PARENT 14 15 12 17
REMARK Flexibility Score: inf
ROOT
ATOM      1  C   UNL     1      50.668  21.970  15.764  1.00  0.00     0.094 C 
ATOM      2  C   UNL     1      49.580  21.206  15.588  1.00  0.00     0.016 C 
ENDROOT
BRANCH   1   3
ATOM      3  C   UNL     1      51.998  21.569  15.277  1.00  0.00     0.330 C 
ATOM      4  O   UNL     1      52.122  20.912  14.206  1.00  0.00    -0.247 OA
BRANCH   3   5
ATOM      5  O   UNL     1      53.125  21.923  16.028  1.00  0.00    -0.463 OA
BRANCH   5   6
ATOM      6  C   UNL     1      53.064  22.730  17.203  1.00  0.00     0.230 C 
ATOM      7  C   UNL     1      53.067  21.860  18.454  1.00  0.00     0.049 C 
ENDBRANCH   5   6
ENDBRANCH   3   5
ENDBRANCH   1   3
BRANCH   2   8
ATOM      8  C   UNL     1      48.223  21.584  16.054  1.00  0.00    -0.021 A 
ATOM      9  C   UNL     1      47.068  20.863  15.689  1.00  0.00     0.058 A 
ATOM     10  C   UNL     1      48.083  22.726  16.860  1.00  0.00     0.012 A 
ATOM     11  C   UNL     1      45.803  21.265  16.145  1.00  0.00     0.157 A 
ATOM     12  C   UNL     1      46.823  23.125  17.314  1.00  0.00     0.051 A 
ATOM     13  C   UNL     1      45.683  22.399  16.964  1.00  0.00     0.157 A 
BRANCH  11  14
ATOM     14  O   UNL     1      44.666  20.544  15.782  1.00  0.00    -0.504 OA
ATOM     15  H   UNL     1      44.302  19.797  16.363  1.00  0.00     0.293 HD
ENDBRANCH  11  14
BRANCH  13  16
ATOM     16  O   UNL     1      44.440  22.821  17.435  1.00  0.00    -0.504 OA
ATOM     17  H   UNL     1      43.580  22.631  16.932  1.00  0.00     0.293 HD
ENDBRANCH  13  16
ENDBRANCH   2   8
TORSDOF 6
ENDMDL
MODEL 5
REMARK VINA RESULT:    -2.867     15.485     17.645
REMARK INTER + INTRA:          -4.117
REMARK INTER:                  -3.788
REMARK INTRA:                  -0.329
REMARK UNBOUND:                -0.412
REMARK SMILES CCOC(=O)C=Cc1ccc(O)c(O)c1
REMARK SMILES IDX 6 1 7 2 4 3 5 4 3 5 2 6 1 7 8 8 15 9 9 10 13 11 10 12 11 13
REMARK SMILES IDX 14 14 12 16
REMARK H PARENT 14 15 12 17
REMARK Flexibility Score: inf
ROOT
ATOM      1  C   UNL     1      48.487  22.312  18.184  1.00  0.00     0.094 C 
ATOM      2  C   UNL     1      49.729  22.775  18.389  1.00  0.00     0.016 C 
ENDROOT
BRANCH   1   3
ATOM      3  C   UNL     1      47.718  22.632  16.970  1.00  0.00     0.330 C 
ATOM      4  O   UNL     1      46.558  23.125  17.052  1.00  0.00    -0.247 OA
BRANCH   3   5
ATOM      5  O   UNL     1      48.293  22.372  15.721  1.00  0.00    -0.463 OA
BRANCH   5   6
ATOM      6  C   UNL     1      48.825  21.101  15.350  1.00  0.00     0.230 C 
ATOM      7  C   UNL     1      50.268  21.240  14.878  1.00  0.00     0.049 C 
ENDBRANCH   5   6
ENDBRANCH   3   5
ENDBRANCH   1   3
BRANCH   2   8
ATOM      8  C   UNL     1      50.537  22.463  19.593  1.00  0.00    -0.021 A 
ATOM      9  C   UNL     1      50.073  21.613  20.618  1.00  0.00     0.058 A 
ATOM     10  C   UNL     1      51.797  23.067  19.733  1.00  0.00     0.012 A 
ATOM     11  C   UNL     1      50.868  21.355  21.745  1.00  0.00     0.157 A 
ATOM     12  C   UNL     1      52.589  22.809  20.854  1.00  0.00     0.051 A 
ATOM     13  C   UNL     1      52.134  21.953  21.860  1.00  0.00     0.157 A 
BRANCH  11  14
ATOM     14  O   UNL     1      50.403  20.509  22.752  1.00  0.00    -0.504 OA
ATOM     15  H   UNL     1      50.610  20.683  23.729  1.00  0.00     0.293 HD
ENDBRANCH  11  14
BRANCH  13  16
ATOM     16  O   UNL     1      52.948  21.713  22.966  1.00  0.00    -0.504 OA
ATOM     17  H   UNL     1      53.252  20.780  23.219  1.00  0.00     0.293 HD
ENDBRANCH  13  16
ENDBRANCH   2   8
TORSDOF 6
ENDMDL
MODEL 6
REMARK VINA RESULT:    -2.866     14.541     16.050
REMARK INTER + INTRA:          -4.116
REMARK INTER:                  -3.839
REMARK INTRA:                  -0.277
REMARK UNBOUND:                -0.412
REMARK SMILES CCOC(=O)C=Cc1ccc(O)c(O)c1
REMARK SMILES IDX 6 1 7 2 4 3 5 4 3 5 2 6 1 7 8 8 15 9 9 10 13 11 10 12 11 13
REMARK SMILES IDX 14 14 12 16
REMARK H PARENT 14 15 12 17
REMARK Flexibility Score: inf
ROOT
ATOM      1  C   UNL     1      50.770  22.393  19.074  1.00  0.00     0.094 C 
ATOM      2  C   UNL     1      50.260  22.902  17.943  1.00  0.00     0.016 C 
ENDROOT
BRANCH   1   3
ATOM      3  C   UNL     1      52.111  22.753  19.564  1.00  0.00     0.330 C 
ATOM      4  O   UNL     1      53.013  23.125  18.763  1.00  0.00    -0.247 OA
BRANCH   3   5
ATOM      5  O   UNL     1      52.372  22.667  20.937  1.00  0.00    -0.463 OA
BRANCH   5   6
ATOM      6  C   UNL     1      51.897  21.603  21.762  1.00  0.00     0.230 C 
ATOM      7  C   UNL     1      50.855  22.113  22.750  1.00  0.00     0.049 C 
ENDBRANCH   5   6
ENDBRANCH   3   5
ENDBRANCH   1   3
BRANCH   2   8
ATOM      8  C   UNL     1      48.909  22.572  17.427  1.00  0.00    -0.021 A 
ATOM      9  C   UNL     1      47.728  23.020  18.053  1.00  0.00     0.058 A 
ATOM     10  C   UNL     1      48.805  21.751  16.292  1.00  0.00     0.012 A 
ATOM     11  C   UNL     1      46.471  22.673  17.535  1.00  0.00     0.157 A 
ATOM     12  C   UNL     1      47.553  21.407  15.776  1.00  0.00     0.051 A 
ATOM     13  C   UNL     1      46.385  21.866  16.388  1.00  0.00     0.157 A 
BRANCH  11  14
ATOM     14  O   UNL     1      45.308  23.124  18.158  1.00  0.00    -0.504 OA
ATOM     15  H   UNL     1      45.270  24.023  18.625  1.00  0.00     0.293 HD
ENDBRANCH  11  14
BRANCH  13  16
ATOM     16  O   UNL     1      45.150  21.508  15.849  1.00  0.00    -0.504 OA
ATOM     17  H   UNL     1      44.869  21.786  14.915  1.00  0.00     0.293 HD
ENDBRANCH  13  16
ENDBRANCH   2   8
TORSDOF 6
ENDMDL
MODEL 7
REMARK VINA RESULT:    -2.690     14.907     17.073
REMARK INTER + INTRA:          -3.888
REMARK INTER:                  -3.691
REMARK INTRA:                  -0.198
REMARK UNBOUND:                -0.412
REMARK SMILES CCOC(=O)C=Cc1ccc(O)c(O)c1
REMARK SMILES IDX 6 1 7 2 4 3 5 4 3 5 2 6 1 7 8 8 15 9 9 10 13 11 10 12 11 13
REMARK SMILES IDX 14 14 12 16
REMARK H PARENT 14 15 12 17
REMARK Flexibility Score: inf
ROOT
ATOM      1  C   UNL     1      48.390  22.430  18.272  1.00  0.00     0.094 C 
ATOM      2  C   UNL     1      49.686  22.577  18.584  1.00  0.00     0.016 C 
ENDROOT
BRANCH   1   3
ATOM      3  C   UNL     1      47.916  22.386  16.879  1.00  0.00     0.330 C 
ATOM      4  O   UNL     1      48.550  21.735  16.002  1.00  0.00    -0.247 OA
BRANCH   3   5
ATOM      5  O   UNL     1      46.753  23.088  16.540  1.00  0.00    -0.463 OA
BRANCH   5   6
ATOM      6  C   UNL     1      45.438  22.575  16.748  1.00  0.00     0.230 C 
ATOM      7  C   UNL     1      45.251  21.258  16.004  1.00  0.00     0.049 C 
ENDBRANCH   5   6
ENDBRANCH   3   5
ENDBRANCH   1   3
BRANCH   2   8
ATOM      8  C   UNL     1      50.199  22.612  19.976  1.00  0.00    -0.021 A 
ATOM      9  C   UNL     1      49.364  22.849  21.086  1.00  0.00     0.058 A 
ATOM     10  C   UNL     1      51.576  22.439  20.189  1.00  0.00     0.012 A 
ATOM     11  C   UNL     1      49.896  22.885  22.384  1.00  0.00     0.157 A 
ATOM     12  C   UNL     1      52.106  22.473  21.481  1.00  0.00     0.051 A 
ATOM     13  C   UNL     1      51.273  22.692  22.581  1.00  0.00     0.157 A 
BRANCH  11  14
ATOM     14  O   UNL     1      49.062  23.116  23.477  1.00  0.00    -0.504 OA
ATOM     15  H   UNL     1      49.390  23.606  24.302  1.00  0.00     0.293 HD
ENDBRANCH  11  14
BRANCH  13  16
ATOM     16  O   UNL     1      51.831  22.719  23.859  1.00  0.00    -0.504 OA
ATOM     17  H   UNL     1      52.788  22.437  24.035  1.00  0.00     0.293 HD
ENDBRANCH  13  16
ENDBRANCH   2   8
TORSDOF 6
ENDMDL
MODEL 8
REMARK VINA RESULT:    -2.650     14.899     17.058
REMARK INTER + INTRA:          -3.837
REMARK INTER:                  -3.565
REMARK INTRA:                  -0.272
REMARK UNBOUND:                -0.412
REMARK SMILES CCOC(=O)C=Cc1ccc(O)c(O)c1
REMARK SMILES IDX 6 1 7 2 4 3 5 4 3 5 2 6 1 7 8 8 15 9 9 10 13 11 10 12 11 13
REMARK SMILES IDX 14 14 12 16
REMARK H PARENT 14 15 12 17
REMARK Flexibility Score: inf
ROOT
ATOM      1  C   UNL     1      48.247  22.358  18.160  1.00  0.00     0.094 C 
ATOM      2  C   UNL     1      49.487  22.750  18.483  1.00  0.00     0.016 C 
ENDROOT
BRANCH   1   3
ATOM      3  C   UNL     1      47.777  22.304  16.766  1.00  0.00     0.330 C 
ATOM      4  O   UNL     1      48.416  21.651  15.894  1.00  0.00    -0.247 OA
BRANCH   3   5
ATOM      5  O   UNL     1      46.611  22.997  16.421  1.00  0.00    -0.463 OA
BRANCH   5   6
ATOM      6  C   UNL     1      45.299  22.541  16.750  1.00  0.00     0.230 C 
ATOM      7  C   UNL     1      44.975  21.251  16.005  1.00  0.00     0.049 C 
ENDBRANCH   5   6
ENDBRANCH   3   5
ENDBRANCH   1   3
BRANCH   2   8
ATOM      8  C   UNL     1      49.998  22.805  19.875  1.00  0.00    -0.021 A 
ATOM      9  C   UNL     1      51.350  22.565  20.197  1.00  0.00     0.058 A 
ATOM     10  C   UNL     1      49.092  23.070  20.914  1.00  0.00     0.012 A 
ATOM     11  C   UNL     1      51.785  22.616  21.530  1.00  0.00     0.157 A 
ATOM     12  C   UNL     1      49.526  23.122  22.241  1.00  0.00     0.051 A 
ATOM     13  C   UNL     1      50.869  22.900  22.555  1.00  0.00     0.157 A 
BRANCH  11  14
ATOM     14  O   UNL     1      53.125  22.381  21.838  1.00  0.00    -0.504 OA
ATOM     15  H   UNL     1      53.407  21.599  22.418  1.00  0.00     0.293 HD
ENDBRANCH  11  14
BRANCH  13  16
ATOM     16  O   UNL     1      51.273  22.961  23.888  1.00  0.00    -0.504 OA
ATOM     17  H   UNL     1      50.814  23.563  24.563  1.00  0.00     0.293 HD
ENDBRANCH  13  16
ENDBRANCH   2   8
TORSDOF 6
ENDMDL
MODEL 9
REMARK VINA RESULT:    -1.456     15.265     17.521
REMARK INTER + INTRA:          -2.293
REMARK INTER:                  -1.982
REMARK INTRA:                  -0.311
REMARK UNBOUND:                -0.412
REMARK SMILES CCOC(=O)C=Cc1ccc(O)c(O)c1
REMARK SMILES IDX 6 1 7 2 4 3 5 4 3 5 2 6 1 7 8 8 15 9 9 10 13 11 10 12 11 13
REMARK SMILES IDX 14 14 12 16
REMARK H PARENT 14 15 12 17
REMARK Flexibility Score: inf
ROOT
ATOM      1  C   UNL     1      48.099  22.398  18.203  1.00  0.00     0.094 C 
ATOM      2  C   UNL     1      49.402  22.463  18.508  1.00  0.00     0.016 C 
ENDROOT
BRANCH   1   3
ATOM      3  C   UNL     1      47.622  22.230  16.820  1.00  0.00     0.330 C 
ATOM      4  O   UNL     1      46.390  22.098  16.574  1.00  0.00    -0.247 OA
BRANCH   3   5
ATOM      5  O   UNL     1      48.560  22.212  15.782  1.00  0.00    -0.463 OA
BRANCH   5   6
ATOM      6  C   UNL     1      49.119  21.012  15.249  1.00  0.00     0.230 C 
ATOM      7  C   UNL     1      50.571  21.230  14.840  1.00  0.00     0.049 C 
ENDBRANCH   5   6
ENDBRANCH   3   5
ENDBRANCH   1   3
BRANCH   2   8
ATOM      8  C   UNL     1      49.918  22.619  19.891  1.00  0.00    -0.021 A 
ATOM      9  C   UNL     1      51.268  22.386  20.227  1.00  0.00     0.058 A 
ATOM     10  C   UNL     1      49.019  22.976  20.908  1.00  0.00     0.012 A 
ATOM     11  C   UNL     1      51.708  22.534  21.551  1.00  0.00     0.157 A 
ATOM     12  C   UNL     1      49.458  23.125  22.226  1.00  0.00     0.051 A 
ATOM     13  C   UNL     1      50.799  22.910  22.553  1.00  0.00     0.157 A 
BRANCH  11  14
ATOM     14  O   UNL     1      53.045  22.306  21.874  1.00  0.00    -0.504 OA
ATOM     15  H   UNL     1      53.780  22.379  21.179  1.00  0.00     0.293 HD
ENDBRANCH  11  14
BRANCH  13  16
ATOM     16  O   UNL     1      51.207  23.068  23.877  1.00  0.00    -0.504 OA
ATOM     17  H   UNL     1      51.937  22.497  24.287  1.00  0.00     0.293 HD
ENDBRANCH  13  16
ENDBRANCH   2   8
TORSDOF 6
ENDMDL
