MODEL 1
REMARK VINA RESULT:    -5.693      0.000      0.000
REMARK INTER + INTRA:          -6.780
REMARK INTER:                  -6.692
REMARK INTRA:                  -0.088
REMARK UNBOUND:                -0.088
REMARK SMILES O=c1c(O)c(-c2ccc(O)cc2)oc2cc(O)cc(O)c12
REMARK SMILES IDX 5 1 3 2 2 3 1 4 21 5 19 6 18 7 16 8 15 9 14 10 13 11 6 12
REMARK SMILES IDX 7 13 8 14 9 15 12 16 11 17 10 18 4 20 20 22 17 24
REMARK H PARENT 10 19 4 21 20 23 17 25
REMARK Flexibility Score: inf
ROOT
ATOM      1  C   UNL     1      -8.272  90.330 -13.942  1.00  0.00     0.180 A 
ATOM      2  C   UNL     1      -7.403  89.354 -13.418  1.00  0.00     0.208 A 
ATOM      3  C   UNL     1      -6.023  89.489 -13.633  1.00  0.00     0.238 A 
ATOM      4  O   UNL     1      -5.234  88.625 -13.159  1.00  0.00    -0.285 OA
ATOM      5  C   UNL     1      -5.537  90.581 -14.381  1.00  0.00     0.111 A 
ATOM      6  C   UNL     1      -4.162  90.787 -14.646  1.00  0.00     0.134 A 
ATOM      7  C   UNL     1      -3.758  91.894 -15.407  1.00  0.00     0.093 A 
ATOM      8  C   UNL     1      -4.700  92.795 -15.908  1.00  0.00     0.123 A 
ATOM      9  C   UNL     1      -6.060  92.597 -15.648  1.00  0.00     0.094 A 
ATOM     10  C   UNL     1      -6.483  91.501 -14.891  1.00  0.00     0.146 A 
ATOM     11  O   UNL     1      -7.779  91.339 -14.655  1.00  0.00    -0.452 OA
ENDROOT
BRANCH   1  12
ATOM     12  C   UNL     1      -9.738  90.269 -13.741  1.00  0.00     0.021 A 
ATOM     13  C   UNL     1     -10.433  91.300 -13.083  1.00  0.00     0.016 A 
ATOM     14  C   UNL     1     -11.820  91.230 -12.927  1.00  0.00     0.047 A 
ATOM     15  C   UNL     1     -12.532  90.139 -13.436  1.00  0.00     0.115 A 
ATOM     16  C   UNL     1     -10.463  89.186 -14.269  1.00  0.00     0.016 A 
ATOM     17  C   UNL     1     -11.850  89.118 -14.110  1.00  0.00     0.047 A 
BRANCH  15  18
ATOM     18  O   UNL     1     -13.914  90.083 -13.272  1.00  0.00    -0.508 OA
ATOM     19  H   UNL     1     -14.496  90.905 -13.386  1.00  0.00     0.293 HD
ENDBRANCH  15  18
ENDBRANCH   1  12
BRANCH   2  20
ATOM     20  O   UNL     1      -7.914  88.255 -12.722  1.00  0.00    -0.502 OA
ATOM     21  H   UNL     1      -8.610  87.636 -13.121  1.00  0.00     0.293 HD
ENDBRANCH   2  20
BRANCH   6  22
ATOM     22  O   UNL     1      -3.197  89.904 -14.162  1.00  0.00    -0.507 OA
ATOM     23  H   UNL     1      -2.288  89.813 -14.602  1.00  0.00     0.293 HD
ENDBRANCH   6  22
BRANCH   8  24
ATOM     24  O   UNL     1      -4.274  93.886 -16.662  1.00  0.00    -0.508 OA
ATOM     25  H   UNL     1      -4.570  94.016 -17.623  1.00  0.00     0.293 HD
ENDBRANCH   8  24
TORSDOF 5
ENDMDL
MODEL 2
REMARK VINA RESULT:    -5.617      2.833      4.201
REMARK INTER + INTRA:          -6.690
REMARK INTER:                  -6.668
REMARK INTRA:                  -0.023
REMARK UNBOUND:                -0.088
REMARK SMILES O=c1c(O)c(-c2ccc(O)cc2)oc2cc(O)cc(O)c12
REMARK SMILES IDX 5 1 3 2 2 3 1 4 21 5 19 6 18 7 16 8 15 9 14 10 13 11 6 12
REMARK SMILES IDX 7 13 8 14 9 15 12 16 11 17 10 18 4 20 20 22 17 24
REMARK H PARENT 10 19 4 21 20 23 17 25
REMARK Flexibility Score: inf
ROOT
ATOM      1  C   UNL     1      -5.342  90.485 -15.208  1.00  0.00     0.180 A 
ATOM      2  C   UNL     1      -3.935  90.459 -15.172  1.00  0.00     0.208 A 
ATOM      3  C   UNL     1      -3.218  91.044 -16.227  1.00  0.00     0.238 A 
ATOM      4  O   UNL     1      -1.956  91.035 -16.199  1.00  0.00    -0.285 OA
ATOM      5  C   UNL     1      -3.915  91.625 -17.305  1.00  0.00     0.111 A 
ATOM      6  C   UNL     1      -3.267  92.231 -18.409  1.00  0.00     0.134 A 
ATOM      7  C   UNL     1      -4.032  92.779 -19.449  1.00  0.00     0.093 A 
ATOM      8  C   UNL     1      -5.427  92.733 -19.408  1.00  0.00     0.123 A 
ATOM      9  C   UNL     1      -6.072  92.136 -18.320  1.00  0.00     0.094 A 
ATOM     10  C   UNL     1      -5.328  91.585 -17.273  1.00  0.00     0.146 A 
ATOM     11  O   UNL     1      -5.966  91.029 -16.250  1.00  0.00    -0.452 OA
ENDROOT
BRANCH   1  12
ATOM     12  C   UNL     1      -6.169  89.908 -14.123  1.00  0.00     0.021 A 
ATOM     13  C   UNL     1      -5.969  90.266 -12.778  1.00  0.00     0.016 A 
ATOM     14  C   UNL     1      -6.779  89.725 -11.775  1.00  0.00     0.047 A 
ATOM     15  C   UNL     1      -7.804  88.832 -12.102  1.00  0.00     0.115 A 
ATOM     16  C   UNL     1      -7.214  89.026 -14.447  1.00  0.00     0.016 A 
ATOM     17  C   UNL     1      -8.021  88.485 -13.442  1.00  0.00     0.047 A 
BRANCH  15  18
ATOM     18  O   UNL     1      -8.601  88.300 -11.092  1.00  0.00    -0.508 OA
ATOM     19  H   UNL     1      -8.912  88.864 -10.309  1.00  0.00     0.293 HD
ENDBRANCH  15  18
ENDBRANCH   1  12
BRANCH   2  20
ATOM     20  O   UNL     1      -3.268  89.833 -14.115  1.00  0.00    -0.502 OA
ATOM     21  H   UNL     1      -2.312  89.506 -14.194  1.00  0.00     0.293 HD
ENDBRANCH   2  20
BRANCH   6  22
ATOM     22  O   UNL     1      -1.875  92.292 -18.480  1.00  0.00    -0.507 OA
ATOM     23  H   UNL     1      -1.285  91.769 -17.842  1.00  0.00     0.293 HD
ENDBRANCH   6  22
BRANCH   8  24
ATOM     24  O   UNL     1      -6.164  93.284 -20.454  1.00  0.00    -0.508 OA
ATOM     25  H   UNL     1      -6.433  92.733 -21.261  1.00  0.00     0.293 HD
ENDBRANCH   8  24
TORSDOF 5
ENDMDL
MODEL 3
REMARK VINA RESULT:    -5.466      8.144     11.292
REMARK INTER + INTRA:          -6.513
REMARK INTER:                  -6.235
REMARK INTRA:                  -0.277
REMARK UNBOUND:                -0.088
REMARK SMILES O=c1c(O)c(-c2ccc(O)cc2)oc2cc(O)cc(O)c12
REMARK SMILES IDX 5 1 3 2 2 3 1 4 21 5 19 6 18 7 16 8 15 9 14 10 13 11 6 12
REMARK SMILES IDX 7 13 8 14 9 15 12 16 11 17 10 18 4 20 20 22 17 24
REMARK H PARENT 10 19 4 21 20 23 17 25
REMARK Flexibility Score: inf
ROOT
ATOM      1  C   UNL     1      -7.347  83.572  -8.771  1.00  0.00     0.180 A 
ATOM      2  C   UNL     1      -7.773  84.913  -8.724  1.00  0.00     0.208 A 
ATOM      3  C   UNL     1      -9.147  85.191  -8.783  1.00  0.00     0.238 A 
ATOM      4  O   UNL     1      -9.540  86.389  -8.730  1.00  0.00    -0.285 OA
ATOM      5  C   UNL     1     -10.068  84.131  -8.910  1.00  0.00     0.111 A 
ATOM      6  C   UNL     1     -11.468  84.327  -8.981  1.00  0.00     0.134 A 
ATOM      7  C   UNL     1     -12.320  83.220  -9.116  1.00  0.00     0.093 A 
ATOM      8  C   UNL     1     -11.799  81.925  -9.183  1.00  0.00     0.123 A 
ATOM      9  C   UNL     1     -10.416  81.726  -9.112  1.00  0.00     0.094 A 
ATOM     10  C   UNL     1      -9.552  82.816  -8.976  1.00  0.00     0.146 A 
ATOM     11  O   UNL     1      -8.244  82.598  -8.906  1.00  0.00    -0.452 OA
ENDROOT
BRANCH   1  12
ATOM     12  C   UNL     1      -5.917  83.197  -8.694  1.00  0.00     0.021 A 
ATOM     13  C   UNL     1      -5.238  83.142  -7.464  1.00  0.00     0.016 A 
ATOM     14  C   UNL     1      -3.893  82.762  -7.414  1.00  0.00     0.047 A 
ATOM     15  C   UNL     1      -3.214  82.419  -8.587  1.00  0.00     0.115 A 
ATOM     16  C   UNL     1      -5.234  82.830  -9.867  1.00  0.00     0.016 A 
ATOM     17  C   UNL     1      -3.889  82.452  -9.814  1.00  0.00     0.047 A 
BRANCH  15  18
ATOM     18  O   UNL     1      -1.875  82.043  -8.523  1.00  0.00    -0.508 OA
ATOM     19  H   UNL     1      -1.175  82.474  -9.115  1.00  0.00     0.293 HD
ENDBRANCH  15  18
ENDBRANCH   1  12
BRANCH   2  20
ATOM     20  O   UNL     1      -6.837  85.948  -8.647  1.00  0.00    -0.502 OA
ATOM     21  H   UNL     1      -5.896  85.804  -8.298  1.00  0.00     0.293 HD
ENDBRANCH   2  20
BRANCH   6  22
ATOM     22  O   UNL     1     -12.019  85.607  -8.919  1.00  0.00    -0.507 OA
ATOM     23  H   UNL     1     -13.021  85.758  -8.949  1.00  0.00     0.293 HD
ENDBRANCH   6  22
BRANCH   8  24
ATOM     24  O   UNL     1     -12.666  80.843  -9.318  1.00  0.00    -0.508 OA
ATOM     25  H   UNL     1     -13.062  80.377  -8.509  1.00  0.00     0.293 HD
ENDBRANCH   8  24
TORSDOF 5
ENDMDL
MODEL 4
REMARK VINA RESULT:    -5.409      7.857     10.232
REMARK INTER + INTRA:          -6.446
REMARK INTER:                  -6.170
REMARK INTRA:                  -0.276
REMARK UNBOUND:                -0.088
REMARK SMILES O=c1c(O)c(-c2ccc(O)cc2)oc2cc(O)cc(O)c12
REMARK SMILES IDX 5 1 3 2 2 3 1 4 21 5 19 6 18 7 16 8 15 9 14 10 13 11 6 12
REMARK SMILES IDX 7 13 8 14 9 15 12 16 11 17 10 18 4 20 20 22 17 24
REMARK H PARENT 10 19 4 21 20 23 17 25
REMARK Flexibility Score: inf
ROOT
ATOM      1  C   UNL     1      -4.429  84.590  -7.916  1.00  0.00     0.180 A 
ATOM      2  C   UNL     1      -5.515  84.786  -8.791  1.00  0.00     0.208 A 
ATOM      3  C   UNL     1      -5.919  86.097  -9.087  1.00  0.00     0.238 A 
ATOM      4  O   UNL     1      -6.884  86.285  -9.878  1.00  0.00    -0.285 OA
ATOM      5  C   UNL     1      -5.249  87.185  -8.492  1.00  0.00     0.111 A 
ATOM      6  C   UNL     1      -5.597  88.535  -8.734  1.00  0.00     0.134 A 
ATOM      7  C   UNL     1      -4.887  89.563  -8.095  1.00  0.00     0.093 A 
ATOM      8  C   UNL     1      -3.839  89.267  -7.220  1.00  0.00     0.123 A 
ATOM      9  C   UNL     1      -3.490  87.934  -6.978  1.00  0.00     0.094 A 
ATOM     10  C   UNL     1      -4.185  86.896  -7.605  1.00  0.00     0.146 A 
ATOM     11  O   UNL     1      -3.830  85.640  -7.361  1.00  0.00    -0.452 OA
ENDROOT
BRANCH   1  12
ATOM     12  C   UNL     1      -3.931  83.239  -7.571  1.00  0.00     0.021 A 
ATOM     13  C   UNL     1      -4.360  82.573  -6.409  1.00  0.00     0.016 A 
ATOM     14  C   UNL     1      -3.894  81.288  -6.117  1.00  0.00     0.047 A 
ATOM     15  C   UNL     1      -3.005  80.647  -6.985  1.00  0.00     0.115 A 
ATOM     16  C   UNL     1      -3.054  82.580  -8.450  1.00  0.00     0.016 A 
ATOM     17  C   UNL     1      -2.588  81.296  -8.154  1.00  0.00     0.047 A 
BRANCH  15  18
ATOM     18  O   UNL     1      -2.548  79.367  -6.681  1.00  0.00    -0.508 OA
ATOM     19  H   UNL     1      -3.003  78.795  -5.979  1.00  0.00     0.293 HD
ENDBRANCH  15  18
ENDBRANCH   1  12
BRANCH   2  20
ATOM     20  O   UNL     1      -6.194  83.690  -9.329  1.00  0.00    -0.502 OA
ATOM     21  H   UNL     1      -7.077  83.785  -9.818  1.00  0.00     0.293 HD
ENDBRANCH   2  20
BRANCH   6  22
ATOM     22  O   UNL     1      -6.639  88.864  -9.601  1.00  0.00    -0.507 OA
ATOM     23  H   UNL     1      -6.900  88.262 -10.374  1.00  0.00     0.293 HD
ENDBRANCH   6  22
BRANCH   8  24
ATOM     24  O   UNL     1      -3.150  90.305  -6.597  1.00  0.00    -0.508 OA
ATOM     25  H   UNL     1      -2.207  90.179  -6.246  1.00  0.00     0.293 HD
ENDBRANCH   8  24
TORSDOF 5
ENDMDL
MODEL 5
REMARK VINA RESULT:    -5.369      8.186     10.843
REMARK INTER + INTRA:          -6.399
REMARK INTER:                  -6.108
REMARK INTRA:                  -0.290
REMARK UNBOUND:                -0.088
REMARK SMILES O=c1c(O)c(-c2ccc(O)cc2)oc2cc(O)cc(O)c12
REMARK SMILES IDX 5 1 3 2 2 3 1 4 21 5 19 6 18 7 16 8 15 9 14 10 13 11 6 12
REMARK SMILES IDX 7 13 8 14 9 15 12 16 11 17 10 18 4 20 20 22 17 24
REMARK H PARENT 10 19 4 21 20 23 17 25
REMARK Flexibility Score: inf
ROOT
ATOM      1  C   UNL     1      -9.584  83.586  -8.719  1.00  0.00     0.180 A 
ATOM      2  C   UNL     1     -10.432  82.475  -8.887  1.00  0.00     0.208 A 
ATOM      3  C   UNL     1     -11.774  82.691  -9.237  1.00  0.00     0.238 A 
ATOM      4  O   UNL     1     -12.539  81.702  -9.401  1.00  0.00    -0.285 OA
ATOM      5  C   UNL     1     -12.250  84.009  -9.392  1.00  0.00     0.111 A 
ATOM      6  C   UNL     1     -13.588  84.313  -9.739  1.00  0.00     0.134 A 
ATOM      7  C   UNL     1     -13.988  85.652  -9.866  1.00  0.00     0.093 A 
ATOM      8  C   UNL     1     -13.078  86.690  -9.651  1.00  0.00     0.123 A 
ATOM      9  C   UNL     1     -11.754  86.395  -9.310  1.00  0.00     0.094 A 
ATOM     10  C   UNL     1     -11.336  85.068  -9.180  1.00  0.00     0.146 A 
ATOM     11  O   UNL     1     -10.073  84.816  -8.859  1.00  0.00    -0.452 OA
ENDROOT
BRANCH   1  12
ATOM     12  C   UNL     1      -8.153  83.439  -8.369  1.00  0.00     0.021 A 
ATOM     13  C   UNL     1      -7.729  83.357  -7.031  1.00  0.00     0.016 A 
ATOM     14  C   UNL     1      -6.374  83.194  -6.728  1.00  0.00     0.047 A 
ATOM     15  C   UNL     1      -5.429  83.097  -7.753  1.00  0.00     0.115 A 
ATOM     16  C   UNL     1      -7.200  83.319  -9.396  1.00  0.00     0.016 A 
ATOM     17  C   UNL     1      -5.846  83.157  -9.089  1.00  0.00     0.047 A 
BRANCH  15  18
ATOM     18  O   UNL     1      -4.083  82.935  -7.435  1.00  0.00    -0.508 OA
ATOM     19  H   UNL     1      -3.383  83.602  -7.740  1.00  0.00     0.293 HD
ENDBRANCH  15  18
ENDBRANCH   1  12
BRANCH   2  20
ATOM     20  O   UNL     1      -9.948  81.181  -8.679  1.00  0.00    -0.502 OA
ATOM     21  H   UNL     1      -9.489  80.905  -7.819  1.00  0.00     0.293 HD
ENDBRANCH   2  20
BRANCH   6  22
ATOM     22  O   UNL     1     -14.522  83.299  -9.958  1.00  0.00    -0.507 OA
ATOM     23  H   UNL     1     -15.325  83.174  -9.352  1.00  0.00     0.293 HD
ENDBRANCH   6  22
BRANCH   8  24
ATOM     24  O   UNL     1     -13.499  88.011  -9.783  1.00  0.00    -0.508 OA
ATOM     25  H   UNL     1     -14.480  88.263  -9.726  1.00  0.00     0.293 HD
ENDBRANCH   8  24
TORSDOF 5
ENDMDL
MODEL 6
REMARK VINA RESULT:    -5.343      4.128      6.682
REMARK INTER + INTRA:          -6.368
REMARK INTER:                  -6.081
REMARK INTRA:                  -0.287
REMARK UNBOUND:                -0.088
REMARK SMILES O=c1c(O)c(-c2ccc(O)cc2)oc2cc(O)cc(O)c12
REMARK SMILES IDX 5 1 3 2 2 3 1 4 21 5 19 6 18 7 16 8 15 9 14 10 13 11 6 12
REMARK SMILES IDX 7 13 8 14 9 15 12 16 11 17 10 18 4 20 20 22 17 24
REMARK H PARENT 10 19 4 21 20 23 17 25
REMARK Flexibility Score: inf
ROOT
ATOM      1  C   UNL     1      -4.109  91.339 -14.630  1.00  0.00     0.180 A 
ATOM      2  C   UNL     1      -4.837  90.267 -14.080  1.00  0.00     0.208 A 
ATOM      3  C   UNL     1      -5.246  90.341 -12.740  1.00  0.00     0.238 A 
ATOM      4  O   UNL     1      -5.909  89.391 -12.240  1.00  0.00    -0.285 OA
ATOM      5  C   UNL     1      -4.906  91.472 -11.968  1.00  0.00     0.111 A 
ATOM      6  C   UNL     1      -5.276  91.622 -10.610  1.00  0.00     0.134 A 
ATOM      7  C   UNL     1      -4.889  92.773  -9.907  1.00  0.00     0.093 A 
ATOM      8  C   UNL     1      -4.142  93.773 -10.534  1.00  0.00     0.123 A 
ATOM      9  C   UNL     1      -3.774  93.630 -11.876  1.00  0.00     0.094 A 
ATOM     10  C   UNL     1      -4.150  92.491 -12.594  1.00  0.00     0.146 A 
ATOM     11  O   UNL     1      -3.792  92.383 -13.868  1.00  0.00    -0.452 OA
ENDROOT
BRANCH   1  12
ATOM     12  C   UNL     1      -3.659  91.344 -16.041  1.00  0.00     0.021 A 
ATOM     13  C   UNL     1      -4.520  91.730 -17.084  1.00  0.00     0.016 A 
ATOM     14  C   UNL     1      -4.064  91.749 -18.406  1.00  0.00     0.047 A 
ATOM     15  C   UNL     1      -2.743  91.397 -18.701  1.00  0.00     0.115 A 
ATOM     16  C   UNL     1      -2.327  91.012 -16.342  1.00  0.00     0.016 A 
ATOM     17  C   UNL     1      -1.875  91.030 -17.665  1.00  0.00     0.047 A 
BRANCH  15  18
ATOM     18  O   UNL     1      -2.304  91.419 -20.022  1.00  0.00    -0.508 OA
ATOM     19  H   UNL     1      -2.544  90.681 -20.673  1.00  0.00     0.293 HD
ENDBRANCH  15  18
ENDBRANCH   1  12
BRANCH   2  20
ATOM     20  O   UNL     1      -5.120  89.137 -14.852  1.00  0.00    -0.502 OA
ATOM     21  H   UNL     1      -6.005  88.646 -14.792  1.00  0.00     0.293 HD
ENDBRANCH   2  20
BRANCH   6  22
ATOM     22  O   UNL     1      -6.020  90.641  -9.956  1.00  0.00    -0.507 OA
ATOM     23  H   UNL     1      -5.600  89.773  -9.642  1.00  0.00     0.293 HD
ENDBRANCH   6  22
BRANCH   8  24
ATOM     24  O   UNL     1      -3.770  94.906  -9.814  1.00  0.00    -0.508 OA
ATOM     25  H   UNL     1      -3.013  95.505 -10.122  1.00  0.00     0.293 HD
ENDBRANCH   8  24
TORSDOF 5
ENDMDL
MODEL 7
REMARK VINA RESULT:    -5.336      6.647      8.720
REMARK INTER + INTRA:          -6.360
REMARK INTER:                  -6.093
REMARK INTRA:                  -0.266
REMARK UNBOUND:                -0.088
REMARK SMILES O=c1c(O)c(-c2ccc(O)cc2)oc2cc(O)cc(O)c12
REMARK SMILES IDX 5 1 3 2 2 3 1 4 21 5 19 6 18 7 16 8 15 9 14 10 13 11 6 12
REMARK SMILES IDX 7 13 8 14 9 15 12 16 11 17 10 18 4 20 20 22 17 24
REMARK H PARENT 10 19 4 21 20 23 17 25
REMARK Flexibility Score: inf
ROOT
ATOM      1  C   UNL     1      -4.666  88.115  -8.106  1.00  0.00     0.180 A 
ATOM      2  C   UNL     1      -3.526  87.881  -7.312  1.00  0.00     0.208 A 
ATOM      3  C   UNL     1      -2.958  86.599  -7.301  1.00  0.00     0.238 A 
ATOM      4  O   UNL     1      -1.930  86.382  -6.602  1.00  0.00    -0.285 OA
ATOM      5  C   UNL     1      -3.546  85.569  -8.064  1.00  0.00     0.111 A 
ATOM      6  C   UNL     1      -3.037  84.248  -8.103  1.00  0.00     0.134 A 
ATOM      7  C   UNL     1      -3.686  83.276  -8.880  1.00  0.00     0.093 A 
ATOM      8  C   UNL     1      -4.830  83.597  -9.613  1.00  0.00     0.123 A 
ATOM      9  C   UNL     1      -5.336  84.901  -9.578  1.00  0.00     0.094 A 
ATOM     10  C   UNL     1      -4.704  85.884  -8.812  1.00  0.00     0.146 A 
ATOM     11  O   UNL     1      -5.203  87.114  -8.800  1.00  0.00    -0.452 OA
ENDROOT
BRANCH   1  12
ATOM     12  C   UNL     1      -5.311  89.445  -8.186  1.00  0.00     0.021 A 
ATOM     13  C   UNL     1      -6.197  89.892  -7.189  1.00  0.00     0.016 A 
ATOM     14  C   UNL     1      -6.774  91.162  -7.274  1.00  0.00     0.047 A 
ATOM     15  C   UNL     1      -6.466  92.006  -8.346  1.00  0.00     0.115 A 
ATOM     16  C   UNL     1      -4.989  90.306  -9.249  1.00  0.00     0.016 A 
ATOM     17  C   UNL     1      -5.570  91.575  -9.333  1.00  0.00     0.047 A 
BRANCH  15  18
ATOM     18  O   UNL     1      -7.050  93.268  -8.419  1.00  0.00    -0.508 OA
ATOM     19  H   UNL     1      -7.024  93.910  -7.635  1.00  0.00     0.293 HD
ENDBRANCH  15  18
ENDBRANCH   1  12
BRANCH   2  20
ATOM     20  O   UNL     1      -2.992  88.907  -6.528  1.00  0.00    -0.502 OA
ATOM     21  H   UNL     1      -3.002  88.877  -5.515  1.00  0.00     0.293 HD
ENDBRANCH   2  20
BRANCH   6  22
ATOM     22  O   UNL     1      -1.898  83.895  -7.380  1.00  0.00    -0.507 OA
ATOM     23  H   UNL     1      -1.343  84.586  -6.888  1.00  0.00     0.293 HD
ENDBRANCH   6  22
BRANCH   8  24
ATOM     24  O   UNL     1      -5.456  82.614 -10.375  1.00  0.00    -0.508 OA
ATOM     25  H   UNL     1      -5.037  82.255 -11.226  1.00  0.00     0.293 HD
ENDBRANCH   8  24
TORSDOF 5
ENDMDL
MODEL 8
REMARK VINA RESULT:    -5.330      3.917      6.939
REMARK INTER + INTRA:          -6.353
REMARK INTER:                  -6.066
REMARK INTRA:                  -0.286
REMARK UNBOUND:                -0.088
REMARK SMILES O=c1c(O)c(-c2ccc(O)cc2)oc2cc(O)cc(O)c12
REMARK SMILES IDX 5 1 3 2 2 3 1 4 21 5 19 6 18 7 16 8 15 9 14 10 13 11 6 12
REMARK SMILES IDX 7 13 8 14 9 15 12 16 11 17 10 18 4 20 20 22 17 24
REMARK H PARENT 10 19 4 21 20 23 17 25
REMARK Flexibility Score: inf
ROOT
ATOM      1  C   UNL     1      -4.209  91.854 -15.500  1.00  0.00     0.180 A 
ATOM      2  C   UNL     1      -4.812  90.582 -15.547  1.00  0.00     0.208 A 
ATOM      3  C   UNL     1      -5.323  90.030 -14.362  1.00  0.00     0.238 A 
ATOM      4  O   UNL     1      -5.876  88.896 -14.395  1.00  0.00    -0.285 OA
ATOM      5  C   UNL     1      -5.205  90.744 -13.152  1.00  0.00     0.111 A 
ATOM      6  C   UNL     1      -5.689  90.255 -11.915  1.00  0.00     0.134 A 
ATOM      7  C   UNL     1      -5.524  91.022 -10.752  1.00  0.00     0.093 A 
ATOM      8  C   UNL     1      -4.885  92.263 -10.802  1.00  0.00     0.123 A 
ATOM      9  C   UNL     1      -4.406  92.751 -12.022  1.00  0.00     0.094 A 
ATOM     10  C   UNL     1      -4.561  92.003 -13.192  1.00  0.00     0.146 A 
ATOM     11  O   UNL     1      -4.101  92.491 -14.338  1.00  0.00    -0.452 OA
ENDROOT
BRANCH   1  12
ATOM     12  C   UNL     1      -3.664  92.511 -16.710  1.00  0.00     0.021 A 
ATOM     13  C   UNL     1      -2.357  92.253 -17.161  1.00  0.00     0.016 A 
ATOM     14  C   UNL     1      -1.875  92.868 -18.320  1.00  0.00     0.047 A 
ATOM     15  C   UNL     1      -2.692  93.736 -19.050  1.00  0.00     0.115 A 
ATOM     16  C   UNL     1      -4.488  93.369 -17.460  1.00  0.00     0.016 A 
ATOM     17  C   UNL     1      -4.002  93.983 -18.618  1.00  0.00     0.047 A 
BRANCH  15  18
ATOM     18  O   UNL     1      -2.197  94.343 -20.202  1.00  0.00    -0.508 OA
ATOM     19  H   UNL     1      -1.589  93.846 -20.842  1.00  0.00     0.293 HD
ENDBRANCH  15  18
ENDBRANCH   1  12
BRANCH   2  20
ATOM     20  O   UNL     1      -4.873  89.874 -16.750  1.00  0.00    -0.502 OA
ATOM     21  H   UNL     1      -4.748  88.870 -16.796  1.00  0.00     0.293 HD
ENDBRANCH   2  20
BRANCH   6  22
ATOM     22  O   UNL     1      -6.330  89.019 -11.832  1.00  0.00    -0.507 OA
ATOM     23  H   UNL     1      -7.279  88.887 -12.163  1.00  0.00     0.293 HD
ENDBRANCH   6  22
BRANCH   8  24
ATOM     24  O   UNL     1      -4.734  93.005  -9.633  1.00  0.00    -0.508 OA
ATOM     25  H   UNL     1      -5.287  92.811  -8.806  1.00  0.00     0.293 HD
ENDBRANCH   8  24
TORSDOF 5
ENDMDL
MODEL 9
REMARK VINA RESULT:    -5.251      3.768      4.846
REMARK INTER + INTRA:          -6.260
REMARK INTER:                  -5.967
REMARK INTRA:                  -0.293
REMARK UNBOUND:                -0.088
REMARK SMILES O=c1c(O)c(-c2ccc(O)cc2)oc2cc(O)cc(O)c12
REMARK SMILES IDX 5 1 3 2 2 3 1 4 21 5 19 6 18 7 16 8 15 9 14 10 13 11 6 12
REMARK SMILES IDX 7 13 8 14 9 15 12 16 11 17 10 18 4 20 20 22 17 24
REMARK H PARENT 10 19 4 21 20 23 17 25
REMARK Flexibility Score: inf
ROOT
ATOM      1  C   UNL     1      -5.002  90.889 -14.567  1.00  0.00     0.180 A 
ATOM      2  C   UNL     1      -3.735  90.640 -15.130  1.00  0.00     0.208 A 
ATOM      3  C   UNL     1      -3.473  91.084 -16.435  1.00  0.00     0.238 A 
ATOM      4  O   UNL     1      -2.338  90.876 -16.944  1.00  0.00    -0.285 OA
ATOM      5  C   UNL     1      -4.483  91.748 -17.161  1.00  0.00     0.111 A 
ATOM      6  C   UNL     1      -4.300  92.222 -18.483  1.00  0.00     0.134 A 
ATOM      7  C   UNL     1      -5.358  92.865 -19.143  1.00  0.00     0.093 A 
ATOM      8  C   UNL     1      -6.591  93.041 -18.510  1.00  0.00     0.123 A 
ATOM      9  C   UNL     1      -6.776  92.575 -17.204  1.00  0.00     0.094 A 
ATOM     10  C   UNL     1      -5.734  91.933 -16.529  1.00  0.00     0.146 A 
ATOM     11  O   UNL     1      -5.935  91.505 -15.289  1.00  0.00    -0.452 OA
ENDROOT
BRANCH   1  12
ATOM     12  C   UNL     1      -5.348  90.470 -13.190  1.00  0.00     0.021 A 
ATOM     13  C   UNL     1      -5.021  91.265 -12.077  1.00  0.00     0.016 A 
ATOM     14  C   UNL     1      -5.380  90.859 -10.788  1.00  0.00     0.047 A 
ATOM     15  C   UNL     1      -6.080  89.665 -10.595  1.00  0.00     0.115 A 
ATOM     16  C   UNL     1      -6.071  89.281 -12.990  1.00  0.00     0.016 A 
ATOM     17  C   UNL     1      -6.427  88.877 -11.700  1.00  0.00     0.047 A 
BRANCH  15  18
ATOM     18  O   UNL     1      -6.430  89.273  -9.305  1.00  0.00    -0.508 OA
ATOM     19  H   UNL     1      -6.225  89.854  -8.501  1.00  0.00     0.293 HD
ENDBRANCH  15  18
ENDBRANCH   1  12
BRANCH   2  20
ATOM     20  O   UNL     1      -2.768  89.937 -14.406  1.00  0.00    -0.502 OA
ATOM     21  H   UNL     1      -1.904  89.614 -14.826  1.00  0.00     0.293 HD
ENDBRANCH   2  20
BRANCH   6  22
ATOM     22  O   UNL     1      -3.082  92.060 -19.143  1.00  0.00    -0.507 OA
ATOM     23  H   UNL     1      -2.352  91.461 -18.775  1.00  0.00     0.293 HD
ENDBRANCH   6  22
BRANCH   8  24
ATOM     24  O   UNL     1      -7.625  93.682 -19.188  1.00  0.00    -0.508 OA
ATOM     25  H   UNL     1      -8.298  93.164 -19.742  1.00  0.00     0.293 HD
ENDBRANCH   8  24
TORSDOF 5
ENDMDL
