MODEL 1
REMARK VINA RESULT:    -3.317      0.000      0.000
REMARK INTER + INTRA:          -7.223
REMARK INTER:                  -5.645
REMARK INTRA:                  -1.578
REMARK UNBOUND:                -1.578
REMARK SMILES CCCCCCCCCCCCCC(=O)[O-]
REMARK SMILES IDX 8 1 9 2 10 3 11 4 12 5 13 6 14 7 15 8 16 9 7 10 6 11 5 12
REMARK SMILES IDX 4 13 3 14 2 15 1 16
REMARK H PARENT
REMARK Flexibility Score: inf
ROOT
ATOM      1  C   UNL     1      63.346  32.848  59.112  1.00  0.00     0.000 C 
ENDROOT
BRANCH   1   2
ATOM      2  C   UNL     1      62.244  32.921  60.182  1.00  0.00     0.000 C 
BRANCH   2   3
ATOM      3  C   UNL     1      61.262  31.732  60.144  1.00  0.00     0.000 C 
BRANCH   3   4
ATOM      4  C   UNL     1      61.459  30.776  61.333  1.00  0.00     0.000 C 
BRANCH   4   5
ATOM      5  C   UNL     1      62.319  29.548  60.977  1.00  0.00     0.006 C 
BRANCH   5   6
ATOM      6  C   UNL     1      63.829  29.774  61.164  1.00  0.00     0.053 C 
BRANCH   6   7
ATOM      7  C   UNL     1      64.618  29.435  59.939  1.00  0.00     0.041 C 
ATOM      8  O   UNL     1      64.287  28.453  59.223  1.00  0.00    -0.550 OA
ATOM      9  O   UNL     1      65.719  30.203  59.583  1.00  0.00    -0.550 OA
ENDBRANCH   6   7
ENDBRANCH   5   6
ENDBRANCH   4   5
ENDBRANCH   3   4
ENDBRANCH   2   3
ENDBRANCH   1   2
BRANCH   1  10
ATOM     10  C   UNL     1      64.613  33.625  59.507  1.00  0.00     0.000 C 
BRANCH  10  11
ATOM     11  C   UNL     1      64.550  34.162  60.947  1.00  0.00    -0.000 C 
BRANCH  11  12
ATOM     12  C   UNL     1      65.332  35.475  61.119  1.00  0.00    -0.000 C 
BRANCH  12  13
ATOM     13  C   UNL     1      64.449  36.717  60.915  1.00  0.00    -0.000 C 
BRANCH  13  14
ATOM     14  C   UNL     1      62.946  36.401  61.021  1.00  0.00    -0.000 C 
BRANCH  14  15
ATOM     15  C   UNL     1      62.116  37.124  59.950  1.00  0.00    -0.003 C 
ATOM     16  C   UNL     1      62.017  36.333  58.646  1.00  0.00     0.004 C 
ENDBRANCH  14  15
ENDBRANCH  13  14
ENDBRANCH  12  13
ENDBRANCH  11  12
ENDBRANCH  10  11
ENDBRANCH   1  10
TORSDOF 12
ENDMDL
MODEL 2
REMARK VINA RESULT:    -3.279     11.747     13.710
REMARK INTER + INTRA:          -7.158
REMARK INTER:                  -5.739
REMARK INTRA:                  -1.418
REMARK UNBOUND:                -1.578
REMARK SMILES CCCCCCCCCCCCCC(=O)[O-]
REMARK SMILES IDX 8 1 9 2 10 3 11 4 12 5 13 6 14 7 15 8 16 9 7 10 6 11 5 12
REMARK SMILES IDX 4 13 3 14 2 15 1 16
REMARK H PARENT
REMARK Flexibility Score: inf
ROOT
ATOM      1  C   UNL     1      56.064  26.582  52.242  1.00  0.00     0.000 C 
ENDROOT
BRANCH   1   2
ATOM      2  C   UNL     1      56.804  27.842  52.721  1.00  0.00     0.000 C 
BRANCH   2   3
ATOM      3  C   UNL     1      58.166  28.062  52.030  1.00  0.00     0.000 C 
BRANCH   3   4
ATOM      4  C   UNL     1      58.220  29.393  51.261  1.00  0.00     0.000 C 
BRANCH   4   5
ATOM      5  C   UNL     1      58.568  29.209  49.772  1.00  0.00     0.006 C 
BRANCH   5   6
ATOM      6  C   UNL     1      60.077  29.272  49.476  1.00  0.00     0.053 C 
BRANCH   6   7
ATOM      7  C   UNL     1      60.667  27.925  49.205  1.00  0.00     0.041 C 
ATOM      8  O   UNL     1      59.919  26.921  49.062  1.00  0.00    -0.550 OA
ATOM      9  O   UNL     1      62.045  27.773  49.106  1.00  0.00    -0.550 OA
ENDBRANCH   6   7
ENDBRANCH   5   6
ENDBRANCH   4   5
ENDBRANCH   3   4
ENDBRANCH   2   3
ENDBRANCH   1   2
BRANCH   1  10
ATOM     10  C   UNL     1      56.660  25.995  50.952  1.00  0.00     0.000 C 
BRANCH  10  11
ATOM     11  C   UNL     1      56.032  26.599  49.684  1.00  0.00    -0.000 C 
BRANCH  11  12
ATOM     12  C   UNL     1      54.918  25.712  49.101  1.00  0.00    -0.000 C 
BRANCH  12  13
ATOM     13  C   UNL     1      53.579  26.457  48.976  1.00  0.00    -0.000 C 
BRANCH  13  14
ATOM     14  C   UNL     1      53.333  27.438  50.135  1.00  0.00    -0.000 C 
BRANCH  14  15
ATOM     15  C   UNL     1      53.335  28.904  49.677  1.00  0.00    -0.003 C 
ATOM     16  C   UNL     1      54.355  29.757  50.430  1.00  0.00     0.004 C 
ENDBRANCH  14  15
ENDBRANCH  13  14
ENDBRANCH  12  13
ENDBRANCH  11  12
ENDBRANCH  10  11
ENDBRANCH   1  10
TORSDOF 12
ENDMDL
MODEL 3
REMARK VINA RESULT:    -3.211      2.717      5.583
REMARK INTER + INTRA:          -7.042
REMARK INTER:                  -5.405
REMARK INTRA:                  -1.637
REMARK UNBOUND:                -1.578
REMARK SMILES CCCCCCCCCCCCCC(=O)[O-]
REMARK SMILES IDX 8 1 9 2 10 3 11 4 12 5 13 6 14 7 15 8 16 9 7 10 6 11 5 12
REMARK SMILES IDX 4 13 3 14 2 15 1 16
REMARK H PARENT
REMARK Flexibility Score: inf
ROOT
ATOM      1  C   UNL     1      60.895  31.755  59.171  1.00  0.00     0.000 C 
ENDROOT
BRANCH   1   2
ATOM      2  C   UNL     1      61.429  33.135  58.752  1.00  0.00     0.000 C 
BRANCH   2   3
ATOM      3  C   UNL     1      61.353  34.195  59.871  1.00  0.00     0.000 C 
BRANCH   3   4
ATOM      4  C   UNL     1      62.681  34.953  60.045  1.00  0.00     0.000 C 
BRANCH   4   5
ATOM      5  C   UNL     1      63.876  34.013  60.293  1.00  0.00     0.006 C 
BRANCH   5   6
ATOM      6  C   UNL     1      64.899  34.565  61.302  1.00  0.00     0.053 C 
BRANCH   6   7
ATOM      7  C   UNL     1      65.480  35.875  60.873  1.00  0.00     0.041 C 
ATOM      8  O   UNL     1      66.166  35.950  59.819  1.00  0.00    -0.550 OA
ATOM      9  O   UNL     1      65.264  37.017  61.635  1.00  0.00    -0.550 OA
ENDBRANCH   6   7
ENDBRANCH   5   6
ENDBRANCH   4   5
ENDBRANCH   3   4
ENDBRANCH   2   3
ENDBRANCH   1   2
BRANCH   1  10
ATOM     10  C   UNL     1      61.050  31.488  60.677  1.00  0.00     0.000 C 
BRANCH  10  11
ATOM     11  C   UNL     1      61.597  30.081  60.973  1.00  0.00    -0.000 C 
BRANCH  11  12
ATOM     12  C   UNL     1      63.099  30.093  61.308  1.00  0.00    -0.000 C 
BRANCH  12  13
ATOM     13  C   UNL     1      63.963  29.573  60.147  1.00  0.00    -0.000 C 
BRANCH  13  14
ATOM     14  C   UNL     1      65.366  30.204  60.123  1.00  0.00    -0.000 C 
BRANCH  14  15
ATOM     15  C   UNL     1      65.687  30.873  58.778  1.00  0.00    -0.003 C 
ATOM     16  C   UNL     1      64.435  31.183  57.959  1.00  0.00     0.004 C 
ENDBRANCH  14  15
ENDBRANCH  13  14
ENDBRANCH  12  13
ENDBRANCH  11  12
ENDBRANCH  10  11
ENDBRANCH   1  10
TORSDOF 12
ENDMDL
MODEL 4
REMARK VINA RESULT:    -3.211      1.329      2.709
REMARK INTER + INTRA:          -7.041
REMARK INTER:                  -5.484
REMARK INTRA:                  -1.557
REMARK UNBOUND:                -1.578
REMARK SMILES CCCCCCCCCCCCCC(=O)[O-]
REMARK SMILES IDX 8 1 9 2 10 3 11 4 12 5 13 6 14 7 15 8 16 9 7 10 6 11 5 12
REMARK SMILES IDX 4 13 3 14 2 15 1 16
REMARK H PARENT
REMARK Flexibility Score: inf
ROOT
ATOM      1  C   UNL     1      60.865  31.462  59.255  1.00  0.00     0.000 C 
ENDROOT
BRANCH   1   2
ATOM      2  C   UNL     1      61.400  31.697  60.678  1.00  0.00     0.000 C 
BRANCH   2   3
ATOM      3  C   UNL     1      61.373  30.436  61.567  1.00  0.00     0.000 C 
BRANCH   3   4
ATOM      4  C   UNL     1      62.094  29.246  60.910  1.00  0.00     0.000 C 
BRANCH   4   5
ATOM      5  C   UNL     1      63.628  29.385  60.943  1.00  0.00     0.006 C 
BRANCH   5   6
ATOM      6  C   UNL     1      64.339  28.670  59.781  1.00  0.00     0.053 C 
BRANCH   6   7
ATOM      7  C   UNL     1      65.631  28.041  60.196  1.00  0.00     0.041 C 
ATOM      8  O   UNL     1      66.474  28.701  60.860  1.00  0.00    -0.550 OA
ATOM      9  O   UNL     1      65.907  26.723  59.853  1.00  0.00    -0.550 OA
ENDBRANCH   6   7
ENDBRANCH   5   6
ENDBRANCH   4   5
ENDBRANCH   3   4
ENDBRANCH   2   3
ENDBRANCH   1   2
BRANCH   1  10
ATOM     10  C   UNL     1      61.708  32.165  58.178  1.00  0.00     0.000 C 
BRANCH  10  11
ATOM     11  C   UNL     1      63.205  31.827  58.287  1.00  0.00    -0.000 C 
BRANCH  11  12
ATOM     12  C   UNL     1      64.062  33.060  58.622  1.00  0.00    -0.000 C 
BRANCH  12  13
ATOM     13  C   UNL     1      64.594  33.032  60.064  1.00  0.00    -0.000 C 
BRANCH  13  14
ATOM     14  C   UNL     1      64.381  34.366  60.802  1.00  0.00    -0.000 C 
BRANCH  14  15
ATOM     15  C   UNL     1      63.012  34.993  60.501  1.00  0.00    -0.003 C 
ATOM     16  C   UNL     1      62.955  36.481  60.848  1.00  0.00     0.004 C 
ENDBRANCH  14  15
ENDBRANCH  13  14
ENDBRANCH  12  13
ENDBRANCH  11  12
ENDBRANCH  10  11
ENDBRANCH   1  10
TORSDOF 12
ENDMDL
MODEL 5
REMARK VINA RESULT:    -3.150      2.117      3.582
REMARK INTER + INTRA:          -6.937
REMARK INTER:                  -6.051
REMARK INTRA:                  -0.886
REMARK UNBOUND:                -1.578
REMARK SMILES CCCCCCCCCCCCCC(=O)[O-]
REMARK SMILES IDX 8 1 9 2 10 3 11 4 12 5 13 6 14 7 15 8 16 9 7 10 6 11 5 12
REMARK SMILES IDX 4 13 3 14 2 15 1 16
REMARK H PARENT
REMARK Flexibility Score: inf
ROOT
ATOM      1  C   UNL     1      61.121  31.421  60.705  1.00  0.00     0.000 C 
ENDROOT
BRANCH   1   2
ATOM      2  C   UNL     1      61.810  30.333  61.545  1.00  0.00     0.000 C 
BRANCH   2   3
ATOM      3  C   UNL     1      63.265  30.048  61.118  1.00  0.00     0.000 C 
BRANCH   3   4
ATOM      4  C   UNL     1      63.458  28.598  60.642  1.00  0.00     0.000 C 
BRANCH   4   5
ATOM      5  C   UNL     1      62.402  27.635  61.216  1.00  0.00     0.006 C 
BRANCH   5   6
ATOM      6  C   UNL     1      61.596  26.886  60.140  1.00  0.00     0.053 C 
BRANCH   6   7
ATOM      7  C   UNL     1      60.471  27.704  59.590  1.00  0.00     0.041 C 
ATOM      8  O   UNL     1      60.600  28.300  58.488  1.00  0.00    -0.550 OA
ATOM      9  O   UNL     1      59.277  27.809  60.292  1.00  0.00    -0.550 OA
ENDBRANCH   6   7
ENDBRANCH   5   6
ENDBRANCH   4   5
ENDBRANCH   3   4
ENDBRANCH   2   3
ENDBRANCH   1   2
BRANCH   1  10
ATOM     10  C   UNL     1      62.101  32.487  60.190  1.00  0.00     0.000 C 
BRANCH  10  11
ATOM     11  C   UNL     1      61.459  33.429  59.157  1.00  0.00    -0.000 C 
BRANCH  11  12
ATOM     12  C   UNL     1      61.887  34.895  59.353  1.00  0.00    -0.000 C 
BRANCH  12  13
ATOM     13  C   UNL     1      62.795  35.083  60.580  1.00  0.00    -0.000 C 
BRANCH  13  14
ATOM     14  C   UNL     1      63.060  36.564  60.902  1.00  0.00    -0.000 C 
BRANCH  14  15
ATOM     15  C   UNL     1      64.473  36.802  61.454  1.00  0.00    -0.003 C 
ATOM     16  C   UNL     1      65.324  35.532  61.468  1.00  0.00     0.004 C 
ENDBRANCH  14  15
ENDBRANCH  13  14
ENDBRANCH  12  13
ENDBRANCH  11  12
ENDBRANCH  10  11
ENDBRANCH   1  10
TORSDOF 12
ENDMDL
MODEL 6
REMARK VINA RESULT:    -3.149     11.254     13.214
REMARK INTER + INTRA:          -6.935
REMARK INTER:                  -5.315
REMARK INTRA:                  -1.620
REMARK UNBOUND:                -1.578
REMARK SMILES CCCCCCCCCCCCCC(=O)[O-]
REMARK SMILES IDX 8 1 9 2 10 3 11 4 12 5 13 6 14 7 15 8 16 9 7 10 6 11 5 12
REMARK SMILES IDX 4 13 3 14 2 15 1 16
REMARK H PARENT
REMARK Flexibility Score: inf
ROOT
ATOM      1  C   UNL     1      59.038  28.879  52.556  1.00  0.00     0.000 C 
ENDROOT
BRANCH   1   2
ATOM      2  C   UNL     1      58.952  29.876  51.388  1.00  0.00     0.000 C 
BRANCH   2   3
ATOM      3  C   UNL     1      58.505  29.236  50.058  1.00  0.00     0.000 C 
BRANCH   3   4
ATOM      4  C   UNL     1      59.619  29.261  48.996  1.00  0.00     0.000 C 
BRANCH   4   5
ATOM      5  C   UNL     1      60.485  27.987  49.009  1.00  0.00     0.006 C 
BRANCH   5   6
ATOM      6  C   UNL     1      59.699  26.707  49.343  1.00  0.00     0.053 C 
BRANCH   6   7
ATOM      7  C   UNL     1      60.572  25.619  49.883  1.00  0.00     0.041 C 
ATOM      8  O   UNL     1      61.826  25.726  49.826  1.00  0.00    -0.550 OA
ATOM      9  O   UNL     1      60.004  24.486  50.451  1.00  0.00    -0.550 OA
ENDBRANCH   6   7
ENDBRANCH   5   6
ENDBRANCH   4   5
ENDBRANCH   3   4
ENDBRANCH   2   3
ENDBRANCH   1   2
BRANCH   1  10
ATOM     10  C   UNL     1      57.757  28.046  52.724  1.00  0.00     0.000 C 
BRANCH  10  11
ATOM     11  C   UNL     1      58.016  26.535  52.599  1.00  0.00    -0.000 C 
BRANCH  11  12
ATOM     12  C   UNL     1      56.888  25.806  51.847  1.00  0.00    -0.000 C 
BRANCH  12  13
ATOM     13  C   UNL     1      55.887  26.778  51.203  1.00  0.00    -0.000 C 
BRANCH  13  14
ATOM     14  C   UNL     1      55.940  26.756  49.666  1.00  0.00    -0.000 C 
BRANCH  14  15
ATOM     15  C   UNL     1      54.984  25.719  49.059  1.00  0.00    -0.003 C 
ATOM     16  C   UNL     1      53.513  26.066  49.287  1.00  0.00     0.004 C 
ENDBRANCH  14  15
ENDBRANCH  13  14
ENDBRANCH  12  13
ENDBRANCH  11  12
ENDBRANCH  10  11
ENDBRANCH   1  10
TORSDOF 12
ENDMDL
MODEL 7
REMARK VINA RESULT:    -3.138     11.516     13.204
REMARK INTER + INTRA:          -6.917
REMARK INTER:                  -4.839
REMARK INTRA:                  -2.078
REMARK UNBOUND:                -1.578
REMARK SMILES CCCCCCCCCCCCCC(=O)[O-]
REMARK SMILES IDX 8 1 9 2 10 3 11 4 12 5 13 6 14 7 15 8 16 9 7 10 6 11 5 12
REMARK SMILES IDX 4 13 3 14 2 15 1 16
REMARK H PARENT
REMARK Flexibility Score: inf
ROOT
ATOM      1  C   UNL     1      59.355  25.712  52.514  1.00  0.00     0.000 C 
ENDROOT
BRANCH   1   2
ATOM      2  C   UNL     1      58.178  26.602  52.946  1.00  0.00     0.000 C 
BRANCH   2   3
ATOM      3  C   UNL     1      56.889  26.365  52.132  1.00  0.00     0.000 C 
BRANCH   3   4
ATOM      4  C   UNL     1      57.185  25.997  50.667  1.00  0.00     0.000 C 
BRANCH   4   5
ATOM      5  C   UNL     1      56.083  26.468  49.699  1.00  0.00     0.006 C 
BRANCH   5   6
ATOM      6  C   UNL     1      55.464  27.825  50.078  1.00  0.00     0.053 C 
BRANCH   6   7
ATOM      7  C   UNL     1      54.072  27.988  49.555  1.00  0.00     0.041 C 
ATOM      8  O   UNL     1      53.491  27.026  48.986  1.00  0.00    -0.550 OA
ATOM      9  O   UNL     1      53.412  29.203  49.696  1.00  0.00    -0.550 OA
ENDBRANCH   6   7
ENDBRANCH   5   6
ENDBRANCH   4   5
ENDBRANCH   3   4
ENDBRANCH   2   3
ENDBRANCH   1   2
BRANCH   1  10
ATOM     10  C   UNL     1      60.722  26.381  52.737  1.00  0.00     0.000 C 
BRANCH  10  11
ATOM     11  C   UNL     1      61.320  26.947  51.438  1.00  0.00    -0.000 C 
BRANCH  11  12
ATOM     12  C   UNL     1      60.867  26.165  50.193  1.00  0.00    -0.000 C 
BRANCH  12  13
ATOM     13  C   UNL     1      60.278  27.080  49.106  1.00  0.00    -0.000 C 
BRANCH  13  14
ATOM     14  C   UNL     1      60.319  28.568  49.496  1.00  0.00    -0.000 C 
BRANCH  14  15
ATOM     15  C   UNL     1      58.917  29.176  49.646  1.00  0.00    -0.003 C 
ATOM     16  C   UNL     1      58.626  29.646  51.071  1.00  0.00     0.004 C 
ENDBRANCH  14  15
ENDBRANCH  13  14
ENDBRANCH  12  13
ENDBRANCH  11  12
ENDBRANCH  10  11
ENDBRANCH   1  10
TORSDOF 12
ENDMDL
MODEL 8
REMARK VINA RESULT:    -3.133     11.471     13.295
REMARK INTER + INTRA:          -6.909
REMARK INTER:                  -5.093
REMARK INTRA:                  -1.816
REMARK UNBOUND:                -1.578
REMARK SMILES CCCCCCCCCCCCCC(=O)[O-]
REMARK SMILES IDX 8 1 9 2 10 3 11 4 12 5 13 6 14 7 15 8 16 9 7 10 6 11 5 12
REMARK SMILES IDX 4 13 3 14 2 15 1 16
REMARK H PARENT
REMARK Flexibility Score: inf
ROOT
ATOM      1  C   UNL     1      59.328  29.167  52.159  1.00  0.00     0.000 C 
ENDROOT
BRANCH   1   2
ATOM      2  C   UNL     1      57.920  29.709  51.858  1.00  0.00     0.000 C 
BRANCH   2   3
ATOM      3  C   UNL     1      56.810  28.641  51.955  1.00  0.00     0.000 C 
BRANCH   3   4
ATOM      4  C   UNL     1      55.458  29.158  51.436  1.00  0.00     0.000 C 
BRANCH   4   5
ATOM      5  C   UNL     1      55.037  28.502  50.107  1.00  0.00     0.006 C 
BRANCH   5   6
ATOM      6  C   UNL     1      55.836  27.233  49.764  1.00  0.00     0.053 C 
BRANCH   6   7
ATOM      7  C   UNL     1      54.989  26.000  49.770  1.00  0.00     0.041 C 
ATOM      8  O   UNL     1      54.739  25.408  50.853  1.00  0.00    -0.550 OA
ATOM      9  O   UNL     1      54.471  25.503  48.580  1.00  0.00    -0.550 OA
ENDBRANCH   6   7
ENDBRANCH   5   6
ENDBRANCH   4   5
ENDBRANCH   3   4
ENDBRANCH   2   3
ENDBRANCH   1   2
BRANCH   1  10
ATOM     10  C   UNL     1      60.353  29.542  51.076  1.00  0.00     0.000 C 
BRANCH  10  11
ATOM     11  C   UNL     1      59.727  29.624  49.674  1.00  0.00    -0.000 C 
BRANCH  11  12
ATOM     12  C   UNL     1      59.740  28.269  48.944  1.00  0.00    -0.000 C 
BRANCH  12  13
ATOM     13  C   UNL     1      60.991  27.437  49.271  1.00  0.00    -0.000 C 
BRANCH  13  14
ATOM     14  C   UNL     1      60.650  26.030  49.790  1.00  0.00    -0.000 C 
BRANCH  14  15
ATOM     15  C   UNL     1      59.139  25.820  49.973  1.00  0.00    -0.003 C 
ATOM     16  C   UNL     1      58.763  25.464  51.411  1.00  0.00     0.004 C 
ENDBRANCH  14  15
ENDBRANCH  13  14
ENDBRANCH  12  13
ENDBRANCH  11  12
ENDBRANCH  10  11
ENDBRANCH   1  10
TORSDOF 12
ENDMDL
MODEL 9
REMARK VINA RESULT:    -3.088      1.645      2.783
REMARK INTER + INTRA:          -6.832
REMARK INTER:                  -5.834
REMARK INTRA:                  -0.997
REMARK UNBOUND:                -1.578
REMARK SMILES CCCCCCCCCCCCCC(=O)[O-]
REMARK SMILES IDX 8 1 9 2 10 3 11 4 12 5 13 6 14 7 15 8 16 9 7 10 6 11 5 12
REMARK SMILES IDX 4 13 3 14 2 15 1 16
REMARK H PARENT
REMARK Flexibility Score: inf
ROOT
ATOM      1  C   UNL     1      61.389  30.990  60.934  1.00  0.00     0.000 C 
ENDROOT
BRANCH   1   2
ATOM      2  C   UNL     1      62.425  29.950  61.393  1.00  0.00     0.000 C 
BRANCH   2   3
ATOM      3  C   UNL     1      62.307  28.594  60.667  1.00  0.00     0.000 C 
BRANCH   3   4
ATOM      4  C   UNL     1      63.603  28.215  59.929  1.00  0.00     0.000 C 
BRANCH   4   5
ATOM      5  C   UNL     1      64.871  28.659  60.682  1.00  0.00     0.006 C 
BRANCH   5   6
ATOM      6  C   UNL     1      65.897  29.384  59.793  1.00  0.00     0.053 C 
BRANCH   6   7
ATOM      7  C   UNL     1      67.297  28.913  60.027  1.00  0.00     0.041 C 
ATOM      8  O   UNL     1      68.204  29.178  59.194  1.00  0.00    -0.550 OA
ATOM      9  O   UNL     1      67.605  28.181  61.167  1.00  0.00    -0.550 OA
ENDBRANCH   6   7
ENDBRANCH   5   6
ENDBRANCH   4   5
ENDBRANCH   3   4
ENDBRANCH   2   3
ENDBRANCH   1   2
BRANCH   1  10
ATOM     10  C   UNL     1      61.991  32.065  60.015  1.00  0.00     0.000 C 
BRANCH  10  11
ATOM     11  C   UNL     1      63.485  32.307  60.291  1.00  0.00    -0.000 C 
BRANCH  11  12
ATOM     12  C   UNL     1      63.859  33.799  60.230  1.00  0.00    -0.000 C 
BRANCH  12  13
ATOM     13  C   UNL     1      62.627  34.717  60.289  1.00  0.00    -0.000 C 
BRANCH  13  14
ATOM     14  C   UNL     1      62.958  36.121  60.825  1.00  0.00    -0.000 C 
BRANCH  14  15
ATOM     15  C   UNL     1      61.768  37.087  60.716  1.00  0.00    -0.003 C 
ATOM     16  C   UNL     1      60.783  36.688  59.617  1.00  0.00     0.004 C 
ENDBRANCH  14  15
ENDBRANCH  13  14
ENDBRANCH  12  13
ENDBRANCH  11  12
ENDBRANCH  10  11
ENDBRANCH   1  10
TORSDOF 12
ENDMDL
