MODEL 1
REMARK VINA RESULT:    -7.768      0.000      0.000
REMARK INTER + INTRA:          -8.589
REMARK INTER:                  -8.449
REMARK INTRA:                  -0.140
REMARK UNBOUND:                -0.140
REMARK SMILES C[C@@H]1[C@H](C)CC[C@@]2(C(=O)[O-])CC[C@@]3(C)C(=CC[C@@H]4[C@]5(C)CC[C@@H](O)C(C)(C)[C@H]5CC[C@@]43C)[C@@H]12
REMARK SMILES IDX 7 1 6 2 11 3 33 4 5 5 12 6 15 7 2 8 3 9 13 10 16 11 1 12
REMARK SMILES IDX 4 13 14 14 31 15 17 16 18 17 30 18 32 19 19 20 29 21 28 22
REMARK SMILES IDX 21 23 20 24 25 25 22 26 23 27 26 28 27 29 8 30 9 31 10 32
REMARK SMILES IDX 24 33
REMARK H PARENT 24 34
REMARK Flexibility Score: inf
ROOT
ATOM      1  C   UNL     1     -20.990  47.159  38.703  1.00  0.00     0.017 C 
ATOM      2  C   UNL     1     -19.707  46.704  39.483  1.00  0.00     0.014 C 
ATOM      3  C   UNL     1     -21.607  48.347  39.482  1.00  0.00     0.014 C 
ATOM      4  C   UNL     1     -20.637  47.619  37.239  1.00  0.00     0.030 C 
ATOM      5  C   UNL     1     -18.632  46.141  38.552  1.00  0.00     0.004 C 
ATOM      6  C   UNL     1     -22.880  48.870  38.817  1.00  0.00     0.013 C 
ATOM      7  C   UNL     1     -21.745  48.458  36.572  1.00  0.00    -0.063 C 
ATOM      8  C   UNL     1     -19.216  48.281  37.215  1.00  0.00    -0.003 C 
ATOM      9  C   UNL     1     -18.114  47.215  37.560  1.00  0.00    -0.011 C 
ATOM     10  C   UNL     1     -22.681  49.406  37.349  1.00  0.00    -0.006 C 
ATOM     11  C   UNL     1     -21.794  48.452  35.229  1.00  0.00    -0.027 C 
ATOM     12  C   UNL     1     -18.880  49.083  35.943  1.00  0.00     0.008 C 
ATOM     13  C   UNL     1     -17.519  46.508  36.327  1.00  0.00     0.008 C 
ATOM     14  C   UNL     1     -21.949  50.775  37.480  1.00  0.00     0.017 C 
ATOM     15  C   UNL     1     -24.115  49.552  36.574  1.00  0.00    -0.020 C 
ATOM     16  C   UNL     1     -22.524  49.510  34.475  1.00  0.00     0.032 C 
ATOM     17  C   UNL     1     -23.983  49.647  34.962  1.00  0.00     0.006 C 
ATOM     18  C   UNL     1     -24.955  50.736  37.208  1.00  0.00     0.008 C 
ATOM     19  C   UNL     1     -24.968  48.259  36.817  1.00  0.00     0.012 C 
ATOM     20  C   UNL     1     -24.784  50.840  34.286  1.00  0.00    -0.025 C 
ATOM     21  C   UNL     1     -24.927  52.124  36.526  1.00  0.00     0.005 C 
ATOM     22  C   UNL     1     -24.417  52.142  35.069  1.00  0.00     0.003 C 
ATOM     23  C   UNL     1     -24.462  51.017  32.756  1.00  0.00     0.010 C 
ATOM     24  C   UNL     1     -26.309  50.484  34.336  1.00  0.00     0.012 C 
ATOM     25  C   UNL     1     -24.630  53.494  34.280  1.00  0.00    -0.006 C 
ATOM     26  C   UNL     1     -23.389  52.069  32.443  1.00  0.00     0.033 C 
ATOM     27  C   UNL     1     -23.724  53.483  32.986  1.00  0.00     0.120 C 
ATOM     28  C   UNL     1     -24.177  54.688  35.161  1.00  0.00     0.014 C 
ATOM     29  C   UNL     1     -26.118  53.749  33.910  1.00  0.00     0.014 C 
ENDROOT
BRANCH   1  30
ATOM     30  C   UNL     1     -21.976  45.992  38.695  1.00  0.00     0.048 C 
ATOM     31  O   UNL     1     -22.266  45.369  39.752  1.00  0.00    -0.550 OA
ATOM     32  O   UNL     1     -22.571  45.596  37.502  1.00  0.00    -0.550 OA
ENDBRANCH   1  30
BRANCH  27  33
ATOM     33  O   UNL     1     -24.299  54.267  31.967  1.00  0.00    -0.393 OA
ATOM     34  H   UNL     1     -25.277  54.096  31.980  1.00  0.00     0.210 HD
ENDBRANCH  27  33
TORSDOF 2
ENDMDL
MODEL 2
REMARK VINA RESULT:    -7.656      1.679      2.273
REMARK INTER + INTRA:          -8.468
REMARK INTER:                  -8.391
REMARK INTRA:                  -0.077
REMARK UNBOUND:                -0.140
REMARK SMILES C[C@@H]1[C@H](C)CC[C@@]2(C(=O)[O-])CC[C@@]3(C)C(=CC[C@@H]4[C@]5(C)CC[C@@H](O)C(C)(C)[C@H]5CC[C@@]43C)[C@@H]12
REMARK SMILES IDX 7 1 6 2 11 3 33 4 5 5 12 6 15 7 2 8 3 9 13 10 16 11 1 12
REMARK SMILES IDX 4 13 14 14 31 15 17 16 18 17 30 18 32 19 19 20 29 21 28 22
REMARK SMILES IDX 21 23 20 24 25 25 22 26 23 27 26 28 27 29 8 30 9 31 10 32
REMARK SMILES IDX 24 33
REMARK H PARENT 24 34
REMARK Flexibility Score: inf
ROOT
ATOM      1  C   UNL     1     -21.293  47.309  38.284  1.00  0.00     0.017 C 
ATOM      2  C   UNL     1     -20.194  47.267  39.403  1.00  0.00     0.014 C 
ATOM      3  C   UNL     1     -22.097  48.618  38.474  1.00  0.00     0.014 C 
ATOM      4  C   UNL     1     -20.647  47.294  36.848  1.00  0.00     0.030 C 
ATOM      5  C   UNL     1     -18.928  46.541  38.947  1.00  0.00     0.004 C 
ATOM      6  C   UNL     1     -23.213  48.762  37.440  1.00  0.00     0.013 C 
ATOM      7  C   UNL     1     -21.611  47.751  35.734  1.00  0.00    -0.063 C 
ATOM      8  C   UNL     1     -19.275  48.051  36.872  1.00  0.00    -0.003 C 
ATOM      9  C   UNL     1     -18.242  47.275  37.765  1.00  0.00    -0.011 C 
ATOM     10  C   UNL     1     -22.719  48.802  35.944  1.00  0.00    -0.006 C 
ATOM     11  C   UNL     1     -21.370  47.298  34.491  1.00  0.00    -0.027 C 
ATOM     12  C   UNL     1     -18.697  48.419  35.491  1.00  0.00     0.008 C 
ATOM     13  C   UNL     1     -17.376  46.265  36.988  1.00  0.00     0.008 C 
ATOM     14  C   UNL     1     -22.073  50.205  35.735  1.00  0.00     0.017 C 
ATOM     15  C   UNL     1     -23.957  48.540  34.906  1.00  0.00    -0.020 C 
ATOM     16  C   UNL     1     -21.952  47.970  33.296  1.00  0.00     0.032 C 
ATOM     17  C   UNL     1     -23.485  48.112  33.417  1.00  0.00     0.006 C 
ATOM     18  C   UNL     1     -24.949  49.776  34.922  1.00  0.00     0.008 C 
ATOM     19  C   UNL     1     -24.804  47.320  35.409  1.00  0.00     0.012 C 
ATOM     20  C   UNL     1     -24.158  48.929  32.232  1.00  0.00    -0.025 C 
ATOM     21  C   UNL     1     -24.816  50.857  33.824  1.00  0.00     0.005 C 
ATOM     22  C   UNL     1     -24.005  50.446  32.576  1.00  0.00     0.003 C 
ATOM     23  C   UNL     1     -23.520  48.625  30.826  1.00  0.00     0.010 C 
ATOM     24  C   UNL     1     -25.646  48.458  32.108  1.00  0.00     0.012 C 
ATOM     25  C   UNL     1     -24.084  51.434  31.346  1.00  0.00    -0.006 C 
ATOM     26  C   UNL     1     -22.436  49.616  30.383  1.00  0.00     0.033 C 
ATOM     27  C   UNL     1     -22.922  51.090  30.334  1.00  0.00     0.120 C 
ATOM     28  C   UNL     1     -23.866  52.891  31.834  1.00  0.00     0.014 C 
ATOM     29  C   UNL     1     -25.464  51.402  30.633  1.00  0.00     0.014 C 
ENDROOT
BRANCH   1  30
ATOM     30  C   UNL     1     -22.219  46.111  38.488  1.00  0.00     0.048 C 
ATOM     31  O   UNL     1     -22.609  45.768  39.637  1.00  0.00    -0.550 OA
ATOM     32  O   UNL     1     -22.647  45.372  37.390  1.00  0.00    -0.550 OA
ENDBRANCH   1  30
BRANCH  27  33
ATOM     33  O   UNL     1     -23.287  51.432  29.018  1.00  0.00    -0.393 OA
ATOM     34  H   UNL     1     -23.293  52.424  28.962  1.00  0.00     0.210 HD
ENDBRANCH  27  33
TORSDOF 2
ENDMDL
MODEL 3
REMARK VINA RESULT:    -7.392      4.395      6.336
REMARK INTER + INTRA:          -8.180
REMARK INTER:                  -7.965
REMARK INTRA:                  -0.215
REMARK UNBOUND:                -0.140
REMARK SMILES C[C@@H]1[C@H](C)CC[C@@]2(C(=O)[O-])CC[C@@]3(C)C(=CC[C@@H]4[C@]5(C)CC[C@@H](O)C(C)(C)[C@H]5CC[C@@]43C)[C@@H]12
REMARK SMILES IDX 7 1 6 2 11 3 33 4 5 5 12 6 15 7 2 8 3 9 13 10 16 11 1 12
REMARK SMILES IDX 4 13 14 14 31 15 17 16 18 17 30 18 32 19 19 20 29 21 28 22
REMARK SMILES IDX 21 23 20 24 25 25 22 26 23 27 26 28 27 29 8 30 9 31 10 32
REMARK SMILES IDX 24 33
REMARK H PARENT 24 34
REMARK Flexibility Score: inf
ROOT
ATOM      1  C   UNL     1     -26.822  43.325  35.646  1.00  0.00     0.017 C 
ATOM      2  C   UNL     1     -27.093  41.785  35.522  1.00  0.00     0.014 C 
ATOM      3  C   UNL     1     -26.072  43.557  36.981  1.00  0.00     0.014 C 
ATOM      4  C   UNL     1     -25.940  43.849  34.451  1.00  0.00     0.030 C 
ATOM      5  C   UNL     1     -27.100  41.312  34.068  1.00  0.00     0.004 C 
ATOM      6  C   UNL     1     -25.764  45.035  37.217  1.00  0.00     0.013 C 
ATOM      7  C   UNL     1     -25.291  45.222  34.719  1.00  0.00    -0.063 C 
ATOM      8  C   UNL     1     -24.936  42.733  34.000  1.00  0.00    -0.003 C 
ATOM      9  C   UNL     1     -25.717  41.512  33.395  1.00  0.00    -0.011 C 
ATOM     10  C   UNL     1     -24.851  45.699  36.118  1.00  0.00    -0.006 C 
ATOM     11  C   UNL     1     -24.981  45.972  33.648  1.00  0.00    -0.027 C 
ATOM     12  C   UNL     1     -23.786  43.205  33.088  1.00  0.00     0.008 C 
ATOM     13  C   UNL     1     -25.913  41.588  31.868  1.00  0.00     0.008 C 
ATOM     14  C   UNL     1     -23.411  45.155  36.361  1.00  0.00     0.017 C 
ATOM     15  C   UNL     1     -24.909  47.332  36.208  1.00  0.00    -0.020 C 
ATOM     16  C   UNL     1     -24.007  47.095  33.744  1.00  0.00     0.032 C 
ATOM     17  C   UNL     1     -24.390  48.081  34.869  1.00  0.00     0.006 C 
ATOM     18  C   UNL     1     -24.189  47.828  37.529  1.00  0.00     0.008 C 
ATOM     19  C   UNL     1     -26.403  47.788  36.353  1.00  0.00     0.012 C 
ATOM     20  C   UNL     1     -23.328  49.238  35.110  1.00  0.00    -0.025 C 
ATOM     21  C   UNL     1     -22.720  48.308  37.445  1.00  0.00     0.005 C 
ATOM     22  C   UNL     1     -22.209  48.650  36.029  1.00  0.00     0.003 C 
ATOM     23  C   UNL     1     -22.701  49.793  33.778  1.00  0.00     0.010 C 
ATOM     24  C   UNL     1     -24.081  50.460  35.738  1.00  0.00     0.012 C 
ATOM     25  C   UNL     1     -20.813  49.387  35.958  1.00  0.00    -0.006 C 
ATOM     26  C   UNL     1     -21.357  49.164  33.389  1.00  0.00     0.033 C 
ATOM     27  C   UNL     1     -20.263  49.306  34.480  1.00  0.00     0.120 C 
ATOM     28  C   UNL     1     -19.795  48.663  36.879  1.00  0.00     0.014 C 
ATOM     29  C   UNL     1     -20.885  50.862  36.441  1.00  0.00     0.014 C 
ENDROOT
BRANCH   1  30
ATOM     30  C   UNL     1     -28.172  44.039  35.693  1.00  0.00     0.048 C 
ATOM     31  O   UNL     1     -28.555  44.785  34.752  1.00  0.00    -0.550 OA
ATOM     32  O   UNL     1     -29.005  43.873  36.794  1.00  0.00    -0.550 OA
ENDBRANCH   1  30
BRANCH  27  33
ATOM     33  O   UNL     1     -19.437  50.410  34.193  1.00  0.00    -0.393 OA
ATOM     34  H   UNL     1     -19.915  50.970  33.527  1.00  0.00     0.210 HD
ENDBRANCH  27  33
TORSDOF 2
ENDMDL
MODEL 4
REMARK VINA RESULT:    -7.350      2.972      7.160
REMARK INTER + INTRA:          -8.134
REMARK INTER:                  -8.015
REMARK INTRA:                  -0.119
REMARK UNBOUND:                -0.140
REMARK SMILES C[C@@H]1[C@H](C)CC[C@@]2(C(=O)[O-])CC[C@@]3(C)C(=CC[C@@H]4[C@]5(C)CC[C@@H](O)C(C)(C)[C@H]5CC[C@@]43C)[C@@H]12
REMARK SMILES IDX 7 1 6 2 11 3 33 4 5 5 12 6 15 7 2 8 3 9 13 10 16 11 1 12
REMARK SMILES IDX 4 13 14 14 31 15 17 16 18 17 30 18 32 19 19 20 29 21 28 22
REMARK SMILES IDX 21 23 20 24 25 25 22 26 23 27 26 28 27 29 8 30 9 31 10 32
REMARK SMILES IDX 24 33
REMARK H PARENT 24 34
REMARK Flexibility Score: inf
ROOT
ATOM      1  C   UNL     1     -23.592  49.406  30.157  1.00  0.00     0.017 C 
ATOM      2  C   UNL     1     -24.147  48.689  28.877  1.00  0.00     0.014 C 
ATOM      3  C   UNL     1     -24.793  50.080  30.866  1.00  0.00     0.014 C 
ATOM      4  C   UNL     1     -22.912  48.380  31.139  1.00  0.00     0.030 C 
ATOM      5  C   UNL     1     -23.348  47.434  28.523  1.00  0.00     0.004 C 
ATOM      6  C   UNL     1     -24.368  50.827  32.130  1.00  0.00     0.013 C 
ATOM      7  C   UNL     1     -22.730  48.924  32.570  1.00  0.00    -0.063 C 
ATOM      8  C   UNL     1     -23.647  46.997  31.057  1.00  0.00    -0.003 C 
ATOM      9  C   UNL     1     -23.447  46.359  29.636  1.00  0.00    -0.011 C 
ATOM     10  C   UNL     1     -23.700  49.922  33.234  1.00  0.00    -0.006 C 
ATOM     11  C   UNL     1     -21.743  48.387  33.308  1.00  0.00    -0.027 C 
ATOM     12  C   UNL     1     -23.326  46.008  32.196  1.00  0.00     0.008 C 
ATOM     13  C   UNL     1     -22.227  45.423  29.535  1.00  0.00     0.008 C 
ATOM     14  C   UNL     1     -24.854  49.091  33.872  1.00  0.00     0.017 C 
ATOM     15  C   UNL     1     -22.913  50.828  34.345  1.00  0.00    -0.020 C 
ATOM     16  C   UNL     1     -21.725  48.520  34.792  1.00  0.00     0.032 C 
ATOM     17  C   UNL     1     -21.840  49.997  35.228  1.00  0.00     0.006 C 
ATOM     18  C   UNL     1     -23.957  51.639  35.220  1.00  0.00     0.008 C 
ATOM     19  C   UNL     1     -22.054  51.915  33.611  1.00  0.00     0.012 C 
ATOM     20  C   UNL     1     -21.950  50.205  36.800  1.00  0.00    -0.025 C 
ATOM     21  C   UNL     1     -24.376  51.075  36.598  1.00  0.00     0.005 C 
ATOM     22  C   UNL     1     -23.449  49.990  37.187  1.00  0.00     0.003 C 
ATOM     23  C   UNL     1     -21.031  49.226  37.621  1.00  0.00     0.010 C 
ATOM     24  C   UNL     1     -21.411  51.637  37.135  1.00  0.00     0.012 C 
ATOM     25  C   UNL     1     -23.713  49.600  38.695  1.00  0.00    -0.006 C 
ATOM     26  C   UNL     1     -21.732  47.958  38.125  1.00  0.00     0.033 C 
ATOM     27  C   UNL     1     -22.974  48.241  39.012  1.00  0.00     0.120 C 
ATOM     28  C   UNL     1     -25.232  49.371  38.915  1.00  0.00     0.014 C 
ATOM     29  C   UNL     1     -23.278  50.711  39.691  1.00  0.00     0.014 C 
ENDROOT
BRANCH   1  30
ATOM     30  C   UNL     1     -22.603  50.479  29.705  1.00  0.00     0.048 C 
ATOM     31  O   UNL     1     -21.480  50.615  30.260  1.00  0.00    -0.550 OA
ATOM     32  O   UNL     1     -22.939  51.335  28.661  1.00  0.00    -0.550 OA
ENDBRANCH   1  30
BRANCH  27  33
ATOM     33  O   UNL     1     -22.619  48.171  40.373  1.00  0.00    -0.393 OA
ATOM     34  H   UNL     1     -23.439  48.360  40.901  1.00  0.00     0.210 HD
ENDBRANCH  27  33
TORSDOF 2
ENDMDL
MODEL 5
REMARK VINA RESULT:    -7.280      2.795      4.568
REMARK INTER + INTRA:          -8.058
REMARK INTER:                  -7.846
REMARK INTRA:                  -0.212
REMARK UNBOUND:                -0.140
REMARK SMILES C[C@@H]1[C@H](C)CC[C@@]2(C(=O)[O-])CC[C@@]3(C)C(=CC[C@@H]4[C@]5(C)CC[C@@H](O)C(C)(C)[C@H]5CC[C@@]43C)[C@@H]12
REMARK SMILES IDX 7 1 6 2 11 3 33 4 5 5 12 6 15 7 2 8 3 9 13 10 16 11 1 12
REMARK SMILES IDX 4 13 14 14 31 15 17 16 18 17 30 18 32 19 19 20 29 21 28 22
REMARK SMILES IDX 21 23 20 24 25 25 22 26 23 27 26 28 27 29 8 30 9 31 10 32
REMARK SMILES IDX 24 33
REMARK H PARENT 24 34
REMARK Flexibility Score: inf
ROOT
ATOM      1  C   UNL     1     -21.805  49.202  37.588  1.00  0.00     0.017 C 
ATOM      2  C   UNL     1     -21.044  48.371  38.679  1.00  0.00     0.014 C 
ATOM      3  C   UNL     1     -20.739  49.829  36.656  1.00  0.00     0.014 C 
ATOM      4  C   UNL     1     -22.769  48.287  36.742  1.00  0.00     0.030 C 
ATOM      5  C   UNL     1     -21.846  47.158  39.150  1.00  0.00     0.004 C 
ATOM      6  C   UNL     1     -21.369  50.678  35.553  1.00  0.00     0.013 C 
ATOM      7  C   UNL     1     -23.217  48.928  35.412  1.00  0.00    -0.063 C 
ATOM      8  C   UNL     1     -22.153  46.853  36.597  1.00  0.00    -0.003 C 
ATOM      9  C   UNL     1     -22.086  46.147  37.999  1.00  0.00    -0.011 C 
ATOM     10  C   UNL     1     -22.337  49.891  34.590  1.00  0.00    -0.006 C 
ATOM     11  C   UNL     1     -24.384  48.509  34.893  1.00  0.00    -0.027 C 
ATOM     12  C   UNL     1     -22.799  45.960  35.520  1.00  0.00     0.008 C 
ATOM     13  C   UNL     1     -23.327  45.298  38.332  1.00  0.00     0.008 C 
ATOM     14  C   UNL     1     -21.426  49.019  33.674  1.00  0.00     0.017 C 
ATOM     15  C   UNL     1     -23.271  50.917  33.723  1.00  0.00    -0.020 C 
ATOM     16  C   UNL     1     -24.718  48.732  33.459  1.00  0.00     0.032 C 
ATOM     17  C   UNL     1     -24.580  50.220  33.071  1.00  0.00     0.006 C 
ATOM     18  C   UNL     1     -22.383  51.701  32.671  1.00  0.00     0.008 C 
ATOM     19  C   UNL     1     -23.854  52.017  34.677  1.00  0.00     0.012 C 
ATOM     20  C   UNL     1     -24.802  50.512  31.525  1.00  0.00    -0.025 C 
ATOM     21  C   UNL     1     -22.327  51.192  31.211  1.00  0.00     0.005 C 
ATOM     22  C   UNL     1     -23.449  50.214  30.802  1.00  0.00     0.003 C 
ATOM     23  C   UNL     1     -25.958  49.654  30.890  1.00  0.00     0.010 C 
ATOM     24  C   UNL     1     -25.280  51.997  31.380  1.00  0.00     0.012 C 
ATOM     25  C   UNL     1     -23.558  49.897  29.258  1.00  0.00    -0.006 C 
ATOM     26  C   UNL     1     -25.495  48.370  30.188  1.00  0.00     0.033 C 
ATOM     27  C   UNL     1     -24.461  48.616  29.058  1.00  0.00     0.120 C 
ATOM     28  C   UNL     1     -22.150  49.572  28.692  1.00  0.00     0.014 C 
ATOM     29  C   UNL     1     -24.108  51.094  28.433  1.00  0.00     0.014 C 
ENDROOT
BRANCH   1  30
ATOM     30  C   UNL     1     -22.576  50.314  38.295  1.00  0.00     0.048 C 
ATOM     31  O   UNL     1     -23.836  50.316  38.341  1.00  0.00    -0.550 OA
ATOM     32  O   UNL     1     -21.886  51.357  38.905  1.00  0.00    -0.550 OA
ENDBRANCH   1  30
BRANCH  27  33
ATOM     33  O   UNL     1     -25.112  48.654  27.809  1.00  0.00    -0.393 OA
ATOM     34  H   UNL     1     -24.414  48.551  27.110  1.00  0.00     0.210 HD
ENDBRANCH  27  33
TORSDOF 2
ENDMDL
MODEL 6
REMARK VINA RESULT:    -7.228      4.039      7.035
REMARK INTER + INTRA:          -8.001
REMARK INTER:                  -7.789
REMARK INTRA:                  -0.212
REMARK UNBOUND:                -0.140
REMARK SMILES C[C@@H]1[C@H](C)CC[C@@]2(C(=O)[O-])CC[C@@]3(C)C(=CC[C@@H]4[C@]5(C)CC[C@@H](O)C(C)(C)[C@H]5CC[C@@]43C)[C@@H]12
REMARK SMILES IDX 7 1 6 2 11 3 33 4 5 5 12 6 15 7 2 8 3 9 13 10 16 11 1 12
REMARK SMILES IDX 4 13 14 14 31 15 17 16 18 17 30 18 32 19 19 20 29 21 28 22
REMARK SMILES IDX 21 23 20 24 25 25 22 26 23 27 26 28 27 29 8 30 9 31 10 32
REMARK SMILES IDX 24 33
REMARK H PARENT 24 34
REMARK Flexibility Score: inf
ROOT
ATOM      1  C   UNL     1     -24.522  46.468  30.605  1.00  0.00     0.017 C 
ATOM      2  C   UNL     1     -25.504  45.469  29.899  1.00  0.00     0.014 C 
ATOM      3  C   UNL     1     -25.348  47.709  31.026  1.00  0.00     0.014 C 
ATOM      4  C   UNL     1     -23.864  45.819  31.881  1.00  0.00     0.030 C 
ATOM      5  C   UNL     1     -25.099  44.010  30.111  1.00  0.00     0.004 C 
ATOM      6  C   UNL     1     -24.486  48.764  31.718  1.00  0.00     0.013 C 
ATOM      7  C   UNL     1     -23.236  46.848  32.842  1.00  0.00    -0.063 C 
ATOM      8  C   UNL     1     -24.875  44.830  32.557  1.00  0.00    -0.003 C 
ATOM      9  C   UNL     1     -25.159  43.610  31.609  1.00  0.00    -0.011 C 
ATOM     10  C   UNL     1     -23.785  48.275  33.042  1.00  0.00    -0.006 C 
ATOM     11  C   UNL     1     -22.240  46.416  33.636  1.00  0.00    -0.027 C 
ATOM     12  C   UNL     1     -24.512  44.388  33.989  1.00  0.00     0.008 C 
ATOM     13  C   UNL     1     -24.227  42.406  31.840  1.00  0.00     0.008 C 
ATOM     14  C   UNL     1     -24.905  48.193  34.123  1.00  0.00     0.017 C 
ATOM     15  C   UNL     1     -22.582  49.291  33.485  1.00  0.00    -0.020 C 
ATOM     16  C   UNL     1     -21.843  47.169  34.859  1.00  0.00     0.032 C 
ATOM     17  C   UNL     1     -21.533  48.647  34.537  1.00  0.00     0.006 C 
ATOM     18  C   UNL     1     -23.191  50.673  33.967  1.00  0.00     0.008 C 
ATOM     19  C   UNL     1     -21.709  49.638  32.229  1.00  0.00     0.012 C 
ATOM     20  C   UNL     1     -21.221  49.539  35.815  1.00  0.00    -0.025 C 
ATOM     21  C   UNL     1     -23.382  50.919  35.482  1.00  0.00     0.005 C 
ATOM     22  C   UNL     1     -22.596  49.975  36.417  1.00  0.00     0.003 C 
ATOM     23  C   UNL     1     -20.365  48.789  36.901  1.00  0.00     0.010 C 
ATOM     24  C   UNL     1     -20.325  50.739  35.356  1.00  0.00     0.012 C 
ATOM     25  C   UNL     1     -22.572  50.378  37.944  1.00  0.00    -0.006 C 
ATOM     26  C   UNL     1     -21.180  48.141  38.028  1.00  0.00     0.033 C 
ATOM     27  C   UNL     1     -22.086  49.140  38.796  1.00  0.00     0.120 C 
ATOM     28  C   UNL     1     -24.009  50.735  38.411  1.00  0.00     0.014 C 
ATOM     29  C   UNL     1     -21.686  51.623  38.226  1.00  0.00     0.014 C 
ENDROOT
BRANCH   1  30
ATOM     30  C   UNL     1     -23.463  46.886  29.588  1.00  0.00     0.048 C 
ATOM     31  O   UNL     1     -22.261  46.525  29.702  1.00  0.00    -0.550 OA
ATOM     32  O   UNL     1     -23.818  47.687  28.507  1.00  0.00    -0.550 OA
ENDBRANCH   1  30
BRANCH  27  33
ATOM     33  O   UNL     1     -21.443  49.565  39.974  1.00  0.00    -0.393 OA
ATOM     34  H   UNL     1     -22.130  49.599  40.690  1.00  0.00     0.210 HD
ENDBRANCH  27  33
TORSDOF 2
ENDMDL
MODEL 7
REMARK VINA RESULT:    -7.096      3.264      7.448
REMARK INTER + INTRA:          -7.858
REMARK INTER:                  -7.653
REMARK INTRA:                  -0.204
REMARK UNBOUND:                -0.140
REMARK SMILES C[C@@H]1[C@H](C)CC[C@@]2(C(=O)[O-])CC[C@@]3(C)C(=CC[C@@H]4[C@]5(C)CC[C@@H](O)C(C)(C)[C@H]5CC[C@@]43C)[C@@H]12
REMARK SMILES IDX 7 1 6 2 11 3 33 4 5 5 12 6 15 7 2 8 3 9 13 10 16 11 1 12
REMARK SMILES IDX 4 13 14 14 31 15 17 16 18 17 30 18 32 19 19 20 29 21 28 22
REMARK SMILES IDX 21 23 20 24 25 25 22 26 23 27 26 28 27 29 8 30 9 31 10 32
REMARK SMILES IDX 24 33
REMARK H PARENT 24 34
REMARK Flexibility Score: inf
ROOT
ATOM      1  C   UNL     1     -24.543  49.265  29.542  1.00  0.00     0.017 C 
ATOM      2  C   UNL     1     -25.155  48.347  28.427  1.00  0.00     0.014 C 
ATOM      3  C   UNL     1     -25.696  49.668  30.494  1.00  0.00     0.014 C 
ATOM      4  C   UNL     1     -23.430  48.508  30.359  1.00  0.00     0.030 C 
ATOM      5  C   UNL     1     -24.156  47.307  27.918  1.00  0.00     0.004 C 
ATOM      6  C   UNL     1     -25.218  50.581  31.621  1.00  0.00     0.013 C 
ATOM      7  C   UNL     1     -23.092  49.177  31.707  1.00  0.00    -0.063 C 
ATOM      8  C   UNL     1     -23.785  46.985  30.461  1.00  0.00    -0.003 C 
ATOM      9  C   UNL     1     -23.736  46.320  29.038  1.00  0.00    -0.011 C 
ATOM     10  C   UNL     1     -24.121  49.947  32.559  1.00  0.00    -0.006 C 
ATOM     11  C   UNL     1     -21.866  48.953  32.212  1.00  0.00    -0.027 C 
ATOM     12  C   UNL     1     -22.986  46.187  31.510  1.00  0.00     0.008 C 
ATOM     13  C   UNL     1     -22.368  45.710  28.678  1.00  0.00     0.008 C 
ATOM     14  C   UNL     1     -24.859  48.903  33.449  1.00  0.00     0.017 C 
ATOM     15  C   UNL     1     -23.374  51.094  33.455  1.00  0.00    -0.020 C 
ATOM     16  C   UNL     1     -21.567  49.188  33.652  1.00  0.00     0.032 C 
ATOM     17  C   UNL     1     -21.960  50.618  34.085  1.00  0.00     0.006 C 
ATOM     18  C   UNL     1     -24.379  51.680  34.532  1.00  0.00     0.008 C 
ATOM     19  C   UNL     1     -22.999  52.307  32.535  1.00  0.00     0.012 C 
ATOM     20  C   UNL     1     -21.782  50.898  35.639  1.00  0.00    -0.025 C 
ATOM     21  C   UNL     1     -24.336  51.126  35.975  1.00  0.00     0.005 C 
ATOM     22  C   UNL     1     -23.058  50.347  36.354  1.00  0.00     0.003 C 
ATOM     23  C   UNL     1     -20.490  50.236  36.246  1.00  0.00     0.010 C 
ATOM     24  C   UNL     1     -21.570  52.439  35.828  1.00  0.00     0.012 C 
ATOM     25  C   UNL     1     -22.885  50.008  37.888  1.00  0.00    -0.006 C 
ATOM     26  C   UNL     1     -20.718  48.871  36.909  1.00  0.00     0.033 C 
ATOM     27  C   UNL     1     -21.772  48.899  38.047  1.00  0.00     0.120 C 
ATOM     28  C   UNL     1     -24.212  49.426  38.445  1.00  0.00     0.014 C 
ATOM     29  C   UNL     1     -22.547  51.257  38.747  1.00  0.00     0.014 C 
ENDROOT
BRANCH   1  30
ATOM     30  C   UNL     1     -23.983  50.515  28.868  1.00  0.00     0.048 C 
ATOM     31  O   UNL     1     -22.756  50.800  28.925  1.00  0.00    -0.550 OA
ATOM     32  O   UNL     1     -24.834  51.369  28.174  1.00  0.00    -0.550 OA
ENDBRANCH   1  30
BRANCH  27  33
ATOM     33  O   UNL     1     -21.129  49.013  39.296  1.00  0.00    -0.393 OA
ATOM     34  H   UNL     1     -21.042  49.981  39.495  1.00  0.00     0.210 HD
ENDBRANCH  27  33
TORSDOF 2
ENDMDL
MODEL 8
REMARK VINA RESULT:    -7.048      2.096      7.777
REMARK INTER + INTRA:          -7.806
REMARK INTER:                  -7.643
REMARK INTRA:                  -0.163
REMARK UNBOUND:                -0.140
REMARK SMILES C[C@@H]1[C@H](C)CC[C@@]2(C(=O)[O-])CC[C@@]3(C)C(=CC[C@@H]4[C@]5(C)CC[C@@H](O)C(C)(C)[C@H]5CC[C@@]43C)[C@@H]12
REMARK SMILES IDX 7 1 6 2 11 3 33 4 5 5 12 6 15 7 2 8 3 9 13 10 16 11 1 12
REMARK SMILES IDX 4 13 14 14 31 15 17 16 18 17 30 18 32 19 19 20 29 21 28 22
REMARK SMILES IDX 21 23 20 24 25 25 22 26 23 27 26 28 27 29 8 30 9 31 10 32
REMARK SMILES IDX 24 33
REMARK H PARENT 24 34
REMARK Flexibility Score: inf
ROOT
ATOM      1  C   UNL     1     -25.014  51.834  31.139  1.00  0.00     0.017 C 
ATOM      2  C   UNL     1     -25.628  51.724  29.700  1.00  0.00     0.014 C 
ATOM      3  C   UNL     1     -25.952  51.065  32.102  1.00  0.00     0.014 C 
ATOM      4  C   UNL     1     -23.572  51.203  31.196  1.00  0.00     0.030 C 
ATOM      5  C   UNL     1     -24.556  51.725  28.610  1.00  0.00     0.004 C 
ATOM      6  C   UNL     1     -25.458  51.116  33.547  1.00  0.00     0.013 C 
ATOM      7  C   UNL     1     -23.090  50.896  32.628  1.00  0.00    -0.063 C 
ATOM      8  C   UNL     1     -23.481  49.991  30.205  1.00  0.00    -0.003 C 
ATOM      9  C   UNL     1     -23.624  50.490  28.723  1.00  0.00    -0.011 C 
ATOM     10  C   UNL     1     -24.032  50.482  33.775  1.00  0.00    -0.006 C 
ATOM     11  C   UNL     1     -21.762  50.864  32.833  1.00  0.00    -0.027 C 
ATOM     12  C   UNL     1     -22.262  49.067  30.400  1.00  0.00     0.008 C 
ATOM     13  C   UNL     1     -22.282  50.815  28.039  1.00  0.00     0.008 C 
ATOM     14  C   UNL     1     -24.223  48.938  33.684  1.00  0.00     0.017 C 
ATOM     15  C   UNL     1     -23.408  50.936  35.218  1.00  0.00    -0.020 C 
ATOM     16  C   UNL     1     -21.178  50.194  34.029  1.00  0.00     0.032 C 
ATOM     17  C   UNL     1     -21.807  50.722  35.336  1.00  0.00     0.006 C 
ATOM     18  C   UNL     1     -24.224  50.262  36.398  1.00  0.00     0.008 C 
ATOM     19  C   UNL     1     -23.608  52.480  35.405  1.00  0.00     0.012 C 
ATOM     20  C   UNL     1     -21.320  49.964  36.645  1.00  0.00    -0.025 C 
ATOM     21  C   UNL     1     -23.673  48.969  37.045  1.00  0.00     0.005 C 
ATOM     22  C   UNL     1     -22.183  48.668  36.772  1.00  0.00     0.003 C 
ATOM     23  C   UNL     1     -19.790  49.598  36.618  1.00  0.00     0.010 C 
ATOM     24  C   UNL     1     -21.475  50.947  37.855  1.00  0.00     0.012 C 
ATOM     25  C   UNL     1     -21.545  47.507  37.634  1.00  0.00    -0.006 C 
ATOM     26  C   UNL     1     -19.478  48.174  36.140  1.00  0.00     0.033 C 
ATOM     27  C   UNL     1     -20.179  47.069  36.975  1.00  0.00     0.120 C 
ATOM     28  C   UNL     1     -22.488  46.275  37.627  1.00  0.00     0.014 C 
ATOM     29  C   UNL     1     -21.337  47.905  39.122  1.00  0.00     0.014 C 
ENDROOT
BRANCH   1  30
ATOM     30  C   UNL     1     -24.988  53.311  31.528  1.00  0.00     0.048 C 
ATOM     31  O   UNL     1     -23.935  53.864  31.946  1.00  0.00    -0.550 OA
ATOM     32  O   UNL     1     -26.147  54.074  31.428  1.00  0.00    -0.550 OA
ENDBRANCH   1  30
BRANCH  27  33
ATOM     33  O   UNL     1     -19.293  46.566  37.948  1.00  0.00    -0.393 OA
ATOM     34  H   UNL     1     -19.128  47.296  38.601  1.00  0.00     0.210 HD
ENDBRANCH  27  33
TORSDOF 2
ENDMDL
MODEL 9
REMARK VINA RESULT:    -6.957      4.735      7.278
REMARK INTER + INTRA:          -7.707
REMARK INTER:                  -7.497
REMARK INTRA:                  -0.210
REMARK UNBOUND:                -0.140
REMARK SMILES C[C@@H]1[C@H](C)CC[C@@]2(C(=O)[O-])CC[C@@]3(C)C(=CC[C@@H]4[C@]5(C)CC[C@@H](O)C(C)(C)[C@H]5CC[C@@]43C)[C@@H]12
REMARK SMILES IDX 7 1 6 2 11 3 33 4 5 5 12 6 15 7 2 8 3 9 13 10 16 11 1 12
REMARK SMILES IDX 4 13 14 14 31 15 17 16 18 17 30 18 32 19 19 20 29 21 28 22
REMARK SMILES IDX 21 23 20 24 25 25 22 26 23 27 26 28 27 29 8 30 9 31 10 32
REMARK SMILES IDX 24 33
REMARK H PARENT 24 34
REMARK Flexibility Score: inf
ROOT
ATOM      1  C   UNL     1     -26.129  42.959  33.046  1.00  0.00     0.017 C 
ATOM      2  C   UNL     1     -26.182  42.064  31.760  1.00  0.00     0.014 C 
ATOM      3  C   UNL     1     -25.044  42.365  33.979  1.00  0.00     0.014 C 
ATOM      4  C   UNL     1     -25.757  44.449  32.692  1.00  0.00     0.030 C 
ATOM      5  C   UNL     1     -26.570  42.861  30.514  1.00  0.00     0.004 C 
ATOM      6  C   UNL     1     -24.911  43.154  35.280  1.00  0.00     0.013 C 
ATOM      7  C   UNL     1     -25.279  45.270  33.907  1.00  0.00    -0.063 C 
ATOM      8  C   UNL     1     -24.784  44.478  31.464  1.00  0.00    -0.003 C 
ATOM      9  C   UNL     1     -25.517  43.949  30.178  1.00  0.00    -0.011 C 
ATOM     10  C   UNL     1     -24.502  44.665  35.093  1.00  0.00    -0.006 C 
ATOM     11  C   UNL     1     -25.440  46.603  33.846  1.00  0.00    -0.027 C 
ATOM     12  C   UNL     1     -24.066  45.820  31.220  1.00  0.00     0.008 C 
ATOM     13  C   UNL     1     -26.190  45.053  29.341  1.00  0.00     0.008 C 
ATOM     14  C   UNL     1     -22.993  44.663  34.707  1.00  0.00     0.017 C 
ATOM     15  C   UNL     1     -24.782  45.526  36.456  1.00  0.00    -0.020 C 
ATOM     16  C   UNL     1     -24.671  47.518  34.736  1.00  0.00     0.032 C 
ATOM     17  C   UNL     1     -24.831  47.128  36.221  1.00  0.00     0.006 C 
ATOM     18  C   UNL     1     -23.770  45.086  37.593  1.00  0.00     0.008 C 
ATOM     19  C   UNL     1     -26.207  45.172  37.008  1.00  0.00     0.012 C 
ATOM     20  C   UNL     1     -23.940  47.986  37.219  1.00  0.00    -0.025 C 
ATOM     21  C   UNL     1     -22.495  45.930  37.829  1.00  0.00     0.005 C 
ATOM     22  C   UNL     1     -22.512  47.349  37.222  1.00  0.00     0.003 C 
ATOM     23  C   UNL     1     -23.856  49.507  36.824  1.00  0.00     0.010 C 
ATOM     24  C   UNL     1     -24.639  47.973  38.620  1.00  0.00     0.012 C 
ATOM     25  C   UNL     1     -21.341  48.308  37.675  1.00  0.00    -0.006 C 
ATOM     26  C   UNL     1     -22.620  49.890  35.999  1.00  0.00     0.033 C 
ATOM     27  C   UNL     1     -21.275  49.541  36.691  1.00  0.00     0.120 C 
ATOM     28  C   UNL     1     -19.987  47.556  37.578  1.00  0.00     0.014 C 
ATOM     29  C   UNL     1     -21.486  48.783  39.147  1.00  0.00     0.014 C 
ENDROOT
BRANCH   1  30
ATOM     30  C   UNL     1     -27.489  42.876  33.735  1.00  0.00     0.048 C 
ATOM     31  O   UNL     1     -28.245  43.881  33.824  1.00  0.00    -0.550 OA
ATOM     32  O   UNL     1     -27.915  41.672  34.285  1.00  0.00    -0.550 OA
ENDBRANCH   1  30
BRANCH  27  33
ATOM     33  O   UNL     1     -20.763  50.677  37.347  1.00  0.00    -0.393 OA
ATOM     34  H   UNL     1     -21.527  51.288  37.519  1.00  0.00     0.210 HD
ENDBRANCH  27  33
TORSDOF 2
ENDMDL
