MODEL 1
REMARK VINA RESULT:    -5.183      0.000      0.000
REMARK INTER + INTRA:         -10.181
REMARK INTER:                  -9.424
REMARK INTRA:                  -0.757
REMARK UNBOUND:                -0.757
REMARK SMILES CCCCCCCCCCCCCCCC(=O)[O-]
REMARK SMILES IDX 9 1 10 2 11 3 12 4 13 5 14 6 15 7 16 8 17 9 18 10 8 11 7 12
REMARK SMILES IDX 6 13 5 14 4 15 3 16 2 17 1 18
REMARK H PARENT
REMARK Flexibility Score: inf
ROOT
ATOM      1  C   UNL     1      45.585  35.047  12.640  1.00  0.00     0.000 C 
ENDROOT
BRANCH   1   2
ATOM      2  C   UNL     1      47.084  35.392  12.598  1.00  0.00     0.000 C 
BRANCH   2   3
ATOM      3  C   UNL     1      47.976  34.164  12.345  1.00  0.00     0.000 C 
BRANCH   3   4
ATOM      4  C   UNL     1      48.880  33.843  13.554  1.00  0.00     0.000 C 
BRANCH   4   5
ATOM      5  C   UNL     1      48.100  33.522  14.840  1.00  0.00     0.000 C 
BRANCH   5   6
ATOM      6  C   UNL     1      48.695  34.196  16.084  1.00  0.00     0.006 C 
BRANCH   6   7
ATOM      7  C   UNL     1      48.092  33.614  17.365  1.00  0.00     0.053 C 
BRANCH   7   8
ATOM      8  C   UNL     1      48.615  32.233  17.610  1.00  0.00     0.041 C 
ATOM      9  O   UNL     1      49.855  32.026  17.664  1.00  0.00    -0.550 OA
ATOM     10  O   UNL     1      47.733  31.184  17.825  1.00  0.00    -0.550 OA
ENDBRANCH   7   8
ENDBRANCH   6   7
ENDBRANCH   5   6
ENDBRANCH   4   5
ENDBRANCH   3   4
ENDBRANCH   2   3
ENDBRANCH   1   2
BRANCH   1  11
ATOM     11  C   UNL     1      44.648  36.232  12.943  1.00  0.00     0.000 C 
BRANCH  11  12
ATOM     12  C   UNL     1      43.364  36.212  12.096  1.00  0.00    -0.000 C 
BRANCH  12  13
ATOM     13  C   UNL     1      43.103  37.546  11.370  1.00  0.00    -0.000 C 
BRANCH  13  14
ATOM     14  C   UNL     1      42.078  37.478  10.221  1.00  0.00    -0.000 C 
BRANCH  14  15
ATOM     15  C   UNL     1      41.591  36.047   9.938  1.00  0.00    -0.000 C 
BRANCH  15  16
ATOM     16  C   UNL     1      40.127  35.818  10.358  1.00  0.00    -0.000 C 
BRANCH  16  17
ATOM     17  C   UNL     1      39.912  34.712  11.406  1.00  0.00    -0.003 C 
ATOM     18  C   UNL     1      38.441  34.352  11.604  1.00  0.00     0.004 C 
ENDBRANCH  16  17
ENDBRANCH  15  16
ENDBRANCH  14  15
ENDBRANCH  13  14
ENDBRANCH  12  13
ENDBRANCH  11  12
ENDBRANCH   1  11
TORSDOF 14
ENDMDL
MODEL 2
REMARK VINA RESULT:    -5.158      3.799      8.490
REMARK INTER + INTRA:         -10.137
REMARK INTER:                  -9.014
REMARK INTRA:                  -1.122
REMARK UNBOUND:                -0.757
REMARK SMILES CCCCCCCCCCCCCCCC(=O)[O-]
REMARK SMILES IDX 9 1 10 2 11 3 12 4 13 5 14 6 15 7 16 8 17 9 18 10 8 11 7 12
REMARK SMILES IDX 6 13 5 14 4 15 3 16 2 17 1 18
REMARK H PARENT
REMARK Flexibility Score: inf
ROOT
ATOM      1  C   UNL     1      48.540  33.423  13.194  1.00  0.00     0.000 C 
ENDROOT
BRANCH   1   2
ATOM      2  C   UNL     1      47.797  34.222  12.108  1.00  0.00     0.000 C 
BRANCH   2   3
ATOM      3  C   UNL     1      46.914  35.343  12.685  1.00  0.00     0.000 C 
BRANCH   3   4
ATOM      4  C   UNL     1      45.455  35.245  12.193  1.00  0.00     0.000 C 
BRANCH   4   5
ATOM      5  C   UNL     1      44.461  36.051  13.047  1.00  0.00     0.000 C 
BRANCH   5   6
ATOM      6  C   UNL     1      43.506  36.908  12.204  1.00  0.00     0.006 C 
BRANCH   6   7
ATOM      7  C   UNL     1      42.446  36.039  11.521  1.00  0.00     0.053 C 
BRANCH   7   8
ATOM      8  C   UNL     1      41.157  36.094  12.280  1.00  0.00     0.041 C 
ATOM      9  O   UNL     1      40.284  35.203  12.110  1.00  0.00    -0.550 OA
ATOM     10  O   UNL     1      40.939  37.102  13.209  1.00  0.00    -0.550 OA
ENDBRANCH   7   8
ENDBRANCH   6   7
ENDBRANCH   5   6
ENDBRANCH   4   5
ENDBRANCH   3   4
ENDBRANCH   2   3
ENDBRANCH   1   2
BRANCH   1  11
ATOM     11  C   UNL     1      48.821  34.195  14.497  1.00  0.00     0.000 C 
BRANCH  11  12
ATOM     12  C   UNL     1      47.991  33.683  15.687  1.00  0.00    -0.000 C 
BRANCH  12  13
ATOM     13  C   UNL     1      48.740  33.785  17.030  1.00  0.00    -0.000 C 
BRANCH  13  14
ATOM     14  C   UNL     1      49.137  32.438  17.665  1.00  0.00    -0.000 C 
BRANCH  14  15
ATOM     15  C   UNL     1      47.923  31.605  18.107  1.00  0.00    -0.000 C 
BRANCH  15  16
ATOM     16  C   UNL     1      47.790  30.281  17.330  1.00  0.00    -0.000 C 
BRANCH  16  17
ATOM     17  C   UNL     1      48.839  30.063  16.225  1.00  0.00    -0.003 C 
ATOM     18  C   UNL     1      48.231  30.010  14.825  1.00  0.00     0.004 C 
ENDBRANCH  16  17
ENDBRANCH  15  16
ENDBRANCH  14  15
ENDBRANCH  13  14
ENDBRANCH  12  13
ENDBRANCH  11  12
ENDBRANCH   1  11
TORSDOF 14
ENDMDL
MODEL 3
REMARK VINA RESULT:    -5.091      8.395     13.222
REMARK INTER + INTRA:         -10.015
REMARK INTER:                  -8.253
REMARK INTRA:                  -1.762
REMARK UNBOUND:                -0.757
REMARK SMILES CCCCCCCCCCCCCCCC(=O)[O-]
REMARK SMILES IDX 9 1 10 2 11 3 12 4 13 5 14 6 15 7 16 8 17 9 18 10 8 11 7 12
REMARK SMILES IDX 6 13 5 14 4 15 3 16 2 17 1 18
REMARK H PARENT
REMARK Flexibility Score: inf
ROOT
ATOM      1  C   UNL     1      48.192  25.637  21.119  1.00  0.00     0.000 C 
ENDROOT
BRANCH   1   2
ATOM      2  C   UNL     1      48.276  25.628  19.582  1.00  0.00     0.000 C 
BRANCH   2   3
ATOM      3  C   UNL     1      49.538  24.924  19.053  1.00  0.00     0.000 C 
BRANCH   3   4
ATOM      4  C   UNL     1      49.635  24.982  17.514  1.00  0.00     0.000 C 
BRANCH   4   5
ATOM      5  C   UNL     1      48.420  25.648  16.845  1.00  0.00     0.000 C 
BRANCH   5   6
ATOM      6  C   UNL     1      48.786  26.926  16.079  1.00  0.00     0.006 C 
BRANCH   6   7
ATOM      7  C   UNL     1      48.991  28.102  17.038  1.00  0.00     0.053 C 
BRANCH   7   8
ATOM      8  C   UNL     1      47.983  29.176  16.773  1.00  0.00     0.041 C 
ATOM      9  O   UNL     1      47.291  29.151  15.721  1.00  0.00    -0.550 OA
ATOM     10  O   UNL     1      47.773  30.179  17.709  1.00  0.00    -0.550 OA
ENDBRANCH   7   8
ENDBRANCH   6   7
ENDBRANCH   5   6
ENDBRANCH   4   5
ENDBRANCH   3   4
ENDBRANCH   2   3
ENDBRANCH   1   2
BRANCH   1  11
ATOM     11  C   UNL     1      48.411  27.012  21.778  1.00  0.00     0.000 C 
BRANCH  11  12
ATOM     12  C   UNL     1      49.648  27.047  22.691  1.00  0.00    -0.000 C 
BRANCH  12  13
ATOM     13  C   UNL     1      50.453  25.734  22.664  1.00  0.00    -0.000 C 
BRANCH  13  14
ATOM     14  C   UNL     1      51.933  25.879  22.259  1.00  0.00    -0.000 C 
BRANCH  14  15
ATOM     15  C   UNL     1      52.291  27.303  21.805  1.00  0.00    -0.000 C 
BRANCH  15  16
ATOM     16  C   UNL     1      52.909  27.345  20.394  1.00  0.00    -0.000 C 
BRANCH  16  17
ATOM     17  C   UNL     1      53.146  25.971  19.743  1.00  0.00    -0.003 C 
ATOM     18  C   UNL     1      53.051  26.006  18.219  1.00  0.00     0.004 C 
ENDBRANCH  16  17
ENDBRANCH  15  16
ENDBRANCH  14  15
ENDBRANCH  13  14
ENDBRANCH  12  13
ENDBRANCH  11  12
ENDBRANCH   1  11
TORSDOF 14
ENDMDL
MODEL 4
REMARK VINA RESULT:    -5.025      7.828     12.890
REMARK INTER + INTRA:          -9.895
REMARK INTER:                  -7.950
REMARK INTRA:                  -1.945
REMARK UNBOUND:                -0.757
REMARK SMILES CCCCCCCCCCCCCCCC(=O)[O-]
REMARK SMILES IDX 9 1 10 2 11 3 12 4 13 5 14 6 15 7 16 8 17 9 18 10 8 11 7 12
REMARK SMILES IDX 6 13 5 14 4 15 3 16 2 17 1 18
REMARK H PARENT
REMARK Flexibility Score: inf
ROOT
ATOM      1  C   UNL     1      48.671  26.013  19.783  1.00  0.00     0.000 C 
ENDROOT
BRANCH   1   2
ATOM      2  C   UNL     1      49.463  24.921  19.042  1.00  0.00     0.000 C 
BRANCH   2   3
ATOM      3  C   UNL     1      49.681  25.242  17.553  1.00  0.00     0.000 C 
BRANCH   3   4
ATOM      4  C   UNL     1      48.385  25.720  16.865  1.00  0.00     0.000 C 
BRANCH   4   5
ATOM      5  C   UNL     1      48.590  26.924  15.930  1.00  0.00     0.000 C 
BRANCH   5   6
ATOM      6  C   UNL     1      49.149  28.155  16.656  1.00  0.00     0.006 C 
BRANCH   6   7
ATOM      7  C   UNL     1      48.085  28.794  17.553  1.00  0.00     0.053 C 
BRANCH   7   8
ATOM      8  C   UNL     1      47.698  30.141  17.027  1.00  0.00     0.041 C 
ATOM      9  O   UNL     1      47.191  30.252  15.880  1.00  0.00    -0.550 OA
ATOM     10  O   UNL     1      47.852  31.268  17.822  1.00  0.00    -0.550 OA
ENDBRANCH   7   8
ENDBRANCH   6   7
ENDBRANCH   5   6
ENDBRANCH   4   5
ENDBRANCH   3   4
ENDBRANCH   2   3
ENDBRANCH   1   2
BRANCH   1  11
ATOM     11  C   UNL     1      48.088  25.589  21.144  1.00  0.00     0.000 C 
BRANCH  11  12
ATOM     12  C   UNL     1      48.396  26.595  22.266  1.00  0.00    -0.000 C 
BRANCH  12  13
ATOM     13  C   UNL     1      49.898  26.915  22.390  1.00  0.00    -0.000 C 
BRANCH  13  14
ATOM     14  C   UNL     1      50.797  25.717  22.754  1.00  0.00    -0.000 C 
BRANCH  14  15
ATOM     15  C   UNL     1      52.258  25.910  22.313  1.00  0.00    -0.000 C 
BRANCH  15  16
ATOM     16  C   UNL     1      52.414  26.965  21.202  1.00  0.00    -0.000 C 
BRANCH  16  17
ATOM     17  C   UNL     1      52.693  26.400  19.798  1.00  0.00    -0.003 C 
ATOM     18  C   UNL     1      52.486  27.428  18.687  1.00  0.00     0.004 C 
ENDBRANCH  16  17
ENDBRANCH  15  16
ENDBRANCH  14  15
ENDBRANCH  13  14
ENDBRANCH  12  13
ENDBRANCH  11  12
ENDBRANCH   1  11
TORSDOF 14
ENDMDL
MODEL 5
REMARK VINA RESULT:    -5.003     12.196     13.736
REMARK INTER + INTRA:          -9.855
REMARK INTER:                  -7.730
REMARK INTRA:                  -2.125
REMARK UNBOUND:                -0.757
REMARK SMILES CCCCCCCCCCCCCCCC(=O)[O-]
REMARK SMILES IDX 9 1 10 2 11 3 12 4 13 5 14 6 15 7 16 8 17 9 18 10 8 11 7 12
REMARK SMILES IDX 6 13 5 14 4 15 3 16 2 17 1 18
REMARK H PARENT
REMARK Flexibility Score: inf
ROOT
ATOM      1  C   UNL     1      38.369  36.933  23.140  1.00  0.00     0.000 C 
ENDROOT
BRANCH   1   2
ATOM      2  C   UNL     1      37.510  37.725  24.142  1.00  0.00     0.000 C 
BRANCH   2   3
ATOM      3  C   UNL     1      37.033  39.079  23.587  1.00  0.00     0.000 C 
BRANCH   3   4
ATOM      4  C   UNL     1      37.708  40.270  24.300  1.00  0.00     0.000 C 
BRANCH   4   5
ATOM      5  C   UNL     1      38.854  39.857  25.240  1.00  0.00     0.000 C 
BRANCH   5   6
ATOM      6  C   UNL     1      40.062  40.799  25.158  1.00  0.00     0.006 C 
BRANCH   6   7
ATOM      7  C   UNL     1      40.329  41.469  26.509  1.00  0.00     0.053 C 
BRANCH   7   8
ATOM      8  C   UNL     1      41.699  42.071  26.533  1.00  0.00     0.041 C 
ATOM      9  O   UNL     1      42.550  41.675  27.373  1.00  0.00    -0.550 OA
ATOM     10  O   UNL     1      42.052  43.034  25.598  1.00  0.00    -0.550 OA
ENDBRANCH   7   8
ENDBRANCH   6   7
ENDBRANCH   5   6
ENDBRANCH   4   5
ENDBRANCH   3   4
ENDBRANCH   2   3
ENDBRANCH   1   2
BRANCH   1  11
ATOM     11  C   UNL     1      39.538  36.144  23.759  1.00  0.00     0.000 C 
BRANCH  11  12
ATOM     12  C   UNL     1      40.806  36.995  23.937  1.00  0.00    -0.000 C 
BRANCH  12  13
ATOM     13  C   UNL     1      41.748  36.931  22.720  1.00  0.00    -0.000 C 
BRANCH  13  14
ATOM     14  C   UNL     1      42.791  38.063  22.636  1.00  0.00    -0.000 C 
BRANCH  14  15
ATOM     15  C   UNL     1      42.161  39.436  22.351  1.00  0.00    -0.000 C 
BRANCH  15  16
ATOM     16  C   UNL     1      41.179  39.411  21.165  1.00  0.00    -0.000 C 
BRANCH  16  17
ATOM     17  C   UNL     1      39.859  40.169  21.392  1.00  0.00    -0.003 C 
ATOM     18  C   UNL     1      38.730  39.691  20.481  1.00  0.00     0.004 C 
ENDBRANCH  16  17
ENDBRANCH  15  16
ENDBRANCH  14  15
ENDBRANCH  13  14
ENDBRANCH  12  13
ENDBRANCH  11  12
ENDBRANCH   1  11
TORSDOF 14
ENDMDL
MODEL 6
REMARK VINA RESULT:    -4.953     10.165     13.758
REMARK INTER + INTRA:          -9.763
REMARK INTER:                  -8.338
REMARK INTRA:                  -1.425
REMARK UNBOUND:                -0.757
REMARK SMILES CCCCCCCCCCCCCCCC(=O)[O-]
REMARK SMILES IDX 9 1 10 2 11 3 12 4 13 5 14 6 15 7 16 8 17 9 18 10 8 11 7 12
REMARK SMILES IDX 6 13 5 14 4 15 3 16 2 17 1 18
REMARK H PARENT
REMARK Flexibility Score: inf
ROOT
ATOM      1  C   UNL     1      49.315  27.227  22.618  1.00  0.00     0.000 C 
ENDROOT
BRANCH   1   2
ATOM      2  C   UNL     1      48.196  26.859  21.628  1.00  0.00     0.000 C 
BRANCH   2   3
ATOM      3  C   UNL     1      48.394  25.475  20.984  1.00  0.00     0.000 C 
BRANCH   3   4
ATOM      4  C   UNL     1      48.438  25.552  19.444  1.00  0.00     0.000 C 
BRANCH   4   5
ATOM      5  C   UNL     1      49.707  24.935  18.831  1.00  0.00     0.000 C 
BRANCH   5   6
ATOM      6  C   UNL     1      49.662  24.875  17.298  1.00  0.00     0.006 C 
BRANCH   6   7
ATOM      7  C   UNL     1      48.438  25.617  16.755  1.00  0.00     0.053 C 
BRANCH   7   8
ATOM      8  C   UNL     1      48.860  26.724  15.840  1.00  0.00     0.041 C 
ATOM      9  O   UNL     1      48.098  27.705  15.639  1.00  0.00    -0.550 OA
ATOM     10  O   UNL     1      50.114  26.694  15.246  1.00  0.00    -0.550 OA
ENDBRANCH   7   8
ENDBRANCH   6   7
ENDBRANCH   5   6
ENDBRANCH   4   5
ENDBRANCH   3   4
ENDBRANCH   2   3
ENDBRANCH   1   2
BRANCH   1  11
ATOM     11  C   UNL     1      50.530  26.279  22.615  1.00  0.00     0.000 C 
BRANCH  11  12
ATOM     12  C   UNL     1      51.856  27.007  22.336  1.00  0.00    -0.000 C 
BRANCH  12  13
ATOM     13  C   UNL     1      53.012  26.043  22.007  1.00  0.00    -0.000 C 
BRANCH  13  14
ATOM     14  C   UNL     1      52.938  25.378  20.619  1.00  0.00    -0.000 C 
BRANCH  14  15
ATOM     15  C   UNL     1      53.837  26.065  19.578  1.00  0.00    -0.000 C 
BRANCH  15  16
ATOM     16  C   UNL     1      53.118  27.196  18.819  1.00  0.00    -0.000 C 
BRANCH  16  17
ATOM     17  C   UNL     1      53.725  28.598  19.005  1.00  0.00    -0.003 C 
ATOM     18  C   UNL     1      54.787  28.935  17.961  1.00  0.00     0.004 C 
ENDBRANCH  16  17
ENDBRANCH  15  16
ENDBRANCH  14  15
ENDBRANCH  13  14
ENDBRANCH  12  13
ENDBRANCH  11  12
ENDBRANCH   1  11
TORSDOF 14
ENDMDL
MODEL 7
REMARK VINA RESULT:    -4.942      7.708     11.611
REMARK INTER + INTRA:          -9.744
REMARK INTER:                  -8.211
REMARK INTRA:                  -1.532
REMARK UNBOUND:                -0.757
REMARK SMILES CCCCCCCCCCCCCCCC(=O)[O-]
REMARK SMILES IDX 9 1 10 2 11 3 12 4 13 5 14 6 15 7 16 8 17 9 18 10 8 11 7 12
REMARK SMILES IDX 6 13 5 14 4 15 3 16 2 17 1 18
REMARK H PARENT
REMARK Flexibility Score: inf
ROOT
ATOM      1  C   UNL     1      48.476  25.839  19.570  1.00  0.00     0.000 C 
ENDROOT
BRANCH   1   2
ATOM      2  C   UNL     1      48.126  25.643  21.056  1.00  0.00     0.000 C 
BRANCH   2   3
ATOM      3  C   UNL     1      48.276  26.933  21.883  1.00  0.00     0.000 C 
BRANCH   3   4
ATOM      4  C   UNL     1      49.639  27.009  22.601  1.00  0.00     0.000 C 
BRANCH   4   5
ATOM      5  C   UNL     1      50.360  25.654  22.700  1.00  0.00     0.000 C 
BRANCH   5   6
ATOM      6  C   UNL     1      51.868  25.758  22.433  1.00  0.00     0.006 C 
BRANCH   6   7
ATOM      7  C   UNL     1      52.222  27.105  21.798  1.00  0.00     0.053 C 
BRANCH   7   8
ATOM      8  C   UNL     1      52.778  26.906  20.423  1.00  0.00     0.041 C 
ATOM      9  O   UNL     1      52.883  25.747  19.943  1.00  0.00    -0.550 OA
ATOM     10  O   UNL     1      53.135  28.004  19.652  1.00  0.00    -0.550 OA
ENDBRANCH   7   8
ENDBRANCH   6   7
ENDBRANCH   5   6
ENDBRANCH   4   5
ENDBRANCH   3   4
ENDBRANCH   2   3
ENDBRANCH   1   2
BRANCH   1  11
ATOM     11  C   UNL     1      49.585  24.916  19.031  1.00  0.00     0.000 C 
BRANCH  11  12
ATOM     12  C   UNL     1      49.636  24.875  17.495  1.00  0.00    -0.000 C 
BRANCH  12  13
ATOM     13  C   UNL     1      48.432  25.574  16.835  1.00  0.00    -0.000 C 
BRANCH  13  14
ATOM     14  C   UNL     1      48.698  26.157  15.433  1.00  0.00    -0.000 C 
BRANCH  14  15
ATOM     15  C   UNL     1      48.472  27.677  15.365  1.00  0.00    -0.000 C 
BRANCH  15  16
ATOM     16  C   UNL     1      49.050  28.424  16.581  1.00  0.00    -0.000 C 
BRANCH  16  17
ATOM     17  C   UNL     1      48.038  29.278  17.366  1.00  0.00    -0.003 C 
ATOM     18  C   UNL     1      47.796  30.649  16.736  1.00  0.00     0.004 C 
ENDBRANCH  16  17
ENDBRANCH  15  16
ENDBRANCH  14  15
ENDBRANCH  13  14
ENDBRANCH  12  13
ENDBRANCH  11  12
ENDBRANCH   1  11
TORSDOF 14
ENDMDL
MODEL 8
REMARK VINA RESULT:    -4.926      6.229     12.028
REMARK INTER + INTRA:          -9.714
REMARK INTER:                  -8.692
REMARK INTRA:                  -1.022
REMARK UNBOUND:                -0.757
REMARK SMILES CCCCCCCCCCCCCCCC(=O)[O-]
REMARK SMILES IDX 9 1 10 2 11 3 12 4 13 5 14 6 15 7 16 8 17 9 18 10 8 11 7 12
REMARK SMILES IDX 6 13 5 14 4 15 3 16 2 17 1 18
REMARK H PARENT
REMARK Flexibility Score: inf
ROOT
ATOM      1  C   UNL     1      48.484  25.651  17.073  1.00  0.00     0.000 C 
ENDROOT
BRANCH   1   2
ATOM      2  C   UNL     1      49.202  26.623  16.119  1.00  0.00     0.000 C 
BRANCH   2   3
ATOM      3  C   UNL     1      48.496  27.986  16.007  1.00  0.00     0.000 C 
BRANCH   3   4
ATOM      4  C   UNL     1      48.323  28.666  17.381  1.00  0.00     0.000 C 
BRANCH   4   5
ATOM      5  C   UNL     1      47.765  30.097  17.294  1.00  0.00     0.000 C 
BRANCH   5   6
ATOM      6  C   UNL     1      48.822  31.126  16.869  1.00  0.00     0.006 C 
BRANCH   6   7
ATOM      7  C   UNL     1      48.470  31.747  15.514  1.00  0.00     0.053 C 
BRANCH   7   8
ATOM      8  C   UNL     1      48.371  33.236  15.631  1.00  0.00     0.041 C 
ATOM      9  O   UNL     1      47.856  33.912  14.703  1.00  0.00    -0.550 OA
ATOM     10  O   UNL     1      48.805  33.873  16.786  1.00  0.00    -0.550 OA
ENDBRANCH   7   8
ENDBRANCH   6   7
ENDBRANCH   5   6
ENDBRANCH   4   5
ENDBRANCH   3   4
ENDBRANCH   2   3
ENDBRANCH   1   2
BRANCH   1  11
ATOM     11  C   UNL     1      49.296  25.232  18.313  1.00  0.00     0.000 C 
BRANCH  11  12
ATOM     12  C   UNL     1      48.475  25.284  19.612  1.00  0.00    -0.000 C 
BRANCH  12  13
ATOM     13  C   UNL     1      48.459  26.683  20.257  1.00  0.00    -0.000 C 
BRANCH  13  14
ATOM     14  C   UNL     1      48.131  26.708  21.763  1.00  0.00    -0.000 C 
BRANCH  14  15
ATOM     15  C   UNL     1      49.373  26.937  22.641  1.00  0.00    -0.000 C 
BRANCH  15  16
ATOM     16  C   UNL     1      50.327  25.728  22.656  1.00  0.00    -0.000 C 
BRANCH  16  17
ATOM     17  C   UNL     1      51.772  26.031  22.219  1.00  0.00    -0.003 C 
ATOM     18  C   UNL     1      52.190  27.474  22.492  1.00  0.00     0.004 C 
ENDBRANCH  16  17
ENDBRANCH  15  16
ENDBRANCH  14  15
ENDBRANCH  13  14
ENDBRANCH  12  13
ENDBRANCH  11  12
ENDBRANCH   1  11
TORSDOF 14
ENDMDL
MODEL 9
REMARK VINA RESULT:    -4.923      5.734      9.678
REMARK INTER + INTRA:          -9.709
REMARK INTER:                  -8.580
REMARK INTRA:                  -1.129
REMARK UNBOUND:                -0.757
REMARK SMILES CCCCCCCCCCCCCCCC(=O)[O-]
REMARK SMILES IDX 9 1 10 2 11 3 12 4 13 5 14 6 15 7 16 8 17 9 18 10 8 11 7 12
REMARK SMILES IDX 6 13 5 14 4 15 3 16 2 17 1 18
REMARK H PARENT
REMARK Flexibility Score: inf
ROOT
ATOM      1  C   UNL     1      47.765  30.562  17.084  1.00  0.00     0.000 C 
ENDROOT
BRANCH   1   2
ATOM      2  C   UNL     1      48.795  31.627  17.499  1.00  0.00     0.000 C 
BRANCH   2   3
ATOM      3  C   UNL     1      48.165  33.010  17.742  1.00  0.00     0.000 C 
BRANCH   3   4
ATOM      4  C   UNL     1      48.550  34.026  16.647  1.00  0.00     0.000 C 
BRANCH   4   5
ATOM      5  C   UNL     1      47.739  33.871  15.350  1.00  0.00     0.000 C 
BRANCH   5   6
ATOM      6  C   UNL     1      48.576  33.333  14.181  1.00  0.00     0.006 C 
BRANCH   6   7
ATOM      7  C   UNL     1      48.691  34.373  13.063  1.00  0.00     0.053 C 
BRANCH   7   8
ATOM      8  C   UNL     1      49.204  33.738  11.809  1.00  0.00     0.041 C 
ATOM      9  O   UNL     1      50.442  33.686  11.585  1.00  0.00    -0.550 OA
ATOM     10  O   UNL     1      48.318  33.161  10.910  1.00  0.00    -0.550 OA
ENDBRANCH   7   8
ENDBRANCH   6   7
ENDBRANCH   5   6
ENDBRANCH   4   5
ENDBRANCH   3   4
ENDBRANCH   2   3
ENDBRANCH   1   2
BRANCH   1  11
ATOM     11  C   UNL     1      48.162  29.705  15.867  1.00  0.00     0.000 C 
BRANCH  11  12
ATOM     12  C   UNL     1      49.651  29.837  15.503  1.00  0.00    -0.000 C 
BRANCH  12  13
ATOM     13  C   UNL     1      50.518  28.716  16.109  1.00  0.00    -0.000 C 
BRANCH  13  14
ATOM     14  C   UNL     1      49.750  27.660  16.927  1.00  0.00    -0.000 C 
BRANCH  14  15
ATOM     15  C   UNL     1      49.386  26.414  16.103  1.00  0.00    -0.000 C 
BRANCH  15  16
ATOM     16  C   UNL     1      48.876  25.249  16.972  1.00  0.00    -0.000 C 
BRANCH  16  17
ATOM     17  C   UNL     1      48.459  25.634  18.402  1.00  0.00    -0.003 C 
ATOM     18  C   UNL     1      49.304  24.950  19.476  1.00  0.00     0.004 C 
ENDBRANCH  16  17
ENDBRANCH  15  16
ENDBRANCH  14  15
ENDBRANCH  13  14
ENDBRANCH  12  13
ENDBRANCH  11  12
ENDBRANCH   1  11
TORSDOF 14
ENDMDL
