MODEL 1
REMARK VINA RESULT:    -3.539      0.000      0.000
REMARK INTER + INTRA:          -4.437
REMARK INTER:                  -4.367
REMARK INTRA:                  -0.070
REMARK UNBOUND:                -0.070
REMARK SMILES Oc1cc(O)c2cc(O)c(-c3cc(O)c(O)c(O)c3)[o+]c2c1
REMARK SMILES IDX 10 1 20 2 21 3 22 4 2 5 3 6 4 7 6 8 7 9 8 10 11 11 12 12
REMARK SMILES IDX 13 13 19 14 15 15 17 16 14 17 16 19 18 21 9 23 1 25 5 27
REMARK H PARENT 14 18 16 20 18 22 9 24 1 26 5 28
REMARK Flexibility Score: inf
ROOT
ATOM      1  C   UNL     1      -4.433 -13.371  32.460  1.00  0.00     0.402 A 
ATOM      2  O   UNL     1      -4.506 -12.329  33.284  1.00  0.00    -0.202 OA
ATOM      3  C   UNL     1      -5.381 -12.248  34.281  1.00  0.00     0.368 A 
ATOM      4  C   UNL     1      -5.379 -11.113  35.096  1.00  0.00     0.162 A 
ATOM      5  C   UNL     1      -6.287 -11.004  36.155  1.00  0.00     0.128 A 
ATOM      6  C   UNL     1      -7.198 -12.032  36.398  1.00  0.00     0.093 A 
ATOM      7  C   UNL     1      -7.220 -13.180  35.596  1.00  0.00     0.136 A 
ATOM      8  C   UNL     1      -6.303 -13.295  34.519  1.00  0.00     0.125 A 
ATOM      9  C   UNL     1      -6.261 -14.403  33.655  1.00  0.00     0.078 A 
ATOM     10  C   UNL     1      -5.331 -14.443  32.612  1.00  0.00     0.223 A 
ENDROOT
BRANCH   1  11
ATOM     11  C   UNL     1      -3.407 -13.348  31.392  1.00  0.00     0.091 A 
ATOM     12  C   UNL     1      -3.796 -13.529  30.057  1.00  0.00     0.068 A 
ATOM     13  C   UNL     1      -2.857 -13.494  29.021  1.00  0.00     0.162 A 
ATOM     14  C   UNL     1      -2.057 -13.092  31.679  1.00  0.00     0.068 A 
ATOM     15  C   UNL     1      -1.493 -13.259  29.319  1.00  0.00     0.200 A 
ATOM     16  C   UNL     1      -1.106 -13.052  30.656  1.00  0.00     0.162 A 
BRANCH  13  17
ATOM     17  O   UNL     1      -3.322 -13.695  27.719  1.00  0.00    -0.504 OA
ATOM     18  H   UNL     1      -2.735 -13.962  26.941  1.00  0.00     0.293 HD
ENDBRANCH  13  17
BRANCH  15  19
ATOM     19  O   UNL     1      -0.510 -13.218  28.328  1.00  0.00    -0.502 OA
ATOM     20  H   UNL     1      -0.590 -13.673  27.430  1.00  0.00     0.293 HD
ENDBRANCH  15  19
BRANCH  16  21
ATOM     21  O   UNL     1       0.225 -12.801  30.989  1.00  0.00    -0.504 OA
ATOM     22  H   UNL     1       0.943 -12.671  30.287  1.00  0.00     0.293 HD
ENDBRANCH  16  21
ENDBRANCH   1  11
BRANCH  10  23
ATOM     23  O   UNL     1      -5.322 -15.519  31.724  1.00  0.00    -0.500 OA
ATOM     24  H   UNL     1      -4.706 -16.312  31.854  1.00  0.00     0.294 HD
ENDBRANCH  10  23
BRANCH   5  25
ATOM     25  O   UNL     1      -6.292  -9.875  36.971  1.00  0.00    -0.507 OA
ATOM     26  H   UNL     1      -7.150  -9.513  37.370  1.00  0.00     0.293 HD
ENDBRANCH   5  25
BRANCH   7  27
ATOM     27  O   UNL     1      -8.161 -14.166  35.907  1.00  0.00    -0.507 OA
ATOM     28  H   UNL     1      -9.140 -13.989  36.075  1.00  0.00     0.293 HD
ENDBRANCH   7  27
TORSDOF 7
ENDMDL
MODEL 2
REMARK VINA RESULT:    -2.299      3.975      5.591
REMARK INTER + INTRA:          -2.906
REMARK INTER:                  -2.536
REMARK INTRA:                  -0.370
REMARK UNBOUND:                -0.070
REMARK SMILES Oc1cc(O)c2cc(O)c(-c3cc(O)c(O)c(O)c3)[o+]c2c1
REMARK SMILES IDX 10 1 20 2 21 3 22 4 2 5 3 6 4 7 6 8 7 9 8 10 11 11 12 12
REMARK SMILES IDX 13 13 19 14 15 15 17 16 14 17 16 19 18 21 9 23 1 25 5 27
REMARK H PARENT 14 18 16 20 18 22 9 24 1 26 5 28
REMARK Flexibility Score: inf
ROOT
ATOM      1  C   UNL     1      -4.402 -13.586  29.428  1.00  0.00     0.402 A 
ATOM      2  O   UNL     1      -4.748 -14.709  30.053  1.00  0.00    -0.202 OA
ATOM      3  C   UNL     1      -5.846 -15.398  29.760  1.00  0.00     0.368 A 
ATOM      4  C   UNL     1      -6.123 -16.569  30.470  1.00  0.00     0.162 A 
ATOM      5  C   UNL     1      -7.270 -17.315  30.180  1.00  0.00     0.128 A 
ATOM      6  C   UNL     1      -8.140 -16.889  29.176  1.00  0.00     0.093 A 
ATOM      7  C   UNL     1      -7.885 -15.720  28.449  1.00  0.00     0.136 A 
ATOM      8  C   UNL     1      -6.724 -14.957  28.742  1.00  0.00     0.125 A 
ATOM      9  C   UNL     1      -6.394 -13.766  28.074  1.00  0.00     0.078 A 
ATOM     10  C   UNL     1      -5.235 -13.066  28.421  1.00  0.00     0.223 A 
ENDROOT
BRANCH   1  11
ATOM     11  C   UNL     1      -3.148 -12.914  29.839  1.00  0.00     0.091 A 
ATOM     12  C   UNL     1      -1.937 -13.285  29.236  1.00  0.00     0.068 A 
ATOM     13  C   UNL     1      -0.736 -12.658  29.585  1.00  0.00     0.162 A 
ATOM     14  C   UNL     1      -3.150 -11.871  30.778  1.00  0.00     0.068 A 
ATOM     15  C   UNL     1      -0.742 -11.622  30.551  1.00  0.00     0.200 A 
ATOM     16  C   UNL     1      -1.961 -11.233  31.137  1.00  0.00     0.162 A 
BRANCH  13  17
ATOM     17  O   UNL     1       0.429 -13.092  28.950  1.00  0.00    -0.504 OA
ATOM     18  H   UNL     1       1.363 -12.919  29.296  1.00  0.00     0.293 HD
ENDBRANCH  13  17
BRANCH  15  19
ATOM     19  O   UNL     1       0.426 -10.963  30.943  1.00  0.00    -0.502 OA
ATOM     20  H   UNL     1       0.489  -9.970  31.113  1.00  0.00     0.293 HD
ENDBRANCH  15  19
BRANCH  16  21
ATOM     21  O   UNL     1      -2.010 -10.206  32.080  1.00  0.00    -0.504 OA
ATOM     22  H   UNL     1      -1.264  -9.529  32.182  1.00  0.00     0.293 HD
ENDBRANCH  16  21
ENDBRANCH   1  11
BRANCH  10  23
ATOM     23  O   UNL     1      -4.934 -11.858  27.793  1.00  0.00    -0.500 OA
ATOM     24  H   UNL     1      -5.614 -11.110  27.719  1.00  0.00     0.294 HD
ENDBRANCH  10  23
BRANCH   5  25
ATOM     25  O   UNL     1      -7.553 -18.483  30.885  1.00  0.00    -0.507 OA
ATOM     26  H   UNL     1      -6.908 -18.858  31.571  1.00  0.00     0.293 HD
ENDBRANCH   5  25
BRANCH   7  27
ATOM     27  O   UNL     1      -8.804 -15.363  27.458  1.00  0.00    -0.507 OA
ATOM     28  H   UNL     1      -8.564 -15.186  26.494  1.00  0.00     0.293 HD
ENDBRANCH   7  27
TORSDOF 7
ENDMDL
MODEL 3
REMARK VINA RESULT:    -2.146      3.964      5.634
REMARK INTER + INTRA:          -2.718
REMARK INTER:                  -2.346
REMARK INTRA:                  -0.372
REMARK UNBOUND:                -0.070
REMARK SMILES Oc1cc(O)c2cc(O)c(-c3cc(O)c(O)c(O)c3)[o+]c2c1
REMARK SMILES IDX 10 1 20 2 21 3 22 4 2 5 3 6 4 7 6 8 7 9 8 10 11 11 12 12
REMARK SMILES IDX 13 13 19 14 15 15 17 16 14 17 16 19 18 21 9 23 1 25 5 27
REMARK H PARENT 14 18 16 20 18 22 9 24 1 26 5 28
REMARK Flexibility Score: inf
ROOT
ATOM      1  C   UNL     1      -4.405 -13.566  29.383  1.00  0.00     0.402 A 
ATOM      2  O   UNL     1      -4.741 -14.682  30.025  1.00  0.00    -0.202 OA
ATOM      3  C   UNL     1      -5.839 -15.379  29.749  1.00  0.00     0.368 A 
ATOM      4  C   UNL     1      -6.106 -16.542  30.476  1.00  0.00     0.162 A 
ATOM      5  C   UNL     1      -7.252 -17.296  30.205  1.00  0.00     0.128 A 
ATOM      6  C   UNL     1      -8.133 -16.885  29.203  1.00  0.00     0.093 A 
ATOM      7  C   UNL     1      -7.888 -15.724  28.460  1.00  0.00     0.136 A 
ATOM      8  C   UNL     1      -6.728 -14.954  28.733  1.00  0.00     0.125 A 
ATOM      9  C   UNL     1      -6.408 -13.769  28.049  1.00  0.00     0.078 A 
ATOM     10  C   UNL     1      -5.249 -13.061  28.377  1.00  0.00     0.223 A 
ENDROOT
BRANCH   1  11
ATOM     11  C   UNL     1      -3.150 -12.885  29.775  1.00  0.00     0.091 A 
ATOM     12  C   UNL     1      -3.189 -11.869  30.741  1.00  0.00     0.068 A 
ATOM     13  C   UNL     1      -2.020 -11.217  31.150  1.00  0.00     0.162 A 
ATOM     14  C   UNL     1      -1.910 -13.271  29.243  1.00  0.00     0.068 A 
ATOM     15  C   UNL     1      -0.775 -11.596  30.591  1.00  0.00     0.200 A 
ATOM     16  C   UNL     1      -0.733 -12.632  29.640  1.00  0.00     0.162 A 
BRANCH  13  17
ATOM     17  O   UNL     1      -2.143 -10.208  32.107  1.00  0.00    -0.504 OA
ATOM     18  H   UNL     1      -1.513 -10.087  32.888  1.00  0.00     0.293 HD
ENDBRANCH  13  17
BRANCH  15  19
ATOM     19  O   UNL     1       0.423 -10.978  30.955  1.00  0.00    -0.502 OA
ATOM     20  H   UNL     1       0.941 -10.347  30.361  1.00  0.00     0.293 HD
ENDBRANCH  15  19
BRANCH  16  21
ATOM     21  O   UNL     1       0.476 -13.045  29.079  1.00  0.00    -0.504 OA
ATOM     22  H   UNL     1       0.549 -13.874  28.502  1.00  0.00     0.293 HD
ENDBRANCH  16  21
ENDBRANCH   1  11
BRANCH  10  23
ATOM     23  O   UNL     1      -4.957 -11.859  27.732  1.00  0.00    -0.500 OA
ATOM     24  H   UNL     1      -4.192 -11.781  27.071  1.00  0.00     0.294 HD
ENDBRANCH  10  23
BRANCH   5  25
ATOM     25  O   UNL     1      -7.525 -18.456  30.926  1.00  0.00    -0.507 OA
ATOM     26  H   UNL     1      -6.892 -18.799  31.639  1.00  0.00     0.293 HD
ENDBRANCH   5  25
BRANCH   7  27
ATOM     27  O   UNL     1      -8.817 -15.383  27.473  1.00  0.00    -0.507 OA
ATOM     28  H   UNL     1      -9.782 -15.150  27.652  1.00  0.00     0.293 HD
ENDBRANCH   7  27
TORSDOF 7
ENDMDL
MODEL 4
REMARK VINA RESULT:    -1.756      1.541      7.032
REMARK INTER + INTRA:          -2.236
REMARK INTER:                  -2.517
REMARK INTRA:                   0.281
REMARK UNBOUND:                -0.070
REMARK SMILES Oc1cc(O)c2cc(O)c(-c3cc(O)c(O)c(O)c3)[o+]c2c1
REMARK SMILES IDX 10 1 20 2 21 3 22 4 2 5 3 6 4 7 6 8 7 9 8 10 11 11 12 12
REMARK SMILES IDX 13 13 19 14 15 15 17 16 14 17 16 19 18 21 9 23 1 25 5 27
REMARK H PARENT 14 18 16 20 18 22 9 24 1 26 5 28
REMARK Flexibility Score: inf
ROOT
ATOM      1  C   UNL     1      -5.023 -12.763  33.091  1.00  0.00     0.402 A 
ATOM      2  O   UNL     1      -4.368 -11.782  32.475  1.00  0.00    -0.202 OA
ATOM      3  C   UNL     1      -3.783 -11.926  31.291  1.00  0.00     0.368 A 
ATOM      4  C   UNL     1      -3.121 -10.835  30.722  1.00  0.00     0.162 A 
ATOM      5  C   UNL     1      -2.500 -10.959  29.476  1.00  0.00     0.128 A 
ATOM      6  C   UNL     1      -2.541 -12.177  28.796  1.00  0.00     0.093 A 
ATOM      7  C   UNL     1      -3.198 -13.286  29.344  1.00  0.00     0.136 A 
ATOM      8  C   UNL     1      -3.828 -13.166  30.610  1.00  0.00     0.125 A 
ATOM      9  C   UNL     1      -4.499 -14.227  31.242  1.00  0.00     0.078 A 
ATOM     10  C   UNL     1      -5.092 -14.035  32.493  1.00  0.00     0.223 A 
ENDROOT
BRANCH   1  11
ATOM     11  C   UNL     1      -5.643 -12.475  34.405  1.00  0.00     0.091 A 
ATOM     12  C   UNL     1      -5.247 -11.336  35.119  1.00  0.00     0.068 A 
ATOM     13  C   UNL     1      -5.825 -11.022  36.354  1.00  0.00     0.162 A 
ATOM     14  C   UNL     1      -6.661 -13.287  34.927  1.00  0.00     0.068 A 
ATOM     15  C   UNL     1      -6.836 -11.858  36.887  1.00  0.00     0.200 A 
ATOM     16  C   UNL     1      -7.251 -12.988  36.158  1.00  0.00     0.162 A 
BRANCH  13  17
ATOM     17  O   UNL     1      -5.368  -9.877  37.010  1.00  0.00    -0.504 OA
ATOM     18  H   UNL     1      -4.430  -9.512  36.930  1.00  0.00     0.293 HD
ENDBRANCH  13  17
BRANCH  15  19
ATOM     19  O   UNL     1      -7.445 -11.599  38.117  1.00  0.00    -0.502 OA
ATOM     20  H   UNL     1      -7.567 -10.676  38.507  1.00  0.00     0.293 HD
ENDBRANCH  15  19
BRANCH  16  21
ATOM     21  O   UNL     1      -8.254 -13.828  36.642  1.00  0.00    -0.504 OA
ATOM     22  H   UNL     1      -8.672 -13.701  37.555  1.00  0.00     0.293 HD
ENDBRANCH  16  21
ENDBRANCH   1  11
BRANCH  10  23
ATOM     23  O   UNL     1      -5.714 -15.101  33.143  1.00  0.00    -0.500 OA
ATOM     24  H   UNL     1      -5.892 -15.981  32.673  1.00  0.00     0.294 HD
ENDBRANCH  10  23
BRANCH   5  25
ATOM     25  O   UNL     1      -1.837  -9.875  28.903  1.00  0.00    -0.507 OA
ATOM     26  H   UNL     1      -2.342  -9.063  28.566  1.00  0.00     0.293 HD
ENDBRANCH   5  25
BRANCH   7  27
ATOM     27  O   UNL     1      -3.197 -14.469  28.599  1.00  0.00    -0.507 OA
ATOM     28  H   UNL     1      -2.747 -15.325  28.888  1.00  0.00     0.293 HD
ENDBRANCH   7  27
TORSDOF 7
ENDMDL
MODEL 5
REMARK VINA RESULT:    -1.444      1.480      6.901
REMARK INTER + INTRA:          -1.852
REMARK INTER:                  -2.246
REMARK INTRA:                   0.394
REMARK UNBOUND:                -0.070
REMARK SMILES Oc1cc(O)c2cc(O)c(-c3cc(O)c(O)c(O)c3)[o+]c2c1
REMARK SMILES IDX 10 1 20 2 21 3 22 4 2 5 3 6 4 7 6 8 7 9 8 10 11 11 12 12
REMARK SMILES IDX 13 13 19 14 15 15 17 16 14 17 16 19 18 21 9 23 1 25 5 27
REMARK H PARENT 14 18 16 20 18 22 9 24 1 26 5 28
REMARK Flexibility Score: inf
ROOT
ATOM      1  C   UNL     1      -4.994 -12.648  33.095  1.00  0.00     0.402 A 
ATOM      2  O   UNL     1      -4.273 -11.694  32.513  1.00  0.00    -0.202 OA
ATOM      3  C   UNL     1      -3.656 -11.854  31.347  1.00  0.00     0.368 A 
ATOM      4  C   UNL     1      -2.924 -10.790  30.813  1.00  0.00     0.162 A 
ATOM      5  C   UNL     1      -2.268 -10.931  29.586  1.00  0.00     0.128 A 
ATOM      6  C   UNL     1      -2.345 -12.139  28.891  1.00  0.00     0.093 A 
ATOM      7  C   UNL     1      -3.072 -13.220  29.404  1.00  0.00     0.136 A 
ATOM      8  C   UNL     1      -3.738 -13.083  30.650  1.00  0.00     0.125 A 
ATOM      9  C   UNL     1      -4.479 -14.117  31.247  1.00  0.00     0.078 A 
ATOM     10  C   UNL     1      -5.104 -13.909  32.480  1.00  0.00     0.223 A 
ENDROOT
BRANCH   1  11
ATOM     11  C   UNL     1      -5.643 -12.345  34.391  1.00  0.00     0.091 A 
ATOM     12  C   UNL     1      -6.633 -13.205  34.885  1.00  0.00     0.068 A 
ATOM     13  C   UNL     1      -7.253 -12.960  36.115  1.00  0.00     0.162 A 
ATOM     14  C   UNL     1      -5.247 -11.244  35.167  1.00  0.00     0.068 A 
ATOM     15  C   UNL     1      -6.867 -11.834  36.883  1.00  0.00     0.200 A 
ATOM     16  C   UNL     1      -5.855 -10.985  36.398  1.00  0.00     0.162 A 
BRANCH  13  17
ATOM     17  O   UNL     1      -8.240 -13.856  36.533  1.00  0.00    -0.504 OA
ATOM     18  H   UNL     1      -8.050 -14.743  36.979  1.00  0.00     0.293 HD
ENDBRANCH  13  17
BRANCH  15  19
ATOM     19  O   UNL     1      -7.454 -11.536  38.114  1.00  0.00    -0.502 OA
ATOM     20  H   UNL     1      -8.248 -12.025  38.499  1.00  0.00     0.293 HD
ENDBRANCH  15  19
BRANCH  16  21
ATOM     21  O   UNL     1      -5.435  -9.875  37.132  1.00  0.00    -0.504 OA
ATOM     22  H   UNL     1      -5.214  -8.989  36.695  1.00  0.00     0.293 HD
ENDBRANCH  16  21
ENDBRANCH   1  11
BRANCH  10  23
ATOM     23  O   UNL     1      -5.799 -14.950  33.096  1.00  0.00    -0.500 OA
ATOM     24  H   UNL     1      -5.617 -15.217  34.057  1.00  0.00     0.294 HD
ENDBRANCH  10  23
BRANCH   5  25
ATOM     25  O   UNL     1      -1.535  -9.875  29.049  1.00  0.00    -0.507 OA
ATOM     26  H   UNL     1      -1.722  -8.913  29.309  1.00  0.00     0.293 HD
ENDBRANCH   5  25
BRANCH   7  27
ATOM     27  O   UNL     1      -3.103 -14.394  28.646  1.00  0.00    -0.507 OA
ATOM     28  H   UNL     1      -2.902 -14.441  27.658  1.00  0.00     0.293 HD
ENDBRANCH   7  27
TORSDOF 7
ENDMDL
MODEL 6
REMARK VINA RESULT:    -0.825      1.081      3.114
REMARK INTER + INTRA:          -1.088
REMARK INTER:                  -0.775
REMARK INTRA:                  -0.314
REMARK UNBOUND:                -0.070
REMARK SMILES Oc1cc(O)c2cc(O)c(-c3cc(O)c(O)c(O)c3)[o+]c2c1
REMARK SMILES IDX 10 1 20 2 21 3 22 4 2 5 3 6 4 7 6 8 7 9 8 10 11 11 12 12
REMARK SMILES IDX 13 13 19 14 15 15 17 16 14 17 16 19 18 21 9 23 1 25 5 27
REMARK H PARENT 14 18 16 20 18 22 9 24 1 26 5 28
REMARK Flexibility Score: inf
ROOT
ATOM      1  C   UNL     1      -4.387 -12.191  32.505  1.00  0.00     0.402 A 
ATOM      2  O   UNL     1      -5.139 -13.085  33.142  1.00  0.00    -0.202 OA
ATOM      3  C   UNL     1      -5.919 -12.779  34.174  1.00  0.00     0.368 A 
ATOM      4  C   UNL     1      -6.676 -13.788  34.776  1.00  0.00     0.162 A 
ATOM      5  C   UNL     1      -7.507 -13.493  35.861  1.00  0.00     0.128 A 
ATOM      6  C   UNL     1      -7.582 -12.186  36.344  1.00  0.00     0.093 A 
ATOM      7  C   UNL     1      -6.834 -11.157  35.759  1.00  0.00     0.136 A 
ATOM      8  C   UNL     1      -5.987 -11.451  34.658  1.00  0.00     0.125 A 
ATOM      9  C   UNL     1      -5.191 -10.487  34.017  1.00  0.00     0.078 A 
ATOM     10  C   UNL     1      -4.377 -10.854  32.942  1.00  0.00     0.223 A 
ENDROOT
BRANCH   1  11
ATOM     11  C   UNL     1      -3.567 -12.653  31.362  1.00  0.00     0.091 A 
ATOM     12  C   UNL     1      -2.188 -12.838  31.532  1.00  0.00     0.068 A 
ATOM     13  C   UNL     1      -1.386 -13.292  30.479  1.00  0.00     0.162 A 
ATOM     14  C   UNL     1      -4.149 -12.966  30.124  1.00  0.00     0.068 A 
ATOM     15  C   UNL     1      -1.975 -13.584  29.225  1.00  0.00     0.200 A 
ATOM     16  C   UNL     1      -3.363 -13.422  29.062  1.00  0.00     0.162 A 
BRANCH  13  17
ATOM     17  O   UNL     1      -0.018 -13.439  30.724  1.00  0.00    -0.504 OA
ATOM     18  H   UNL     1       0.668 -13.635  30.009  1.00  0.00     0.293 HD
ENDBRANCH  13  17
BRANCH  15  19
ATOM     19  O   UNL     1      -1.225 -14.035  28.136  1.00  0.00    -0.502 OA
ATOM     20  H   UNL     1      -1.263 -13.629  27.213  1.00  0.00     0.293 HD
ENDBRANCH  15  19
BRANCH  16  21
ATOM     21  O   UNL     1      -3.984 -13.715  27.847  1.00  0.00    -0.504 OA
ATOM     22  H   UNL     1      -4.679 -13.106  27.434  1.00  0.00     0.293 HD
ENDBRANCH  16  21
ENDBRANCH   1  11
BRANCH  10  23
ATOM     23  O   UNL     1      -3.550  -9.907  32.337  1.00  0.00    -0.500 OA
ATOM     24  H   UNL     1      -3.501  -8.951  32.670  1.00  0.00     0.294 HD
ENDBRANCH  10  23
BRANCH   5  25
ATOM     25  O   UNL     1      -8.264 -14.493  36.467  1.00  0.00    -0.507 OA
ATOM     26  H   UNL     1      -9.277 -14.488  36.429  1.00  0.00     0.293 HD
ENDBRANCH   5  25
BRANCH   7  27
ATOM     27  O   UNL     1      -6.968  -9.875  36.299  1.00  0.00    -0.507 OA
ATOM     28  H   UNL     1      -7.309  -9.679  37.229  1.00  0.00     0.293 HD
ENDBRANCH   7  27
TORSDOF 7
ENDMDL
MODEL 7
REMARK VINA RESULT:    -0.813      2.462      7.525
REMARK INTER + INTRA:          -1.073
REMARK INTER:                  -1.278
REMARK INTRA:                   0.206
REMARK UNBOUND:                -0.070
REMARK SMILES Oc1cc(O)c2cc(O)c(-c3cc(O)c(O)c(O)c3)[o+]c2c1
REMARK SMILES IDX 10 1 20 2 21 3 22 4 2 5 3 6 4 7 6 8 7 9 8 10 11 11 12 12
REMARK SMILES IDX 13 13 19 14 15 15 17 16 14 17 16 19 18 21 9 23 1 25 5 27
REMARK H PARENT 14 18 16 20 18 22 9 24 1 26 5 28
REMARK Flexibility Score: inf
ROOT
ATOM      1  C   UNL     1      -4.175 -11.866  30.631  1.00  0.00     0.402 A 
ATOM      2  O   UNL     1      -4.634 -12.740  29.740  1.00  0.00    -0.202 OA
ATOM      3  C   UNL     1      -4.289 -12.723  28.456  1.00  0.00     0.368 A 
ATOM      4  C   UNL     1      -4.823 -13.687  27.596  1.00  0.00     0.162 A 
ATOM      5  C   UNL     1      -4.474 -13.693  26.242  1.00  0.00     0.128 A 
ATOM      6  C   UNL     1      -3.590 -12.734  25.747  1.00  0.00     0.093 A 
ATOM      7  C   UNL     1      -3.041 -11.758  26.588  1.00  0.00     0.136 A 
ATOM      8  C   UNL     1      -3.393 -11.745  27.963  1.00  0.00     0.125 A 
ATOM      9  C   UNL     1      -2.903 -10.797  28.877  1.00  0.00     0.078 A 
ATOM     10  C   UNL     1      -3.299 -10.846  30.217  1.00  0.00     0.223 A 
ENDROOT
BRANCH   1  11
ATOM     11  C   UNL     1      -4.625 -11.995  32.036  1.00  0.00     0.091 A 
ATOM     12  C   UNL     1      -4.888 -13.268  32.562  1.00  0.00     0.068 A 
ATOM     13  C   UNL     1      -5.297 -13.430  33.890  1.00  0.00     0.162 A 
ATOM     14  C   UNL     1      -4.740 -10.875  32.873  1.00  0.00     0.068 A 
ATOM     15  C   UNL     1      -5.434 -12.293  34.724  1.00  0.00     0.200 A 
ATOM     16  C   UNL     1      -5.145 -11.018  34.203  1.00  0.00     0.162 A 
BRANCH  13  17
ATOM     17  O   UNL     1      -5.551 -14.728  34.336  1.00  0.00    -0.504 OA
ATOM     18  H   UNL     1      -6.439 -15.199  34.236  1.00  0.00     0.293 HD
ENDBRANCH  13  17
BRANCH  15  19
ATOM     19  O   UNL     1      -5.843 -12.392  36.056  1.00  0.00    -0.502 OA
ATOM     20  H   UNL     1      -6.697 -11.993  36.418  1.00  0.00     0.293 HD
ENDBRANCH  15  19
BRANCH  16  21
ATOM     21  O   UNL     1      -5.253  -9.876  34.997  1.00  0.00    -0.504 OA
ATOM     22  H   UNL     1      -6.039  -9.719  35.616  1.00  0.00     0.293 HD
ENDBRANCH  16  21
ENDBRANCH   1  11
BRANCH  10  23
ATOM     23  O   UNL     1      -2.852  -9.875  31.114  1.00  0.00    -0.500 OA
ATOM     24  H   UNL     1      -3.305  -8.972  31.192  1.00  0.00     0.294 HD
ENDBRANCH  10  23
BRANCH   5  25
ATOM     25  O   UNL     1      -5.003 -14.650  25.378  1.00  0.00    -0.507 OA
ATOM     26  H   UNL     1      -5.198 -15.595  25.690  1.00  0.00     0.293 HD
ENDBRANCH   5  25
BRANCH   7  27
ATOM     27  O   UNL     1      -2.160 -10.835  26.016  1.00  0.00    -0.507 OA
ATOM     28  H   UNL     1      -1.460 -11.065  25.326  1.00  0.00     0.293 HD
ENDBRANCH   7  27
TORSDOF 7
ENDMDL
MODEL 8
REMARK VINA RESULT:    -0.648      1.787      7.252
REMARK INTER + INTRA:          -0.870
REMARK INTER:                  -0.517
REMARK INTRA:                  -0.352
REMARK UNBOUND:                -0.070
REMARK SMILES Oc1cc(O)c2cc(O)c(-c3cc(O)c(O)c(O)c3)[o+]c2c1
REMARK SMILES IDX 10 1 20 2 21 3 22 4 2 5 3 6 4 7 6 8 7 9 8 10 11 11 12 12
REMARK SMILES IDX 13 13 19 14 15 15 17 16 14 17 16 19 18 21 9 23 1 25 5 27
REMARK H PARENT 14 18 16 20 18 22 9 24 1 26 5 28
REMARK Flexibility Score: inf
ROOT
ATOM      1  C   UNL     1      -3.855 -12.708  31.726  1.00  0.00     0.402 A 
ATOM      2  O   UNL     1      -4.243 -12.083  30.618  1.00  0.00    -0.202 OA
ATOM      3  C   UNL     1      -3.595 -12.178  29.461  1.00  0.00     0.368 A 
ATOM      4  C   UNL     1      -4.083 -11.486  28.350  1.00  0.00     0.162 A 
ATOM      5  C   UNL     1      -3.422 -11.571  27.121  1.00  0.00     0.128 A 
ATOM      6  C   UNL     1      -2.271 -12.352  27.003  1.00  0.00     0.093 A 
ATOM      7  C   UNL     1      -1.763 -13.057  28.101  1.00  0.00     0.136 A 
ATOM      8  C   UNL     1      -2.428 -12.971  29.352  1.00  0.00     0.125 A 
ATOM      9  C   UNL     1      -1.984 -13.632  30.510  1.00  0.00     0.078 A 
ATOM     10  C   UNL     1      -2.690 -13.496  31.708  1.00  0.00     0.223 A 
ENDROOT
BRANCH   1  11
ATOM     11  C   UNL     1      -4.668 -12.531  32.952  1.00  0.00     0.091 A 
ATOM     12  C   UNL     1      -4.607 -11.317  33.650  1.00  0.00     0.068 A 
ATOM     13  C   UNL     1      -5.376 -11.107  34.800  1.00  0.00     0.162 A 
ATOM     14  C   UNL     1      -5.544 -13.531  33.400  1.00  0.00     0.068 A 
ATOM     15  C   UNL     1      -6.240 -12.129  35.261  1.00  0.00     0.200 A 
ATOM     16  C   UNL     1      -6.320 -13.338  34.546  1.00  0.00     0.162 A 
BRANCH  13  17
ATOM     17  O   UNL     1      -5.251  -9.875  35.447  1.00  0.00    -0.504 OA
ATOM     18  H   UNL     1      -5.121  -9.767  36.443  1.00  0.00     0.293 HD
ENDBRANCH  13  17
BRANCH  15  19
ATOM     19  O   UNL     1      -7.027 -11.980  36.406  1.00  0.00    -0.502 OA
ATOM     20  H   UNL     1      -7.552 -12.727  36.836  1.00  0.00     0.293 HD
ENDBRANCH  15  19
BRANCH  16  21
ATOM     21  O   UNL     1      -7.171 -14.364  34.959  1.00  0.00    -0.504 OA
ATOM     22  H   UNL     1      -7.989 -14.191  35.530  1.00  0.00     0.293 HD
ENDBRANCH  16  21
ENDBRANCH   1  11
BRANCH  10  23
ATOM     23  O   UNL     1      -2.221 -14.111  32.870  1.00  0.00    -0.500 OA
ATOM     24  H   UNL     1      -1.763 -13.585  33.604  1.00  0.00     0.294 HD
ENDBRANCH  10  23
BRANCH   5  25
ATOM     25  O   UNL     1      -3.901 -10.883  26.008  1.00  0.00    -0.507 OA
ATOM     26  H   UNL     1      -3.272 -10.460  25.335  1.00  0.00     0.293 HD
ENDBRANCH   5  25
BRANCH   7  27
ATOM     27  O   UNL     1      -0.609 -13.819  27.900  1.00  0.00    -0.507 OA
ATOM     28  H   UNL     1       0.190 -13.821  28.518  1.00  0.00     0.293 HD
ENDBRANCH   7  27
TORSDOF 7
ENDMDL
