MODEL 1
REMARK VINA RESULT:    -3.133      0.000      0.000
REMARK INTER + INTRA:         -10.641
REMARK INTER:                  -6.797
REMARK INTRA:                  -3.844
REMARK UNBOUND:                -3.844
REMARK SMILES CCCCCCCCCCCCCCCCCCCCCC(=O)[O-]
REMARK SMILES IDX 12 1 11 2 10 3 9 4 8 5 7 6 6 7 5 8 4 9 3 10 2 11 1 12 13 13
REMARK SMILES IDX 14 14 15 15 16 16 17 17 18 18 19 19 20 20 21 21 22 22 23 23
REMARK SMILES IDX 24 24
REMARK H PARENT
REMARK Flexibility Score: inf
ROOT
ATOM      1  C   UNL     1     -13.985 -18.512   6.544  1.00  0.00     0.000 C 
ENDROOT
BRANCH   1   2
ATOM      2  C   UNL     1     -15.485 -18.343   6.241  1.00  0.00     0.000 C 
BRANCH   2   3
ATOM      3  C   UNL     1     -15.989 -16.910   6.488  1.00  0.00     0.000 C 
BRANCH   3   4
ATOM      4  C   UNL     1     -16.057 -16.082   5.193  1.00  0.00    -0.000 C 
BRANCH   4   5
ATOM      5  C   UNL     1     -14.908 -15.065   5.093  1.00  0.00    -0.000 C 
BRANCH   5   6
ATOM      6  C   UNL     1     -13.880 -15.432   4.010  1.00  0.00    -0.000 C 
BRANCH   6   7
ATOM      7  C   UNL     1     -14.359 -15.070   2.593  1.00  0.00    -0.000 C 
BRANCH   7   8
ATOM      8  C   UNL     1     -13.208 -14.644   1.664  1.00  0.00    -0.000 C 
BRANCH   8   9
ATOM      9  C   UNL     1     -12.581 -13.270   1.980  1.00  0.00    -0.000 C 
BRANCH   9  10
ATOM     10  C   UNL     1     -13.558 -12.078   1.945  1.00  0.00    -0.000 C 
BRANCH  10  11
ATOM     11  C   UNL     1     -13.631 -11.265   3.251  1.00  0.00    -0.003 C 
ATOM     12  C   UNL     1     -12.725 -11.823   4.348  1.00  0.00     0.004 C 
ENDBRANCH  10  11
ENDBRANCH   9  10
ENDBRANCH   8   9
ENDBRANCH   7   8
ENDBRANCH   6   7
ENDBRANCH   5   6
ENDBRANCH   4   5
ENDBRANCH   3   4
ENDBRANCH   2   3
ENDBRANCH   1   2
BRANCH   1  13
ATOM     13  C   UNL     1     -13.204 -19.369   5.532  1.00  0.00     0.000 C 
BRANCH  13  14
ATOM     14  C   UNL     1     -12.123 -18.573   4.781  1.00  0.00     0.000 C 
BRANCH  14  15
ATOM     15  C   UNL     1     -11.899 -19.069   3.340  1.00  0.00     0.000 C 
BRANCH  15  16
ATOM     16  C   UNL     1     -12.671 -18.302   2.248  1.00  0.00     0.000 C 
BRANCH  16  17
ATOM     17  C   UNL     1     -13.899 -19.067   1.727  1.00  0.00     0.000 C 
BRANCH  17  18
ATOM     18  C   UNL     1     -15.186 -18.698   2.481  1.00  0.00     0.000 C 
BRANCH  18  19
ATOM     19  C   UNL     1     -15.992 -19.928   2.923  1.00  0.00     0.000 C 
BRANCH  19  20
ATOM     20  C   UNL     1     -15.258 -21.226   2.552  1.00  0.00     0.006 C 
BRANCH  20  21
ATOM     21  C   UNL     1     -14.839 -22.032   3.790  1.00  0.00     0.053 C 
BRANCH  21  22
ATOM     22  C   UNL     1     -13.446 -22.568   3.660  1.00  0.00     0.041 C 
ATOM     23  O   UNL     1     -12.783 -22.365   2.609  1.00  0.00    -0.550 OA
ATOM     24  O   UNL     1     -12.888 -23.312   4.692  1.00  0.00    -0.550 OA
ENDBRANCH  21  22
ENDBRANCH  20  21
ENDBRANCH  19  20
ENDBRANCH  18  19
ENDBRANCH  17  18
ENDBRANCH  16  17
ENDBRANCH  15  16
ENDBRANCH  14  15
ENDBRANCH  13  14
ENDBRANCH   1  13
TORSDOF 20
ENDMDL
MODEL 2
REMARK VINA RESULT:    -3.116      4.540      8.400
REMARK INTER + INTRA:         -10.603
REMARK INTER:                  -6.971
REMARK INTRA:                  -3.631
REMARK UNBOUND:                -3.844
REMARK SMILES CCCCCCCCCCCCCCCCCCCCCC(=O)[O-]
REMARK SMILES IDX 12 1 11 2 10 3 9 4 8 5 7 6 6 7 5 8 4 9 3 10 2 11 1 12 13 13
REMARK SMILES IDX 14 14 15 15 16 16 17 17 18 18 19 19 20 20 21 21 22 22 23 23
REMARK SMILES IDX 24 24
REMARK H PARENT
REMARK Flexibility Score: inf
ROOT
ATOM      1  C   UNL     1     -15.112 -13.902   5.381  1.00  0.00     0.000 C 
ENDROOT
BRANCH   1   2
ATOM      2  C   UNL     1     -16.024 -14.271   4.197  1.00  0.00     0.000 C 
BRANCH   2   3
ATOM      3  C   UNL     1     -15.496 -15.467   3.384  1.00  0.00     0.000 C 
BRANCH   3   4
ATOM      4  C   UNL     1     -14.066 -15.863   3.788  1.00  0.00    -0.000 C 
BRANCH   4   5
ATOM      5  C   UNL     1     -13.286 -16.492   2.620  1.00  0.00    -0.000 C 
BRANCH   5   6
ATOM      6  C   UNL     1     -13.937 -17.781   2.094  1.00  0.00    -0.000 C 
BRANCH   6   7
ATOM      7  C   UNL     1     -13.565 -19.017   2.931  1.00  0.00    -0.000 C 
BRANCH   7   8
ATOM      8  C   UNL     1     -12.183 -18.892   3.598  1.00  0.00    -0.000 C 
BRANCH   8   9
ATOM      9  C   UNL     1     -12.188 -18.959   5.140  1.00  0.00    -0.000 C 
BRANCH   9  10
ATOM     10  C   UNL     1     -13.501 -19.460   5.773  1.00  0.00    -0.000 C 
BRANCH  10  11
ATOM     11  C   UNL     1     -14.313 -18.382   6.512  1.00  0.00    -0.003 C 
ATOM     12  C   UNL     1     -15.755 -18.279   6.016  1.00  0.00     0.004 C 
ENDBRANCH  10  11
ENDBRANCH   9  10
ENDBRANCH   8   9
ENDBRANCH   7   8
ENDBRANCH   6   7
ENDBRANCH   5   6
ENDBRANCH   4   5
ENDBRANCH   3   4
ENDBRANCH   2   3
ENDBRANCH   1   2
BRANCH   1  13
ATOM     13  C   UNL     1     -14.634 -12.439   5.409  1.00  0.00     0.000 C 
BRANCH  13  14
ATOM     14  C   UNL     1     -13.110 -12.304   5.255  1.00  0.00     0.000 C 
BRANCH  14  15
ATOM     15  C   UNL     1     -12.692 -11.680   3.911  1.00  0.00     0.000 C 
BRANCH  15  16
ATOM     16  C   UNL     1     -12.460 -12.679   2.759  1.00  0.00     0.000 C 
BRANCH  16  17
ATOM     17  C   UNL     1     -13.618 -12.710   1.747  1.00  0.00     0.000 C 
BRANCH  17  18
ATOM     18  C   UNL     1     -14.165 -11.308   1.435  1.00  0.00     0.000 C 
BRANCH  18  19
ATOM     19  C   UNL     1     -15.543 -11.053   2.064  1.00  0.00     0.000 C 
BRANCH  19  20
ATOM     20  C   UNL     1     -15.607  -9.651   2.690  1.00  0.00     0.006 C 
BRANCH  20  21
ATOM     21  C   UNL     1     -14.414  -8.776   2.284  1.00  0.00     0.053 C 
BRANCH  21  22
ATOM     22  C   UNL     1     -13.901  -7.965   3.434  1.00  0.00     0.041 C 
ATOM     23  O   UNL     1     -13.455  -6.803   3.243  1.00  0.00    -0.550 OA
ATOM     24  O   UNL     1     -13.894  -8.501   4.715  1.00  0.00    -0.550 OA
ENDBRANCH  21  22
ENDBRANCH  20  21
ENDBRANCH  19  20
ENDBRANCH  18  19
ENDBRANCH  17  18
ENDBRANCH  16  17
ENDBRANCH  15  16
ENDBRANCH  14  15
ENDBRANCH  13  14
ENDBRANCH   1  13
TORSDOF 20
ENDMDL
MODEL 3
REMARK VINA RESULT:    -3.099      4.396      8.362
REMARK INTER + INTRA:         -10.567
REMARK INTER:                  -7.342
REMARK INTRA:                  -3.225
REMARK UNBOUND:                -3.844
REMARK SMILES CCCCCCCCCCCCCCCCCCCCCC(=O)[O-]
REMARK SMILES IDX 12 1 11 2 10 3 9 4 8 5 7 6 6 7 5 8 4 9 3 10 2 11 1 12 13 13
REMARK SMILES IDX 14 14 15 15 16 16 17 17 18 18 19 19 20 20 21 21 22 22 23 23
REMARK SMILES IDX 24 24
REMARK H PARENT
REMARK Flexibility Score: inf
ROOT
ATOM      1  C   UNL     1     -14.199 -16.102   4.310  1.00  0.00     0.000 C 
ENDROOT
BRANCH   1   2
ATOM      2  C   UNL     1     -14.457 -15.636   2.865  1.00  0.00     0.000 C 
BRANCH   2   3
ATOM      3  C   UNL     1     -13.276 -15.925   1.922  1.00  0.00     0.000 C 
BRANCH   3   4
ATOM      4  C   UNL     1     -13.251 -17.389   1.448  1.00  0.00    -0.000 C 
BRANCH   4   5
ATOM      5  C   UNL     1     -14.664 -17.981   1.316  1.00  0.00    -0.000 C 
BRANCH   5   6
ATOM      6  C   UNL     1     -14.836 -19.291   2.102  1.00  0.00    -0.000 C 
BRANCH   6   7
ATOM      7  C   UNL     1     -15.916 -19.189   3.194  1.00  0.00    -0.000 C 
BRANCH   7   8
ATOM      8  C   UNL     1     -15.375 -19.508   4.599  1.00  0.00    -0.000 C 
BRANCH   8   9
ATOM      9  C   UNL     1     -13.944 -20.083   4.639  1.00  0.00    -0.000 C 
BRANCH   9  10
ATOM     10  C   UNL     1     -12.905 -19.211   5.372  1.00  0.00    -0.000 C 
BRANCH  10  11
ATOM     11  C   UNL     1     -11.665 -18.846   4.536  1.00  0.00    -0.003 C 
ATOM     12  C   UNL     1     -10.484 -18.394   5.393  1.00  0.00     0.004 C 
ENDBRANCH  10  11
ENDBRANCH   9  10
ENDBRANCH   8   9
ENDBRANCH   7   8
ENDBRANCH   6   7
ENDBRANCH   5   6
ENDBRANCH   4   5
ENDBRANCH   3   4
ENDBRANCH   2   3
ENDBRANCH   1   2
BRANCH   1  13
ATOM     13  C   UNL     1     -15.114 -15.473   5.375  1.00  0.00     0.000 C 
BRANCH  13  14
ATOM     14  C   UNL     1     -15.291 -13.956   5.191  1.00  0.00     0.000 C 
BRANCH  14  15
ATOM     15  C   UNL     1     -14.071 -13.144   5.667  1.00  0.00     0.000 C 
BRANCH  15  16
ATOM     16  C   UNL     1     -13.811 -11.830   4.903  1.00  0.00     0.000 C 
BRANCH  16  17
ATOM     17  C   UNL     1     -12.545 -11.880   4.031  1.00  0.00     0.000 C 
BRANCH  17  18
ATOM     18  C   UNL     1     -12.843 -12.297   2.583  1.00  0.00     0.000 C 
BRANCH  18  19
ATOM     19  C   UNL     1     -14.195 -11.770   2.077  1.00  0.00     0.000 C 
BRANCH  19  20
ATOM     20  C   UNL     1     -14.024 -10.421   1.363  1.00  0.00     0.006 C 
BRANCH  20  21
ATOM     21  C   UNL     1     -14.677  -9.266   2.135  1.00  0.00     0.053 C 
BRANCH  21  22
ATOM     22  C   UNL     1     -13.655  -8.370   2.766  1.00  0.00     0.041 C 
ATOM     23  O   UNL     1     -13.388  -8.477   3.992  1.00  0.00    -0.550 OA
ATOM     24  O   UNL     1     -13.013  -7.403   2.004  1.00  0.00    -0.550 OA
ENDBRANCH  21  22
ENDBRANCH  20  21
ENDBRANCH  19  20
ENDBRANCH  18  19
ENDBRANCH  17  18
ENDBRANCH  16  17
ENDBRANCH  15  16
ENDBRANCH  14  15
ENDBRANCH  13  14
ENDBRANCH   1  13
TORSDOF 20
ENDMDL
MODEL 4
REMARK VINA RESULT:    -3.088      3.427      7.496
REMARK INTER + INTRA:         -10.543
REMARK INTER:                  -6.910
REMARK INTRA:                  -3.634
REMARK UNBOUND:                -3.844
REMARK SMILES CCCCCCCCCCCCCCCCCCCCCC(=O)[O-]
REMARK SMILES IDX 12 1 11 2 10 3 9 4 8 5 7 6 6 7 5 8 4 9 3 10 2 11 1 12 13 13
REMARK SMILES IDX 14 14 15 15 16 16 17 17 18 18 19 19 20 20 21 21 22 22 23 23
REMARK SMILES IDX 24 24
REMARK H PARENT
REMARK Flexibility Score: inf
ROOT
ATOM      1  C   UNL     1     -13.490 -19.016   5.902  1.00  0.00     0.000 C 
ENDROOT
BRANCH   1   2
ATOM      2  C   UNL     1     -12.454 -18.224   5.084  1.00  0.00     0.000 C 
BRANCH   2   3
ATOM      3  C   UNL     1     -11.592 -19.122   4.179  1.00  0.00     0.000 C 
BRANCH   3   4
ATOM      4  C   UNL     1     -12.230 -19.345   2.797  1.00  0.00    -0.000 C 
BRANCH   4   5
ATOM      5  C   UNL     1     -13.003 -18.108   2.309  1.00  0.00    -0.000 C 
BRANCH   5   6
ATOM      6  C   UNL     1     -14.456 -18.428   1.920  1.00  0.00    -0.000 C 
BRANCH   6   7
ATOM      7  C   UNL     1     -14.711 -19.939   1.781  1.00  0.00    -0.000 C 
BRANCH   7   8
ATOM      8  C   UNL     1     -15.873 -20.432   2.663  1.00  0.00    -0.000 C 
BRANCH   8   9
ATOM      9  C   UNL     1     -15.708 -21.855   3.235  1.00  0.00    -0.000 C 
BRANCH   9  10
ATOM     10  C   UNL     1     -15.684 -21.947   4.774  1.00  0.00    -0.000 C 
BRANCH  10  11
ATOM     11  C   UNL     1     -14.412 -22.583   5.363  1.00  0.00    -0.003 C 
ATOM     12  C   UNL     1     -13.214 -22.498   4.418  1.00  0.00     0.004 C 
ENDBRANCH  10  11
ENDBRANCH   9  10
ENDBRANCH   8   9
ENDBRANCH   7   8
ENDBRANCH   6   7
ENDBRANCH   5   6
ENDBRANCH   4   5
ENDBRANCH   3   4
ENDBRANCH   2   3
ENDBRANCH   1   2
BRANCH   1  13
ATOM     13  C   UNL     1     -14.950 -18.562   5.726  1.00  0.00     0.000 C 
BRANCH  13  14
ATOM     14  C   UNL     1     -15.372 -17.494   6.750  1.00  0.00     0.000 C 
BRANCH  14  15
ATOM     15  C   UNL     1     -15.674 -16.127   6.108  1.00  0.00     0.000 C 
BRANCH  15  16
ATOM     16  C   UNL     1     -15.491 -16.058   4.578  1.00  0.00     0.000 C 
BRANCH  16  17
ATOM     17  C   UNL     1     -14.295 -15.190   4.153  1.00  0.00     0.000 C 
BRANCH  17  18
ATOM     18  C   UNL     1     -14.520 -14.501   2.797  1.00  0.00     0.000 C 
BRANCH  18  19
ATOM     19  C   UNL     1     -13.236 -14.402   1.959  1.00  0.00     0.000 C 
BRANCH  19  20
ATOM     20  C   UNL     1     -12.531 -13.058   2.196  1.00  0.00     0.006 C 
BRANCH  20  21
ATOM     21  C   UNL     1     -13.506 -11.958   2.639  1.00  0.00     0.053 C 
BRANCH  21  22
ATOM     22  C   UNL     1     -13.054 -11.289   3.902  1.00  0.00     0.041 C 
ATOM     23  O   UNL     1     -12.949 -10.036   3.953  1.00  0.00    -0.550 OA
ATOM     24  O   UNL     1     -12.729 -12.053   5.015  1.00  0.00    -0.550 OA
ENDBRANCH  21  22
ENDBRANCH  20  21
ENDBRANCH  19  20
ENDBRANCH  18  19
ENDBRANCH  17  18
ENDBRANCH  16  17
ENDBRANCH  15  16
ENDBRANCH  14  15
ENDBRANCH  13  14
ENDBRANCH   1  13
TORSDOF 20
ENDMDL
MODEL 5
REMARK VINA RESULT:    -3.047      1.033      2.045
REMARK INTER + INTRA:         -10.454
REMARK INTER:                  -6.765
REMARK INTRA:                  -3.689
REMARK UNBOUND:                -3.844
REMARK SMILES CCCCCCCCCCCCCCCCCCCCCC(=O)[O-]
REMARK SMILES IDX 12 1 11 2 10 3 9 4 8 5 7 6 6 7 5 8 4 9 3 10 2 11 1 12 13 13
REMARK SMILES IDX 14 14 15 15 16 16 17 17 18 18 19 19 20 20 21 21 22 22 23 23
REMARK SMILES IDX 24 24
REMARK H PARENT
REMARK Flexibility Score: inf
ROOT
ATOM      1  C   UNL     1     -15.839 -18.296   5.348  1.00  0.00     0.000 C 
ENDROOT
BRANCH   1   2
ATOM      2  C   UNL     1     -15.452 -17.060   6.181  1.00  0.00     0.000 C 
BRANCH   2   3
ATOM      3  C   UNL     1     -15.491 -15.754   5.368  1.00  0.00     0.000 C 
BRANCH   3   4
ATOM      4  C   UNL     1     -14.231 -15.561   4.508  1.00  0.00    -0.000 C 
BRANCH   4   5
ATOM      5  C   UNL     1     -14.547 -15.578   3.002  1.00  0.00    -0.000 C 
BRANCH   5   6
ATOM      6  C   UNL     1     -13.349 -15.155   2.137  1.00  0.00    -0.000 C 
BRANCH   6   7
ATOM      7  C   UNL     1     -13.409 -13.672   1.728  1.00  0.00    -0.000 C 
BRANCH   7   8
ATOM      8  C   UNL     1     -12.390 -12.802   2.486  1.00  0.00    -0.000 C 
BRANCH   8   9
ATOM      9  C   UNL     1     -13.000 -11.710   3.389  1.00  0.00    -0.000 C 
BRANCH   9  10
ATOM     10  C   UNL     1     -13.028 -12.041   4.895  1.00  0.00    -0.000 C 
BRANCH  10  11
ATOM     11  C   UNL     1     -14.438 -12.173   5.500  1.00  0.00    -0.003 C 
ATOM     12  C   UNL     1     -15.546 -12.054   4.455  1.00  0.00     0.004 C 
ENDBRANCH  10  11
ENDBRANCH   9  10
ENDBRANCH   8   9
ENDBRANCH   7   8
ENDBRANCH   6   7
ENDBRANCH   5   6
ENDBRANCH   4   5
ENDBRANCH   3   4
ENDBRANCH   2   3
ENDBRANCH   1   2
BRANCH   1  13
ATOM     13  C   UNL     1     -14.822 -19.451   5.377  1.00  0.00     0.000 C 
BRANCH  13  14
ATOM     14  C   UNL     1     -13.526 -19.089   6.123  1.00  0.00     0.000 C 
BRANCH  14  15
ATOM     15  C   UNL     1     -12.274 -19.166   5.230  1.00  0.00     0.000 C 
BRANCH  15  16
ATOM     16  C   UNL     1     -12.322 -18.315   3.945  1.00  0.00     0.000 C 
BRANCH  16  17
ATOM     17  C   UNL     1     -11.917 -19.100   2.687  1.00  0.00     0.000 C 
BRANCH  17  18
ATOM     18  C   UNL     1     -12.902 -18.900   1.525  1.00  0.00     0.000 C 
BRANCH  18  19
ATOM     19  C   UNL     1     -14.305 -19.445   1.832  1.00  0.00     0.000 C 
BRANCH  19  20
ATOM     20  C   UNL     1     -14.378 -20.955   1.561  1.00  0.00     0.006 C 
BRANCH  20  21
ATOM     21  C   UNL     1     -14.548 -21.771   2.850  1.00  0.00     0.053 C 
BRANCH  21  22
ATOM     22  C   UNL     1     -13.264 -22.419   3.272  1.00  0.00     0.041 C 
ATOM     23  O   UNL     1     -13.053 -22.677   4.486  1.00  0.00    -0.550 OA
ATOM     24  O   UNL     1     -12.292 -22.717   2.326  1.00  0.00    -0.550 OA
ENDBRANCH  21  22
ENDBRANCH  20  21
ENDBRANCH  19  20
ENDBRANCH  18  19
ENDBRANCH  17  18
ENDBRANCH  16  17
ENDBRANCH  15  16
ENDBRANCH  14  15
ENDBRANCH  13  14
ENDBRANCH   1  13
TORSDOF 20
ENDMDL
MODEL 6
REMARK VINA RESULT:    -3.039      3.475      7.337
REMARK INTER + INTRA:         -10.437
REMARK INTER:                  -6.835
REMARK INTRA:                  -3.602
REMARK UNBOUND:                -3.844
REMARK SMILES CCCCCCCCCCCCCCCCCCCCCC(=O)[O-]
REMARK SMILES IDX 12 1 11 2 10 3 9 4 8 5 7 6 6 7 5 8 4 9 3 10 2 11 1 12 13 13
REMARK SMILES IDX 14 14 15 15 16 16 17 17 18 18 19 19 20 20 21 21 22 22 23 23
REMARK SMILES IDX 24 24
REMARK H PARENT
REMARK Flexibility Score: inf
ROOT
ATOM      1  C   UNL     1     -12.070 -19.147   3.420  1.00  0.00     0.000 C 
ENDROOT
BRANCH   1   2
ATOM      2  C   UNL     1     -12.503 -18.334   4.654  1.00  0.00     0.000 C 
BRANCH   2   3
ATOM      3  C   UNL     1     -13.178 -19.197   5.734  1.00  0.00     0.000 C 
BRANCH   3   4
ATOM      4  C   UNL     1     -14.399 -18.501   6.360  1.00  0.00    -0.000 C 
BRANCH   4   5
ATOM      5  C   UNL     1     -15.565 -18.367   5.364  1.00  0.00    -0.000 C 
BRANCH   5   6
ATOM      6  C   UNL     1     -15.989 -19.714   4.759  1.00  0.00    -0.000 C 
BRANCH   6   7
ATOM      7  C   UNL     1     -16.102 -19.664   3.225  1.00  0.00    -0.000 C 
BRANCH   7   8
ATOM      8  C   UNL     1     -16.018 -21.057   2.575  1.00  0.00    -0.000 C 
BRANCH   8   9
ATOM      9  C   UNL     1     -14.631 -21.441   2.019  1.00  0.00    -0.000 C 
BRANCH   9  10
ATOM     10  C   UNL     1     -14.016 -22.723   2.614  1.00  0.00    -0.000 C 
BRANCH  10  11
ATOM     11  C   UNL     1     -13.173 -22.506   3.884  1.00  0.00    -0.003 C 
ATOM     12  C   UNL     1     -13.971 -22.722   5.169  1.00  0.00     0.004 C 
ENDBRANCH  10  11
ENDBRANCH   9  10
ENDBRANCH   8   9
ENDBRANCH   7   8
ENDBRANCH   6   7
ENDBRANCH   5   6
ENDBRANCH   4   5
ENDBRANCH   3   4
ENDBRANCH   2   3
ENDBRANCH   1   2
BRANCH   1  13
ATOM     13  C   UNL     1     -12.379 -18.493   2.062  1.00  0.00     0.000 C 
BRANCH  13  14
ATOM     14  C   UNL     1     -13.516 -17.459   2.141  1.00  0.00     0.000 C 
BRANCH  14  15
ATOM     15  C   UNL     1     -13.101 -16.066   1.633  1.00  0.00     0.000 C 
BRANCH  15  16
ATOM     16  C   UNL     1     -13.900 -14.883   2.216  1.00  0.00     0.000 C 
BRANCH  16  17
ATOM     17  C   UNL     1     -14.930 -15.314   3.273  1.00  0.00     0.000 C 
BRANCH  17  18
ATOM     18  C   UNL     1     -14.460 -15.025   4.707  1.00  0.00     0.000 C 
BRANCH  18  19
ATOM     19  C   UNL     1     -15.486 -14.222   5.521  1.00  0.00     0.000 C 
BRANCH  19  20
ATOM     20  C   UNL     1     -14.845 -12.959   6.116  1.00  0.00     0.006 C 
BRANCH  20  21
ATOM     21  C   UNL     1     -13.400 -12.758   5.636  1.00  0.00     0.053 C 
BRANCH  21  22
ATOM     22  C   UNL     1     -13.290 -11.626   4.660  1.00  0.00     0.041 C 
ATOM     23  O   UNL     1     -12.368 -11.614   3.804  1.00  0.00    -0.550 OA
ATOM     24  O   UNL     1     -14.195 -10.573   4.712  1.00  0.00    -0.550 OA
ENDBRANCH  21  22
ENDBRANCH  20  21
ENDBRANCH  19  20
ENDBRANCH  18  19
ENDBRANCH  17  18
ENDBRANCH  16  17
ENDBRANCH  15  16
ENDBRANCH  14  15
ENDBRANCH  13  14
ENDBRANCH   1  13
TORSDOF 20
ENDMDL
MODEL 7
REMARK VINA RESULT:    -2.958      3.203      7.516
REMARK INTER + INTRA:         -10.261
REMARK INTER:                  -7.200
REMARK INTRA:                  -3.061
REMARK UNBOUND:                -3.844
REMARK SMILES CCCCCCCCCCCCCCCCCCCCCC(=O)[O-]
REMARK SMILES IDX 12 1 11 2 10 3 9 4 8 5 7 6 6 7 5 8 4 9 3 10 2 11 1 12 13 13
REMARK SMILES IDX 14 14 15 15 16 16 17 17 18 18 19 19 20 20 21 21 22 22 23 23
REMARK SMILES IDX 24 24
REMARK H PARENT
REMARK Flexibility Score: inf
ROOT
ATOM      1  C   UNL     1     -15.372 -18.174   6.009  1.00  0.00     0.000 C 
ENDROOT
BRANCH   1   2
ATOM      2  C   UNL     1     -13.984 -18.583   6.535  1.00  0.00     0.000 C 
BRANCH   2   3
ATOM      3  C   UNL     1     -13.196 -19.451   5.537  1.00  0.00     0.000 C 
BRANCH   3   4
ATOM      4  C   UNL     1     -11.948 -18.733   4.996  1.00  0.00    -0.000 C 
BRANCH   4   5
ATOM      5  C   UNL     1     -11.733 -18.995   3.495  1.00  0.00    -0.000 C 
BRANCH   5   6
ATOM      6  C   UNL     1     -12.979 -19.573   2.807  1.00  0.00    -0.000 C 
BRANCH   6   7
ATOM      7  C   UNL     1     -12.634 -20.655   1.768  1.00  0.00    -0.000 C 
BRANCH   7   8
ATOM      8  C   UNL     1     -12.661 -22.077   2.357  1.00  0.00    -0.000 C 
BRANCH   8   9
ATOM      9  C   UNL     1     -13.945 -22.445   3.129  1.00  0.00    -0.000 C 
BRANCH   9  10
ATOM     10  C   UNL     1     -13.727 -22.922   4.579  1.00  0.00    -0.000 C 
BRANCH  10  11
ATOM     11  C   UNL     1     -14.971 -22.832   5.481  1.00  0.00    -0.003 C 
ATOM     12  C   UNL     1     -15.991 -21.808   4.986  1.00  0.00     0.004 C 
ENDBRANCH  10  11
ENDBRANCH   9  10
ENDBRANCH   8   9
ENDBRANCH   7   8
ENDBRANCH   6   7
ENDBRANCH   5   6
ENDBRANCH   4   5
ENDBRANCH   3   4
ENDBRANCH   2   3
ENDBRANCH   1   2
BRANCH   1  13
ATOM     13  C   UNL     1     -15.480 -16.725   5.503  1.00  0.00     0.000 C 
BRANCH  13  14
ATOM     14  C   UNL     1     -15.248 -16.601   3.987  1.00  0.00     0.000 C 
BRANCH  14  15
ATOM     15  C   UNL     1     -13.910 -15.924   3.635  1.00  0.00     0.000 C 
BRANCH  15  16
ATOM     16  C   UNL     1     -13.501 -15.998   2.150  1.00  0.00     0.000 C 
BRANCH  16  17
ATOM     17  C   UNL     1     -12.938 -14.672   1.613  1.00  0.00     0.000 C 
BRANCH  17  18
ATOM     18  C   UNL     1     -14.007 -13.573   1.519  1.00  0.00     0.000 C 
BRANCH  18  19
ATOM     19  C   UNL     1     -13.446 -12.170   1.794  1.00  0.00     0.000 C 
BRANCH  19  20
ATOM     20  C   UNL     1     -12.612 -12.156   3.084  1.00  0.00     0.006 C 
BRANCH  20  21
ATOM     21  C   UNL     1     -13.273 -11.331   4.196  1.00  0.00     0.053 C 
BRANCH  21  22
ATOM     22  C   UNL     1     -13.974 -12.201   5.194  1.00  0.00     0.041 C 
ATOM     23  O   UNL     1     -13.348 -13.120   5.785  1.00  0.00    -0.550 OA
ATOM     24  O   UNL     1     -15.325 -12.011   5.455  1.00  0.00    -0.550 OA
ENDBRANCH  21  22
ENDBRANCH  20  21
ENDBRANCH  19  20
ENDBRANCH  18  19
ENDBRANCH  17  18
ENDBRANCH  16  17
ENDBRANCH  15  16
ENDBRANCH  14  15
ENDBRANCH  13  14
ENDBRANCH   1  13
TORSDOF 20
ENDMDL
MODEL 8
REMARK VINA RESULT:    -2.922      1.140      2.006
REMARK INTER + INTRA:         -10.183
REMARK INTER:                  -6.687
REMARK INTRA:                  -3.496
REMARK UNBOUND:                -3.844
REMARK SMILES CCCCCCCCCCCCCCCCCCCCCC(=O)[O-]
REMARK SMILES IDX 12 1 11 2 10 3 9 4 8 5 7 6 6 7 5 8 4 9 3 10 2 11 1 12 13 13
REMARK SMILES IDX 14 14 15 15 16 16 17 17 18 18 19 19 20 20 21 21 22 22 23 23
REMARK SMILES IDX 24 24
REMARK H PARENT
REMARK Flexibility Score: inf
ROOT
ATOM      1  C   UNL     1     -13.099 -18.979   5.781  1.00  0.00     0.000 C 
ENDROOT
BRANCH   1   2
ATOM      2  C   UNL     1     -14.415 -19.661   5.363  1.00  0.00     0.000 C 
BRANCH   2   3
ATOM      3  C   UNL     1     -15.649 -18.767   5.581  1.00  0.00     0.000 C 
BRANCH   3   4
ATOM      4  C   UNL     1     -15.451 -17.767   6.733  1.00  0.00    -0.000 C 
BRANCH   4   5
ATOM      5  C   UNL     1     -15.879 -16.342   6.344  1.00  0.00    -0.000 C 
BRANCH   5   6
ATOM      6  C   UNL     1     -15.529 -15.990   4.890  1.00  0.00    -0.000 C 
BRANCH   6   7
ATOM      7  C   UNL     1     -14.295 -15.078   4.783  1.00  0.00    -0.000 C 
BRANCH   7   8
ATOM      8  C   UNL     1     -14.550 -13.660   5.327  1.00  0.00    -0.000 C 
BRANCH   8   9
ATOM      9  C   UNL     1     -13.291 -12.788   5.510  1.00  0.00    -0.000 C 
BRANCH   9  10
ATOM     10  C   UNL     1     -13.193 -11.568   4.573  1.00  0.00    -0.000 C 
BRANCH  10  11
ATOM     11  C   UNL     1     -13.550 -11.853   3.103  1.00  0.00    -0.003 C 
ATOM     12  C   UNL     1     -12.528 -12.752   2.408  1.00  0.00     0.004 C 
ENDBRANCH  10  11
ENDBRANCH   9  10
ENDBRANCH   8   9
ENDBRANCH   7   8
ENDBRANCH   6   7
ENDBRANCH   5   6
ENDBRANCH   4   5
ENDBRANCH   3   4
ENDBRANCH   2   3
ENDBRANCH   1   2
BRANCH   1  13
ATOM     13  C   UNL     1     -12.361 -18.235   4.655  1.00  0.00     0.000 C 
BRANCH  13  14
ATOM     14  C   UNL     1     -11.952 -19.158   3.495  1.00  0.00     0.000 C 
BRANCH  14  15
ATOM     15  C   UNL     1     -12.497 -18.693   2.131  1.00  0.00     0.000 C 
BRANCH  15  16
ATOM     16  C   UNL     1     -13.643 -17.663   2.192  1.00  0.00     0.000 C 
BRANCH  16  17
ATOM     17  C   UNL     1     -15.016 -18.269   1.857  1.00  0.00     0.000 C 
BRANCH  17  18
ATOM     18  C   UNL     1     -14.910 -19.698   1.301  1.00  0.00     0.000 C 
BRANCH  18  19
ATOM     19  C   UNL     1     -15.697 -20.721   2.133  1.00  0.00     0.000 C 
BRANCH  19  20
ATOM     20  C   UNL     1     -15.073 -22.120   2.013  1.00  0.00     0.006 C 
BRANCH  20  21
ATOM     21  C   UNL     1     -13.904 -22.323   2.988  1.00  0.00     0.053 C 
BRANCH  21  22
ATOM     22  C   UNL     1     -12.705 -22.906   2.305  1.00  0.00     0.041 C 
ATOM     23  O   UNL     1     -11.977 -22.184   1.573  1.00  0.00    -0.550 OA
ATOM     24  O   UNL     1     -12.402 -24.252   2.459  1.00  0.00    -0.550 OA
ENDBRANCH  21  22
ENDBRANCH  20  21
ENDBRANCH  19  20
ENDBRANCH  18  19
ENDBRANCH  17  18
ENDBRANCH  16  17
ENDBRANCH  15  16
ENDBRANCH  14  15
ENDBRANCH  13  14
ENDBRANCH   1  13
TORSDOF 20
ENDMDL
MODEL 9
REMARK VINA RESULT:    -2.919      3.369      7.017
REMARK INTER + INTRA:         -10.176
REMARK INTER:                  -6.616
REMARK INTRA:                  -3.560
REMARK UNBOUND:                -3.844
REMARK SMILES CCCCCCCCCCCCCCCCCCCCCC(=O)[O-]
REMARK SMILES IDX 12 1 11 2 10 3 9 4 8 5 7 6 6 7 5 8 4 9 3 10 2 11 1 12 13 13
REMARK SMILES IDX 14 14 15 15 16 16 17 17 18 18 19 19 20 20 21 21 22 22 23 23
REMARK SMILES IDX 24 24
REMARK H PARENT
REMARK Flexibility Score: inf
ROOT
ATOM      1  C   UNL     1     -12.335 -18.973   5.251  1.00  0.00     0.000 C 
ENDROOT
BRANCH   1   2
ATOM      2  C   UNL     1     -13.588 -19.122   6.133  1.00  0.00     0.000 C 
BRANCH   2   3
ATOM      3  C   UNL     1     -14.628 -18.014   5.889  1.00  0.00     0.000 C 
BRANCH   3   4
ATOM      4  C   UNL     1     -16.049 -18.575   5.710  1.00  0.00    -0.000 C 
BRANCH   4   5
ATOM      5  C   UNL     1     -16.058 -19.888   4.907  1.00  0.00    -0.000 C 
BRANCH   5   6
ATOM      6  C   UNL     1     -15.836 -19.667   3.402  1.00  0.00    -0.000 C 
BRANCH   6   7
ATOM      7  C   UNL     1     -15.249 -20.906   2.703  1.00  0.00    -0.000 C 
BRANCH   7   8
ATOM      8  C   UNL     1     -14.671 -21.933   3.693  1.00  0.00    -0.000 C 
BRANCH   8   9
ATOM      9  C   UNL     1     -13.148 -22.157   3.593  1.00  0.00    -0.000 C 
BRANCH   9  10
ATOM     10  C   UNL     1     -12.715 -23.372   2.749  1.00  0.00    -0.000 C 
BRANCH  10  11
ATOM     11  C   UNL     1     -12.536 -23.083   1.247  1.00  0.00    -0.003 C 
ATOM     12  C   UNL     1     -11.451 -22.044   0.969  1.00  0.00     0.004 C 
ENDBRANCH  10  11
ENDBRANCH   9  10
ENDBRANCH   8   9
ENDBRANCH   7   8
ENDBRANCH   6   7
ENDBRANCH   5   6
ENDBRANCH   4   5
ENDBRANCH   3   4
ENDBRANCH   2   3
ENDBRANCH   1   2
BRANCH   1  13
ATOM     13  C   UNL     1     -12.518 -18.100   3.996  1.00  0.00     0.000 C 
BRANCH  13  14
ATOM     14  C   UNL     1     -12.151 -18.837   2.696  1.00  0.00     0.000 C 
BRANCH  14  15
ATOM     15  C   UNL     1     -12.758 -18.183   1.440  1.00  0.00     0.000 C 
BRANCH  15  16
ATOM     16  C   UNL     1     -13.754 -17.036   1.705  1.00  0.00     0.000 C 
BRANCH  16  17
ATOM     17  C   UNL     1     -13.233 -15.667   1.238  1.00  0.00     0.000 C 
BRANCH  17  18
ATOM     18  C   UNL     1     -13.363 -14.586   2.322  1.00  0.00     0.000 C 
BRANCH  18  19
ATOM     19  C   UNL     1     -14.628 -14.749   3.178  1.00  0.00     0.000 C 
BRANCH  19  20
ATOM     20  C   UNL     1     -14.285 -14.712   4.675  1.00  0.00     0.006 C 
BRANCH  20  21
ATOM     21  C   UNL     1     -14.673 -13.379   5.330  1.00  0.00     0.053 C 
BRANCH  21  22
ATOM     22  C   UNL     1     -13.507 -12.443   5.420  1.00  0.00     0.041 C 
ATOM     23  O   UNL     1     -13.462 -11.413   4.698  1.00  0.00    -0.550 OA
ATOM     24  O   UNL     1     -12.458 -12.721   6.287  1.00  0.00    -0.550 OA
ENDBRANCH  21  22
ENDBRANCH  20  21
ENDBRANCH  19  20
ENDBRANCH  18  19
ENDBRANCH  17  18
ENDBRANCH  16  17
ENDBRANCH  15  16
ENDBRANCH  14  15
ENDBRANCH  13  14
ENDBRANCH   1  13
TORSDOF 20
ENDMDL
