MODEL 1
REMARK VINA RESULT:    -2.552      0.000      0.000
REMARK INTER + INTRA:         -11.397
REMARK INTER:                  -6.430
REMARK INTRA:                  -4.967
REMARK UNBOUND:                -4.967
REMARK SMILES CCCCCCCCCCCCCCCCCCCCCCCCCCCC(=O)[O-]
REMARK SMILES IDX 15 1 16 2 17 3 18 4 19 5 20 6 21 7 22 8 23 9 24 10 25 11
REMARK SMILES IDX 26 12 27 13 28 14 29 15 30 16 14 17 13 18 12 19 11 20 10 21
REMARK SMILES IDX 9 22 8 23 7 24 6 25 5 26 4 27 3 28 2 29 1 30
REMARK H PARENT
REMARK Flexibility Score: inf
ROOT
ATOM      1  C   UNL     1      54.202 -29.912  26.196  1.00  0.00     0.000 C 
ENDROOT
BRANCH   1   2
ATOM      2  C   UNL     1      52.762 -30.212  26.654  1.00  0.00     0.000 C 
BRANCH   2   3
ATOM      3  C   UNL     1      52.428 -31.710  26.645  1.00  0.00     0.000 C 
BRANCH   3   4
ATOM      4  C   UNL     1      51.191 -31.991  25.784  1.00  0.00     0.000 C 
BRANCH   4   5
ATOM      5  C   UNL     1      51.398 -33.240  24.913  1.00  0.00     0.000 C 
BRANCH   5   6
ATOM      6  C   UNL     1      51.372 -32.925  23.409  1.00  0.00     0.000 C 
BRANCH   6   7
ATOM      7  C   UNL     1      51.517 -31.422  23.114  1.00  0.00     0.000 C 
BRANCH   7   8
ATOM      8  C   UNL     1      50.222 -30.793  22.566  1.00  0.00     0.000 C 
BRANCH   8   9
ATOM      9  C   UNL     1      50.109 -29.271  22.766  1.00  0.00     0.000 C 
BRANCH   9  10
ATOM     10  C   UNL     1      50.232 -28.846  24.236  1.00  0.00     0.000 C 
BRANCH  10  11
ATOM     11  C   UNL     1      51.185 -27.651  24.383  1.00  0.00     0.000 C 
BRANCH  11  12
ATOM     12  C   UNL     1      52.467 -27.802  23.547  1.00  0.00     0.006 C 
BRANCH  12  13
ATOM     13  C   UNL     1      53.269 -26.501  23.375  1.00  0.00     0.053 C 
BRANCH  13  14
ATOM     14  C   UNL     1      54.295 -26.327  24.452  1.00  0.00     0.041 C 
ATOM     15  O   UNL     1      54.069 -25.559  25.423  1.00  0.00    -0.550 OA
ATOM     16  O   UNL     1      55.487 -27.038  24.399  1.00  0.00    -0.550 OA
ENDBRANCH  13  14
ENDBRANCH  12  13
ENDBRANCH  11  12
ENDBRANCH  10  11
ENDBRANCH   9  10
ENDBRANCH   8   9
ENDBRANCH   7   8
ENDBRANCH   6   7
ENDBRANCH   5   6
ENDBRANCH   4   5
ENDBRANCH   3   4
ENDBRANCH   2   3
ENDBRANCH   1   2
BRANCH   1  17
ATOM     17  C   UNL     1      54.549 -30.399  24.776  1.00  0.00     0.000 C 
BRANCH  17  18
ATOM     18  C   UNL     1      55.593 -31.526  24.766  1.00  0.00     0.000 C 
BRANCH  18  19
ATOM     19  C   UNL     1      55.033 -32.796  24.108  1.00  0.00     0.000 C 
BRANCH  19  20
ATOM     20  C   UNL     1      54.981 -33.995  25.074  1.00  0.00     0.000 C 
BRANCH  20  21
ATOM     21  C   UNL     1      54.637 -35.344  24.417  1.00  0.00     0.000 C 
BRANCH  21  22
ATOM     22  C   UNL     1      54.500 -35.242  22.889  1.00  0.00    -0.000 C 
BRANCH  22  23
ATOM     23  C   UNL     1      55.538 -36.096  22.141  1.00  0.00    -0.000 C 
BRANCH  23  24
ATOM     24  C   UNL     1      56.699 -36.624  23.006  1.00  0.00    -0.000 C 
BRANCH  24  25
ATOM     25  C   UNL     1      58.081 -36.525  22.325  1.00  0.00    -0.000 C 
BRANCH  25  26
ATOM     26  C   UNL     1      59.144 -35.912  23.253  1.00  0.00    -0.000 C 
BRANCH  26  27
ATOM     27  C   UNL     1      58.538 -35.028  24.359  1.00  0.00    -0.000 C 
BRANCH  27  28
ATOM     28  C   UNL     1      58.635 -33.512  24.105  1.00  0.00    -0.000 C 
BRANCH  28  29
ATOM     29  C   UNL     1      59.654 -32.815  25.017  1.00  0.00    -0.003 C 
ATOM     30  C   UNL     1      60.871 -32.349  24.224  1.00  0.00     0.004 C 
ENDBRANCH  28  29
ENDBRANCH  27  28
ENDBRANCH  26  27
ENDBRANCH  25  26
ENDBRANCH  24  25
ENDBRANCH  23  24
ENDBRANCH  22  23
ENDBRANCH  21  22
ENDBRANCH  20  21
ENDBRANCH  19  20
ENDBRANCH  18  19
ENDBRANCH  17  18
ENDBRANCH   1  17
TORSDOF 26
ENDMDL
MODEL 2
REMARK VINA RESULT:    -2.508      2.385      6.043
REMARK INTER + INTRA:         -11.288
REMARK INTER:                  -5.318
REMARK INTRA:                  -5.970
REMARK UNBOUND:                -4.967
REMARK SMILES CCCCCCCCCCCCCCCCCCCCCCCCCCCC(=O)[O-]
REMARK SMILES IDX 15 1 16 2 17 3 18 4 19 5 20 6 21 7 22 8 23 9 24 10 25 11
REMARK SMILES IDX 26 12 27 13 28 14 29 15 30 16 14 17 13 18 12 19 11 20 10 21
REMARK SMILES IDX 9 22 8 23 7 24 6 25 5 26 4 27 3 28 2 29 1 30
REMARK H PARENT
REMARK Flexibility Score: inf
ROOT
ATOM      1  C   UNL     1      54.592 -32.554  25.333  1.00  0.00     0.000 C 
ENDROOT
BRANCH   1   2
ATOM      2  C   UNL     1      55.413 -33.686  24.689  1.00  0.00     0.000 C 
BRANCH   2   3
ATOM      3  C   UNL     1      55.157 -33.830  23.182  1.00  0.00     0.000 C 
BRANCH   3   4
ATOM      4  C   UNL     1      55.087 -35.307  22.776  1.00  0.00     0.000 C 
BRANCH   4   5
ATOM      5  C   UNL     1      55.948 -36.176  23.707  1.00  0.00     0.000 C 
BRANCH   5   6
ATOM      6  C   UNL     1      56.956 -37.045  22.941  1.00  0.00     0.000 C 
BRANCH   6   7
ATOM      7  C   UNL     1      58.414 -36.760  23.342  1.00  0.00     0.000 C 
BRANCH   7   8
ATOM      8  C   UNL     1      58.777 -35.266  23.255  1.00  0.00     0.000 C 
BRANCH   8   9
ATOM      9  C   UNL     1      60.053 -34.866  24.018  1.00  0.00     0.000 C 
BRANCH   9  10
ATOM     10  C   UNL     1      60.127 -33.362  24.320  1.00  0.00     0.000 C 
BRANCH  10  11
ATOM     11  C   UNL     1      58.780 -32.681  24.039  1.00  0.00     0.000 C 
BRANCH  11  12
ATOM     12  C   UNL     1      58.901 -31.154  23.891  1.00  0.00     0.006 C 
BRANCH  12  13
ATOM     13  C   UNL     1      57.597 -30.452  23.477  1.00  0.00     0.053 C 
BRANCH  13  14
ATOM     14  C   UNL     1      56.949 -29.746  24.628  1.00  0.00     0.041 C 
ATOM     15  O   UNL     1      57.421 -29.863  25.789  1.00  0.00    -0.550 OA
ATOM     16  O   UNL     1      55.843 -28.935  24.414  1.00  0.00    -0.550 OA
ENDBRANCH  13  14
ENDBRANCH  12  13
ENDBRANCH  11  12
ENDBRANCH  10  11
ENDBRANCH   9  10
ENDBRANCH   8   9
ENDBRANCH   7   8
ENDBRANCH   6   7
ENDBRANCH   5   6
ENDBRANCH   4   5
ENDBRANCH   3   4
ENDBRANCH   2   3
ENDBRANCH   1   2
BRANCH   1  17
ATOM     17  C   UNL     1      53.747 -31.719  24.351  1.00  0.00     0.000 C 
BRANCH  17  18
ATOM     18  C   UNL     1      52.236 -31.870  24.580  1.00  0.00     0.000 C 
BRANCH  18  19
ATOM     19  C   UNL     1      51.498 -32.145  23.260  1.00  0.00     0.000 C 
BRANCH  19  20
ATOM     20  C   UNL     1      50.665 -33.439  23.301  1.00  0.00     0.000 C 
BRANCH  20  21
ATOM     21  C   UNL     1      51.468 -34.736  23.093  1.00  0.00     0.000 C 
BRANCH  21  22
ATOM     22  C   UNL     1      51.260 -35.752  24.229  1.00  0.00    -0.000 C 
BRANCH  22  23
ATOM     23  C   UNL     1      52.262 -35.568  25.382  1.00  0.00    -0.000 C 
BRANCH  23  24
ATOM     24  C   UNL     1      52.757 -36.873  26.034  1.00  0.00    -0.000 C 
BRANCH  24  25
ATOM     25  C   UNL     1      54.102 -36.729  26.778  1.00  0.00    -0.000 C 
BRANCH  25  26
ATOM     26  C   UNL     1      54.110 -35.529  27.739  1.00  0.00    -0.000 C 
BRANCH  26  27
ATOM     27  C   UNL     1      55.530 -35.071  28.118  1.00  0.00    -0.000 C 
BRANCH  27  28
ATOM     28  C   UNL     1      56.648 -36.074  27.778  1.00  0.00    -0.000 C 
BRANCH  28  29
ATOM     29  C   UNL     1      57.753 -35.467  26.902  1.00  0.00    -0.003 C 
ATOM     30  C   UNL     1      58.124 -34.066  27.379  1.00  0.00     0.004 C 
ENDBRANCH  28  29
ENDBRANCH  27  28
ENDBRANCH  26  27
ENDBRANCH  25  26
ENDBRANCH  24  25
ENDBRANCH  23  24
ENDBRANCH  22  23
ENDBRANCH  21  22
ENDBRANCH  20  21
ENDBRANCH  19  20
ENDBRANCH  18  19
ENDBRANCH  17  18
ENDBRANCH   1  17
TORSDOF 26
ENDMDL
MODEL 3
REMARK VINA RESULT:    -2.479      1.863      3.516
REMARK INTER + INTRA:         -11.215
REMARK INTER:                  -6.046
REMARK INTRA:                  -5.169
REMARK UNBOUND:                -4.967
REMARK SMILES CCCCCCCCCCCCCCCCCCCCCCCCCCCC(=O)[O-]
REMARK SMILES IDX 15 1 16 2 17 3 18 4 19 5 20 6 21 7 22 8 23 9 24 10 25 11
REMARK SMILES IDX 26 12 27 13 28 14 29 15 30 16 14 17 13 18 12 19 11 20 10 21
REMARK SMILES IDX 9 22 8 23 7 24 6 25 5 26 4 27 3 28 2 29 1 30
REMARK H PARENT
REMARK Flexibility Score: inf
ROOT
ATOM      1  C   UNL     1      52.631 -31.277  25.685  1.00  0.00     0.000 C 
ENDROOT
BRANCH   1   2
ATOM      2  C   UNL     1      51.252 -31.778  25.219  1.00  0.00     0.000 C 
BRANCH   2   3
ATOM      3  C   UNL     1      51.300 -32.487  23.857  1.00  0.00     0.000 C 
BRANCH   3   4
ATOM      4  C   UNL     1      50.693 -31.606  22.759  1.00  0.00     0.000 C 
BRANCH   4   5
ATOM      5  C   UNL     1      49.875 -30.455  23.365  1.00  0.00     0.000 C 
BRANCH   5   6
ATOM      6  C   UNL     1      50.308 -29.078  22.838  1.00  0.00     0.000 C 
BRANCH   6   7
ATOM      7  C   UNL     1      51.021 -28.229  23.905  1.00  0.00     0.000 C 
BRANCH   7   8
ATOM      8  C   UNL     1      52.522 -28.042  23.617  1.00  0.00     0.000 C 
BRANCH   8   9
ATOM      9  C   UNL     1      53.396 -27.818  24.864  1.00  0.00     0.000 C 
BRANCH   9  10
ATOM     10  C   UNL     1      54.892 -28.036  24.598  1.00  0.00     0.000 C 
BRANCH  10  11
ATOM     11  C   UNL     1      55.646 -28.319  25.906  1.00  0.00     0.000 C 
BRANCH  11  12
ATOM     12  C   UNL     1      57.172 -28.378  25.716  1.00  0.00     0.006 C 
BRANCH  12  13
ATOM     13  C   UNL     1      57.714 -29.778  25.383  1.00  0.00     0.053 C 
BRANCH  13  14
ATOM     14  C   UNL     1      58.081 -29.909  23.937  1.00  0.00     0.041 C 
ATOM     15  O   UNL     1      59.012 -29.212  23.455  1.00  0.00    -0.550 OA
ATOM     16  O   UNL     1      57.417 -30.823  23.130  1.00  0.00    -0.550 OA
ENDBRANCH  13  14
ENDBRANCH  12  13
ENDBRANCH  11  12
ENDBRANCH  10  11
ENDBRANCH   9  10
ENDBRANCH   8   9
ENDBRANCH   7   8
ENDBRANCH   6   7
ENDBRANCH   5   6
ENDBRANCH   4   5
ENDBRANCH   3   4
ENDBRANCH   2   3
ENDBRANCH   1   2
BRANCH   1  17
ATOM     17  C   UNL     1      53.794 -31.570  24.717  1.00  0.00     0.000 C 
BRANCH  17  18
ATOM     18  C   UNL     1      55.024 -32.165  25.419  1.00  0.00     0.000 C 
BRANCH  18  19
ATOM     19  C   UNL     1      54.625 -32.913  26.700  1.00  0.00     0.000 C 
BRANCH  19  20
ATOM     20  C   UNL     1      54.554 -34.439  26.503  1.00  0.00     0.000 C 
BRANCH  20  21
ATOM     21  C   UNL     1      53.184 -34.971  26.042  1.00  0.00     0.000 C 
BRANCH  21  22
ATOM     22  C   UNL     1      53.297 -35.958  24.868  1.00  0.00    -0.000 C 
BRANCH  22  23
ATOM     23  C   UNL     1      53.250 -35.259  23.498  1.00  0.00    -0.000 C 
BRANCH  23  24
ATOM     24  C   UNL     1      54.623 -34.892  22.903  1.00  0.00    -0.000 C 
BRANCH  24  25
ATOM     25  C   UNL     1      55.243 -36.003  22.029  1.00  0.00    -0.000 C 
BRANCH  25  26
ATOM     26  C   UNL     1      56.643 -36.414  22.516  1.00  0.00    -0.000 C 
BRANCH  26  27
ATOM     27  C   UNL     1      56.763 -36.431  24.051  1.00  0.00    -0.000 C 
BRANCH  27  28
ATOM     28  C   UNL     1      57.972 -35.664  24.617  1.00  0.00    -0.000 C 
BRANCH  28  29
ATOM     29  C   UNL     1      57.959 -34.172  24.255  1.00  0.00    -0.003 C 
ATOM     30  C   UNL     1      59.362 -33.674  23.922  1.00  0.00     0.004 C 
ENDBRANCH  28  29
ENDBRANCH  27  28
ENDBRANCH  26  27
ENDBRANCH  25  26
ENDBRANCH  24  25
ENDBRANCH  23  24
ENDBRANCH  22  23
ENDBRANCH  21  22
ENDBRANCH  20  21
ENDBRANCH  19  20
ENDBRANCH  18  19
ENDBRANCH  17  18
ENDBRANCH   1  17
TORSDOF 26
ENDMDL
MODEL 4
REMARK VINA RESULT:    -2.465      1.924      5.293
REMARK INTER + INTRA:         -11.179
REMARK INTER:                  -6.278
REMARK INTRA:                  -4.901
REMARK UNBOUND:                -4.967
REMARK SMILES CCCCCCCCCCCCCCCCCCCCCCCCCCCC(=O)[O-]
REMARK SMILES IDX 15 1 16 2 17 3 18 4 19 5 20 6 21 7 22 8 23 9 24 10 25 11
REMARK SMILES IDX 26 12 27 13 28 14 29 15 30 16 14 17 13 18 12 19 11 20 10 21
REMARK SMILES IDX 9 22 8 23 7 24 6 25 5 26 4 27 3 28 2 29 1 30
REMARK H PARENT
REMARK Flexibility Score: inf
ROOT
ATOM      1  C   UNL     1      57.557 -34.574  24.182  1.00  0.00     0.000 C 
ENDROOT
BRANCH   1   2
ATOM      2  C   UNL     1      56.586 -35.732  23.883  1.00  0.00     0.000 C 
BRANCH   2   3
ATOM      3  C   UNL     1      56.327 -35.926  22.382  1.00  0.00     0.000 C 
BRANCH   3   4
ATOM      4  C   UNL     1      54.847 -35.704  22.048  1.00  0.00     0.000 C 
BRANCH   4   5
ATOM      5  C   UNL     1      54.003 -35.600  23.328  1.00  0.00     0.000 C 
BRANCH   5   6
ATOM      6  C   UNL     1      52.634 -34.949  23.083  1.00  0.00     0.000 C 
BRANCH   6   7
ATOM      7  C   UNL     1      51.780 -34.860  24.359  1.00  0.00     0.000 C 
BRANCH   7   8
ATOM      8  C   UNL     1      50.798 -33.673  24.341  1.00  0.00     0.000 C 
BRANCH   8   9
ATOM      9  C   UNL     1      50.172 -33.374  22.967  1.00  0.00     0.000 C 
BRANCH   9  10
ATOM     10  C   UNL     1      50.063 -31.871  22.670  1.00  0.00     0.000 C 
BRANCH  10  11
ATOM     11  C   UNL     1      51.374 -31.149  23.012  1.00  0.00     0.000 C 
BRANCH  11  12
ATOM     12  C   UNL     1      51.161 -29.677  23.406  1.00  0.00     0.006 C 
BRANCH  12  13
ATOM     13  C   UNL     1      52.431 -28.962  23.897  1.00  0.00     0.053 C 
BRANCH  13  14
ATOM     14  C   UNL     1      52.345 -27.478  23.719  1.00  0.00     0.041 C 
ATOM     15  O   UNL     1      53.308 -26.844  23.214  1.00  0.00    -0.550 OA
ATOM     16  O   UNL     1      51.189 -26.799  24.081  1.00  0.00    -0.550 OA
ENDBRANCH  13  14
ENDBRANCH  12  13
ENDBRANCH  11  12
ENDBRANCH  10  11
ENDBRANCH   9  10
ENDBRANCH   8   9
ENDBRANCH   7   8
ENDBRANCH   6   7
ENDBRANCH   5   6
ENDBRANCH   4   5
ENDBRANCH   3   4
ENDBRANCH   2   3
ENDBRANCH   1   2
BRANCH   1  17
ATOM     17  C   UNL     1      56.902 -33.309  24.771  1.00  0.00     0.000 C 
BRANCH  17  18
ATOM     18  C   UNL     1      56.147 -32.480  23.722  1.00  0.00     0.000 C 
BRANCH  18  19
ATOM     19  C   UNL     1      54.711 -32.180  24.180  1.00  0.00     0.000 C 
BRANCH  19  20
ATOM     20  C   UNL     1      54.438 -32.638  25.625  1.00  0.00     0.000 C 
BRANCH  20  21
ATOM     21  C   UNL     1      53.382 -31.810  26.380  1.00  0.00     0.000 C 
BRANCH  21  22
ATOM     22  C   UNL     1      53.777 -31.537  27.841  1.00  0.00    -0.000 C 
BRANCH  22  23
ATOM     23  C   UNL     1      53.830 -30.035  28.172  1.00  0.00    -0.000 C 
BRANCH  23  24
ATOM     24  C   UNL     1      54.174 -29.115  26.984  1.00  0.00    -0.000 C 
BRANCH  24  25
ATOM     25  C   UNL     1      55.655 -28.682  26.938  1.00  0.00    -0.000 C 
BRANCH  25  26
ATOM     26  C   UNL     1      56.487 -29.555  25.983  1.00  0.00    -0.000 C 
BRANCH  26  27
ATOM     27  C   UNL     1      56.661 -28.923  24.589  1.00  0.00    -0.000 C 
BRANCH  27  28
ATOM     28  C   UNL     1      56.463 -27.397  24.539  1.00  0.00    -0.000 C 
BRANCH  28  29
ATOM     29  C   UNL     1      57.787 -26.621  24.486  1.00  0.00    -0.003 C 
ATOM     30  C   UNL     1      58.956 -27.550  24.173  1.00  0.00     0.004 C 
ENDBRANCH  28  29
ENDBRANCH  27  28
ENDBRANCH  26  27
ENDBRANCH  25  26
ENDBRANCH  24  25
ENDBRANCH  23  24
ENDBRANCH  22  23
ENDBRANCH  21  22
ENDBRANCH  20  21
ENDBRANCH  19  20
ENDBRANCH  18  19
ENDBRANCH  17  18
ENDBRANCH   1  17
TORSDOF 26
ENDMDL
MODEL 5
REMARK VINA RESULT:    -2.465      2.007      4.584
REMARK INTER + INTRA:         -11.178
REMARK INTER:                  -5.808
REMARK INTRA:                  -5.371
REMARK UNBOUND:                -4.967
REMARK SMILES CCCCCCCCCCCCCCCCCCCCCCCCCCCC(=O)[O-]
REMARK SMILES IDX 15 1 16 2 17 3 18 4 19 5 20 6 21 7 22 8 23 9 24 10 25 11
REMARK SMILES IDX 26 12 27 13 28 14 29 15 30 16 14 17 13 18 12 19 11 20 10 21
REMARK SMILES IDX 9 22 8 23 7 24 6 25 5 26 4 27 3 28 2 29 1 30
REMARK H PARENT
REMARK Flexibility Score: inf
ROOT
ATOM      1  C   UNL     1      52.834 -31.651  23.907  1.00  0.00     0.000 C 
ENDROOT
BRANCH   1   2
ATOM      2  C   UNL     1      52.821 -32.092  25.383  1.00  0.00     0.000 C 
BRANCH   2   3
ATOM      3  C   UNL     1      54.203 -32.525  25.893  1.00  0.00     0.000 C 
BRANCH   3   4
ATOM      4  C   UNL     1      54.740 -31.534  26.931  1.00  0.00     0.000 C 
BRANCH   4   5
ATOM      5  C   UNL     1      56.171 -31.901  27.355  1.00  0.00     0.000 C 
BRANCH   5   6
ATOM      6  C   UNL     1      56.771 -33.027  26.499  1.00  0.00     0.000 C 
BRANCH   6   7
ATOM      7  C   UNL     1      57.963 -32.557  25.647  1.00  0.00     0.000 C 
BRANCH   7   8
ATOM      8  C   UNL     1      57.530 -31.804  24.376  1.00  0.00     0.000 C 
BRANCH   8   9
ATOM      9  C   UNL     1      58.134 -30.397  24.221  1.00  0.00     0.000 C 
BRANCH   9  10
ATOM     10  C   UNL     1      57.075 -29.286  24.193  1.00  0.00     0.000 C 
BRANCH  10  11
ATOM     11  C   UNL     1      56.807 -28.749  25.606  1.00  0.00     0.000 C 
BRANCH  11  12
ATOM     12  C   UNL     1      55.414 -28.113  25.751  1.00  0.00     0.006 C 
BRANCH  12  13
ATOM     13  C   UNL     1      54.411 -28.529  24.662  1.00  0.00     0.053 C 
BRANCH  13  14
ATOM     14  C   UNL     1      53.774 -27.345  24.003  1.00  0.00     0.041 C 
ATOM     15  O   UNL     1      52.692 -27.477  23.374  1.00  0.00    -0.550 OA
ATOM     16  O   UNL     1      54.357 -26.089  24.111  1.00  0.00    -0.550 OA
ENDBRANCH  13  14
ENDBRANCH  12  13
ENDBRANCH  11  12
ENDBRANCH  10  11
ENDBRANCH   9  10
ENDBRANCH   8   9
ENDBRANCH   7   8
ENDBRANCH   6   7
ENDBRANCH   5   6
ENDBRANCH   4   5
ENDBRANCH   3   4
ENDBRANCH   2   3
ENDBRANCH   1   2
BRANCH   1  17
ATOM     17  C   UNL     1      51.495 -31.821  23.163  1.00  0.00     0.000 C 
BRANCH  17  18
ATOM     18  C   UNL     1      50.493 -32.700  23.924  1.00  0.00     0.000 C 
BRANCH  18  19
ATOM     19  C   UNL     1      49.928 -33.808  23.021  1.00  0.00     0.000 C 
BRANCH  19  20
ATOM     20  C   UNL     1      50.755 -35.106  23.082  1.00  0.00     0.000 C 
BRANCH  20  21
ATOM     21  C   UNL     1      51.350 -35.434  24.463  1.00  0.00     0.000 C 
BRANCH  21  22
ATOM     22  C   UNL     1      52.874 -35.632  24.421  1.00  0.00    -0.000 C 
BRANCH  22  23
ATOM     23  C   UNL     1      53.499 -35.151  23.100  1.00  0.00    -0.000 C 
BRANCH  23  24
ATOM     24  C   UNL     1      55.031 -34.983  23.124  1.00  0.00    -0.000 C 
BRANCH  24  25
ATOM     25  C   UNL     1      55.790 -36.047  22.302  1.00  0.00    -0.000 C 
BRANCH  25  26
ATOM     26  C   UNL     1      56.870 -36.762  23.131  1.00  0.00    -0.000 C 
BRANCH  26  27
ATOM     27  C   UNL     1      57.331 -35.943  24.351  1.00  0.00    -0.000 C 
BRANCH  27  28
ATOM     28  C   UNL     1      57.301 -36.700  25.691  1.00  0.00    -0.000 C 
BRANCH  28  29
ATOM     29  C   UNL     1      55.886 -37.125  26.109  1.00  0.00    -0.003 C 
ATOM     30  C   UNL     1      55.310 -36.169  27.149  1.00  0.00     0.004 C 
ENDBRANCH  28  29
ENDBRANCH  27  28
ENDBRANCH  26  27
ENDBRANCH  25  26
ENDBRANCH  24  25
ENDBRANCH  23  24
ENDBRANCH  22  23
ENDBRANCH  21  22
ENDBRANCH  20  21
ENDBRANCH  19  20
ENDBRANCH  18  19
ENDBRANCH  17  18
ENDBRANCH   1  17
TORSDOF 26
ENDMDL
MODEL 6
REMARK VINA RESULT:    -2.461      2.881      7.012
REMARK INTER + INTRA:         -11.168
REMARK INTER:                  -5.194
REMARK INTRA:                  -5.974
REMARK UNBOUND:                -4.967
REMARK SMILES CCCCCCCCCCCCCCCCCCCCCCCCCCCC(=O)[O-]
REMARK SMILES IDX 15 1 16 2 17 3 18 4 19 5 20 6 21 7 22 8 23 9 24 10 25 11
REMARK SMILES IDX 26 12 27 13 28 14 29 15 30 16 14 17 13 18 12 19 11 20 10 21
REMARK SMILES IDX 9 22 8 23 7 24 6 25 5 26 4 27 3 28 2 29 1 30
REMARK H PARENT
REMARK Flexibility Score: inf
ROOT
ATOM      1  C   UNL     1      57.011 -35.441  25.516  1.00  0.00     0.000 C 
ENDROOT
BRANCH   1   2
ATOM      2  C   UNL     1      58.043 -36.067  24.559  1.00  0.00     0.000 C 
BRANCH   2   3
ATOM      3  C   UNL     1      57.733 -35.795  23.080  1.00  0.00     0.000 C 
BRANCH   3   4
ATOM      4  C   UNL     1      56.504 -36.588  22.622  1.00  0.00     0.000 C 
BRANCH   4   5
ATOM      5  C   UNL     1      55.474 -35.668  21.948  1.00  0.00     0.000 C 
BRANCH   5   6
ATOM      6  C   UNL     1      54.145 -35.604  22.715  1.00  0.00     0.000 C 
BRANCH   6   7
ATOM      7  C   UNL     1      53.975 -34.294  23.504  1.00  0.00     0.000 C 
BRANCH   7   8
ATOM      8  C   UNL     1      55.057 -33.250  23.170  1.00  0.00     0.000 C 
BRANCH   8   9
ATOM      9  C   UNL     1      55.250 -32.157  24.237  1.00  0.00     0.000 C 
BRANCH   9  10
ATOM     10  C   UNL     1      56.727 -31.872  24.546  1.00  0.00     0.000 C 
BRANCH  10  11
ATOM     11  C   UNL     1      56.968 -31.818  26.062  1.00  0.00     0.000 C 
BRANCH  11  12
ATOM     12  C   UNL     1      55.747 -32.276  26.879  1.00  0.00     0.006 C 
BRANCH  12  13
ATOM     13  C   UNL     1      55.937 -32.194  28.402  1.00  0.00     0.053 C 
BRANCH  13  14
ATOM     14  C   UNL     1      56.441 -33.482  28.975  1.00  0.00     0.041 C 
ATOM     15  O   UNL     1      55.645 -34.280  29.537  1.00  0.00    -0.550 OA
ATOM     16  O   UNL     1      57.784 -33.817  28.862  1.00  0.00    -0.550 OA
ENDBRANCH  13  14
ENDBRANCH  12  13
ENDBRANCH  11  12
ENDBRANCH  10  11
ENDBRANCH   9  10
ENDBRANCH   8   9
ENDBRANCH   7   8
ENDBRANCH   6   7
ENDBRANCH   5   6
ENDBRANCH   4   5
ENDBRANCH   3   4
ENDBRANCH   2   3
ENDBRANCH   1   2
BRANCH   1  17
ATOM     17  C   UNL     1      56.355 -36.426  26.504  1.00  0.00     0.000 C 
BRANCH  17  18
ATOM     18  C   UNL     1      54.877 -36.699  26.188  1.00  0.00     0.000 C 
BRANCH  18  19
ATOM     19  C   UNL     1      53.967 -35.643  26.833  1.00  0.00     0.000 C 
BRANCH  19  20
ATOM     20  C   UNL     1      52.470 -35.976  26.686  1.00  0.00     0.000 C 
BRANCH  20  21
ATOM     21  C   UNL     1      51.552 -34.759  26.472  1.00  0.00     0.000 C 
BRANCH  21  22
ATOM     22  C   UNL     1      52.195 -33.442  26.936  1.00  0.00    -0.000 C 
BRANCH  22  23
ATOM     23  C   UNL     1      52.054 -32.314  25.899  1.00  0.00    -0.000 C 
BRANCH  23  24
ATOM     24  C   UNL     1      50.714 -32.286  25.139  1.00  0.00    -0.000 C 
BRANCH  24  25
ATOM     25  C   UNL     1      50.864 -32.347  23.604  1.00  0.00    -0.000 C 
BRANCH  25  26
ATOM     26  C   UNL     1      51.757 -31.219  23.061  1.00  0.00    -0.000 C 
BRANCH  26  27
ATOM     27  C   UNL     1      51.077 -29.838  23.112  1.00  0.00    -0.000 C 
BRANCH  27  28
ATOM     28  C   UNL     1      51.972 -28.691  23.616  1.00  0.00    -0.000 C 
BRANCH  28  29
ATOM     29  C   UNL     1      52.355 -28.834  25.096  1.00  0.00    -0.003 C 
ATOM     30  C   UNL     1      53.862 -29.007  25.259  1.00  0.00     0.004 C 
ENDBRANCH  28  29
ENDBRANCH  27  28
ENDBRANCH  26  27
ENDBRANCH  25  26
ENDBRANCH  24  25
ENDBRANCH  23  24
ENDBRANCH  22  23
ENDBRANCH  21  22
ENDBRANCH  20  21
ENDBRANCH  19  20
ENDBRANCH  18  19
ENDBRANCH  17  18
ENDBRANCH   1  17
TORSDOF 26
ENDMDL
MODEL 7
REMARK VINA RESULT:    -2.423      2.711      6.465
REMARK INTER + INTRA:         -11.074
REMARK INTER:                  -6.262
REMARK INTRA:                  -4.812
REMARK UNBOUND:                -4.967
REMARK SMILES CCCCCCCCCCCCCCCCCCCCCCCCCCCC(=O)[O-]
REMARK SMILES IDX 15 1 16 2 17 3 18 4 19 5 20 6 21 7 22 8 23 9 24 10 25 11
REMARK SMILES IDX 26 12 27 13 28 14 29 15 30 16 14 17 13 18 12 19 11 20 10 21
REMARK SMILES IDX 9 22 8 23 7 24 6 25 5 26 4 27 3 28 2 29 1 30
REMARK H PARENT
REMARK Flexibility Score: inf
ROOT
ATOM      1  C   UNL     1      50.722 -29.152  24.120  1.00  0.00     0.000 C 
ENDROOT
BRANCH   1   2
ATOM      2  C   UNL     1      51.383 -30.152  23.154  1.00  0.00     0.000 C 
BRANCH   2   3
ATOM      3  C   UNL     1      50.527 -31.402  22.905  1.00  0.00     0.000 C 
BRANCH   3   4
ATOM      4  C   UNL     1      51.045 -32.593  23.720  1.00  0.00     0.000 C 
BRANCH   4   5
ATOM      5  C   UNL     1      50.484 -33.917  23.178  1.00  0.00     0.000 C 
BRANCH   5   6
ATOM      6  C   UNL     1      51.542 -35.029  23.119  1.00  0.00     0.000 C 
BRANCH   6   7
ATOM      7  C   UNL     1      52.576 -34.927  24.254  1.00  0.00     0.000 C 
BRANCH   7   8
ATOM      8  C   UNL     1      53.962 -35.464  23.850  1.00  0.00     0.000 C 
BRANCH   8   9
ATOM      9  C   UNL     1      54.154 -35.685  22.338  1.00  0.00     0.000 C 
BRANCH   9  10
ATOM     10  C   UNL     1      55.617 -35.554  21.892  1.00  0.00     0.000 C 
BRANCH  10  11
ATOM     11  C   UNL     1      56.517 -36.520  22.676  1.00  0.00     0.000 C 
BRANCH  11  12
ATOM     12  C   UNL     1      57.964 -36.014  22.810  1.00  0.00     0.006 C 
BRANCH  12  13
ATOM     13  C   UNL     1      58.236 -35.204  24.088  1.00  0.00     0.053 C 
BRANCH  13  14
ATOM     14  C   UNL     1      59.607 -34.601  24.091  1.00  0.00     0.041 C 
ATOM     15  O   UNL     1      60.588 -35.262  24.521  1.00  0.00    -0.550 OA
ATOM     16  O   UNL     1      59.806 -33.322  23.588  1.00  0.00    -0.550 OA
ENDBRANCH  13  14
ENDBRANCH  12  13
ENDBRANCH  11  12
ENDBRANCH  10  11
ENDBRANCH   9  10
ENDBRANCH   8   9
ENDBRANCH   7   8
ENDBRANCH   6   7
ENDBRANCH   5   6
ENDBRANCH   4   5
ENDBRANCH   3   4
ENDBRANCH   2   3
ENDBRANCH   1   2
BRANCH   1  17
ATOM     17  C   UNL     1      51.125 -27.679  23.911  1.00  0.00     0.000 C 
BRANCH  17  18
ATOM     18  C   UNL     1      52.613 -27.505  23.574  1.00  0.00     0.000 C 
BRANCH  18  19
ATOM     19  C   UNL     1      53.346 -26.730  24.680  1.00  0.00     0.000 C 
BRANCH  19  20
ATOM     20  C   UNL     1      54.254 -27.631  25.539  1.00  0.00     0.000 C 
BRANCH  20  21
ATOM     21  C   UNL     1      54.366 -29.089  25.056  1.00  0.00     0.000 C 
BRANCH  21  22
ATOM     22  C   UNL     1      53.940 -30.104  26.130  1.00  0.00    -0.000 C 
BRANCH  22  23
ATOM     23  C   UNL     1      54.039 -31.560  25.644  1.00  0.00    -0.000 C 
BRANCH  23  24
ATOM     24  C   UNL     1      54.516 -31.734  24.189  1.00  0.00    -0.000 C 
BRANCH  24  25
ATOM     25  C   UNL     1      55.903 -32.400  24.061  1.00  0.00    -0.000 C 
BRANCH  25  26
ATOM     26  C   UNL     1      56.982 -31.411  23.589  1.00  0.00    -0.000 C 
BRANCH  26  27
ATOM     27  C   UNL     1      57.554 -30.555  24.734  1.00  0.00    -0.000 C 
BRANCH  27  28
ATOM     28  C   UNL     1      57.792 -31.311  26.054  1.00  0.00    -0.000 C 
BRANCH  28  29
ATOM     29  C   UNL     1      57.486 -30.461  27.296  1.00  0.00    -0.003 C 
ATOM     30  C   UNL     1      56.819 -31.297  28.383  1.00  0.00     0.004 C 
ENDBRANCH  28  29
ENDBRANCH  27  28
ENDBRANCH  26  27
ENDBRANCH  25  26
ENDBRANCH  24  25
ENDBRANCH  23  24
ENDBRANCH  22  23
ENDBRANCH  21  22
ENDBRANCH  20  21
ENDBRANCH  19  20
ENDBRANCH  18  19
ENDBRANCH  17  18
ENDBRANCH   1  17
TORSDOF 26
ENDMDL
MODEL 8
REMARK VINA RESULT:    -2.399      1.779      6.855
REMARK INTER + INTRA:         -11.012
REMARK INTER:                  -5.719
REMARK INTRA:                  -5.293
REMARK UNBOUND:                -4.967
REMARK SMILES CCCCCCCCCCCCCCCCCCCCCCCCCCCC(=O)[O-]
REMARK SMILES IDX 15 1 16 2 17 3 18 4 19 5 20 6 21 7 22 8 23 9 24 10 25 11
REMARK SMILES IDX 26 12 27 13 28 14 29 15 30 16 14 17 13 18 12 19 11 20 10 21
REMARK SMILES IDX 9 22 8 23 7 24 6 25 5 26 4 27 3 28 2 29 1 30
REMARK H PARENT
REMARK Flexibility Score: inf
ROOT
ATOM      1  C   UNL     1      54.827 -34.072  23.490  1.00  0.00     0.000 C 
ENDROOT
BRANCH   1   2
ATOM      2  C   UNL     1      55.176 -35.001  22.312  1.00  0.00     0.000 C 
BRANCH   2   3
ATOM      3  C   UNL     1      55.645 -36.392  22.763  1.00  0.00     0.000 C 
BRANCH   3   4
ATOM      4  C   UNL     1      57.126 -36.607  22.428  1.00  0.00     0.000 C 
BRANCH   4   5
ATOM      5  C   UNL     1      57.931 -36.953  23.691  1.00  0.00     0.000 C 
BRANCH   5   6
ATOM      6  C   UNL     1      57.053 -37.043  24.947  1.00  0.00     0.000 C 
BRANCH   6   7
ATOM      7  C   UNL     1      57.740 -36.466  26.197  1.00  0.00     0.000 C 
BRANCH   7   8
ATOM      8  C   UNL     1      58.627 -35.247  25.883  1.00  0.00     0.000 C 
BRANCH   8   9
ATOM      9  C   UNL     1      57.856 -33.949  25.577  1.00  0.00     0.000 C 
BRANCH   9  10
ATOM     10  C   UNL     1      58.261 -33.311  24.241  1.00  0.00     0.000 C 
BRANCH  10  11
ATOM     11  C   UNL     1      58.089 -31.785  24.289  1.00  0.00     0.000 C 
BRANCH  11  12
ATOM     12  C   UNL     1      56.966 -31.339  25.242  1.00  0.00     0.006 C 
BRANCH  12  13
ATOM     13  C   UNL     1      55.752 -30.709  24.539  1.00  0.00     0.053 C 
BRANCH  13  14
ATOM     14  C   UNL     1      55.471 -29.325  25.036  1.00  0.00     0.041 C 
ATOM     15  O   UNL     1      55.967 -28.329  24.448  1.00  0.00    -0.550 OA
ATOM     16  O   UNL     1      54.636 -29.133  26.129  1.00  0.00    -0.550 OA
ENDBRANCH  13  14
ENDBRANCH  12  13
ENDBRANCH  11  12
ENDBRANCH  10  11
ENDBRANCH   9  10
ENDBRANCH   8   9
ENDBRANCH   7   8
ENDBRANCH   6   7
ENDBRANCH   5   6
ENDBRANCH   4   5
ENDBRANCH   3   4
ENDBRANCH   2   3
ENDBRANCH   1   2
BRANCH   1  17
ATOM     17  C   UNL     1      54.358 -34.791  24.771  1.00  0.00     0.000 C 
BRANCH  17  18
ATOM     18  C   UNL     1      54.095 -33.827  25.937  1.00  0.00     0.000 C 
BRANCH  18  19
ATOM     19  C   UNL     1      52.717 -34.081  26.567  1.00  0.00     0.000 C 
BRANCH  19  20
ATOM     20  C   UNL     1      52.360 -35.578  26.640  1.00  0.00     0.000 C 
BRANCH  20  21
ATOM     21  C   UNL     1      50.970 -35.942  26.089  1.00  0.00     0.000 C 
BRANCH  21  22
ATOM     22  C   UNL     1      51.034 -36.581  24.692  1.00  0.00    -0.000 C 
BRANCH  22  23
ATOM     23  C   UNL     1      50.329 -35.735  23.618  1.00  0.00    -0.000 C 
BRANCH  23  24
ATOM     24  C   UNL     1      51.155 -34.558  23.063  1.00  0.00    -0.000 C 
BRANCH  24  25
ATOM     25  C   UNL     1      50.705 -33.177  23.587  1.00  0.00    -0.000 C 
BRANCH  25  26
ATOM     26  C   UNL     1      51.650 -32.049  23.140  1.00  0.00    -0.000 C 
BRANCH  26  27
ATOM     27  C   UNL     1      52.133 -31.171  24.309  1.00  0.00    -0.000 C 
BRANCH  27  28
ATOM     28  C   UNL     1      51.378 -29.839  24.476  1.00  0.00    -0.000 C 
BRANCH  28  29
ATOM     29  C   UNL     1      52.035 -28.678  23.718  1.00  0.00    -0.003 C 
ATOM     30  C   UNL     1      51.210 -27.401  23.846  1.00  0.00     0.004 C 
ENDBRANCH  28  29
ENDBRANCH  27  28
ENDBRANCH  26  27
ENDBRANCH  25  26
ENDBRANCH  24  25
ENDBRANCH  23  24
ENDBRANCH  22  23
ENDBRANCH  21  22
ENDBRANCH  20  21
ENDBRANCH  19  20
ENDBRANCH  18  19
ENDBRANCH  17  18
ENDBRANCH   1  17
TORSDOF 26
ENDMDL
MODEL 9
REMARK VINA RESULT:    -2.395      3.150      8.694
REMARK INTER + INTRA:         -11.003
REMARK INTER:                  -6.883
REMARK INTRA:                  -4.120
REMARK UNBOUND:                -4.967
REMARK SMILES CCCCCCCCCCCCCCCCCCCCCCCCCCCC(=O)[O-]
REMARK SMILES IDX 15 1 16 2 17 3 18 4 19 5 20 6 21 7 22 8 23 9 24 10 25 11
REMARK SMILES IDX 26 12 27 13 28 14 29 15 30 16 14 17 13 18 12 19 11 20 10 21
REMARK SMILES IDX 9 22 8 23 7 24 6 25 5 26 4 27 3 28 2 29 1 30
REMARK H PARENT
REMARK Flexibility Score: inf
ROOT
ATOM      1  C   UNL     1      55.373 -30.260  25.662  1.00  0.00     0.000 C 
ENDROOT
BRANCH   1   2
ATOM      2  C   UNL     1      55.033 -31.651  25.094  1.00  0.00     0.000 C 
BRANCH   2   3
ATOM      3  C   UNL     1      53.644 -31.710  24.441  1.00  0.00     0.000 C 
BRANCH   3   4
ATOM      4  C   UNL     1      52.538 -31.692  25.503  1.00  0.00     0.000 C 
BRANCH   4   5
ATOM      5  C   UNL     1      51.211 -32.207  24.924  1.00  0.00     0.000 C 
BRANCH   5   6
ATOM      6  C   UNL     1      51.361 -32.761  23.500  1.00  0.00     0.000 C 
BRANCH   6   7
ATOM      7  C   UNL     1      50.919 -34.230  23.382  1.00  0.00     0.000 C 
BRANCH   7   8
ATOM      8  C   UNL     1      52.103 -35.199  23.206  1.00  0.00     0.000 C 
BRANCH   8   9
ATOM      9  C   UNL     1      52.966 -35.401  24.466  1.00  0.00     0.000 C 
BRANCH   9  10
ATOM     10  C   UNL     1      54.472 -35.396  24.170  1.00  0.00     0.000 C 
BRANCH  10  11
ATOM     11  C   UNL     1      54.748 -34.905  22.741  1.00  0.00     0.000 C 
BRANCH  11  12
ATOM     12  C   UNL     1      55.693 -35.835  21.961  1.00  0.00     0.006 C 
BRANCH  12  13
ATOM     13  C   UNL     1      56.640 -36.663  22.845  1.00  0.00     0.053 C 
BRANCH  13  14
ATOM     14  C   UNL     1      58.060 -36.202  22.733  1.00  0.00     0.041 C 
ATOM     15  O   UNL     1      58.847 -36.766  21.928  1.00  0.00    -0.550 OA
ATOM     16  O   UNL     1      58.507 -35.130  23.493  1.00  0.00    -0.550 OA
ENDBRANCH  13  14
ENDBRANCH  12  13
ENDBRANCH  11  12
ENDBRANCH  10  11
ENDBRANCH   9  10
ENDBRANCH   8   9
ENDBRANCH   7   8
ENDBRANCH   6   7
ENDBRANCH   5   6
ENDBRANCH   4   5
ENDBRANCH   3   4
ENDBRANCH   2   3
ENDBRANCH   1   2
BRANCH   1  17
ATOM     17  C   UNL     1      55.805 -29.215  24.616  1.00  0.00     0.000 C 
BRANCH  17  18
ATOM     18  C   UNL     1      54.932 -27.951  24.633  1.00  0.00     0.000 C 
BRANCH  18  19
ATOM     19  C   UNL     1      53.741 -28.112  25.589  1.00  0.00     0.000 C 
BRANCH  19  20
ATOM     20  C   UNL     1      52.388 -28.159  24.854  1.00  0.00     0.000 C 
BRANCH  20  21
ATOM     21  C   UNL     1      52.143 -27.002  23.869  1.00  0.00     0.000 C 
BRANCH  21  22
ATOM     22  C   UNL     1      50.810 -26.278  24.123  1.00  0.00    -0.000 C 
BRANCH  22  23
ATOM     23  C   UNL     1      50.962 -24.747  24.156  1.00  0.00    -0.000 C 
BRANCH  23  24
ATOM     24  C   UNL     1      50.760 -24.040  22.802  1.00  0.00    -0.000 C 
BRANCH  24  25
ATOM     25  C   UNL     1      51.928 -23.113  22.401  1.00  0.00    -0.000 C 
BRANCH  25  26
ATOM     26  C   UNL     1      53.282 -23.842  22.419  1.00  0.00    -0.000 C 
BRANCH  26  27
ATOM     27  C   UNL     1      54.250 -23.288  23.481  1.00  0.00    -0.000 C 
BRANCH  27  28
ATOM     28  C   UNL     1      54.575 -24.256  24.633  1.00  0.00    -0.000 C 
BRANCH  28  29
ATOM     29  C   UNL     1      54.264 -23.669  26.016  1.00  0.00    -0.003 C 
ATOM     30  C   UNL     1      53.487 -24.663  26.873  1.00  0.00     0.004 C 
ENDBRANCH  28  29
ENDBRANCH  27  28
ENDBRANCH  26  27
ENDBRANCH  25  26
ENDBRANCH  24  25
ENDBRANCH  23  24
ENDBRANCH  22  23
ENDBRANCH  21  22
ENDBRANCH  20  21
ENDBRANCH  19  20
ENDBRANCH  18  19
ENDBRANCH  17  18
ENDBRANCH   1  17
TORSDOF 26
ENDMDL
