MODEL 1
REMARK VINA RESULT:    -4.003      0.000      0.000
REMARK INTER + INTRA:          -9.469
REMARK INTER:                  -7.748
REMARK INTRA:                  -1.721
REMARK UNBOUND:                -1.721
REMARK SMILES CCCCCCCCCCCCCCCCCC(=O)[O-]
REMARK SMILES IDX 10 1 11 2 12 3 13 4 14 5 15 6 16 7 17 8 18 9 19 10 20 11
REMARK SMILES IDX 9 12 8 13 7 14 6 15 5 16 4 17 3 18 2 19 1 20
REMARK H PARENT
REMARK Flexibility Score: inf
ROOT
ATOM      1  C   UNL     1      -0.950  -9.365 -15.124  1.00  0.00     0.000 C 
ENDROOT
BRANCH   1   2
ATOM      2  C   UNL     1      -0.498  -8.164 -14.284  1.00  0.00     0.000 C 
BRANCH   2   3
ATOM      3  C   UNL     1       0.385  -8.611 -13.113  1.00  0.00     0.000 C 
BRANCH   3   4
ATOM      4  C   UNL     1       0.387  -7.563 -11.990  1.00  0.00     0.000 C 
BRANCH   4   5
ATOM      5  C   UNL     1       0.178  -6.133 -12.511  1.00  0.00     0.000 C 
BRANCH   5   6
ATOM      6  C   UNL     1      -1.073  -5.461 -11.923  1.00  0.00     0.000 C 
BRANCH   6   7
ATOM      7  C   UNL     1      -1.513  -4.270 -12.782  1.00  0.00     0.006 C 
BRANCH   7   8
ATOM      8  C   UNL     1      -2.164  -4.744 -14.085  1.00  0.00     0.053 C 
BRANCH   8   9
ATOM      9  C   UNL     1      -2.374  -3.590 -15.015  1.00  0.00     0.041 C 
ATOM     10  O   UNL     1      -3.108  -3.718 -16.031  1.00  0.00    -0.550 OA
ATOM     11  O   UNL     1      -1.794  -2.359 -14.735  1.00  0.00    -0.550 OA
ENDBRANCH   8   9
ENDBRANCH   7   8
ENDBRANCH   6   7
ENDBRANCH   5   6
ENDBRANCH   4   5
ENDBRANCH   3   4
ENDBRANCH   2   3
ENDBRANCH   1   2
BRANCH   1  12
ATOM     12  C   UNL     1      -0.714 -10.682 -14.375  1.00  0.00     0.000 C 
BRANCH  12  13
ATOM     13  C   UNL     1      -1.664 -11.779 -14.880  1.00  0.00    -0.000 C 
BRANCH  13  14
ATOM     14  C   UNL     1      -2.594 -11.288 -16.000  1.00  0.00    -0.000 C 
BRANCH  14  15
ATOM     15  C   UNL     1      -3.954 -12.008 -16.000  1.00  0.00    -0.000 C 
BRANCH  15  16
ATOM     16  C   UNL     1      -5.127 -11.059 -16.303  1.00  0.00    -0.000 C 
BRANCH  16  17
ATOM     17  C   UNL     1      -5.179 -10.534 -17.752  1.00  0.00    -0.000 C 
BRANCH  17  18
ATOM     18  C   UNL     1      -4.736  -9.068 -17.934  1.00  0.00    -0.000 C 
BRANCH  18  19
ATOM     19  C   UNL     1      -4.488  -8.302 -16.623  1.00  0.00    -0.003 C 
ATOM     20  C   UNL     1      -3.458  -7.183 -16.774  1.00  0.00     0.004 C 
ENDBRANCH  18  19
ENDBRANCH  17  18
ENDBRANCH  16  17
ENDBRANCH  15  16
ENDBRANCH  14  15
ENDBRANCH  13  14
ENDBRANCH  12  13
ENDBRANCH   1  12
TORSDOF 16
ENDMDL
MODEL 2
REMARK VINA RESULT:    -3.985     13.184     15.659
REMARK INTER + INTRA:          -9.434
REMARK INTER:                  -7.375
REMARK INTRA:                  -2.060
REMARK UNBOUND:                -1.721
REMARK SMILES CCCCCCCCCCCCCCCCCC(=O)[O-]
REMARK SMILES IDX 10 1 11 2 12 3 13 4 14 5 15 6 16 7 17 8 18 9 19 10 20 11
REMARK SMILES IDX 9 12 8 13 7 14 6 15 5 16 4 17 3 18 2 19 1 20
REMARK H PARENT
REMARK Flexibility Score: inf
ROOT
ATOM      1  C   UNL     1      -0.426  -3.423 -28.391  1.00  0.00     0.000 C 
ENDROOT
BRANCH   1   2
ATOM      2  C   UNL     1      -1.067  -4.610 -27.662  1.00  0.00     0.000 C 
BRANCH   2   3
ATOM      3  C   UNL     1      -2.081  -4.131 -26.615  1.00  0.00     0.000 C 
BRANCH   3   4
ATOM      4  C   UNL     1      -3.355  -4.989 -26.646  1.00  0.00     0.000 C 
BRANCH   4   5
ATOM      5  C   UNL     1      -4.633  -4.164 -26.434  1.00  0.00     0.000 C 
BRANCH   5   6
ATOM      6  C   UNL     1      -4.666  -2.886 -27.287  1.00  0.00     0.000 C 
BRANCH   6   7
ATOM      7  C   UNL     1      -5.047  -1.667 -26.439  1.00  0.00     0.006 C 
BRANCH   7   8
ATOM      8  C   UNL     1      -4.526  -1.811 -25.006  1.00  0.00     0.053 C 
BRANCH   8   9
ATOM      9  C   UNL     1      -3.207  -1.119 -24.857  1.00  0.00     0.041 C 
ATOM     10  O   UNL     1      -2.323  -1.595 -24.097  1.00  0.00    -0.550 OA
ATOM     11  O   UNL     1      -2.938   0.028 -25.593  1.00  0.00    -0.550 OA
ENDBRANCH   8   9
ENDBRANCH   7   8
ENDBRANCH   6   7
ENDBRANCH   5   6
ENDBRANCH   4   5
ENDBRANCH   3   4
ENDBRANCH   2   3
ENDBRANCH   1   2
BRANCH   1  12
ATOM     12  C   UNL     1      -1.176  -2.120 -28.090  1.00  0.00     0.000 C 
BRANCH  12  13
ATOM     13  C   UNL     1      -0.753  -1.006 -29.061  1.00  0.00    -0.000 C 
BRANCH  13  14
ATOM     14  C   UNL     1      -1.773   0.142 -29.125  1.00  0.00    -0.000 C 
BRANCH  14  15
ATOM     15  C   UNL     1      -2.019   0.636 -30.561  1.00  0.00    -0.000 C 
BRANCH  15  16
ATOM     16  C   UNL     1      -0.892   0.230 -31.528  1.00  0.00    -0.000 C 
BRANCH  16  17
ATOM     17  C   UNL     1       0.009   1.390 -31.998  1.00  0.00    -0.000 C 
BRANCH  17  18
ATOM     18  C   UNL     1       1.501   1.249 -31.634  1.00  0.00    -0.000 C 
BRANCH  18  19
ATOM     19  C   UNL     1       1.830   1.499 -30.152  1.00  0.00    -0.003 C 
ATOM     20  C   UNL     1       1.081   2.698 -29.571  1.00  0.00     0.004 C 
ENDBRANCH  18  19
ENDBRANCH  17  18
ENDBRANCH  16  17
ENDBRANCH  15  16
ENDBRANCH  14  15
ENDBRANCH  13  14
ENDBRANCH  12  13
ENDBRANCH   1  12
TORSDOF 16
ENDMDL
MODEL 3
REMARK VINA RESULT:    -3.955     11.916     14.243
REMARK INTER + INTRA:          -9.376
REMARK INTER:                  -7.338
REMARK INTRA:                  -2.038
REMARK UNBOUND:                -1.721
REMARK SMILES CCCCCCCCCCCCCCCCCC(=O)[O-]
REMARK SMILES IDX 10 1 11 2 12 3 13 4 14 5 15 6 16 7 17 8 18 9 19 10 20 11
REMARK SMILES IDX 9 12 8 13 7 14 6 15 5 16 4 17 3 18 2 19 1 20
REMARK H PARENT
REMARK Flexibility Score: inf
ROOT
ATOM      1  C   UNL     1      -3.006  -5.044 -25.930  1.00  0.00     0.000 C 
ENDROOT
BRANCH   1   2
ATOM      2  C   UNL     1      -4.141  -4.638 -26.877  1.00  0.00     0.000 C 
BRANCH   2   3
ATOM      3  C   UNL     1      -5.197  -3.802 -26.143  1.00  0.00     0.000 C 
BRANCH   3   4
ATOM      4  C   UNL     1      -5.025  -2.305 -26.445  1.00  0.00     0.000 C 
BRANCH   4   5
ATOM      5  C   UNL     1      -4.662  -1.485 -25.197  1.00  0.00     0.000 C 
BRANCH   5   6
ATOM      6  C   UNL     1      -5.035  -0.000 -25.330  1.00  0.00     0.000 C 
BRANCH   6   7
ATOM      7  C   UNL     1      -4.387   0.832 -24.218  1.00  0.00     0.006 C 
BRANCH   7   8
ATOM      8  C   UNL     1      -3.229   0.071 -23.566  1.00  0.00     0.053 C 
BRANCH   8   9
ATOM      9  C   UNL     1      -1.969   0.874 -23.636  1.00  0.00     0.041 C 
ATOM     10  O   UNL     1      -1.351   1.180 -22.582  1.00  0.00    -0.550 OA
ATOM     11  O   UNL     1      -1.453   1.249 -24.870  1.00  0.00    -0.550 OA
ENDBRANCH   8   9
ENDBRANCH   7   8
ENDBRANCH   6   7
ENDBRANCH   5   6
ENDBRANCH   4   5
ENDBRANCH   3   4
ENDBRANCH   2   3
ENDBRANCH   1   2
BRANCH   1  12
ATOM     12  C   UNL     1      -1.770  -4.161 -26.138  1.00  0.00     0.000 C 
BRANCH  12  13
ATOM     13  C   UNL     1      -1.405  -4.068 -27.628  1.00  0.00    -0.000 C 
BRANCH  13  14
ATOM     14  C   UNL     1      -0.871  -2.682 -28.021  1.00  0.00    -0.000 C 
BRANCH  14  15
ATOM     15  C   UNL     1      -1.477  -1.551 -27.172  1.00  0.00    -0.000 C 
BRANCH  15  16
ATOM     16  C   UNL     1      -2.078  -0.423 -28.030  1.00  0.00    -0.000 C 
BRANCH  16  17
ATOM     17  C   UNL     1      -1.569  -0.374 -29.486  1.00  0.00    -0.000 C 
BRANCH  17  18
ATOM     18  C   UNL     1      -2.032   0.851 -30.300  1.00  0.00    -0.000 C 
BRANCH  18  19
ATOM     19  C   UNL     1      -1.241   1.101 -31.596  1.00  0.00    -0.003 C 
ATOM     20  C   UNL     1      -0.283  -0.040 -31.937  1.00  0.00     0.004 C 
ENDBRANCH  18  19
ENDBRANCH  17  18
ENDBRANCH  16  17
ENDBRANCH  15  16
ENDBRANCH  14  15
ENDBRANCH  13  14
ENDBRANCH  12  13
ENDBRANCH   1  12
TORSDOF 16
ENDMDL
MODEL 4
REMARK VINA RESULT:    -3.953     15.990     17.116
REMARK INTER + INTRA:          -9.371
REMARK INTER:                  -6.861
REMARK INTRA:                  -2.510
REMARK UNBOUND:                -1.721
REMARK SMILES CCCCCCCCCCCCCCCCCC(=O)[O-]
REMARK SMILES IDX 10 1 11 2 12 3 13 4 14 5 15 6 16 7 17 8 18 9 19 10 20 11
REMARK SMILES IDX 9 12 8 13 7 14 6 15 5 16 4 17 3 18 2 19 1 20
REMARK H PARENT
REMARK Flexibility Score: inf
ROOT
ATOM      1  C   UNL     1      13.018 -11.319 -24.051  1.00  0.00     0.000 C 
ENDROOT
BRANCH   1   2
ATOM      2  C   UNL     1      13.623 -11.884 -22.760  1.00  0.00     0.000 C 
BRANCH   2   3
ATOM      3  C   UNL     1      12.569 -11.966 -21.649  1.00  0.00     0.000 C 
BRANCH   3   4
ATOM      4  C   UNL     1      11.209 -11.446 -22.137  1.00  0.00     0.000 C 
BRANCH   4   5
ATOM      5  C   UNL     1      10.682 -10.274 -21.294  1.00  0.00     0.000 C 
BRANCH   5   6
ATOM      6  C   UNL     1      10.307  -9.049 -22.144  1.00  0.00     0.000 C 
BRANCH   6   7
ATOM      7  C   UNL     1      11.383  -7.962 -22.049  1.00  0.00     0.006 C 
BRANCH   7   8
ATOM      8  C   UNL     1      11.148  -6.864 -23.090  1.00  0.00     0.053 C 
BRANCH   8   9
ATOM      9  C   UNL     1      12.383  -6.036 -23.266  1.00  0.00     0.041 C 
ATOM     10  O   UNL     1      13.519  -6.536 -23.052  1.00  0.00    -0.550 OA
ATOM     11  O   UNL     1      12.280  -4.724 -23.709  1.00  0.00    -0.550 OA
ENDBRANCH   8   9
ENDBRANCH   7   8
ENDBRANCH   6   7
ENDBRANCH   5   6
ENDBRANCH   4   5
ENDBRANCH   3   4
ENDBRANCH   2   3
ENDBRANCH   1   2
BRANCH   1  12
ATOM     12  C   UNL     1      13.495  -9.884 -24.302  1.00  0.00     0.000 C 
BRANCH  12  13
ATOM     13  C   UNL     1      12.641  -9.202 -25.383  1.00  0.00    -0.000 C 
BRANCH  13  14
ATOM     14  C   UNL     1      11.838 -10.206 -26.225  1.00  0.00    -0.000 C 
BRANCH  14  15
ATOM     15  C   UNL     1      10.330  -9.901 -26.232  1.00  0.00    -0.000 C 
BRANCH  15  16
ATOM     16  C   UNL     1       9.513 -10.941 -25.444  1.00  0.00    -0.000 C 
BRANCH  16  17
ATOM     17  C   UNL     1      10.015 -12.393 -25.571  1.00  0.00    -0.000 C 
BRANCH  17  18
ATOM     18  C   UNL     1       9.889 -13.009 -26.979  1.00  0.00    -0.000 C 
BRANCH  18  19
ATOM     19  C   UNL     1      11.142 -13.753 -27.472  1.00  0.00    -0.003 C 
ATOM     20  C   UNL     1      10.868 -15.218 -27.811  1.00  0.00     0.004 C 
ENDBRANCH  18  19
ENDBRANCH  17  18
ENDBRANCH  16  17
ENDBRANCH  15  16
ENDBRANCH  14  15
ENDBRANCH  13  14
ENDBRANCH  12  13
ENDBRANCH   1  12
TORSDOF 16
ENDMDL
MODEL 5
REMARK VINA RESULT:    -3.918     16.259     17.994
REMARK INTER + INTRA:          -9.304
REMARK INTER:                  -6.720
REMARK INTRA:                  -2.584
REMARK UNBOUND:                -1.721
REMARK SMILES CCCCCCCCCCCCCCCCCC(=O)[O-]
REMARK SMILES IDX 10 1 11 2 12 3 13 4 14 5 15 6 16 7 17 8 18 9 19 10 20 11
REMARK SMILES IDX 9 12 8 13 7 14 6 15 5 16 4 17 3 18 2 19 1 20
REMARK H PARENT
REMARK Flexibility Score: inf
ROOT
ATOM      1  C   UNL     1      10.667  -8.150 -26.136  1.00  0.00     0.000 C 
ENDROOT
BRANCH   1   2
ATOM      2  C   UNL     1      12.132  -7.905 -26.517  1.00  0.00     0.000 C 
BRANCH   2   3
ATOM      3  C   UNL     1      12.973  -9.171 -26.309  1.00  0.00     0.000 C 
BRANCH   3   4
ATOM      4  C   UNL     1      13.772  -9.095 -25.000  1.00  0.00     0.000 C 
BRANCH   4   5
ATOM      5  C   UNL     1      13.429 -10.234 -24.027  1.00  0.00     0.000 C 
BRANCH   5   6
ATOM      6  C   UNL     1      12.303 -11.142 -24.545  1.00  0.00     0.000 C 
BRANCH   6   7
ATOM      7  C   UNL     1      11.051 -11.022 -23.668  1.00  0.00     0.006 C 
BRANCH   7   8
ATOM      8  C   UNL     1      11.367 -10.295 -22.357  1.00  0.00     0.053 C 
BRANCH   8   9
ATOM      9  C   UNL     1      11.343 -11.255 -21.208  1.00  0.00     0.041 C 
ATOM     10  O   UNL     1      10.423 -11.194 -20.350  1.00  0.00    -0.550 OA
ATOM     11  O   UNL     1      12.313 -12.244 -21.110  1.00  0.00    -0.550 OA
ENDBRANCH   8   9
ENDBRANCH   7   8
ENDBRANCH   6   7
ENDBRANCH   5   6
ENDBRANCH   4   5
ENDBRANCH   3   4
ENDBRANCH   2   3
ENDBRANCH   1   2
BRANCH   1  12
ATOM     12  C   UNL     1      10.318  -7.461 -24.812  1.00  0.00     0.000 C 
BRANCH  12  13
ATOM     13  C   UNL     1      11.397  -6.439 -24.422  1.00  0.00    -0.000 C 
BRANCH  13  14
ATOM     14  C   UNL     1      11.912  -6.638 -22.988  1.00  0.00    -0.000 C 
BRANCH  14  15
ATOM     15  C   UNL     1      13.347  -6.119 -22.796  1.00  0.00    -0.000 C 
BRANCH  15  16
ATOM     16  C   UNL     1      13.450  -5.062 -21.681  1.00  0.00    -0.000 C 
BRANCH  16  17
ATOM     17  C   UNL     1      12.267  -4.075 -21.611  1.00  0.00    -0.000 C 
BRANCH  17  18
ATOM     18  C   UNL     1      12.537  -2.686 -22.223  1.00  0.00    -0.000 C 
BRANCH  18  19
ATOM     19  C   UNL     1      13.198  -2.711 -23.612  1.00  0.00    -0.003 C 
ATOM     20  C   UNL     1      12.205  -2.468 -24.748  1.00  0.00     0.004 C 
ENDBRANCH  18  19
ENDBRANCH  17  18
ENDBRANCH  16  17
ENDBRANCH  15  16
ENDBRANCH  14  15
ENDBRANCH  13  14
ENDBRANCH  12  13
ENDBRANCH   1  12
TORSDOF 16
ENDMDL
MODEL 6
REMARK VINA RESULT:    -3.917     12.466     14.856
REMARK INTER + INTRA:          -9.302
REMARK INTER:                  -7.424
REMARK INTRA:                  -1.878
REMARK UNBOUND:                -1.721
REMARK SMILES CCCCCCCCCCCCCCCCCC(=O)[O-]
REMARK SMILES IDX 10 1 11 2 12 3 13 4 14 5 15 6 16 7 17 8 18 9 19 10 20 11
REMARK SMILES IDX 9 12 8 13 7 14 6 15 5 16 4 17 3 18 2 19 1 20
REMARK H PARENT
REMARK Flexibility Score: inf
ROOT
ATOM      1  C   UNL     1      -1.363  -4.235 -26.741  1.00  0.00     0.000 C 
ENDROOT
BRANCH   1   2
ATOM      2  C   UNL     1      -2.169  -5.535 -26.843  1.00  0.00     0.000 C 
BRANCH   2   3
ATOM      3  C   UNL     1      -3.674  -5.261 -26.725  1.00  0.00     0.000 C 
BRANCH   3   4
ATOM      4  C   UNL     1      -3.995  -4.488 -25.437  1.00  0.00     0.000 C 
BRANCH   4   5
ATOM      5  C   UNL     1      -5.215  -3.566 -25.585  1.00  0.00     0.000 C 
BRANCH   5   6
ATOM      6  C   UNL     1      -5.109  -2.625 -26.796  1.00  0.00     0.000 C 
BRANCH   6   7
ATOM      7  C   UNL     1      -5.131  -1.157 -26.355  1.00  0.00     0.006 C 
BRANCH   7   8
ATOM      8  C   UNL     1      -4.858  -1.030 -24.854  1.00  0.00     0.053 C 
BRANCH   8   9
ATOM      9  C   UNL     1      -4.038   0.190 -24.572  1.00  0.00     0.041 C 
ATOM     10  O   UNL     1      -4.459   1.068 -23.773  1.00  0.00    -0.550 OA
ATOM     11  O   UNL     1      -2.787   0.335 -25.158  1.00  0.00    -0.550 OA
ENDBRANCH   8   9
ENDBRANCH   7   8
ENDBRANCH   6   7
ENDBRANCH   5   6
ENDBRANCH   4   5
ENDBRANCH   3   4
ENDBRANCH   2   3
ENDBRANCH   1   2
BRANCH   1  12
ATOM     12  C   UNL     1      -0.529  -4.001 -28.005  1.00  0.00     0.000 C 
BRANCH  12  13
ATOM     13  C   UNL     1      -0.574  -2.525 -28.429  1.00  0.00    -0.000 C 
BRANCH  13  14
ATOM     14  C   UNL     1      -1.827  -1.799 -27.916  1.00  0.00    -0.000 C 
BRANCH  14  15
ATOM     15  C   UNL     1      -2.042  -0.435 -28.594  1.00  0.00    -0.000 C 
BRANCH  15  16
ATOM     16  C   UNL     1      -0.718   0.266 -28.947  1.00  0.00    -0.000 C 
BRANCH  16  17
ATOM     17  C   UNL     1      -0.791   1.218 -30.159  1.00  0.00    -0.000 C 
BRANCH  17  18
ATOM     18  C   UNL     1      -0.830   0.524 -31.535  1.00  0.00    -0.000 C 
BRANCH  18  19
ATOM     19  C   UNL     1       0.547   0.136 -32.101  1.00  0.00    -0.003 C 
ATOM     20  C   UNL     1       0.915  -1.321 -31.821  1.00  0.00     0.004 C 
ENDBRANCH  18  19
ENDBRANCH  17  18
ENDBRANCH  16  17
ENDBRANCH  15  16
ENDBRANCH  14  15
ENDBRANCH  13  14
ENDBRANCH  12  13
ENDBRANCH   1  12
TORSDOF 16
ENDMDL
MODEL 7
REMARK VINA RESULT:    -3.916      5.544      8.337
REMARK INTER + INTRA:          -9.301
REMARK INTER:                  -6.383
REMARK INTRA:                  -2.918
REMARK UNBOUND:                -1.721
REMARK SMILES CCCCCCCCCCCCCCCCCC(=O)[O-]
REMARK SMILES IDX 10 1 11 2 12 3 13 4 14 5 15 6 16 7 17 8 18 9 19 10 20 11
REMARK SMILES IDX 9 12 8 13 7 14 6 15 5 16 4 17 3 18 2 19 1 20
REMARK H PARENT
REMARK Flexibility Score: inf
ROOT
ATOM      1  C   UNL     1      -2.193 -10.237 -16.533  1.00  0.00     0.000 C 
ENDROOT
BRANCH   1   2
ATOM      2  C   UNL     1      -3.461  -9.376 -16.520  1.00  0.00     0.000 C 
BRANCH   2   3
ATOM      3  C   UNL     1      -4.620 -10.093 -17.224  1.00  0.00     0.000 C 
BRANCH   3   4
ATOM      4  C   UNL     1      -5.371 -11.016 -16.252  1.00  0.00     0.000 C 
BRANCH   4   5
ATOM      5  C   UNL     1      -5.678 -12.394 -16.858  1.00  0.00     0.000 C 
BRANCH   5   6
ATOM      6  C   UNL     1      -4.783 -12.729 -18.062  1.00  0.00     0.000 C 
BRANCH   6   7
ATOM      7  C   UNL     1      -4.962 -14.190 -18.491  1.00  0.00     0.006 C 
BRANCH   7   8
ATOM      8  C   UNL     1      -4.091 -14.514 -19.708  1.00  0.00     0.053 C 
BRANCH   8   9
ATOM      9  C   UNL     1      -3.848 -15.988 -19.800  1.00  0.00     0.041 C 
ATOM     10  O   UNL     1      -4.687 -16.736 -20.370  1.00  0.00    -0.550 OA
ATOM     11  O   UNL     1      -2.674 -16.531 -19.295  1.00  0.00    -0.550 OA
ENDBRANCH   8   9
ENDBRANCH   7   8
ENDBRANCH   6   7
ENDBRANCH   5   6
ENDBRANCH   4   5
ENDBRANCH   3   4
ENDBRANCH   2   3
ENDBRANCH   1   2
BRANCH   1  12
ATOM     12  C   UNL     1      -1.445 -10.139 -15.198  1.00  0.00     0.000 C 
BRANCH  12  13
ATOM     13  C   UNL     1      -1.298 -11.523 -14.547  1.00  0.00    -0.000 C 
BRANCH  13  14
ATOM     14  C   UNL     1      -2.296 -12.549 -15.105  1.00  0.00    -0.000 C 
BRANCH  14  15
ATOM     15  C   UNL     1      -1.704 -13.966 -15.191  1.00  0.00    -0.000 C 
BRANCH  15  16
ATOM     16  C   UNL     1      -1.689 -14.516 -16.628  1.00  0.00    -0.000 C 
BRANCH  16  17
ATOM     17  C   UNL     1      -1.156 -13.535 -17.693  1.00  0.00    -0.000 C 
BRANCH  17  18
ATOM     18  C   UNL     1       0.364 -13.604 -17.943  1.00  0.00    -0.000 C 
BRANCH  18  19
ATOM     19  C   UNL     1       1.207 -12.676 -17.050  1.00  0.00    -0.003 C 
ATOM     20  C   UNL     1       1.267 -11.242 -17.573  1.00  0.00     0.004 C 
ENDBRANCH  18  19
ENDBRANCH  17  18
ENDBRANCH  16  17
ENDBRANCH  15  16
ENDBRANCH  14  15
ENDBRANCH  13  14
ENDBRANCH  12  13
ENDBRANCH   1  12
TORSDOF 16
ENDMDL
MODEL 8
REMARK VINA RESULT:    -3.892     16.601     17.658
REMARK INTER + INTRA:          -9.254
REMARK INTER:                  -7.052
REMARK INTRA:                  -2.202
REMARK UNBOUND:                -1.721
REMARK SMILES CCCCCCCCCCCCCCCCCC(=O)[O-]
REMARK SMILES IDX 10 1 11 2 12 3 13 4 14 5 15 6 16 7 17 8 18 9 19 10 20 11
REMARK SMILES IDX 9 12 8 13 7 14 6 15 5 16 4 17 3 18 2 19 1 20
REMARK H PARENT
REMARK Flexibility Score: inf
ROOT
ATOM      1  C   UNL     1      12.103  -7.280 -22.706  1.00  0.00     0.000 C 
ENDROOT
BRANCH   1   2
ATOM      2  C   UNL     1      13.336  -6.455 -23.094  1.00  0.00     0.000 C 
BRANCH   2   3
ATOM      3  C   UNL     1      13.708  -5.464 -21.984  1.00  0.00     0.000 C 
BRANCH   3   4
ATOM      4  C   UNL     1      13.394  -4.020 -22.404  1.00  0.00     0.000 C 
BRANCH   4   5
ATOM      5  C   UNL     1      12.013  -3.548 -21.924  1.00  0.00     0.000 C 
BRANCH   5   6
ATOM      6  C   UNL     1      11.194  -2.872 -23.035  1.00  0.00     0.000 C 
BRANCH   6   7
ATOM      7  C   UNL     1      12.025  -2.717 -24.314  1.00  0.00     0.006 C 
BRANCH   7   8
ATOM      8  C   UNL     1      11.127  -2.707 -25.554  1.00  0.00     0.053 C 
BRANCH   8   9
ATOM      9  C   UNL     1      11.596  -1.676 -26.532  1.00  0.00     0.041 C 
ATOM     10  O   UNL     1      12.600  -0.962 -26.270  1.00  0.00    -0.550 OA
ATOM     11  O   UNL     1      10.950  -1.535 -27.754  1.00  0.00    -0.550 OA
ENDBRANCH   8   9
ENDBRANCH   7   8
ENDBRANCH   6   7
ENDBRANCH   5   6
ENDBRANCH   4   5
ENDBRANCH   3   4
ENDBRANCH   2   3
ENDBRANCH   1   2
BRANCH   1  12
ATOM     12  C   UNL     1      10.852  -6.782 -23.438  1.00  0.00     0.000 C 
BRANCH  12  13
ATOM     13  C   UNL     1      11.187  -6.370 -24.881  1.00  0.00    -0.000 C 
BRANCH  13  14
ATOM     14  C   UNL     1      10.945  -7.501 -25.891  1.00  0.00    -0.000 C 
BRANCH  14  15
ATOM     15  C   UNL     1      12.253  -8.123 -26.410  1.00  0.00    -0.000 C 
BRANCH  15  16
ATOM     16  C   UNL     1      12.126  -9.634 -26.676  1.00  0.00    -0.000 C 
BRANCH  16  17
ATOM     17  C   UNL     1      11.910 -10.498 -25.417  1.00  0.00    -0.000 C 
BRANCH  17  18
ATOM     18  C   UNL     1      12.951 -10.294 -24.297  1.00  0.00    -0.000 C 
BRANCH  18  19
ATOM     19  C   UNL     1      13.350 -11.577 -23.546  1.00  0.00    -0.003 C 
ATOM     20  C   UNL     1      12.593 -11.756 -22.231  1.00  0.00     0.004 C 
ENDBRANCH  18  19
ENDBRANCH  17  18
ENDBRANCH  16  17
ENDBRANCH  15  16
ENDBRANCH  14  15
ENDBRANCH  13  14
ENDBRANCH  12  13
ENDBRANCH   1  12
TORSDOF 16
ENDMDL
MODEL 9
REMARK VINA RESULT:    -3.855     15.680     17.342
REMARK INTER + INTRA:          -9.182
REMARK INTER:                  -6.559
REMARK INTRA:                  -2.624
REMARK UNBOUND:                -1.721
REMARK SMILES CCCCCCCCCCCCCCCCCC(=O)[O-]
REMARK SMILES IDX 10 1 11 2 12 3 13 4 14 5 15 6 16 7 17 8 18 9 19 10 20 11
REMARK SMILES IDX 9 12 8 13 7 14 6 15 5 16 4 17 3 18 2 19 1 20
REMARK H PARENT
REMARK Flexibility Score: inf
ROOT
ATOM      1  C   UNL     1      13.141  -4.692 -22.808  1.00  0.00     0.000 C 
ENDROOT
BRANCH   1   2
ATOM      2  C   UNL     1      13.803  -5.162 -21.507  1.00  0.00     0.000 C 
BRANCH   2   3
ATOM      3  C   UNL     1      12.797  -5.896 -20.612  1.00  0.00     0.000 C 
BRANCH   3   4
ATOM      4  C   UNL     1      11.614  -6.431 -21.433  1.00  0.00     0.000 C 
BRANCH   4   5
ATOM      5  C   UNL     1      11.302  -7.906 -21.136  1.00  0.00     0.000 C 
BRANCH   5   6
ATOM      6  C   UNL     1      11.159  -8.754 -22.410  1.00  0.00     0.000 C 
BRANCH   6   7
ATOM      7  C   UNL     1      11.828  -8.067 -23.606  1.00  0.00     0.006 C 
BRANCH   7   8
ATOM      8  C   UNL     1      13.166  -8.732 -23.943  1.00  0.00     0.053 C 
BRANCH   8   9
ATOM      9  C   UNL     1      12.958 -10.165 -24.323  1.00  0.00     0.041 C 
ATOM     10  O   UNL     1      12.236 -10.462 -25.311  1.00  0.00    -0.550 OA
ATOM     11  O   UNL     1      13.598 -11.171 -23.610  1.00  0.00    -0.550 OA
ENDBRANCH   8   9
ENDBRANCH   7   8
ENDBRANCH   6   7
ENDBRANCH   5   6
ENDBRANCH   4   5
ENDBRANCH   3   4
ENDBRANCH   2   3
ENDBRANCH   1   2
BRANCH   1  12
ATOM     12  C   UNL     1      13.395  -3.200 -23.050  1.00  0.00     0.000 C 
BRANCH  12  13
ATOM     13  C   UNL     1      12.365  -2.618 -24.031  1.00  0.00    -0.000 C 
BRANCH  13  14
ATOM     14  C   UNL     1      11.468  -3.697 -24.657  1.00  0.00    -0.000 C 
BRANCH  14  15
ATOM     15  C   UNL     1       9.979  -3.494 -24.328  1.00  0.00    -0.000 C 
BRANCH  15  16
ATOM     16  C   UNL     1       9.762  -2.777 -22.983  1.00  0.00    -0.000 C 
BRANCH  16  17
ATOM     17  C   UNL     1       9.472  -3.710 -21.789  1.00  0.00    -0.000 C 
BRANCH  17  18
ATOM     18  C   UNL     1       9.928  -3.177 -20.416  1.00  0.00    -0.000 C 
BRANCH  18  19
ATOM     19  C   UNL     1      11.141  -2.231 -20.462  1.00  0.00    -0.003 C 
ATOM     20  C   UNL     1      11.168  -1.243 -19.297  1.00  0.00     0.004 C 
ENDBRANCH  18  19
ENDBRANCH  17  18
ENDBRANCH  16  17
ENDBRANCH  15  16
ENDBRANCH  14  15
ENDBRANCH  13  14
ENDBRANCH  12  13
ENDBRANCH   1  12
TORSDOF 16
ENDMDL
