MODEL 1
REMARK VINA RESULT:    12.750      0.000      0.000
REMARK INTER + INTRA:          19.864
REMARK INTER:                  20.204
REMARK INTRA:                  -0.341
REMARK UNBOUND:                -0.341
REMARK SMILES CCCCCCCCCCCC(=O)[O-]
REMARK SMILES IDX 7 1 8 2 9 3 10 4 11 5 12 6 13 7 14 8 6 9 5 10 4 11 3 12 2 13
REMARK SMILES IDX 1 14
REMARK H PARENT
REMARK Flexibility Score: inf
ROOT
ATOM      1  C   UNL     1      -1.686   9.653 -24.200  1.00  0.00     0.000 C 
ENDROOT
BRANCH   1   2
ATOM      2  C   UNL     1      -1.680   8.395 -23.313  1.00  0.00     0.000 C 
BRANCH   2   3
ATOM      3  C   UNL     1      -2.984   7.575 -23.333  1.00  0.00     0.000 C 
BRANCH   3   4
ATOM      4  C   UNL     1      -3.472   7.149 -21.932  1.00  0.00     0.006 C 
BRANCH   4   5
ATOM      5  C   UNL     1      -2.440   7.441 -20.835  1.00  0.00     0.053 C 
BRANCH   5   6
ATOM      6  C   UNL     1      -3.086   7.407 -19.487  1.00  0.00     0.041 C 
ATOM      7  O   UNL     1      -2.479   6.901 -18.506  1.00  0.00    -0.550 OA
ATOM      8  O   UNL     1      -4.339   7.977 -19.300  1.00  0.00    -0.550 OA
ENDBRANCH   5   6
ENDBRANCH   4   5
ENDBRANCH   3   4
ENDBRANCH   2   3
ENDBRANCH   1   2
BRANCH   1   9
ATOM      9  C   UNL     1      -1.212   9.427 -25.648  1.00  0.00     0.000 C 
BRANCH   9  10
ATOM     10  C   UNL     1       0.031  10.262 -26.005  1.00  0.00    -0.000 C 
BRANCH  10  11
ATOM     11  C   UNL     1       1.049   9.477 -26.847  1.00  0.00    -0.000 C 
BRANCH  11  12
ATOM     12  C   UNL     1       0.610   8.025 -27.102  1.00  0.00    -0.000 C 
BRANCH  12  13
ATOM     13  C   UNL     1       1.376   7.017 -26.232  1.00  0.00    -0.003 C 
ATOM     14  C   UNL     1       0.785   6.875 -24.829  1.00  0.00     0.004 C 
ENDBRANCH  12  13
ENDBRANCH  11  12
ENDBRANCH  10  11
ENDBRANCH   9  10
ENDBRANCH   1   9
TORSDOF 10
ENDMDL
MODEL 2
REMARK VINA RESULT:    13.487      3.290      6.608
REMARK INTER + INTRA:          21.031
REMARK INTER:                  21.539
REMARK INTRA:                  -0.508
REMARK UNBOUND:                -0.341
REMARK SMILES CCCCCCCCCCCC(=O)[O-]
REMARK SMILES IDX 7 1 8 2 9 3 10 4 11 5 12 6 13 7 14 8 6 9 5 10 4 11 3 12 2 13
REMARK SMILES IDX 1 14
REMARK H PARENT
REMARK Flexibility Score: inf
ROOT
ATOM      1  C   UNL     1      -1.014   9.124 -22.847  1.00  0.00     0.000 C 
ENDROOT
BRANCH   1   2
ATOM      2  C   UNL     1      -1.720   9.667 -24.103  1.00  0.00     0.000 C 
BRANCH   2   3
ATOM      3  C   UNL     1      -1.152   9.160 -25.442  1.00  0.00     0.000 C 
BRANCH   3   4
ATOM      4  C   UNL     1       0.034   9.994 -25.970  1.00  0.00     0.006 C 
BRANCH   4   5
ATOM      5  C   UNL     1       1.031   9.153 -26.778  1.00  0.00     0.053 C 
BRANCH   5   6
ATOM      6  C   UNL     1       0.958   7.717 -26.368  1.00  0.00     0.041 C 
ATOM      7  O   UNL     1       0.370   6.878 -27.100  1.00  0.00    -0.550 OA
ATOM      8  O   UNL     1       1.582   7.294 -25.201  1.00  0.00    -0.550 OA
ENDBRANCH   5   6
ENDBRANCH   4   5
ENDBRANCH   3   4
ENDBRANCH   2   3
ENDBRANCH   1   2
BRANCH   1   9
ATOM      9  C   UNL     1      -1.222   7.621 -22.586  1.00  0.00     0.000 C 
BRANCH   9  10
ATOM     10  C   UNL     1      -2.688   7.183 -22.755  1.00  0.00    -0.000 C 
BRANCH  10  11
ATOM     11  C   UNL     1      -3.459   7.171 -21.426  1.00  0.00    -0.000 C 
BRANCH  11  12
ATOM     12  C   UNL     1      -2.529   7.056 -20.205  1.00  0.00    -0.000 C 
BRANCH  12  13
ATOM     13  C   UNL     1      -3.291   7.151 -18.874  1.00  0.00    -0.003 C 
ATOM     14  C   UNL     1      -4.308   8.291 -18.853  1.00  0.00     0.004 C 
ENDBRANCH  12  13
ENDBRANCH  11  12
ENDBRANCH  10  11
ENDBRANCH   9  10
ENDBRANCH   1   9
TORSDOF 10
ENDMDL
MODEL 3
REMARK VINA RESULT:    13.901     13.920     15.658
REMARK INTER + INTRA:          21.687
REMARK INTER:                  22.384
REMARK INTRA:                  -0.698
REMARK UNBOUND:                -0.341
REMARK SMILES CCCCCCCCCCCC(=O)[O-]
REMARK SMILES IDX 7 1 8 2 9 3 10 4 11 5 12 6 13 7 14 8 6 9 5 10 4 11 3 12 2 13
REMARK SMILES IDX 1 14
REMARK H PARENT
REMARK Flexibility Score: inf
ROOT
ATOM      1  C   UNL     1       4.384  17.722 -13.113  1.00  0.00     0.000 C 
ENDROOT
BRANCH   1   2
ATOM      2  C   UNL     1       5.047  17.404 -14.466  1.00  0.00     0.000 C 
BRANCH   2   3
ATOM      3  C   UNL     1       4.758  18.417 -15.589  1.00  0.00     0.000 C 
BRANCH   3   4
ATOM      4  C   UNL     1       4.925  17.837 -17.009  1.00  0.00     0.006 C 
BRANCH   4   5
ATOM      5  C   UNL     1       4.007  16.635 -17.266  1.00  0.00     0.053 C 
BRANCH   5   6
ATOM      6  C   UNL     1       3.881  16.376 -18.733  1.00  0.00     0.041 C 
ATOM      7  O   UNL     1       3.121  17.088 -19.440  1.00  0.00    -0.550 OA
ATOM      8  O   UNL     1       4.641  15.379 -19.331  1.00  0.00    -0.550 OA
ENDBRANCH   5   6
ENDBRANCH   4   5
ENDBRANCH   3   4
ENDBRANCH   2   3
ENDBRANCH   1   2
BRANCH   1   9
ATOM      9  C   UNL     1       5.078  18.827 -12.296  1.00  0.00     0.000 C 
BRANCH   9  10
ATOM     10  C   UNL     1       4.370  20.189 -12.412  1.00  0.00    -0.000 C 
BRANCH  10  11
ATOM     11  C   UNL     1       2.930  20.064 -12.935  1.00  0.00    -0.000 C 
BRANCH  11  12
ATOM     12  C   UNL     1       1.950  20.991 -12.193  1.00  0.00    -0.000 C 
BRANCH  12  13
ATOM     13  C   UNL     1       0.859  20.213 -11.443  1.00  0.00    -0.003 C 
ATOM     14  C   UNL     1       0.968  18.700 -11.637  1.00  0.00     0.004 C 
ENDBRANCH  12  13
ENDBRANCH  11  12
ENDBRANCH  10  11
ENDBRANCH   9  10
ENDBRANCH   1   9
TORSDOF 10
ENDMDL
MODEL 4
REMARK VINA RESULT:    13.953      3.607      4.421
REMARK INTER + INTRA:          21.769
REMARK INTER:                  22.666
REMARK INTRA:                  -0.897
REMARK UNBOUND:                -0.341
REMARK SMILES CCCCCCCCCCCC(=O)[O-]
REMARK SMILES IDX 7 1 8 2 9 3 10 4 11 5 12 6 13 7 14 8 6 9 5 10 4 11 3 12 2 13
REMARK SMILES IDX 1 14
REMARK H PARENT
REMARK Flexibility Score: inf
ROOT
ATOM      1  C   UNL     1      -2.423   8.218 -24.173  1.00  0.00     0.000 C 
ENDROOT
BRANCH   1   2
ATOM      2  C   UNL     1      -3.935   8.501 -24.101  1.00  0.00     0.000 C 
BRANCH   2   3
ATOM      3  C   UNL     1      -4.555   9.070 -25.391  1.00  0.00     0.000 C 
BRANCH   3   4
ATOM      4  C   UNL     1      -5.774   9.984 -25.144  1.00  0.00     0.006 C 
BRANCH   4   5
ATOM      5  C   UNL     1      -5.625  10.834 -23.876  1.00  0.00     0.053 C 
BRANCH   5   6
ATOM      6  C   UNL     1      -6.483  12.056 -23.961  1.00  0.00     0.041 C 
ATOM      7  O   UNL     1      -7.007  12.536 -22.922  1.00  0.00    -0.550 OA
ATOM      8  O   UNL     1      -6.665  12.695 -25.181  1.00  0.00    -0.550 OA
ENDBRANCH   5   6
ENDBRANCH   4   5
ENDBRANCH   3   4
ENDBRANCH   2   3
ENDBRANCH   1   2
BRANCH   1   9
ATOM      9  C   UNL     1      -1.534   9.263 -23.474  1.00  0.00     0.000 C 
BRANCH   9  10
ATOM     10  C   UNL     1      -0.705  10.100 -24.465  1.00  0.00    -0.000 C 
BRANCH  10  11
ATOM     11  C   UNL     1      -0.731   9.526 -25.890  1.00  0.00    -0.000 C 
BRANCH  11  12
ATOM     12  C   UNL     1       0.667   9.116 -26.387  1.00  0.00    -0.000 C 
BRANCH  12  13
ATOM     13  C   UNL     1       0.809   7.595 -26.555  1.00  0.00    -0.003 C 
ATOM     14  C   UNL     1       1.085   6.876 -25.235  1.00  0.00     0.004 C 
ENDBRANCH  12  13
ENDBRANCH  11  12
ENDBRANCH  10  11
ENDBRANCH   9  10
ENDBRANCH   1   9
TORSDOF 10
ENDMDL
MODEL 5
REMARK VINA RESULT:    14.018      6.978      8.653
REMARK INTER + INTRA:          21.872
REMARK INTER:                  22.331
REMARK INTRA:                  -0.459
REMARK UNBOUND:                -0.341
REMARK SMILES CCCCCCCCCCCC(=O)[O-]
REMARK SMILES IDX 7 1 8 2 9 3 10 4 11 5 12 6 13 7 14 8 6 9 5 10 4 11 3 12 2 13
REMARK SMILES IDX 1 14
REMARK H PARENT
REMARK Flexibility Score: inf
ROOT
ATOM      1  C   UNL     1      -6.471  12.855 -25.188  1.00  0.00     0.000 C 
ENDROOT
BRANCH   1   2
ATOM      2  C   UNL     1      -5.481  14.032 -25.109  1.00  0.00     0.000 C 
BRANCH   2   3
ATOM      3  C   UNL     1      -5.101  14.658 -26.465  1.00  0.00     0.000 C 
BRANCH   3   4
ATOM      4  C   UNL     1      -5.152  16.200 -26.474  1.00  0.00     0.006 C 
BRANCH   4   5
ATOM      5  C   UNL     1      -4.674  16.813 -25.151  1.00  0.00     0.053 C 
BRANCH   5   6
ATOM      6  C   UNL     1      -5.370  18.110 -24.893  1.00  0.00     0.041 C 
ATOM      7  O   UNL     1      -5.720  18.844 -25.854  1.00  0.00    -0.550 OA
ATOM      8  O   UNL     1      -5.677  18.489 -23.592  1.00  0.00    -0.550 OA
ENDBRANCH   5   6
ENDBRANCH   4   5
ENDBRANCH   3   4
ENDBRANCH   2   3
ENDBRANCH   1   2
BRANCH   1   9
ATOM      9  C   UNL     1      -6.572  12.007 -23.907  1.00  0.00     0.000 C 
BRANCH   9  10
ATOM     10  C   UNL     1      -5.468  10.938 -23.811  1.00  0.00    -0.000 C 
BRANCH  10  11
ATOM     11  C   UNL     1      -5.691   9.768 -24.783  1.00  0.00    -0.000 C 
BRANCH  11  12
ATOM     12  C   UNL     1      -4.371   9.164 -25.292  1.00  0.00    -0.000 C 
BRANCH  12  13
ATOM     13  C   UNL     1      -3.410   8.802 -24.150  1.00  0.00    -0.003 C 
ATOM     14  C   UNL     1      -1.961   9.191 -24.447  1.00  0.00     0.004 C 
ENDBRANCH  12  13
ENDBRANCH  11  12
ENDBRANCH  10  11
ENDBRANCH   9  10
ENDBRANCH   1   9
TORSDOF 10
ENDMDL
MODEL 6
REMARK VINA RESULT:    14.030      0.930      2.045
REMARK INTER + INTRA:          21.891
REMARK INTER:                  22.009
REMARK INTRA:                  -0.118
REMARK UNBOUND:                -0.341
REMARK SMILES CCCCCCCCCCCC(=O)[O-]
REMARK SMILES IDX 7 1 8 2 9 3 10 4 11 5 12 6 13 7 14 8 6 9 5 10 4 11 3 12 2 13
REMARK SMILES IDX 1 14
REMARK H PARENT
REMARK Flexibility Score: inf
ROOT
ATOM      1  C   UNL     1      -1.737   8.507 -23.541  1.00  0.00     0.000 C 
ENDROOT
BRANCH   1   2
ATOM      2  C   UNL     1      -3.019   7.654 -23.541  1.00  0.00     0.000 C 
BRANCH   2   3
ATOM      3  C   UNL     1      -3.345   6.965 -22.202  1.00  0.00     0.000 C 
BRANCH   3   4
ATOM      4  C   UNL     1      -2.261   7.163 -21.121  1.00  0.00     0.006 C 
BRANCH   4   5
ATOM      5  C   UNL     1      -2.781   6.875 -19.707  1.00  0.00     0.053 C 
BRANCH   5   6
ATOM      6  C   UNL     1      -3.394   8.104 -19.114  1.00  0.00     0.041 C 
ATOM      7  O   UNL     1      -2.662   9.036 -18.691  1.00  0.00    -0.550 OA
ATOM      8  O   UNL     1      -4.776   8.241 -19.074  1.00  0.00    -0.550 OA
ENDBRANCH   5   6
ENDBRANCH   4   5
ENDBRANCH   3   4
ENDBRANCH   2   3
ENDBRANCH   1   2
BRANCH   1   9
ATOM      9  C   UNL     1      -0.821   8.299 -24.761  1.00  0.00     0.000 C 
BRANCH   9  10
ATOM     10  C   UNL     1       0.306   7.285 -24.495  1.00  0.00    -0.000 C 
BRANCH  10  11
ATOM     11  C   UNL     1       1.063   6.893 -25.774  1.00  0.00    -0.000 C 
BRANCH  11  12
ATOM     12  C   UNL     1       0.650   7.742 -26.989  1.00  0.00    -0.000 C 
BRANCH  12  13
ATOM     13  C   UNL     1       1.327   9.121 -27.000  1.00  0.00    -0.003 C 
ATOM     14  C   UNL     1       0.324  10.274 -27.057  1.00  0.00     0.004 C 
ENDBRANCH  12  13
ENDBRANCH  11  12
ENDBRANCH  10  11
ENDBRANCH   9  10
ENDBRANCH   1   9
TORSDOF 10
ENDMDL
MODEL 7
REMARK VINA RESULT:    14.565      3.661      6.816
REMARK INTER + INTRA:          22.739
REMARK INTER:                  23.279
REMARK INTRA:                  -0.540
REMARK UNBOUND:                -0.341
REMARK SMILES CCCCCCCCCCCC(=O)[O-]
REMARK SMILES IDX 7 1 8 2 9 3 10 4 11 5 12 6 13 7 14 8 6 9 5 10 4 11 3 12 2 13
REMARK SMILES IDX 1 14
REMARK H PARENT
REMARK Flexibility Score: inf
ROOT
ATOM      1  C   UNL     1      -3.950   7.768 -23.720  1.00  0.00     0.000 C 
ENDROOT
BRANCH   1   2
ATOM      2  C   UNL     1      -3.074   8.856 -24.368  1.00  0.00     0.000 C 
BRANCH   2   3
ATOM      3  C   UNL     1      -1.561   8.713 -24.113  1.00  0.00     0.000 C 
BRANCH   3   4
ATOM      4  C   UNL     1      -0.708   9.791 -24.814  1.00  0.00     0.006 C 
BRANCH   4   5
ATOM      5  C   UNL     1      -0.504   9.501 -26.307  1.00  0.00     0.053 C 
BRANCH   5   6
ATOM      6  C   UNL     1       0.813   8.830 -26.534  1.00  0.00     0.041 C 
ATOM      7  O   UNL     1       1.814   9.502 -26.896  1.00  0.00    -0.550 OA
ATOM      8  O   UNL     1       0.949   7.467 -26.299  1.00  0.00    -0.550 OA
ENDBRANCH   5   6
ENDBRANCH   4   5
ENDBRANCH   3   4
ENDBRANCH   2   3
ENDBRANCH   1   2
BRANCH   1   9
ATOM      9  C   UNL     1      -3.223   6.875 -22.697  1.00  0.00     0.000 C 
BRANCH   9  10
ATOM     10  C   UNL     1      -3.803   7.002 -21.277  1.00  0.00    -0.000 C 
BRANCH  10  11
ATOM     11  C   UNL     1      -2.720   6.940 -20.188  1.00  0.00    -0.000 C 
BRANCH  11  12
ATOM     12  C   UNL     1      -3.193   7.535 -18.850  1.00  0.00    -0.000 C 
BRANCH  12  13
ATOM     13  C   UNL     1      -2.727   8.985 -18.653  1.00  0.00    -0.003 C 
ATOM     14  C   UNL     1      -1.375   9.268 -19.308  1.00  0.00     0.004 C 
ENDBRANCH  12  13
ENDBRANCH  11  12
ENDBRANCH  10  11
ENDBRANCH   9  10
ENDBRANCH   1   9
TORSDOF 10
ENDMDL
MODEL 8
REMARK VINA RESULT:    14.576      8.289     10.891
REMARK INTER + INTRA:          22.756
REMARK INTER:                  23.135
REMARK INTRA:                  -0.379
REMARK UNBOUND:                -0.341
REMARK SMILES CCCCCCCCCCCC(=O)[O-]
REMARK SMILES IDX 7 1 8 2 9 3 10 4 11 5 12 6 13 7 14 8 6 9 5 10 4 11 3 12 2 13
REMARK SMILES IDX 1 14
REMARK H PARENT
REMARK Flexibility Score: inf
ROOT
ATOM      1  C   UNL     1      -6.452  12.548 -24.537  1.00  0.00     0.000 C 
ENDROOT
BRANCH   1   2
ATOM      2  C   UNL     1      -5.698  13.890 -24.557  1.00  0.00     0.000 C 
BRANCH   2   3
ATOM      3  C   UNL     1      -5.417  14.459 -25.961  1.00  0.00     0.000 C 
BRANCH   3   4
ATOM      4  C   UNL     1      -4.550  15.736 -25.951  1.00  0.00     0.006 C 
BRANCH   4   5
ATOM      5  C   UNL     1      -5.375  17.009 -26.180  1.00  0.00     0.053 C 
BRANCH   5   6
ATOM      6  C   UNL     1      -5.290  17.909 -24.988  1.00  0.00     0.041 C 
ATOM      7  O   UNL     1      -5.906  19.006 -24.977  1.00  0.00    -0.550 OA
ATOM      8  O   UNL     1      -4.569  17.514 -23.868  1.00  0.00    -0.550 OA
ENDBRANCH   5   6
ENDBRANCH   4   5
ENDBRANCH   3   4
ENDBRANCH   2   3
ENDBRANCH   1   2
BRANCH   1   9
ATOM      9  C   UNL     1      -6.976  12.119 -23.153  1.00  0.00     0.000 C 
BRANCH   9  10
ATOM     10  C   UNL     1      -7.424  13.312 -22.290  1.00  0.00    -0.000 C 
BRANCH  10  11
ATOM     11  C   UNL     1      -8.408  12.904 -21.182  1.00  0.00    -0.000 C 
BRANCH  11  12
ATOM     12  C   UNL     1      -8.750  14.069 -20.237  1.00  0.00    -0.000 C 
BRANCH  12  13
ATOM     13  C   UNL     1      -8.795  13.639 -18.763  1.00  0.00    -0.003 C 
ATOM     14  C   UNL     1      -9.191  14.778 -17.824  1.00  0.00     0.004 C 
ENDBRANCH  12  13
ENDBRANCH  11  12
ENDBRANCH  10  11
ENDBRANCH   9  10
ENDBRANCH   1   9
TORSDOF 10
ENDMDL
MODEL 9
REMARK VINA RESULT:    15.024      3.628      5.831
REMARK INTER + INTRA:          23.467
REMARK INTER:                  23.965
REMARK INTRA:                  -0.498
REMARK UNBOUND:                -0.341
REMARK SMILES CCCCCCCCCCCC(=O)[O-]
REMARK SMILES IDX 7 1 8 2 9 3 10 4 11 5 12 6 13 7 14 8 6 9 5 10 4 11 3 12 2 13
REMARK SMILES IDX 1 14
REMARK H PARENT
REMARK Flexibility Score: inf
ROOT
ATOM      1  C   UNL     1      -2.488   9.433 -24.862  1.00  0.00     0.000 C 
ENDROOT
BRANCH   1   2
ATOM      2  C   UNL     1      -3.797   8.805 -24.349  1.00  0.00     0.000 C 
BRANCH   2   3
ATOM      3  C   UNL     1      -4.987   8.887 -25.325  1.00  0.00     0.000 C 
BRANCH   3   4
ATOM      4  C   UNL     1      -5.756  10.224 -25.257  1.00  0.00     0.006 C 
BRANCH   4   5
ATOM      5  C   UNL     1      -5.792  10.811 -23.840  1.00  0.00     0.053 C 
BRANCH   5   6
ATOM      6  C   UNL     1      -6.497  12.129 -23.838  1.00  0.00     0.041 C 
ATOM      7  O   UNL     1      -6.456  12.872 -24.854  1.00  0.00    -0.550 OA
ATOM      8  O   UNL     1      -7.241  12.519 -22.732  1.00  0.00    -0.550 OA
ENDBRANCH   5   6
ENDBRANCH   4   5
ENDBRANCH   3   4
ENDBRANCH   2   3
ENDBRANCH   1   2
BRANCH   1   9
ATOM      9  C   UNL     1      -1.252   9.163 -23.984  1.00  0.00     0.000 C 
BRANCH   9  10
ATOM     10  C   UNL     1      -1.338   7.823 -23.230  1.00  0.00    -0.000 C 
BRANCH  10  11
ATOM     11  C   UNL     1      -1.582   8.007 -21.723  1.00  0.00    -0.000 C 
BRANCH  11  12
ATOM     12  C   UNL     1      -2.781   7.188 -21.215  1.00  0.00    -0.000 C 
BRANCH  12  13
ATOM     13  C   UNL     1      -2.790   7.045 -19.685  1.00  0.00    -0.003 C 
ATOM     14  C   UNL     1      -3.771   8.002 -19.006  1.00  0.00     0.004 C 
ENDBRANCH  12  13
ENDBRANCH  11  12
ENDBRANCH  10  11
ENDBRANCH   9  10
ENDBRANCH   1   9
TORSDOF 10
ENDMDL
