MODEL 1
REMARK VINA RESULT:    -6.393      0.000      0.000
REMARK INTER + INTRA:         -11.936
REMARK INTER:                 -10.878
REMARK INTRA:                  -1.058
REMARK UNBOUND:                -1.058
REMARK SMILES CCCCCCCCCCCCCC(=O)[O-]
REMARK SMILES IDX 8 1 9 2 10 3 11 4 12 5 13 6 14 7 15 8 16 9 7 10 6 11 5 12
REMARK SMILES IDX 4 13 3 14 2 15 1 16
REMARK H PARENT
REMARK Flexibility Score: inf
ROOT
ATOM      1  C   UNL     1     -22.038 -43.091  23.488  1.00  0.00     0.000 C 
ENDROOT
BRANCH   1   2
ATOM      2  C   UNL     1     -21.689 -41.624  23.181  1.00  0.00     0.000 C 
BRANCH   2   3
ATOM      3  C   UNL     1     -20.734 -41.473  21.985  1.00  0.00     0.000 C 
BRANCH   3   4
ATOM      4  C   UNL     1     -19.411 -40.744  22.288  1.00  0.00     0.000 C 
BRANCH   4   5
ATOM      5  C   UNL     1     -19.560 -39.654  23.364  1.00  0.00     0.006 C 
BRANCH   5   6
ATOM      6  C   UNL     1     -18.367 -38.688  23.379  1.00  0.00     0.053 C 
BRANCH   6   7
ATOM      7  C   UNL     1     -17.779 -38.550  24.750  1.00  0.00     0.041 C 
ATOM      8  O   UNL     1     -18.512 -38.653  25.768  1.00  0.00    -0.550 OA
ATOM      9  O   UNL     1     -16.425 -38.279  24.903  1.00  0.00    -0.550 OA
ENDBRANCH   6   7
ENDBRANCH   5   6
ENDBRANCH   4   5
ENDBRANCH   3   4
ENDBRANCH   2   3
ENDBRANCH   1   2
BRANCH   1  10
ATOM     10  C   UNL     1     -21.172 -43.678  24.614  1.00  0.00     0.000 C 
BRANCH  10  11
ATOM     11  C   UNL     1     -20.012 -44.542  24.083  1.00  0.00    -0.000 C 
BRANCH  11  12
ATOM     12  C   UNL     1     -20.060 -45.990  24.602  1.00  0.00    -0.000 C 
BRANCH  12  13
ATOM     13  C   UNL     1     -20.098 -47.073  23.508  1.00  0.00    -0.000 C 
BRANCH  13  14
ATOM     14  C   UNL     1     -21.442 -47.821  23.451  1.00  0.00    -0.000 C 
BRANCH  14  15
ATOM     15  C   UNL     1     -22.569 -46.961  22.858  1.00  0.00    -0.003 C 
ATOM     16  C   UNL     1     -23.753 -46.798  23.810  1.00  0.00     0.004 C 
ENDBRANCH  14  15
ENDBRANCH  13  14
ENDBRANCH  12  13
ENDBRANCH  11  12
ENDBRANCH  10  11
ENDBRANCH   1  10
TORSDOF 12
ENDMDL
MODEL 2
REMARK VINA RESULT:    -6.367      1.360      1.991
REMARK INTER + INTRA:         -11.891
REMARK INTER:                 -10.540
REMARK INTRA:                  -1.352
REMARK UNBOUND:                -1.058
REMARK SMILES CCCCCCCCCCCCCC(=O)[O-]
REMARK SMILES IDX 8 1 9 2 10 3 11 4 12 5 13 6 14 7 15 8 16 9 7 10 6 11 5 12
REMARK SMILES IDX 4 13 3 14 2 15 1 16
REMARK H PARENT
REMARK Flexibility Score: inf
ROOT
ATOM      1  C   UNL     1     -19.938 -43.445  24.383  1.00  0.00     0.000 C 
ENDROOT
BRANCH   1   2
ATOM      2  C   UNL     1     -21.294 -42.798  24.050  1.00  0.00     0.000 C 
BRANCH   2   3
ATOM      3  C   UNL     1     -21.254 -41.950  22.766  1.00  0.00     0.000 C 
BRANCH   3   4
ATOM      4  C   UNL     1     -19.947 -41.170  22.534  1.00  0.00     0.000 C 
BRANCH   4   5
ATOM      5  C   UNL     1     -20.033 -39.704  22.992  1.00  0.00     0.006 C 
BRANCH   5   6
ATOM      6  C   UNL     1     -19.180 -39.437  24.240  1.00  0.00     0.053 C 
BRANCH   6   7
ATOM      7  C   UNL     1     -19.957 -39.652  25.504  1.00  0.00     0.041 C 
ATOM      8  O   UNL     1     -19.379 -40.074  26.539  1.00  0.00    -0.550 OA
ATOM      9  O   UNL     1     -21.326 -39.416  25.528  1.00  0.00    -0.550 OA
ENDBRANCH   6   7
ENDBRANCH   5   6
ENDBRANCH   4   5
ENDBRANCH   3   4
ENDBRANCH   2   3
ENDBRANCH   1   2
BRANCH   1  10
ATOM     10  C   UNL     1     -20.074 -44.926  24.771  1.00  0.00     0.000 C 
BRANCH  10  11
ATOM     11  C   UNL     1     -19.973 -45.870  23.559  1.00  0.00    -0.000 C 
BRANCH  11  12
ATOM     12  C   UNL     1     -20.264 -47.338  23.919  1.00  0.00    -0.000 C 
BRANCH  12  13
ATOM     13  C   UNL     1     -21.426 -47.982  23.139  1.00  0.00    -0.000 C 
BRANCH  13  14
ATOM     14  C   UNL     1     -22.486 -46.961  22.690  1.00  0.00    -0.000 C 
BRANCH  14  15
ATOM     15  C   UNL     1     -23.644 -46.837  23.692  1.00  0.00    -0.003 C 
ATOM     16  C   UNL     1     -23.868 -45.402  24.167  1.00  0.00     0.004 C 
ENDBRANCH  14  15
ENDBRANCH  13  14
ENDBRANCH  12  13
ENDBRANCH  11  12
ENDBRANCH  10  11
ENDBRANCH   1  10
TORSDOF 12
ENDMDL
MODEL 3
REMARK VINA RESULT:    -6.341      3.800      7.206
REMARK INTER + INTRA:         -11.848
REMARK INTER:                 -10.720
REMARK INTRA:                  -1.127
REMARK UNBOUND:                -1.058
REMARK SMILES CCCCCCCCCCCCCC(=O)[O-]
REMARK SMILES IDX 8 1 9 2 10 3 11 4 12 5 13 6 14 7 15 8 16 9 7 10 6 11 5 12
REMARK SMILES IDX 4 13 3 14 2 15 1 16
REMARK H PARENT
REMARK Flexibility Score: inf
ROOT
ATOM      1  C   UNL     1     -20.468 -43.556  25.787  1.00  0.00     0.000 C 
ENDROOT
BRANCH   1   2
ATOM      2  C   UNL     1     -20.067 -44.291  24.496  1.00  0.00     0.000 C 
BRANCH   2   3
ATOM      3  C   UNL     1     -20.053 -45.822  24.657  1.00  0.00     0.000 C 
BRANCH   3   4
ATOM      4  C   UNL     1     -20.102 -46.620  23.341  1.00  0.00     0.000 C 
BRANCH   4   5
ATOM      5  C   UNL     1     -21.201 -47.697  23.333  1.00  0.00     0.006 C 
BRANCH   5   6
ATOM      6  C   UNL     1     -22.485 -47.219  24.026  1.00  0.00     0.053 C 
BRANCH   6   7
ATOM      7  C   UNL     1     -23.367 -46.446  23.093  1.00  0.00     0.041 C 
ATOM      8  O   UNL     1     -24.105 -47.050  22.273  1.00  0.00    -0.550 OA
ATOM      9  O   UNL     1     -23.351 -45.057  23.111  1.00  0.00    -0.550 OA
ENDBRANCH   6   7
ENDBRANCH   5   6
ENDBRANCH   4   5
ENDBRANCH   3   4
ENDBRANCH   2   3
ENDBRANCH   1   2
BRANCH   1  10
ATOM     10  C   UNL     1     -19.288 -42.809  26.430  1.00  0.00     0.000 C 
BRANCH  10  11
ATOM     11  C   UNL     1     -19.725 -41.529  27.167  1.00  0.00    -0.000 C 
BRANCH  11  12
ATOM     12  C   UNL     1     -19.598 -40.266  26.296  1.00  0.00    -0.000 C 
BRANCH  12  13
ATOM     13  C   UNL     1     -20.918 -39.765  25.679  1.00  0.00    -0.000 C 
BRANCH  13  14
ATOM     14  C   UNL     1     -21.196 -40.366  24.290  1.00  0.00    -0.000 C 
BRANCH  14  15
ATOM     15  C   UNL     1     -20.117 -39.992  23.261  1.00  0.00    -0.003 C 
ATOM     16  C   UNL     1     -20.213 -40.813  21.976  1.00  0.00     0.004 C 
ENDBRANCH  14  15
ENDBRANCH  13  14
ENDBRANCH  12  13
ENDBRANCH  11  12
ENDBRANCH  10  11
ENDBRANCH   1  10
TORSDOF 12
ENDMDL
MODEL 4
REMARK VINA RESULT:    -6.297      1.964      2.405
REMARK INTER + INTRA:         -11.773
REMARK INTER:                 -10.473
REMARK INTRA:                  -1.300
REMARK UNBOUND:                -1.058
REMARK SMILES CCCCCCCCCCCCCC(=O)[O-]
REMARK SMILES IDX 8 1 9 2 10 3 11 4 12 5 13 6 14 7 15 8 16 9 7 10 6 11 5 12
REMARK SMILES IDX 4 13 3 14 2 15 1 16
REMARK H PARENT
REMARK Flexibility Score: inf
ROOT
ATOM      1  C   UNL     1     -21.434 -43.513  24.570  1.00  0.00     0.000 C 
ENDROOT
BRANCH   1   2
ATOM      2  C   UNL     1     -21.797 -42.315  23.676  1.00  0.00     0.000 C 
BRANCH   2   3
ATOM      3  C   UNL     1     -20.562 -41.576  23.133  1.00  0.00     0.000 C 
BRANCH   3   4
ATOM      4  C   UNL     1     -20.376 -40.138  23.652  1.00  0.00     0.000 C 
BRANCH   4   5
ATOM      5  C   UNL     1     -20.665 -40.001  25.156  1.00  0.00     0.006 C 
BRANCH   5   6
ATOM      6  C   UNL     1     -19.394 -40.140  26.006  1.00  0.00     0.053 C 
BRANCH   6   7
ATOM      7  C   UNL     1     -19.483 -41.294  26.958  1.00  0.00     0.041 C 
ATOM      8  O   UNL     1     -18.459 -41.977  27.222  1.00  0.00    -0.550 OA
ATOM      9  O   UNL     1     -20.703 -41.634  27.529  1.00  0.00    -0.550 OA
ENDBRANCH   6   7
ENDBRANCH   5   6
ENDBRANCH   4   5
ENDBRANCH   3   4
ENDBRANCH   2   3
ENDBRANCH   1   2
BRANCH   1  10
ATOM     10  C   UNL     1     -19.999 -44.011  24.332  1.00  0.00     0.000 C 
BRANCH  10  11
ATOM     11  C   UNL     1     -19.948 -45.475  23.858  1.00  0.00    -0.000 C 
BRANCH  11  12
ATOM     12  C   UNL     1     -20.193 -46.480  24.998  1.00  0.00    -0.000 C 
BRANCH  12  13
ATOM     13  C   UNL     1     -21.208 -47.594  24.677  1.00  0.00    -0.000 C 
BRANCH  13  14
ATOM     14  C   UNL     1     -21.402 -47.811  23.166  1.00  0.00    -0.000 C 
BRANCH  14  15
ATOM     15  C   UNL     1     -22.734 -47.240  22.656  1.00  0.00    -0.003 C 
ATOM     16  C   UNL     1     -23.686 -46.853  23.787  1.00  0.00     0.004 C 
ENDBRANCH  14  15
ENDBRANCH  13  14
ENDBRANCH  12  13
ENDBRANCH  11  12
ENDBRANCH  10  11
ENDBRANCH   1  10
TORSDOF 12
ENDMDL
MODEL 5
REMARK VINA RESULT:    -6.255      3.826      7.205
REMARK INTER + INTRA:         -11.702
REMARK INTER:                 -10.283
REMARK INTRA:                  -1.419
REMARK UNBOUND:                -1.058
REMARK SMILES CCCCCCCCCCCCCC(=O)[O-]
REMARK SMILES IDX 8 1 9 2 10 3 11 4 12 5 13 6 14 7 15 8 16 9 7 10 6 11 5 12
REMARK SMILES IDX 4 13 3 14 2 15 1 16
REMARK H PARENT
REMARK Flexibility Score: inf
ROOT
ATOM      1  C   UNL     1     -21.545 -43.408  23.293  1.00  0.00     0.000 C 
ENDROOT
BRANCH   1   2
ATOM      2  C   UNL     1     -21.160 -43.748  24.744  1.00  0.00     0.000 C 
BRANCH   2   3
ATOM      3  C   UNL     1     -19.990 -44.743  24.836  1.00  0.00     0.000 C 
BRANCH   3   4
ATOM      4  C   UNL     1     -19.931 -45.793  23.711  1.00  0.00     0.000 C 
BRANCH   4   5
ATOM      5  C   UNL     1     -20.200 -47.223  24.211  1.00  0.00     0.006 C 
BRANCH   5   6
ATOM      6  C   UNL     1     -21.133 -47.999  23.271  1.00  0.00     0.053 C 
BRANCH   6   7
ATOM      7  C   UNL     1     -22.401 -47.247  22.999  1.00  0.00     0.041 C 
ATOM      8  O   UNL     1     -22.699 -46.912  21.822  1.00  0.00    -0.550 OA
ATOM      9  O   UNL     1     -23.238 -46.892  24.048  1.00  0.00    -0.550 OA
ENDBRANCH   6   7
ENDBRANCH   5   6
ENDBRANCH   4   5
ENDBRANCH   3   4
ENDBRANCH   2   3
ENDBRANCH   1   2
BRANCH   1  10
ATOM     10  C   UNL     1     -21.893 -41.922  23.110  1.00  0.00     0.000 C 
BRANCH  10  11
ATOM     11  C   UNL     1     -20.828 -41.157  22.302  1.00  0.00    -0.000 C 
BRANCH  11  12
ATOM     12  C   UNL     1     -20.147 -40.042  23.117  1.00  0.00    -0.000 C 
BRANCH  12  13
ATOM     13  C   UNL     1     -20.730 -39.815  24.524  1.00  0.00    -0.000 C 
BRANCH  13  14
ATOM     14  C   UNL     1     -19.670 -39.920  25.636  1.00  0.00    -0.000 C 
BRANCH  14  15
ATOM     15  C   UNL     1     -20.075 -40.905  26.743  1.00  0.00    -0.003 C 
ATOM     16  C   UNL     1     -18.932 -41.829  27.162  1.00  0.00     0.004 C 
ENDBRANCH  14  15
ENDBRANCH  13  14
ENDBRANCH  12  13
ENDBRANCH  11  12
ENDBRANCH  10  11
ENDBRANCH   1  10
TORSDOF 12
ENDMDL
MODEL 6
REMARK VINA RESULT:    -6.223      1.710      2.653
REMARK INTER + INTRA:         -11.647
REMARK INTER:                 -10.384
REMARK INTRA:                  -1.264
REMARK UNBOUND:                -1.058
REMARK SMILES CCCCCCCCCCCCCC(=O)[O-]
REMARK SMILES IDX 8 1 9 2 10 3 11 4 12 5 13 6 14 7 15 8 16 9 7 10 6 11 5 12
REMARK SMILES IDX 4 13 3 14 2 15 1 16
REMARK H PARENT
REMARK Flexibility Score: inf
ROOT
ATOM      1  C   UNL     1     -19.988 -45.249  25.248  1.00  0.00     0.000 C 
ENDROOT
BRANCH   1   2
ATOM      2  C   UNL     1     -20.338 -43.760  25.081  1.00  0.00     0.000 C 
BRANCH   2   3
ATOM      3  C   UNL     1     -19.575 -43.090  23.925  1.00  0.00     0.000 C 
BRANCH   3   4
ATOM      4  C   UNL     1     -19.888 -41.598  23.708  1.00  0.00     0.000 C 
BRANCH   4   5
ATOM      5  C   UNL     1     -21.170 -41.144  24.426  1.00  0.00     0.006 C 
BRANCH   5   6
ATOM      6  C   UNL     1     -20.980 -39.812  25.164  1.00  0.00     0.053 C 
BRANCH   6   7
ATOM      7  C   UNL     1     -19.759 -39.824  26.033  1.00  0.00     0.041 C 
ATOM      8  O   UNL     1     -19.671 -40.638  26.990  1.00  0.00    -0.550 OA
ATOM      9  O   UNL     1     -18.732 -38.917  25.804  1.00  0.00    -0.550 OA
ENDBRANCH   6   7
ENDBRANCH   5   6
ENDBRANCH   4   5
ENDBRANCH   3   4
ENDBRANCH   2   3
ENDBRANCH   1   2
BRANCH   1  10
ATOM     10  C   UNL     1     -20.006 -46.011  23.913  1.00  0.00     0.000 C 
BRANCH  10  11
ATOM     11  C   UNL     1     -20.280 -47.515  24.089  1.00  0.00    -0.000 C 
BRANCH  11  12
ATOM     12  C   UNL     1     -21.366 -48.041  23.133  1.00  0.00    -0.000 C 
BRANCH  12  13
ATOM     13  C   UNL     1     -22.115 -46.955  22.338  1.00  0.00    -0.000 C 
BRANCH  13  14
ATOM     14  C   UNL     1     -23.644 -47.062  22.471  1.00  0.00    -0.000 C 
BRANCH  14  15
ATOM     15  C   UNL     1     -24.141 -46.682  23.874  1.00  0.00    -0.003 C 
ATOM     16  C   UNL     1     -23.745 -45.263  24.279  1.00  0.00     0.004 C 
ENDBRANCH  14  15
ENDBRANCH  13  14
ENDBRANCH  12  13
ENDBRANCH  11  12
ENDBRANCH  10  11
ENDBRANCH   1  10
TORSDOF 12
ENDMDL
MODEL 7
REMARK VINA RESULT:    -6.221      3.452      7.237
REMARK INTER + INTRA:         -11.643
REMARK INTER:                 -10.264
REMARK INTRA:                  -1.379
REMARK UNBOUND:                -1.058
REMARK SMILES CCCCCCCCCCCCCC(=O)[O-]
REMARK SMILES IDX 8 1 9 2 10 3 11 4 12 5 13 6 14 7 15 8 16 9 7 10 6 11 5 12
REMARK SMILES IDX 4 13 3 14 2 15 1 16
REMARK H PARENT
REMARK Flexibility Score: inf
ROOT
ATOM      1  C   UNL     1     -20.742 -43.464  24.930  1.00  0.00     0.000 C 
ENDROOT
BRANCH   1   2
ATOM      2  C   UNL     1     -20.022 -44.733  25.420  1.00  0.00     0.000 C 
BRANCH   2   3
ATOM      3  C   UNL     1     -19.926 -45.824  24.339  1.00  0.00     0.000 C 
BRANCH   3   4
ATOM      4  C   UNL     1     -20.742 -47.099  24.619  1.00  0.00     0.000 C 
BRANCH   4   5
ATOM      5  C   UNL     1     -21.369 -47.701  23.351  1.00  0.00     0.006 C 
BRANCH   5   6
ATOM      6  C   UNL     1     -22.083 -46.643  22.499  1.00  0.00     0.053 C 
BRANCH   6   7
ATOM      7  C   UNL     1     -23.292 -46.091  23.192  1.00  0.00     0.041 C 
ATOM      8  O   UNL     1     -23.475 -44.847  23.253  1.00  0.00    -0.550 OA
ATOM      9  O   UNL     1     -24.200 -46.950  23.798  1.00  0.00    -0.550 OA
ENDBRANCH   6   7
ENDBRANCH   5   6
ENDBRANCH   4   5
ENDBRANCH   3   4
ENDBRANCH   2   3
ENDBRANCH   1   2
BRANCH   1  10
ATOM     10  C   UNL     1     -20.322 -43.063  23.507  1.00  0.00     0.000 C 
BRANCH  10  11
ATOM     11  C   UNL     1     -21.239 -41.986  22.897  1.00  0.00    -0.000 C 
BRANCH  11  12
ATOM     12  C   UNL     1     -20.530 -41.133  21.830  1.00  0.00    -0.000 C 
BRANCH  12  13
ATOM     13  C   UNL     1     -19.184 -40.527  22.269  1.00  0.00    -0.000 C 
BRANCH  13  14
ATOM     14  C   UNL     1     -19.347 -39.330  23.223  1.00  0.00    -0.000 C 
BRANCH  14  15
ATOM     15  C   UNL     1     -18.988 -39.683  24.675  1.00  0.00    -0.003 C 
ATOM     16  C   UNL     1     -20.185 -39.592  25.621  1.00  0.00     0.004 C 
ENDBRANCH  14  15
ENDBRANCH  13  14
ENDBRANCH  12  13
ENDBRANCH  11  12
ENDBRANCH  10  11
ENDBRANCH   1  10
TORSDOF 12
ENDMDL
MODEL 8
REMARK VINA RESULT:    -6.196      1.896      2.641
REMARK INTER + INTRA:         -11.601
REMARK INTER:                 -10.650
REMARK INTRA:                  -0.951
REMARK UNBOUND:                -1.058
REMARK SMILES CCCCCCCCCCCCCC(=O)[O-]
REMARK SMILES IDX 8 1 9 2 10 3 11 4 12 5 13 6 14 7 15 8 16 9 7 10 6 11 5 12
REMARK SMILES IDX 4 13 3 14 2 15 1 16
REMARK H PARENT
REMARK Flexibility Score: inf
ROOT
ATOM      1  C   UNL     1     -19.639 -43.372  24.567  1.00  0.00     0.000 C 
ENDROOT
BRANCH   1   2
ATOM      2  C   UNL     1     -20.174 -43.064  25.977  1.00  0.00     0.000 C 
BRANCH   2   3
ATOM      3  C   UNL     1     -19.372 -41.964  26.695  1.00  0.00     0.000 C 
BRANCH   3   4
ATOM      4  C   UNL     1     -18.862 -40.827  25.790  1.00  0.00     0.000 C 
BRANCH   4   5
ATOM      5  C   UNL     1     -19.947 -39.786  25.466  1.00  0.00     0.006 C 
BRANCH   5   6
ATOM      6  C   UNL     1     -20.381 -39.841  23.995  1.00  0.00     0.053 C 
BRANCH   6   7
ATOM      7  C   UNL     1     -19.217 -39.692  23.063  1.00  0.00     0.041 C 
ATOM      8  O   UNL     1     -18.479 -38.675  23.129  1.00  0.00    -0.550 OA
ATOM      9  O   UNL     1     -18.965 -40.664  22.103  1.00  0.00    -0.550 OA
ENDBRANCH   6   7
ENDBRANCH   5   6
ENDBRANCH   4   5
ENDBRANCH   3   4
ENDBRANCH   2   3
ENDBRANCH   1   2
BRANCH   1  10
ATOM     10  C   UNL     1     -20.057 -44.766  24.071  1.00  0.00     0.000 C 
BRANCH  10  11
ATOM     11  C   UNL     1     -20.038 -45.825  25.188  1.00  0.00    -0.000 C 
BRANCH  11  12
ATOM     12  C   UNL     1     -20.174 -47.261  24.651  1.00  0.00    -0.000 C 
BRANCH  12  13
ATOM     13  C   UNL     1     -21.614 -47.700  24.323  1.00  0.00    -0.000 C 
BRANCH  13  14
ATOM     14  C   UNL     1     -21.902 -47.733  22.811  1.00  0.00    -0.000 C 
BRANCH  14  15
ATOM     15  C   UNL     1     -23.299 -47.194  22.467  1.00  0.00    -0.003 C 
ATOM     16  C   UNL     1     -24.033 -46.628  23.683  1.00  0.00     0.004 C 
ENDBRANCH  14  15
ENDBRANCH  13  14
ENDBRANCH  12  13
ENDBRANCH  11  12
ENDBRANCH  10  11
ENDBRANCH   1  10
TORSDOF 12
ENDMDL
MODEL 9
REMARK VINA RESULT:    -6.131      1.877      3.132
REMARK INTER + INTRA:         -11.491
REMARK INTER:                 -10.322
REMARK INTRA:                  -1.169
REMARK UNBOUND:                -1.058
REMARK SMILES CCCCCCCCCCCCCC(=O)[O-]
REMARK SMILES IDX 8 1 9 2 10 3 11 4 12 5 13 6 14 7 15 8 16 9 7 10 6 11 5 12
REMARK SMILES IDX 4 13 3 14 2 15 1 16
REMARK H PARENT
REMARK Flexibility Score: inf
ROOT
ATOM      1  C   UNL     1     -20.626 -41.351  22.004  1.00  0.00     0.000 C 
ENDROOT
BRANCH   1   2
ATOM      2  C   UNL     1     -19.360 -40.523  22.287  1.00  0.00     0.000 C 
BRANCH   2   3
ATOM      3  C   UNL     1     -19.601 -39.381  23.290  1.00  0.00     0.000 C 
BRANCH   3   4
ATOM      4  C   UNL     1     -18.363 -38.941  24.094  1.00  0.00     0.000 C 
BRANCH   4   5
ATOM      5  C   UNL     1     -18.240 -39.660  25.448  1.00  0.00     0.006 C 
BRANCH   5   6
ATOM      6  C   UNL     1     -19.611 -39.999  26.051  1.00  0.00     0.053 C 
BRANCH   6   7
ATOM      7  C   UNL     1     -19.550 -41.213  26.927  1.00  0.00     0.041 C 
ATOM      8  O   UNL     1     -18.472 -41.850  27.054  1.00  0.00    -0.550 OA
ATOM      9  O   UNL     1     -20.693 -41.659  27.580  1.00  0.00    -0.550 OA
ENDBRANCH   6   7
ENDBRANCH   5   6
ENDBRANCH   4   5
ENDBRANCH   3   4
ENDBRANCH   2   3
ENDBRANCH   1   2
BRANCH   1  10
ATOM     10  C   UNL     1     -21.394 -41.706  23.287  1.00  0.00     0.000 C 
BRANCH  10  11
ATOM     11  C   UNL     1     -21.417 -43.220  23.567  1.00  0.00    -0.000 C 
BRANCH  11  12
ATOM     12  C   UNL     1     -20.060 -43.758  24.055  1.00  0.00    -0.000 C 
BRANCH  12  13
ATOM     13  C   UNL     1     -20.119 -44.608  25.338  1.00  0.00    -0.000 C 
BRANCH  13  14
ATOM     14  C   UNL     1     -20.004 -46.118  25.063  1.00  0.00    -0.000 C 
BRANCH  14  15
ATOM     15  C   UNL     1     -20.143 -46.456  23.571  1.00  0.00    -0.003 C 
ATOM     16  C   UNL     1     -21.013 -47.688  23.320  1.00  0.00     0.004 C 
ENDBRANCH  14  15
ENDBRANCH  13  14
ENDBRANCH  12  13
ENDBRANCH  11  12
ENDBRANCH  10  11
ENDBRANCH   1  10
TORSDOF 12
ENDMDL
