MODEL 1
REMARK VINA RESULT:    62.244      0.000      0.000
REMARK INTER + INTRA:          86.631
REMARK INTER:                  85.897
REMARK INTRA:                   0.734
REMARK UNBOUND:                 0.734
REMARK SMILES CC[C@@H](CC[C@@H](C)[C@@H]1CC[C@@H]2C3=CC[C@@H]4C[C@H](O)CC[C@@]4(C)[C@H]3CC[C@]21C)C(C)C
REMARK SMILES IDX 5 1 4 2 3 3 2 4 1 5 28 6 29 7 30 8 6 9 7 10 8 11 9 12 26 13
REMARK SMILES IDX 10 14 11 15 25 16 27 17 12 18 24 19 23 20 13 21 21 22 14 23
REMARK SMILES IDX 15 24 20 25 22 26 16 27 19 28 17 29 18 30
REMARK H PARENT 18 31
REMARK Flexibility Score: inf
ROOT
ATOM      1  C   UNL     1     -27.070  32.220  -4.721  1.00  0.00     0.004 C 
ENDROOT
BRANCH   1   2
ATOM      2  C   UNL     1     -26.309  31.169  -5.575  1.00  0.00     0.004 C 
BRANCH   2   3
ATOM      3  C   UNL     1     -26.671  31.220  -7.096  1.00  0.00    -0.009 C 
BRANCH   3   4
ATOM      4  C   UNL     1     -27.869  30.261  -7.402  1.00  0.00     0.000 C 
ATOM      5  C   UNL     1     -27.599  28.818  -6.963  1.00  0.00     0.004 C 
ENDBRANCH   3   4
BRANCH   3   6
ATOM      6  C   UNL     1     -25.422  30.891  -7.992  1.00  0.00    -0.014 C 
ATOM      7  C   UNL     1     -25.100  32.020  -8.988  1.00  0.00     0.007 C 
ATOM      8  C   UNL     1     -25.598  29.584  -8.785  1.00  0.00     0.007 C 
ENDBRANCH   3   6
ENDBRANCH   2   3
ENDBRANCH   1   2
BRANCH   1   9
ATOM      9  C   UNL     1     -26.535  32.375  -3.272  1.00  0.00    -0.011 C 
ATOM     10  C   UNL     1     -25.634  33.619  -3.151  1.00  0.00     0.008 C 
BRANCH   9  11
ATOM     11  C   UNL     1     -27.696  32.282  -2.209  1.00  0.00    -0.002 C 
ATOM     12  C   UNL     1     -27.384  31.635  -0.828  1.00  0.00     0.005 C 
ATOM     13  C   UNL     1     -28.966  31.523  -2.672  1.00  0.00    -0.023 C 
ATOM     14  C   UNL     1     -28.725  31.073  -0.303  1.00  0.00     0.009 C 
ATOM     15  C   UNL     1     -29.744  31.508  -1.350  1.00  0.00     0.021 C 
ATOM     16  C   UNL     1     -29.822  32.273  -3.736  1.00  0.00     0.008 C 
ATOM     17  C   UNL     1     -28.588  30.073  -3.155  1.00  0.00     0.012 C 
ATOM     18  C   UNL     1     -31.086  30.806  -1.447  1.00  0.00    -0.067 C 
ATOM     19  C   UNL     1     -31.346  31.918  -3.693  1.00  0.00     0.009 C 
ATOM     20  C   UNL     1     -31.677  30.639  -2.866  1.00  0.00     0.021 C 
ATOM     21  C   UNL     1     -31.851  30.756  -0.330  1.00  0.00    -0.027 C 
ATOM     22  C   UNL     1     -33.189  30.179  -2.851  1.00  0.00    -0.023 C 
ATOM     23  C   UNL     1     -33.347  30.560  -0.352  1.00  0.00     0.031 C 
ATOM     24  C   UNL     1     -33.923  30.949  -1.723  1.00  0.00     0.002 C 
ATOM     25  C   UNL     1     -33.918  30.496  -4.179  1.00  0.00     0.010 C 
ATOM     26  C   UNL     1     -33.189  28.634  -2.618  1.00  0.00     0.012 C 
ATOM     27  C   UNL     1     -35.480  30.916  -1.767  1.00  0.00     0.036 C 
ATOM     28  C   UNL     1     -35.357  29.960  -4.217  1.00  0.00     0.032 C 
ATOM     29  C   UNL     1     -36.156  30.089  -2.893  1.00  0.00     0.114 C 
BRANCH  29  30
ATOM     30  O   UNL     1     -36.492  28.809  -2.418  1.00  0.00    -0.393 OA
ATOM     31  H   UNL     1     -36.595  28.878  -1.432  1.00  0.00     0.210 HD
ENDBRANCH  29  30
ENDBRANCH   9  11
ENDBRANCH   1   9
TORSDOF 7
ENDMDL
