MODEL 1
REMARK VINA RESULT:    -3.036      0.000      0.000
REMARK INTER + INTRA:          -9.308
REMARK INTER:                  -7.651
REMARK INTRA:                  -1.656
REMARK UNBOUND:                -1.656
REMARK SMILES CCCCCCCCCCCCCCCCCCCCCCCCCCCC(=O)[O-]
REMARK SMILES IDX 15 1 16 2 17 3 18 4 19 5 20 6 21 7 22 8 23 9 24 10 25 11
REMARK SMILES IDX 26 12 27 13 28 14 29 15 30 16 14 17 13 18 12 19 11 20 10 21
REMARK SMILES IDX 9 22 8 23 7 24 6 25 5 26 4 27 3 28 2 29 1 30
REMARK H PARENT
REMARK Flexibility Score: inf
ROOT
ATOM      1  C   UNL     1       4.417  25.201  24.130  1.00  0.00     0.000 C 
ENDROOT
BRANCH   1   2
ATOM      2  C   UNL     1       5.720  24.879  23.373  1.00  0.00     0.000 C 
BRANCH   2   3
ATOM      3  C   UNL     1       7.000  24.906  24.228  1.00  0.00     0.000 C 
BRANCH   3   4
ATOM      4  C   UNL     1       8.282  24.705  23.401  1.00  0.00     0.000 C 
BRANCH   4   5
ATOM      5  C   UNL     1       9.115  25.992  23.289  1.00  0.00     0.000 C 
BRANCH   5   6
ATOM      6  C   UNL     1       9.048  26.625  21.892  1.00  0.00     0.000 C 
BRANCH   6   7
ATOM      7  C   UNL     1       9.125  25.547  20.801  1.00  0.00     0.000 C 
BRANCH   7   8
ATOM      8  C   UNL     1       9.116  26.138  19.382  1.00  0.00     0.000 C 
BRANCH   8   9
ATOM      9  C   UNL     1       8.473  27.532  19.326  1.00  0.00     0.000 C 
BRANCH   9  10
ATOM     10  C   UNL     1       7.696  27.727  18.016  1.00  0.00     0.000 C 
BRANCH  10  11
ATOM     11  C   UNL     1       8.061  29.035  17.292  1.00  0.00     0.000 C 
BRANCH  11  12
ATOM     12  C   UNL     1       7.072  29.467  16.193  1.00  0.00     0.006 C 
BRANCH  12  13
ATOM     13  C   UNL     1       5.836  28.563  16.111  1.00  0.00     0.053 C 
BRANCH  13  14
ATOM     14  C   UNL     1       4.741  29.097  16.979  1.00  0.00     0.041 C 
ATOM     15  O   UNL     1       3.757  28.368  17.275  1.00  0.00    -0.550 OA
ATOM     16  O   UNL     1       4.833  30.377  17.507  1.00  0.00    -0.550 OA
ENDBRANCH  13  14
ENDBRANCH  12  13
ENDBRANCH  11  12
ENDBRANCH  10  11
ENDBRANCH   9  10
ENDBRANCH   8   9
ENDBRANCH   7   8
ENDBRANCH   6   7
ENDBRANCH   5   6
ENDBRANCH   4   5
ENDBRANCH   3   4
ENDBRANCH   2   3
ENDBRANCH   1   2
BRANCH   1  17
ATOM     17  C   UNL     1       4.542  26.424  25.050  1.00  0.00     0.000 C 
BRANCH  17  18
ATOM     18  C   UNL     1       4.226  26.057  26.505  1.00  0.00     0.000 C 
BRANCH  18  19
ATOM     19  C   UNL     1       5.122  26.844  27.472  1.00  0.00     0.000 C 
BRANCH  19  20
ATOM     20  C   UNL     1       6.592  26.400  27.413  1.00  0.00     0.000 C 
BRANCH  20  21
ATOM     21  C   UNL     1       7.045  25.687  28.697  1.00  0.00     0.000 C 
BRANCH  21  22
ATOM     22  C   UNL     1       8.564  25.814  28.887  1.00  0.00    -0.000 C 
BRANCH  22  23
ATOM     23  C   UNL     1       9.011  25.602  30.346  1.00  0.00    -0.000 C 
BRANCH  23  24
ATOM     24  C   UNL     1       7.893  25.184  31.318  1.00  0.00    -0.000 C 
BRANCH  24  25
ATOM     25  C   UNL     1       8.346  24.271  32.474  1.00  0.00    -0.000 C 
BRANCH  25  26
ATOM     26  C   UNL     1       7.188  23.516  33.164  1.00  0.00    -0.000 C 
BRANCH  26  27
ATOM     27  C   UNL     1       5.824  23.687  32.465  1.00  0.00    -0.000 C 
BRANCH  27  28
ATOM     28  C   UNL     1       4.679  22.878  33.107  1.00  0.00    -0.000 C 
BRANCH  28  29
ATOM     29  C   UNL     1       3.281  23.495  32.908  1.00  0.00    -0.003 C 
ATOM     30  C   UNL     1       2.758  23.319  31.482  1.00  0.00     0.004 C 
ENDBRANCH  28  29
ENDBRANCH  27  28
ENDBRANCH  26  27
ENDBRANCH  25  26
ENDBRANCH  24  25
ENDBRANCH  23  24
ENDBRANCH  22  23
ENDBRANCH  21  22
ENDBRANCH  20  21
ENDBRANCH  19  20
ENDBRANCH  18  19
ENDBRANCH  17  18
ENDBRANCH   1  17
TORSDOF 26
ENDMDL
MODEL 2
REMARK VINA RESULT:    -2.987      4.265     12.842
REMARK INTER + INTRA:          -9.183
REMARK INTER:                  -7.600
REMARK INTRA:                  -1.583
REMARK UNBOUND:                -1.656
REMARK SMILES CCCCCCCCCCCCCCCCCCCCCCCCCCCC(=O)[O-]
REMARK SMILES IDX 15 1 16 2 17 3 18 4 19 5 20 6 21 7 22 8 23 9 24 10 25 11
REMARK SMILES IDX 26 12 27 13 28 14 29 15 30 16 14 17 13 18 12 19 11 20 10 21
REMARK SMILES IDX 9 22 8 23 7 24 6 25 5 26 4 27 3 28 2 29 1 30
REMARK H PARENT
REMARK Flexibility Score: inf
ROOT
ATOM      1  C   UNL     1       6.950  25.877  24.662  1.00  0.00     0.000 C 
ENDROOT
BRANCH   1   2
ATOM      2  C   UNL     1       7.097  26.243  26.151  1.00  0.00     0.000 C 
BRANCH   2   3
ATOM      3  C   UNL     1       8.518  26.643  26.592  1.00  0.00     0.000 C 
BRANCH   3   4
ATOM      4  C   UNL     1       8.694  26.657  28.120  1.00  0.00     0.000 C 
BRANCH   4   5
ATOM      5  C   UNL     1       8.464  25.273  28.750  1.00  0.00     0.000 C 
BRANCH   5   6
ATOM      6  C   UNL     1       8.910  25.205  30.217  1.00  0.00     0.000 C 
BRANCH   6   7
ATOM      7  C   UNL     1       8.078  24.173  30.993  1.00  0.00     0.000 C 
BRANCH   7   8
ATOM      8  C   UNL     1       8.900  23.423  32.052  1.00  0.00     0.000 C 
BRANCH   8   9
ATOM      9  C   UNL     1       8.194  23.361  33.414  1.00  0.00     0.000 C 
BRANCH   9  10
ATOM     10  C   UNL     1       6.963  22.445  33.355  1.00  0.00     0.000 C 
BRANCH  10  11
ATOM     11  C   UNL     1       5.757  23.012  34.125  1.00  0.00     0.000 C 
BRANCH  11  12
ATOM     12  C   UNL     1       4.381  22.563  33.600  1.00  0.00     0.006 C 
BRANCH  12  13
ATOM     13  C   UNL     1       3.867  23.434  32.447  1.00  0.00     0.053 C 
BRANCH  13  14
ATOM     14  C   UNL     1       2.378  23.327  32.336  1.00  0.00     0.041 C 
ATOM     15  O   UNL     1       1.668  23.278  33.376  1.00  0.00    -0.550 OA
ATOM     16  O   UNL     1       1.771  23.338  31.088  1.00  0.00    -0.550 OA
ENDBRANCH  13  14
ENDBRANCH  12  13
ENDBRANCH  11  12
ENDBRANCH  10  11
ENDBRANCH   9  10
ENDBRANCH   8   9
ENDBRANCH   7   8
ENDBRANCH   6   7
ENDBRANCH   5   6
ENDBRANCH   4   5
ENDBRANCH   3   4
ENDBRANCH   2   3
ENDBRANCH   1   2
BRANCH   1  17
ATOM     17  C   UNL     1       7.213  24.391  24.378  1.00  0.00     0.000 C 
BRANCH  17  18
ATOM     18  C   UNL     1       8.616  24.177  23.799  1.00  0.00     0.000 C 
BRANCH  18  19
ATOM     19  C   UNL     1       9.125  25.456  23.118  1.00  0.00     0.000 C 
BRANCH  19  20
ATOM     20  C   UNL     1       9.053  25.379  21.585  1.00  0.00     0.000 C 
BRANCH  20  21
ATOM     21  C   UNL     1       9.072  26.766  20.923  1.00  0.00     0.000 C 
BRANCH  21  22
ATOM     22  C   UNL     1       8.915  26.648  19.399  1.00  0.00    -0.000 C 
BRANCH  22  23
ATOM     23  C   UNL     1       8.105  27.804  18.783  1.00  0.00    -0.000 C 
BRANCH  23  24
ATOM     24  C   UNL     1       8.745  28.466  17.549  1.00  0.00    -0.000 C 
BRANCH  24  25
ATOM     25  C   UNL     1       8.544  27.702  16.226  1.00  0.00    -0.000 C 
BRANCH  25  26
ATOM     26  C   UNL     1       7.168  27.945  15.567  1.00  0.00    -0.000 C 
BRANCH  26  27
ATOM     27  C   UNL     1       6.359  29.091  16.210  1.00  0.00    -0.000 C 
BRANCH  27  28
ATOM     28  C   UNL     1       4.973  28.669  16.737  1.00  0.00    -0.000 C 
BRANCH  28  29
ATOM     29  C   UNL     1       4.647  29.194  18.148  1.00  0.00    -0.003 C 
ATOM     30  C   UNL     1       4.157  28.091  19.086  1.00  0.00     0.004 C 
ENDBRANCH  28  29
ENDBRANCH  27  28
ENDBRANCH  26  27
ENDBRANCH  25  26
ENDBRANCH  24  25
ENDBRANCH  23  24
ENDBRANCH  22  23
ENDBRANCH  21  22
ENDBRANCH  20  21
ENDBRANCH  19  20
ENDBRANCH  18  19
ENDBRANCH  17  18
ENDBRANCH   1  17
TORSDOF 26
ENDMDL
MODEL 3
REMARK VINA RESULT:    -2.827      1.100      1.530
REMARK INTER + INTRA:          -8.780
REMARK INTER:                  -7.120
REMARK INTRA:                  -1.660
REMARK UNBOUND:                -1.656
REMARK SMILES CCCCCCCCCCCCCCCCCCCCCCCCCCCC(=O)[O-]
REMARK SMILES IDX 15 1 16 2 17 3 18 4 19 5 20 6 21 7 22 8 23 9 24 10 25 11
REMARK SMILES IDX 26 12 27 13 28 14 29 15 30 16 14 17 13 18 12 19 11 20 10 21
REMARK SMILES IDX 9 22 8 23 7 24 6 25 5 26 4 27 3 28 2 29 1 30
REMARK H PARENT
REMARK Flexibility Score: inf
ROOT
ATOM      1  C   UNL     1       4.702  26.004  24.411  1.00  0.00     0.000 C 
ENDROOT
BRANCH   1   2
ATOM      2  C   UNL     1       5.445  24.722  23.988  1.00  0.00     0.000 C 
BRANCH   2   3
ATOM      3  C   UNL     1       6.967  24.876  23.804  1.00  0.00     0.000 C 
BRANCH   3   4
ATOM      4  C   UNL     1       7.376  25.108  22.339  1.00  0.00     0.000 C 
BRANCH   4   5
ATOM      5  C   UNL     1       8.624  25.995  22.212  1.00  0.00     0.000 C 
BRANCH   5   6
ATOM      6  C   UNL     1       9.123  26.118  20.766  1.00  0.00     0.000 C 
BRANCH   6   7
ATOM      7  C   UNL     1       8.660  27.442  20.139  1.00  0.00     0.000 C 
BRANCH   7   8
ATOM      8  C   UNL     1       9.117  27.600  18.681  1.00  0.00     0.000 C 
BRANCH   8   9
ATOM      9  C   UNL     1       7.940  27.694  17.699  1.00  0.00     0.000 C 
BRANCH   9  10
ATOM     10  C   UNL     1       8.020  28.982  16.867  1.00  0.00     0.000 C 
BRANCH  10  11
ATOM     11  C   UNL     1       6.638  29.596  16.579  1.00  0.00     0.000 C 
BRANCH  11  12
ATOM     12  C   UNL     1       5.445  28.814  17.160  1.00  0.00     0.006 C 
BRANCH  12  13
ATOM     13  C   UNL     1       4.663  29.611  18.212  1.00  0.00     0.053 C 
BRANCH  13  14
ATOM     14  C   UNL     1       3.667  28.730  18.898  1.00  0.00     0.041 C 
ATOM     15  O   UNL     1       2.700  28.245  18.251  1.00  0.00    -0.550 OA
ATOM     16  O   UNL     1       3.836  28.400  20.235  1.00  0.00    -0.550 OA
ENDBRANCH  13  14
ENDBRANCH  12  13
ENDBRANCH  11  12
ENDBRANCH  10  11
ENDBRANCH   9  10
ENDBRANCH   8   9
ENDBRANCH   7   8
ENDBRANCH   6   7
ENDBRANCH   5   6
ENDBRANCH   4   5
ENDBRANCH   3   4
ENDBRANCH   2   3
ENDBRANCH   1   2
BRANCH   1  17
ATOM     17  C   UNL     1       4.052  25.894  25.799  1.00  0.00     0.000 C 
BRANCH  17  18
ATOM     18  C   UNL     1       4.842  26.691  26.844  1.00  0.00     0.000 C 
BRANCH  18  19
ATOM     19  C   UNL     1       6.136  25.958  27.224  1.00  0.00     0.000 C 
BRANCH  19  20
ATOM     20  C   UNL     1       7.398  26.753  26.853  1.00  0.00     0.000 C 
BRANCH  20  21
ATOM     21  C   UNL     1       8.416  26.815  28.002  1.00  0.00     0.000 C 
BRANCH  21  22
ATOM     22  C   UNL     1       8.188  25.668  28.999  1.00  0.00    -0.000 C 
BRANCH  22  23
ATOM     23  C   UNL     1       8.840  25.920  30.371  1.00  0.00    -0.000 C 
BRANCH  23  24
ATOM     24  C   UNL     1       8.051  25.379  31.578  1.00  0.00    -0.000 C 
BRANCH  24  25
ATOM     25  C   UNL     1       7.422  23.988  31.371  1.00  0.00    -0.000 C 
BRANCH  25  26
ATOM     26  C   UNL     1       7.125  23.235  32.687  1.00  0.00    -0.000 C 
BRANCH  26  27
ATOM     27  C   UNL     1       6.001  23.869  33.532  1.00  0.00    -0.000 C 
BRANCH  27  28
ATOM     28  C   UNL     1       4.810  22.929  33.808  1.00  0.00    -0.000 C 
BRANCH  28  29
ATOM     29  C   UNL     1       3.697  22.989  32.745  1.00  0.00    -0.003 C 
ATOM     30  C   UNL     1       2.474  22.155  33.126  1.00  0.00     0.004 C 
ENDBRANCH  28  29
ENDBRANCH  27  28
ENDBRANCH  26  27
ENDBRANCH  25  26
ENDBRANCH  24  25
ENDBRANCH  23  24
ENDBRANCH  22  23
ENDBRANCH  21  22
ENDBRANCH  20  21
ENDBRANCH  19  20
ENDBRANCH  18  19
ENDBRANCH  17  18
ENDBRANCH   1  17
TORSDOF 26
ENDMDL
MODEL 4
REMARK VINA RESULT:    -2.718      1.615      2.877
REMARK INTER + INTRA:          -8.505
REMARK INTER:                  -7.439
REMARK INTRA:                  -1.066
REMARK UNBOUND:                -1.656
REMARK SMILES CCCCCCCCCCCCCCCCCCCCCCCCCCCC(=O)[O-]
REMARK SMILES IDX 15 1 16 2 17 3 18 4 19 5 20 6 21 7 22 8 23 9 24 10 25 11
REMARK SMILES IDX 26 12 27 13 28 14 29 15 30 16 14 17 13 18 12 19 11 20 10 21
REMARK SMILES IDX 9 22 8 23 7 24 6 25 5 26 4 27 3 28 2 29 1 30
REMARK H PARENT
REMARK Flexibility Score: inf
ROOT
ATOM      1  C   UNL     1       7.772  25.251  26.266  1.00  0.00     0.000 C 
ENDROOT
BRANCH   1   2
ATOM      2  C   UNL     1       7.467  25.499  24.776  1.00  0.00     0.000 C 
BRANCH   2   3
ATOM      3  C   UNL     1       8.037  24.448  23.805  1.00  0.00     0.000 C 
BRANCH   3   4
ATOM      4  C   UNL     1       9.105  25.021  22.857  1.00  0.00     0.000 C 
BRANCH   4   5
ATOM      5  C   UNL     1       8.630  26.294  22.138  1.00  0.00     0.000 C 
BRANCH   5   6
ATOM      6  C   UNL     1       9.115  26.373  20.684  1.00  0.00     0.000 C 
BRANCH   6   7
ATOM      7  C   UNL     1       8.098  27.121  19.810  1.00  0.00     0.000 C 
BRANCH   7   8
ATOM      8  C   UNL     1       8.475  27.110  18.320  1.00  0.00     0.000 C 
BRANCH   8   9
ATOM      9  C   UNL     1       8.744  28.517  17.768  1.00  0.00     0.000 C 
BRANCH   9  10
ATOM     10  C   UNL     1       8.692  28.525  16.233  1.00  0.00     0.000 C 
BRANCH  10  11
ATOM     11  C   UNL     1       7.288  28.225  15.679  1.00  0.00     0.000 C 
BRANCH  11  12
ATOM     12  C   UNL     1       6.137  28.958  16.394  1.00  0.00     0.006 C 
BRANCH  12  13
ATOM     13  C   UNL     1       5.151  28.002  17.075  1.00  0.00     0.053 C 
BRANCH  13  14
ATOM     14  C   UNL     1       4.221  28.761  17.969  1.00  0.00     0.041 C 
ATOM     15  O   UNL     1       3.029  28.379  18.112  1.00  0.00    -0.550 OA
ATOM     16  O   UNL     1       4.686  29.854  18.687  1.00  0.00    -0.550 OA
ENDBRANCH  13  14
ENDBRANCH  12  13
ENDBRANCH  11  12
ENDBRANCH  10  11
ENDBRANCH   9  10
ENDBRANCH   8   9
ENDBRANCH   7   8
ENDBRANCH   6   7
ENDBRANCH   5   6
ENDBRANCH   4   5
ENDBRANCH   3   4
ENDBRANCH   2   3
ENDBRANCH   1   2
BRANCH   1  17
ATOM     17  C   UNL     1       9.118  24.548  26.496  1.00  0.00     0.000 C 
BRANCH  17  18
ATOM     18  C   UNL     1       8.953  23.313  27.391  1.00  0.00     0.000 C 
BRANCH  18  19
ATOM     19  C   UNL     1       9.120  23.686  28.870  1.00  0.00     0.000 C 
BRANCH  19  20
ATOM     20  C   UNL     1       8.209  24.850  29.295  1.00  0.00     0.000 C 
BRANCH  20  21
ATOM     21  C   UNL     1       8.131  25.011  30.820  1.00  0.00     0.000 C 
BRANCH  21  22
ATOM     22  C   UNL     1       7.768  23.680  31.495  1.00  0.00    -0.000 C 
BRANCH  22  23
ATOM     23  C   UNL     1       7.037  23.861  32.839  1.00  0.00    -0.000 C 
BRANCH  23  24
ATOM     24  C   UNL     1       6.320  22.605  33.367  1.00  0.00    -0.000 C 
BRANCH  24  25
ATOM     25  C   UNL     1       5.007  22.878  34.125  1.00  0.00    -0.000 C 
BRANCH  25  26
ATOM     26  C   UNL     1       3.916  21.809  33.891  1.00  0.00    -0.000 C 
BRANCH  26  27
ATOM     27  C   UNL     1       2.694  22.323  33.102  1.00  0.00    -0.000 C 
BRANCH  27  28
ATOM     28  C   UNL     1       3.049  23.044  31.786  1.00  0.00    -0.000 C 
BRANCH  28  29
ATOM     29  C   UNL     1       1.829  23.564  31.002  1.00  0.00    -0.003 C 
ATOM     30  C   UNL     1       1.948  23.320  29.498  1.00  0.00     0.004 C 
ENDBRANCH  28  29
ENDBRANCH  27  28
ENDBRANCH  26  27
ENDBRANCH  25  26
ENDBRANCH  24  25
ENDBRANCH  23  24
ENDBRANCH  22  23
ENDBRANCH  21  22
ENDBRANCH  20  21
ENDBRANCH  19  20
ENDBRANCH  18  19
ENDBRANCH  17  18
ENDBRANCH   1  17
TORSDOF 26
ENDMDL
MODEL 5
REMARK VINA RESULT:    -2.553      4.393     12.932
REMARK INTER + INTRA:          -8.090
REMARK INTER:                  -6.551
REMARK INTRA:                  -1.539
REMARK UNBOUND:                -1.656
REMARK SMILES CCCCCCCCCCCCCCCCCCCCCCCCCCCC(=O)[O-]
REMARK SMILES IDX 15 1 16 2 17 3 18 4 19 5 20 6 21 7 22 8 23 9 24 10 25 11
REMARK SMILES IDX 26 12 27 13 28 14 29 15 30 16 14 17 13 18 12 19 11 20 10 21
REMARK SMILES IDX 9 22 8 23 7 24 6 25 5 26 4 27 3 28 2 29 1 30
REMARK H PARENT
REMARK Flexibility Score: inf
ROOT
ATOM      1  C   UNL     1       7.226  24.583  24.079  1.00  0.00     0.000 C 
ENDROOT
BRANCH   1   2
ATOM      2  C   UNL     1       7.996  25.124  25.299  1.00  0.00     0.000 C 
BRANCH   2   3
ATOM      3  C   UNL     1       7.995  26.657  25.448  1.00  0.00     0.000 C 
BRANCH   3   4
ATOM      4  C   UNL     1       8.005  27.120  26.915  1.00  0.00     0.000 C 
BRANCH   4   5
ATOM      5  C   UNL     1       7.656  25.984  27.891  1.00  0.00     0.000 C 
BRANCH   5   6
ATOM      6  C   UNL     1       8.760  25.729  28.926  1.00  0.00     0.000 C 
BRANCH   6   7
ATOM      7  C   UNL     1       8.309  24.686  29.959  1.00  0.00     0.000 C 
BRANCH   7   8
ATOM      8  C   UNL     1       7.963  25.311  31.320  1.00  0.00     0.000 C 
BRANCH   8   9
ATOM      9  C   UNL     1       6.843  24.556  32.050  1.00  0.00     0.000 C 
BRANCH   9  10
ATOM     10  C   UNL     1       7.360  23.235  32.637  1.00  0.00     0.000 C 
BRANCH  10  11
ATOM     11  C   UNL     1       6.368  22.585  33.617  1.00  0.00     0.000 C 
BRANCH  11  12
ATOM     12  C   UNL     1       4.979  23.247  33.671  1.00  0.00     0.006 C 
BRANCH  12  13
ATOM     13  C   UNL     1       3.835  22.262  33.397  1.00  0.00     0.053 C 
BRANCH  13  14
ATOM     14  C   UNL     1       2.733  22.939  32.645  1.00  0.00     0.041 C 
ATOM     15  O   UNL     1       1.765  23.453  33.267  1.00  0.00    -0.550 OA
ATOM     16  O   UNL     1       2.801  23.052  31.263  1.00  0.00    -0.550 OA
ENDBRANCH  13  14
ENDBRANCH  12  13
ENDBRANCH  11  12
ENDBRANCH  10  11
ENDBRANCH   9  10
ENDBRANCH   8   9
ENDBRANCH   7   8
ENDBRANCH   6   7
ENDBRANCH   5   6
ENDBRANCH   4   5
ENDBRANCH   3   4
ENDBRANCH   2   3
ENDBRANCH   1   2
BRANCH   1  17
ATOM     17  C   UNL     1       5.818  25.181  23.941  1.00  0.00     0.000 C 
BRANCH  17  18
ATOM     18  C   UNL     1       5.379  25.231  22.472  1.00  0.00     0.000 C 
BRANCH  18  19
ATOM     19  C   UNL     1       4.371  26.366  22.243  1.00  0.00     0.000 C 
BRANCH  19  20
ATOM     20  C   UNL     1       4.299  26.806  20.773  1.00  0.00     0.000 C 
BRANCH  20  21
ATOM     21  C   UNL     1       3.583  28.154  20.595  1.00  0.00     0.000 C 
BRANCH  21  22
ATOM     22  C   UNL     1       3.169  28.366  19.131  1.00  0.00    -0.000 C 
BRANCH  22  23
ATOM     23  C   UNL     1       4.296  28.956  18.262  1.00  0.00    -0.000 C 
BRANCH  23  24
ATOM     24  C   UNL     1       4.587  28.188  16.959  1.00  0.00    -0.000 C 
BRANCH  24  25
ATOM     25  C   UNL     1       5.770  28.733  16.136  1.00  0.00    -0.000 C 
BRANCH  25  26
ATOM     26  C   UNL     1       6.556  29.861  16.841  1.00  0.00    -0.000 C 
BRANCH  26  27
ATOM     27  C   UNL     1       8.009  30.017  16.345  1.00  0.00    -0.000 C 
BRANCH  27  28
ATOM     28  C   UNL     1       9.056  29.297  17.218  1.00  0.00    -0.000 C 
BRANCH  28  29
ATOM     29  C   UNL     1       8.468  28.225  18.155  1.00  0.00    -0.003 C 
ATOM     30  C   UNL     1       8.567  26.816  17.573  1.00  0.00     0.004 C 
ENDBRANCH  28  29
ENDBRANCH  27  28
ENDBRANCH  26  27
ENDBRANCH  25  26
ENDBRANCH  24  25
ENDBRANCH  23  24
ENDBRANCH  22  23
ENDBRANCH  21  22
ENDBRANCH  20  21
ENDBRANCH  19  20
ENDBRANCH  18  19
ENDBRANCH  17  18
ENDBRANCH   1  17
TORSDOF 26
ENDMDL
MODEL 6
REMARK VINA RESULT:    -2.273      2.067      3.320
REMARK INTER + INTRA:          -7.383
REMARK INTER:                  -5.745
REMARK INTRA:                  -1.639
REMARK UNBOUND:                -1.656
REMARK SMILES CCCCCCCCCCCCCCCCCCCCCCCCCCCC(=O)[O-]
REMARK SMILES IDX 15 1 16 2 17 3 18 4 19 5 20 6 21 7 22 8 23 9 24 10 25 11
REMARK SMILES IDX 26 12 27 13 28 14 29 15 30 16 14 17 13 18 12 19 11 20 10 21
REMARK SMILES IDX 9 22 8 23 7 24 6 25 5 26 4 27 3 28 2 29 1 30
REMARK H PARENT
REMARK Flexibility Score: inf
ROOT
ATOM      1  C   UNL     1       4.273  26.008  26.498  1.00  0.00     0.000 C 
ENDROOT
BRANCH   1   2
ATOM      2  C   UNL     1       4.244  25.941  24.960  1.00  0.00     0.000 C 
BRANCH   2   3
ATOM      3  C   UNL     1       5.493  25.318  24.306  1.00  0.00     0.000 C 
BRANCH   3   4
ATOM      4  C   UNL     1       5.206  24.701  22.926  1.00  0.00     0.000 C 
BRANCH   4   5
ATOM      5  C   UNL     1       5.488  25.681  21.775  1.00  0.00     0.000 C 
BRANCH   5   6
ATOM      6  C   UNL     1       4.287  26.581  21.452  1.00  0.00     0.000 C 
BRANCH   6   7
ATOM      7  C   UNL     1       4.573  27.449  20.217  1.00  0.00     0.000 C 
BRANCH   7   8
ATOM      8  C   UNL     1       3.461  28.473  19.942  1.00  0.00     0.000 C 
BRANCH   8   9
ATOM      9  C   UNL     1       3.070  28.536  18.458  1.00  0.00     0.000 C 
BRANCH   9  10
ATOM     10  C   UNL     1       4.250  28.138  17.560  1.00  0.00     0.000 C 
BRANCH  10  11
ATOM     11  C   UNL     1       4.912  29.345  16.870  1.00  0.00     0.000 C 
BRANCH  11  12
ATOM     12  C   UNL     1       6.448  29.284  16.786  1.00  0.00     0.006 C 
BRANCH  12  13
ATOM     13  C   UNL     1       7.052  28.182  17.666  1.00  0.00     0.053 C 
BRANCH  13  14
ATOM     14  C   UNL     1       7.985  27.329  16.866  1.00  0.00     0.041 C 
ATOM     15  O   UNL     1       8.093  27.503  15.623  1.00  0.00    -0.550 OA
ATOM     16  O   UNL     1       8.777  26.381  17.500  1.00  0.00    -0.550 OA
ENDBRANCH  13  14
ENDBRANCH  12  13
ENDBRANCH  11  12
ENDBRANCH  10  11
ENDBRANCH   9  10
ENDBRANCH   8   9
ENDBRANCH   7   8
ENDBRANCH   6   7
ENDBRANCH   5   6
ENDBRANCH   4   5
ENDBRANCH   3   4
ENDBRANCH   2   3
ENDBRANCH   1   2
BRANCH   1  17
ATOM     17  C   UNL     1       5.474  26.794  27.045  1.00  0.00     0.000 C 
BRANCH  17  18
ATOM     18  C   UNL     1       6.182  26.018  28.162  1.00  0.00     0.000 C 
BRANCH  18  19
ATOM     19  C   UNL     1       7.694  25.947  27.902  1.00  0.00     0.000 C 
BRANCH  19  20
ATOM     20  C   UNL     1       8.520  26.002  29.196  1.00  0.00     0.000 C 
BRANCH  20  21
ATOM     21  C   UNL     1       8.783  24.608  29.788  1.00  0.00     0.000 C 
BRANCH  21  22
ATOM     22  C   UNL     1       8.918  24.679  31.317  1.00  0.00    -0.000 C 
BRANCH  22  23
ATOM     23  C   UNL     1       8.223  23.510  32.041  1.00  0.00    -0.000 C 
BRANCH  23  24
ATOM     24  C   UNL     1       7.611  23.861  33.409  1.00  0.00    -0.000 C 
BRANCH  24  25
ATOM     25  C   UNL     1       6.168  24.399  33.355  1.00  0.00    -0.000 C 
BRANCH  25  26
ATOM     26  C   UNL     1       5.181  23.469  32.614  1.00  0.00    -0.000 C 
BRANCH  26  27
ATOM     27  C   UNL     1       3.854  23.238  33.366  1.00  0.00    -0.000 C 
BRANCH  27  28
ATOM     28  C   UNL     1       2.593  23.541  32.532  1.00  0.00    -0.000 C 
BRANCH  28  29
ATOM     29  C   UNL     1       2.608  22.927  31.119  1.00  0.00    -0.003 C 
ATOM     30  C   UNL     1       1.607  23.596  30.177  1.00  0.00     0.004 C 
ENDBRANCH  28  29
ENDBRANCH  27  28
ENDBRANCH  26  27
ENDBRANCH  25  26
ENDBRANCH  24  25
ENDBRANCH  23  24
ENDBRANCH  22  23
ENDBRANCH  21  22
ENDBRANCH  20  21
ENDBRANCH  19  20
ENDBRANCH  18  19
ENDBRANCH  17  18
ENDBRANCH   1  17
TORSDOF 26
ENDMDL
MODEL 7
REMARK VINA RESULT:    -2.124      4.425     12.972
REMARK INTER + INTRA:          -7.010
REMARK INTER:                  -5.923
REMARK INTRA:                  -1.087
REMARK UNBOUND:                -1.656
REMARK SMILES CCCCCCCCCCCCCCCCCCCCCCCCCCCC(=O)[O-]
REMARK SMILES IDX 15 1 16 2 17 3 18 4 19 5 20 6 21 7 22 8 23 9 24 10 25 11
REMARK SMILES IDX 26 12 27 13 28 14 29 15 30 16 14 17 13 18 12 19 11 20 10 21
REMARK SMILES IDX 9 22 8 23 7 24 6 25 5 26 4 27 3 28 2 29 1 30
REMARK H PARENT
REMARK Flexibility Score: inf
ROOT
ATOM      1  C   UNL     1       7.368  26.014  26.227  1.00  0.00     0.000 C 
ENDROOT
BRANCH   1   2
ATOM      2  C   UNL     1       8.803  25.624  26.629  1.00  0.00     0.000 C 
BRANCH   2   3
ATOM      3  C   UNL     1       8.980  24.170  27.105  1.00  0.00     0.000 C 
BRANCH   3   4
ATOM      4  C   UNL     1       8.715  23.992  28.610  1.00  0.00     0.000 C 
BRANCH   4   5
ATOM      5  C   UNL     1       8.756  25.325  29.375  1.00  0.00     0.000 C 
BRANCH   5   6
ATOM      6  C   UNL     1       8.916  25.138  30.890  1.00  0.00     0.000 C 
BRANCH   6   7
ATOM      7  C   UNL     1       9.076  23.651  31.242  1.00  0.00     0.000 C 
BRANCH   7   8
ATOM      8  C   UNL     1       8.098  23.191  32.334  1.00  0.00     0.000 C 
BRANCH   8   9
ATOM      9  C   UNL     1       6.806  24.020  32.358  1.00  0.00     0.000 C 
BRANCH   9  10
ATOM     10  C   UNL     1       6.048  23.820  33.678  1.00  0.00     0.000 C 
BRANCH  10  11
ATOM     11  C   UNL     1       4.583  23.395  33.470  1.00  0.00     0.000 C 
BRANCH  11  12
ATOM     12  C   UNL     1       4.274  21.931  33.833  1.00  0.00     0.006 C 
BRANCH  12  13
ATOM     13  C   UNL     1       2.938  21.442  33.260  1.00  0.00     0.053 C 
BRANCH  13  14
ATOM     14  C   UNL     1       2.306  22.511  32.426  1.00  0.00     0.041 C 
ATOM     15  O   UNL     1       2.371  22.454  31.169  1.00  0.00    -0.550 OA
ATOM     16  O   UNL     1       1.596  23.538  33.033  1.00  0.00    -0.550 OA
ENDBRANCH  13  14
ENDBRANCH  12  13
ENDBRANCH  11  12
ENDBRANCH  10  11
ENDBRANCH   9  10
ENDBRANCH   8   9
ENDBRANCH   7   8
ENDBRANCH   6   7
ENDBRANCH   5   6
ENDBRANCH   4   5
ENDBRANCH   3   4
ENDBRANCH   2   3
ENDBRANCH   1   2
BRANCH   1  17
ATOM     17  C   UNL     1       7.006  25.589  24.796  1.00  0.00     0.000 C 
BRANCH  17  18
ATOM     18  C   UNL     1       5.490  25.418  24.635  1.00  0.00     0.000 C 
BRANCH  18  19
ATOM     19  C   UNL     1       5.157  24.742  23.298  1.00  0.00     0.000 C 
BRANCH  19  20
ATOM     20  C   UNL     1       5.477  25.633  22.088  1.00  0.00     0.000 C 
BRANCH  20  21
ATOM     21  C   UNL     1       4.248  26.405  21.583  1.00  0.00     0.000 C 
BRANCH  21  22
ATOM     22  C   UNL     1       4.616  27.302  20.391  1.00  0.00    -0.000 C 
BRANCH  22  23
ATOM     23  C   UNL     1       3.509  28.310  20.027  1.00  0.00    -0.000 C 
BRANCH  23  24
ATOM     24  C   UNL     1       3.312  28.547  18.518  1.00  0.00    -0.000 C 
BRANCH  24  25
ATOM     25  C   UNL     1       4.551  28.258  17.649  1.00  0.00    -0.000 C 
BRANCH  25  26
ATOM     26  C   UNL     1       4.932  29.416  16.700  1.00  0.00    -0.000 C 
BRANCH  26  27
ATOM     27  C   UNL     1       6.441  29.739  16.681  1.00  0.00    -0.000 C 
BRANCH  27  28
ATOM     28  C   UNL     1       7.313  28.643  16.037  1.00  0.00    -0.000 C 
BRANCH  28  29
ATOM     29  C   UNL     1       7.902  27.633  17.041  1.00  0.00    -0.003 C 
ATOM     30  C   UNL     1       8.794  28.297  18.089  1.00  0.00     0.004 C 
ENDBRANCH  28  29
ENDBRANCH  27  28
ENDBRANCH  26  27
ENDBRANCH  25  26
ENDBRANCH  24  25
ENDBRANCH  23  24
ENDBRANCH  22  23
ENDBRANCH  21  22
ENDBRANCH  20  21
ENDBRANCH  19  20
ENDBRANCH  18  19
ENDBRANCH  17  18
ENDBRANCH   1  17
TORSDOF 26
ENDMDL
