MODEL 1
REMARK VINA RESULT:     7.447      0.000      0.000
REMARK INTER + INTRA:           9.277
REMARK INTER:                   8.971
REMARK INTRA:                   0.307
REMARK UNBOUND:                 0.307
REMARK SMILES O=c1c(O)c(-c2ccc(O)c(O)c2)oc2cc(O)cc(O)c12
REMARK SMILES IDX 5 1 3 2 2 3 1 4 22 5 20 6 19 7 17 8 16 9 15 10 14 11 6 12
REMARK SMILES IDX 7 13 8 14 9 15 13 16 11 17 10 18 12 20 4 22 21 24 18 26
REMARK H PARENT 10 19 12 21 4 23 21 25 18 27
REMARK Flexibility Score: inf
ROOT
ATOM      1  C   UNL     1      27.422  72.793   1.759  1.00  0.00     0.180 A 
ATOM      2  C   UNL     1      27.556  73.346   0.473  1.00  0.00     0.208 A 
ATOM      3  C   UNL     1      26.525  73.153  -0.461  1.00  0.00     0.238 A 
ATOM      4  O   UNL     1      26.676  73.603  -1.627  1.00  0.00    -0.285 OA
ATOM      5  C   UNL     1      25.369  72.424  -0.095  1.00  0.00     0.111 A 
ATOM      6  C   UNL     1      24.246  72.202  -0.948  1.00  0.00     0.134 A 
ATOM      7  C   UNL     1      23.213  71.355  -0.525  1.00  0.00     0.093 A 
ATOM      8  C   UNL     1      23.232  70.777   0.747  1.00  0.00     0.123 A 
ATOM      9  C   UNL     1      24.294  71.037   1.610  1.00  0.00     0.094 A 
ATOM     10  C   UNL     1      25.356  71.847   1.202  1.00  0.00     0.146 A 
ATOM     11  O   UNL     1      26.355  72.059   2.051  1.00  0.00    -0.452 OA
ENDROOT
BRANCH   1  12
ATOM     12  C   UNL     1      28.453  72.975   2.806  1.00  0.00     0.025 A 
ATOM     13  C   UNL     1      29.331  74.073   2.786  1.00  0.00     0.016 A 
ATOM     14  C   UNL     1      30.280  74.237   3.798  1.00  0.00     0.051 A 
ATOM     15  C   UNL     1      30.358  73.316   4.850  1.00  0.00     0.157 A 
ATOM     16  C   UNL     1      28.522  72.066   3.875  1.00  0.00     0.062 A 
ATOM     17  C   UNL     1      29.472  72.226   4.889  1.00  0.00     0.158 A 
BRANCH  15  18
ATOM     18  O   UNL     1      31.308  73.481   5.858  1.00  0.00    -0.504 OA
ATOM     19  H   UNL     1      31.852  72.701   6.207  1.00  0.00     0.293 HD
ENDBRANCH  15  18
BRANCH  17  20
ATOM     20  O   UNL     1      29.519  71.296   5.927  1.00  0.00    -0.504 OA
ATOM     21  H   UNL     1      30.395  70.954   6.304  1.00  0.00     0.293 HD
ENDBRANCH  17  20
ENDBRANCH   1  12
BRANCH   2  22
ATOM     22  O   UNL     1      28.716  74.043   0.124  1.00  0.00    -0.502 OA
ATOM     23  H   UNL     1      28.786  75.051   0.190  1.00  0.00     0.293 HD
ENDBRANCH   2  22
BRANCH   6  24
ATOM     24  O   UNL     1      24.086  72.804  -2.200  1.00  0.00    -0.507 OA
ATOM     25  H   UNL     1      23.210  72.885  -2.692  1.00  0.00     0.293 HD
ENDBRANCH   6  24
BRANCH   8  26
ATOM     26  O   UNL     1      22.193  69.950   1.166  1.00  0.00    -0.508 OA
ATOM     27  H   UNL     1      21.485  70.275   1.814  1.00  0.00     0.293 HD
ENDBRANCH   8  26
TORSDOF 6
ENDMDL
MODEL 2
REMARK VINA RESULT:     7.463     11.493     13.091
REMARK INTER + INTRA:           9.296
REMARK INTER:                   9.535
REMARK INTRA:                  -0.239
REMARK UNBOUND:                 0.307
REMARK SMILES O=c1c(O)c(-c2ccc(O)c(O)c2)oc2cc(O)cc(O)c12
REMARK SMILES IDX 5 1 3 2 2 3 1 4 22 5 20 6 19 7 17 8 16 9 15 10 14 11 6 12
REMARK SMILES IDX 7 13 8 14 9 15 13 16 11 17 10 18 12 20 4 22 21 24 18 26
REMARK H PARENT 10 19 12 21 4 23 21 25 18 27
REMARK Flexibility Score: inf
ROOT
ATOM      1  C   UNL     1      33.581  68.705  -7.396  1.00  0.00     0.180 A 
ATOM      2  C   UNL     1      34.957  68.950  -7.543  1.00  0.00     0.208 A 
ATOM      3  C   UNL     1      35.792  67.904  -7.971  1.00  0.00     0.238 A 
ATOM      4  O   UNL     1      37.031  68.114  -8.046  1.00  0.00    -0.285 OA
ATOM      5  C   UNL     1      35.239  66.634  -8.262  1.00  0.00     0.111 A 
ATOM      6  C   UNL     1      35.985  65.515  -8.741  1.00  0.00     0.134 A 
ATOM      7  C   UNL     1      35.356  64.271  -8.871  1.00  0.00     0.093 A 
ATOM      8  C   UNL     1      33.994  64.121  -8.602  1.00  0.00     0.123 A 
ATOM      9  C   UNL     1      33.244  65.221  -8.192  1.00  0.00     0.094 A 
ATOM     10  C   UNL     1      33.851  66.466  -8.018  1.00  0.00     0.146 A 
ATOM     11  O   UNL     1      33.102  67.486  -7.615  1.00  0.00    -0.452 OA
ENDROOT
BRANCH   1  12
ATOM     12  C   UNL     1      32.633  69.763  -6.975  1.00  0.00     0.025 A 
ATOM     13  C   UNL     1      32.318  70.842  -7.818  1.00  0.00     0.016 A 
ATOM     14  C   UNL     1      31.403  71.815  -7.409  1.00  0.00     0.051 A 
ATOM     15  C   UNL     1      30.781  71.718  -6.157  1.00  0.00     0.157 A 
ATOM     16  C   UNL     1      31.991  69.659  -5.730  1.00  0.00     0.062 A 
ATOM     17  C   UNL     1      31.075  70.632  -5.315  1.00  0.00     0.158 A 
BRANCH  15  18
ATOM     18  O   UNL     1      29.870  72.693  -5.750  1.00  0.00    -0.504 OA
ATOM     19  H   UNL     1      28.892  72.645  -6.010  1.00  0.00     0.293 HD
ENDBRANCH  15  18
BRANCH  17  20
ATOM     20  O   UNL     1      30.467  70.503  -4.067  1.00  0.00    -0.504 OA
ATOM     21  H   UNL     1      30.800  69.847  -3.371  1.00  0.00     0.293 HD
ENDBRANCH  17  20
ENDBRANCH   1  12
BRANCH   2  22
ATOM     22  O   UNL     1      35.487  70.204  -7.228  1.00  0.00    -0.502 OA
ATOM     23  H   UNL     1      34.982  71.066  -7.397  1.00  0.00     0.293 HD
ENDBRANCH   2  22
BRANCH   6  24
ATOM     24  O   UNL     1      37.328  65.580  -9.125  1.00  0.00    -0.507 OA
ATOM     25  H   UNL     1      37.967  64.800  -9.115  1.00  0.00     0.293 HD
ENDBRANCH   6  24
BRANCH   8  26
ATOM     26  O   UNL     1      33.373  62.883  -8.750  1.00  0.00    -0.508 OA
ATOM     27  H   UNL     1      32.764  62.685  -9.536  1.00  0.00     0.293 HD
ENDBRANCH   8  26
TORSDOF 6
ENDMDL
MODEL 3
REMARK VINA RESULT:     8.167      1.134      6.590
REMARK INTER + INTRA:          10.144
REMARK INTER:                   9.899
REMARK INTRA:                   0.245
REMARK UNBOUND:                 0.307
REMARK SMILES O=c1c(O)c(-c2ccc(O)c(O)c2)oc2cc(O)cc(O)c12
REMARK SMILES IDX 5 1 3 2 2 3 1 4 22 5 20 6 19 7 17 8 16 9 15 10 14 11 6 12
REMARK SMILES IDX 7 13 8 14 9 15 13 16 11 17 10 18 12 20 4 22 21 24 18 26
REMARK H PARENT 10 19 12 21 4 23 21 25 18 27
REMARK Flexibility Score: inf
ROOT
ATOM      1  C   UNL     1      27.040  72.711   1.560  1.00  0.00     0.180 A 
ATOM      2  C   UNL     1      28.045  73.665   1.323  1.00  0.00     0.208 A 
ATOM      3  C   UNL     1      29.068  73.826   2.272  1.00  0.00     0.238 A 
ATOM      4  O   UNL     1      29.934  74.720   2.080  1.00  0.00    -0.285 OA
ATOM      5  C   UNL     1      29.082  73.022   3.436  1.00  0.00     0.111 A 
ATOM      6  C   UNL     1      30.092  73.071   4.444  1.00  0.00     0.134 A 
ATOM      7  C   UNL     1      29.936  72.322   5.616  1.00  0.00     0.093 A 
ATOM      8  C   UNL     1      28.839  71.475   5.788  1.00  0.00     0.123 A 
ATOM      9  C   UNL     1      27.878  71.374   4.784  1.00  0.00     0.094 A 
ATOM     10  C   UNL     1      27.988  72.136   3.620  1.00  0.00     0.146 A 
ATOM     11  O   UNL     1      27.045  72.018   2.692  1.00  0.00    -0.452 OA
ENDROOT
BRANCH   1  12
ATOM     12  C   UNL     1      25.943  72.466   0.595  1.00  0.00     0.025 A 
ATOM     13  C   UNL     1      26.128  72.653  -0.786  1.00  0.00     0.016 A 
ATOM     14  C   UNL     1      25.086  72.392  -1.679  1.00  0.00     0.051 A 
ATOM     15  C   UNL     1      23.850  71.929  -1.208  1.00  0.00     0.157 A 
ATOM     16  C   UNL     1      24.709  71.981   1.060  1.00  0.00     0.062 A 
ATOM     17  C   UNL     1      23.663  71.720   0.168  1.00  0.00     0.158 A 
BRANCH  15  18
ATOM     18  O   UNL     1      22.811  71.671  -2.103  1.00  0.00    -0.504 OA
ATOM     19  H   UNL     1      22.447  72.392  -2.714  1.00  0.00     0.293 HD
ENDBRANCH  15  18
BRANCH  17  20
ATOM     20  O   UNL     1      22.448  71.252   0.667  1.00  0.00    -0.504 OA
ATOM     21  H   UNL     1      22.171  71.395   1.631  1.00  0.00     0.293 HD
ENDBRANCH  17  20
ENDBRANCH   1  12
BRANCH   2  22
ATOM     22  O   UNL     1      27.999  74.465   0.178  1.00  0.00    -0.502 OA
ATOM     23  H   UNL     1      27.606  75.398   0.181  1.00  0.00     0.293 HD
ENDBRANCH   2  22
BRANCH   6  24
ATOM     24  O   UNL     1      31.271  73.815   4.330  1.00  0.00    -0.507 OA
ATOM     25  H   UNL     1      31.323  74.762   3.986  1.00  0.00     0.293 HD
ENDBRANCH   6  24
BRANCH   8  26
ATOM     26  O   UNL     1      28.699  70.721   6.951  1.00  0.00    -0.508 OA
ATOM     27  H   UNL     1      28.537  69.721   6.918  1.00  0.00     0.293 HD
ENDBRANCH   8  26
TORSDOF 6
ENDMDL
MODEL 4
REMARK VINA RESULT:     8.869      4.917      8.329
REMARK INTER + INTRA:          10.990
REMARK INTER:                  11.022
REMARK INTRA:                  -0.033
REMARK UNBOUND:                 0.307
REMARK SMILES O=c1c(O)c(-c2ccc(O)c(O)c2)oc2cc(O)cc(O)c12
REMARK SMILES IDX 5 1 3 2 2 3 1 4 22 5 20 6 19 7 17 8 16 9 15 10 14 11 6 12
REMARK SMILES IDX 7 13 8 14 9 15 13 16 11 17 10 18 12 20 4 22 21 24 18 26
REMARK H PARENT 10 19 12 21 4 23 21 25 18 27
REMARK Flexibility Score: inf
ROOT
ATOM      1  C   UNL     1      23.392  67.556   0.731  1.00  0.00     0.180 A 
ATOM      2  C   UNL     1      22.311  66.715   0.412  1.00  0.00     0.208 A 
ATOM      3  C   UNL     1      22.240  65.444   1.005  1.00  0.00     0.238 A 
ATOM      4  O   UNL     1      21.300  64.675   0.674  1.00  0.00    -0.285 OA
ATOM      5  C   UNL     1      23.240  65.036   1.921  1.00  0.00     0.111 A 
ATOM      6  C   UNL     1      23.246  63.787   2.612  1.00  0.00     0.134 A 
ATOM      7  C   UNL     1      24.353  63.435   3.394  1.00  0.00     0.093 A 
ATOM      8  C   UNL     1      25.424  64.317   3.563  1.00  0.00     0.123 A 
ATOM      9  C   UNL     1      25.399  65.563   2.941  1.00  0.00     0.094 A 
ATOM     10  C   UNL     1      24.326  65.926   2.125  1.00  0.00     0.146 A 
ATOM     11  O   UNL     1      24.347  67.119   1.542  1.00  0.00    -0.452 OA
ENDROOT
BRANCH   1  12
ATOM     12  C   UNL     1      23.522  68.919   0.166  1.00  0.00     0.025 A 
ATOM     13  C   UNL     1      23.489  69.142  -1.222  1.00  0.00     0.016 A 
ATOM     14  C   UNL     1      23.590  70.439  -1.730  1.00  0.00     0.051 A 
ATOM     15  C   UNL     1      23.713  71.532  -0.862  1.00  0.00     0.157 A 
ATOM     16  C   UNL     1      23.624  70.020   1.032  1.00  0.00     0.062 A 
ATOM     17  C   UNL     1      23.727  71.320   0.527  1.00  0.00     0.158 A 
BRANCH  15  18
ATOM     18  O   UNL     1      23.815  72.826  -1.373  1.00  0.00    -0.504 OA
ATOM     19  H   UNL     1      22.998  73.344  -1.672  1.00  0.00     0.293 HD
ENDBRANCH  15  18
BRANCH  17  20
ATOM     20  O   UNL     1      23.840  72.387   1.417  1.00  0.00    -0.504 OA
ATOM     21  H   UNL     1      23.692  72.275   2.413  1.00  0.00     0.293 HD
ENDBRANCH  17  20
ENDBRANCH   1  12
BRANCH   2  22
ATOM     22  O   UNL     1      21.347  67.128  -0.511  1.00  0.00    -0.502 OA
ATOM     23  H   UNL     1      20.926  68.049  -0.484  1.00  0.00     0.293 HD
ENDBRANCH   2  22
BRANCH   6  24
ATOM     24  O   UNL     1      22.186  62.875   2.583  1.00  0.00    -0.507 OA
ATOM     25  H   UNL     1      21.415  62.910   1.934  1.00  0.00     0.293 HD
ENDBRANCH   6  24
BRANCH   8  26
ATOM     26  O   UNL     1      26.514  63.966   4.356  1.00  0.00    -0.508 OA
ATOM     27  H   UNL     1      27.022  64.657   4.895  1.00  0.00     0.293 HD
ENDBRANCH   8  26
TORSDOF 6
ENDMDL
MODEL 5
REMARK VINA RESULT:     9.462     10.311     12.083
REMARK INTER + INTRA:          11.705
REMARK INTER:                  11.746
REMARK INTRA:                  -0.042
REMARK UNBOUND:                 0.307
REMARK SMILES O=c1c(O)c(-c2ccc(O)c(O)c2)oc2cc(O)cc(O)c12
REMARK SMILES IDX 5 1 3 2 2 3 1 4 22 5 20 6 19 7 17 8 16 9 15 10 14 11 6 12
REMARK SMILES IDX 7 13 8 14 9 15 13 16 11 17 10 18 12 20 4 22 21 24 18 26
REMARK H PARENT 10 19 12 21 4 23 21 25 18 27
REMARK Flexibility Score: inf
ROOT
ATOM      1  C   UNL     1      32.840  69.380  -6.427  1.00  0.00     0.180 A 
ATOM      2  C   UNL     1      34.090  69.949  -6.727  1.00  0.00     0.208 A 
ATOM      3  C   UNL     1      35.038  69.181  -7.423  1.00  0.00     0.238 A 
ATOM      4  O   UNL     1      36.175  69.677  -7.639  1.00  0.00    -0.285 OA
ATOM      5  C   UNL     1      34.719  67.862  -7.824  1.00  0.00     0.111 A 
ATOM      6  C   UNL     1      35.588  67.009  -8.569  1.00  0.00     0.134 A 
ATOM      7  C   UNL     1      35.219  65.677  -8.798  1.00  0.00     0.093 A 
ATOM      8  C   UNL     1      33.984  65.188  -8.366  1.00  0.00     0.123 A 
ATOM      9  C   UNL     1      33.103  66.030  -7.691  1.00  0.00     0.094 A 
ATOM     10  C   UNL     1      33.459  67.352  -7.416  1.00  0.00     0.146 A 
ATOM     11  O   UNL     1      32.595  68.118  -6.760  1.00  0.00    -0.452 OA
ENDROOT
BRANCH   1  12
ATOM     12  C   UNL     1      31.780  70.135  -5.719  1.00  0.00     0.025 A 
ATOM     13  C   UNL     1      31.220  69.661  -4.520  1.00  0.00     0.016 A 
ATOM     14  C   UNL     1      30.239  70.402  -3.858  1.00  0.00     0.051 A 
ATOM     15  C   UNL     1      29.812  71.632  -4.375  1.00  0.00     0.157 A 
ATOM     16  C   UNL     1      31.364  71.379  -6.222  1.00  0.00     0.062 A 
ATOM     17  C   UNL     1      30.380  72.123  -5.562  1.00  0.00     0.158 A 
BRANCH  15  18
ATOM     18  O   UNL     1      28.830  72.369  -3.712  1.00  0.00    -0.504 OA
ATOM     19  H   UNL     1      27.879  72.416  -4.058  1.00  0.00     0.293 HD
ENDBRANCH  15  18
BRANCH  17  20
ATOM     20  O   UNL     1      29.982  73.347  -6.098  1.00  0.00    -0.504 OA
ATOM     21  H   UNL     1      30.650  74.058  -6.371  1.00  0.00     0.293 HD
ENDBRANCH  17  20
ENDBRANCH   1  12
BRANCH   2  22
ATOM     22  O   UNL     1      34.393  71.245  -6.301  1.00  0.00    -0.502 OA
ATOM     23  H   UNL     1      35.057  71.434  -5.560  1.00  0.00     0.293 HD
ENDBRANCH   2  22
BRANCH   6  24
ATOM     24  O   UNL     1      36.802  67.425  -9.124  1.00  0.00    -0.507 OA
ATOM     25  H   UNL     1      36.913  68.219  -9.735  1.00  0.00     0.293 HD
ENDBRANCH   6  24
BRANCH   8  26
ATOM     26  O   UNL     1      33.618  63.867  -8.613  1.00  0.00    -0.508 OA
ATOM     27  H   UNL     1      32.646  63.580  -8.630  1.00  0.00     0.293 HD
ENDBRANCH   8  26
TORSDOF 6
ENDMDL
MODEL 6
REMARK VINA RESULT:     9.684     11.184     12.948
REMARK INTER + INTRA:          11.972
REMARK INTER:                  11.884
REMARK INTRA:                   0.088
REMARK UNBOUND:                 0.307
REMARK SMILES O=c1c(O)c(-c2ccc(O)c(O)c2)oc2cc(O)cc(O)c12
REMARK SMILES IDX 5 1 3 2 2 3 1 4 22 5 20 6 19 7 17 8 16 9 15 10 14 11 6 12
REMARK SMILES IDX 7 13 8 14 9 15 13 16 11 17 10 18 12 20 4 22 21 24 18 26
REMARK H PARENT 10 19 12 21 4 23 21 25 18 27
REMARK Flexibility Score: inf
ROOT
ATOM      1  C   UNL     1      33.687  68.341  -7.619  1.00  0.00     0.180 A 
ATOM      2  C   UNL     1      32.399  68.542  -8.146  1.00  0.00     0.208 A 
ATOM      3  C   UNL     1      31.657  69.657  -7.725  1.00  0.00     0.238 A 
ATOM      4  O   UNL     1      30.484  69.800  -8.159  1.00  0.00    -0.285 OA
ATOM      5  C   UNL     1      32.217  70.566  -6.795  1.00  0.00     0.111 A 
ATOM      6  C   UNL     1      31.571  71.751  -6.330  1.00  0.00     0.134 A 
ATOM      7  C   UNL     1      32.165  72.507  -5.312  1.00  0.00     0.093 A 
ATOM      8  C   UNL     1      33.413  72.157  -4.789  1.00  0.00     0.123 A 
ATOM      9  C   UNL     1      34.078  71.036  -5.280  1.00  0.00     0.094 A 
ATOM     10  C   UNL     1      33.495  70.242  -6.269  1.00  0.00     0.146 A 
ATOM     11  O   UNL     1      34.158  69.176  -6.700  1.00  0.00    -0.452 OA
ENDROOT
BRANCH   1  12
ATOM     12  C   UNL     1      34.540  67.203  -8.034  1.00  0.00     0.025 A 
ATOM     13  C   UNL     1      35.899  67.382  -8.344  1.00  0.00     0.016 A 
ATOM     14  C   UNL     1      36.690  66.290  -8.709  1.00  0.00     0.051 A 
ATOM     15  C   UNL     1      36.138  65.003  -8.758  1.00  0.00     0.157 A 
ATOM     16  C   UNL     1      33.997  65.908  -8.063  1.00  0.00     0.062 A 
ATOM     17  C   UNL     1      34.785  64.812  -8.430  1.00  0.00     0.158 A 
BRANCH  15  18
ATOM     18  O   UNL     1      36.930  63.914  -9.125  1.00  0.00    -0.504 OA
ATOM     19  H   UNL     1      37.166  63.733 -10.093  1.00  0.00     0.293 HD
ENDBRANCH  15  18
BRANCH  17  20
ATOM     20  O   UNL     1      34.209  63.542  -8.461  1.00  0.00    -0.504 OA
ATOM     21  H   UNL     1      34.757  62.706  -8.623  1.00  0.00     0.293 HD
ENDBRANCH  17  20
ENDBRANCH   1  12
BRANCH   2  22
ATOM     22  O   UNL     1      31.856  67.620  -9.046  1.00  0.00    -0.502 OA
ATOM     23  H   UNL     1      31.333  67.903  -9.866  1.00  0.00     0.293 HD
ENDBRANCH   2  22
BRANCH   6  24
ATOM     24  O   UNL     1      30.368  72.238  -6.850  1.00  0.00    -0.507 OA
ATOM     25  H   UNL     1      29.492  72.259  -6.349  1.00  0.00     0.293 HD
ENDBRANCH   6  24
BRANCH   8  26
ATOM     26  O   UNL     1      34.004  72.924  -3.788  1.00  0.00    -0.508 OA
ATOM     27  H   UNL     1      34.274  73.888  -3.948  1.00  0.00     0.293 HD
ENDBRANCH   8  26
TORSDOF 6
ENDMDL
MODEL 7
REMARK VINA RESULT:     9.955      5.046      8.238
REMARK INTER + INTRA:          12.299
REMARK INTER:                  12.407
REMARK INTRA:                  -0.108
REMARK UNBOUND:                 0.307
REMARK SMILES O=c1c(O)c(-c2ccc(O)c(O)c2)oc2cc(O)cc(O)c12
REMARK SMILES IDX 5 1 3 2 2 3 1 4 22 5 20 6 19 7 17 8 16 9 15 10 14 11 6 12
REMARK SMILES IDX 7 13 8 14 9 15 13 16 11 17 10 18 12 20 4 22 21 24 18 26
REMARK H PARENT 10 19 12 21 4 23 21 25 18 27
REMARK Flexibility Score: inf
ROOT
ATOM      1  C   UNL     1      23.441  67.511   0.738  1.00  0.00     0.180 A 
ATOM      2  C   UNL     1      24.460  67.042   1.585  1.00  0.00     0.208 A 
ATOM      3  C   UNL     1      24.353  65.750   2.128  1.00  0.00     0.238 A 
ATOM      4  O   UNL     1      25.241  65.357   2.929  1.00  0.00    -0.285 OA
ATOM      5  C   UNL     1      23.239  64.940   1.804  1.00  0.00     0.111 A 
ATOM      6  C   UNL     1      23.048  63.602   2.264  1.00  0.00     0.134 A 
ATOM      7  C   UNL     1      21.845  62.941   1.987  1.00  0.00     0.093 A 
ATOM      8  C   UNL     1      20.854  63.546   1.211  1.00  0.00     0.123 A 
ATOM      9  C   UNL     1      21.056  64.829   0.707  1.00  0.00     0.094 A 
ATOM     10  C   UNL     1      22.230  65.527   0.997  1.00  0.00     0.146 A 
ATOM     11  O   UNL     1      22.377  66.752   0.506  1.00  0.00    -0.452 OA
ENDROOT
BRANCH   1  12
ATOM     12  C   UNL     1      23.496  68.851   0.108  1.00  0.00     0.025 A 
ATOM     13  C   UNL     1      23.484  69.003  -1.289  1.00  0.00     0.016 A 
ATOM     14  C   UNL     1      23.512  70.277  -1.861  1.00  0.00     0.051 A 
ATOM     15  C   UNL     1      23.539  71.417  -1.047  1.00  0.00     0.157 A 
ATOM     16  C   UNL     1      23.501  69.997   0.920  1.00  0.00     0.062 A 
ATOM     17  C   UNL     1      23.530  71.275   0.351  1.00  0.00     0.158 A 
BRANCH  15  18
ATOM     18  O   UNL     1      23.568  72.688  -1.620  1.00  0.00    -0.504 OA
ATOM     19  H   UNL     1      24.037  73.464  -1.166  1.00  0.00     0.293 HD
ENDBRANCH  15  18
BRANCH  17  20
ATOM     20  O   UNL     1      23.548  72.389   1.189  1.00  0.00    -0.504 OA
ATOM     21  H   UNL     1      24.320  73.044   1.197  1.00  0.00     0.293 HD
ENDBRANCH  17  20
ENDBRANCH   1  12
BRANCH   2  22
ATOM     22  O   UNL     1      25.541  67.866   1.910  1.00  0.00    -0.502 OA
ATOM     23  H   UNL     1      26.336  67.990   1.294  1.00  0.00     0.293 HD
ENDBRANCH   2  22
BRANCH   6  24
ATOM     24  O   UNL     1      24.013  62.875   2.968  1.00  0.00    -0.507 OA
ATOM     25  H   UNL     1      24.991  62.834   2.727  1.00  0.00     0.293 HD
ENDBRANCH   6  24
BRANCH   8  26
ATOM     26  O   UNL     1      19.667  62.875   0.926  1.00  0.00    -0.508 OA
ATOM     27  H   UNL     1      19.467  62.520  -0.002  1.00  0.00     0.293 HD
ENDBRANCH   8  26
TORSDOF 6
ENDMDL
MODEL 8
REMARK VINA RESULT:    10.019      5.301      7.349
REMARK INTER + INTRA:          12.375
REMARK INTER:                  12.408
REMARK INTRA:                  -0.033
REMARK UNBOUND:                 0.307
REMARK SMILES O=c1c(O)c(-c2ccc(O)c(O)c2)oc2cc(O)cc(O)c12
REMARK SMILES IDX 5 1 3 2 2 3 1 4 22 5 20 6 19 7 17 8 16 9 15 10 14 11 6 12
REMARK SMILES IDX 7 13 8 14 9 15 13 16 11 17 10 18 12 20 4 22 21 24 18 26
REMARK H PARENT 10 19 12 21 4 23 21 25 18 27
REMARK Flexibility Score: inf
ROOT
ATOM      1  C   UNL     1      27.030  74.223   7.240  1.00  0.00     0.180 A 
ATOM      2  C   UNL     1      27.249  74.646   8.562  1.00  0.00     0.208 A 
ATOM      3  C   UNL     1      26.147  74.796   9.420  1.00  0.00     0.238 A 
ATOM      4  O   UNL     1      26.345  75.228  10.586  1.00  0.00    -0.285 OA
ATOM      5  C   UNL     1      24.844  74.505   8.951  1.00  0.00     0.111 A 
ATOM      6  C   UNL     1      23.660  74.583   9.745  1.00  0.00     0.134 A 
ATOM      7  C   UNL     1      22.410  74.400   9.141  1.00  0.00     0.093 A 
ATOM      8  C   UNL     1      22.306  74.076   7.786  1.00  0.00     0.123 A 
ATOM      9  C   UNL     1      23.458  73.938   7.016  1.00  0.00     0.094 A 
ATOM     10  C   UNL     1      24.717  74.152   7.582  1.00  0.00     0.146 A 
ATOM     11  O   UNL     1      25.790  74.021   6.811  1.00  0.00    -0.452 OA
ENDROOT
BRANCH   1  12
ATOM     12  C   UNL     1      28.143  74.017   6.284  1.00  0.00     0.025 A 
ATOM     13  C   UNL     1      29.081  75.031   6.024  1.00  0.00     0.016 A 
ATOM     14  C   UNL     1      30.137  74.806   5.137  1.00  0.00     0.051 A 
ATOM     15  C   UNL     1      30.277  73.563   4.506  1.00  0.00     0.157 A 
ATOM     16  C   UNL     1      28.301  72.766   5.665  1.00  0.00     0.062 A 
ATOM     17  C   UNL     1      29.356  72.537   4.775  1.00  0.00     0.158 A 
BRANCH  15  18
ATOM     18  O   UNL     1      31.331  73.342   3.619  1.00  0.00    -0.504 OA
ATOM     19  H   UNL     1      31.216  72.766   2.793  1.00  0.00     0.293 HD
ENDBRANCH  15  18
BRANCH  17  20
ATOM     20  O   UNL     1      29.473  71.286   4.170  1.00  0.00    -0.504 OA
ATOM     21  H   UNL     1      29.363  71.159   3.172  1.00  0.00     0.293 HD
ENDBRANCH  17  20
ENDBRANCH   1  12
BRANCH   2  22
ATOM     22  O   UNL     1      28.542  74.949   8.999  1.00  0.00    -0.502 OA
ATOM     23  H   UNL     1      28.995  75.830   8.788  1.00  0.00     0.293 HD
ENDBRANCH   2  22
BRANCH   6  24
ATOM     24  O   UNL     1      23.660  74.810  11.124  1.00  0.00    -0.507 OA
ATOM     25  H   UNL     1      23.282  74.176  11.811  1.00  0.00     0.293 HD
ENDBRANCH   6  24
BRANCH   8  26
ATOM     26  O   UNL     1      21.059  73.879   7.197  1.00  0.00    -0.508 OA
ATOM     27  H   UNL     1      20.951  73.323   6.356  1.00  0.00     0.293 HD
ENDBRANCH   8  26
TORSDOF 6
ENDMDL
