MODEL 1
REMARK VINA RESULT:    -5.267      0.000      0.000
REMARK INTER + INTRA:          -9.378
REMARK INTER:                  -8.346
REMARK INTRA:                  -1.032
REMARK UNBOUND:                -1.032
REMARK SMILES CCCCCCCCCCCC(=O)[O-]
REMARK SMILES IDX 7 1 8 2 9 3 10 4 11 5 12 6 13 7 14 8 6 9 5 10 4 11 3 12 2 13
REMARK SMILES IDX 1 14
REMARK H PARENT
REMARK Flexibility Score: inf
ROOT
ATOM      1  C   UNL     1      -5.535 -30.184 -53.637  1.00  0.00     0.000 C 
ENDROOT
BRANCH   1   2
ATOM      2  C   UNL     1      -4.593 -31.363 -53.338  1.00  0.00     0.000 C 
BRANCH   2   3
ATOM      3  C   UNL     1      -5.092 -32.339 -52.258  1.00  0.00     0.000 C 
BRANCH   3   4
ATOM      4  C   UNL     1      -4.015 -32.678 -51.212  1.00  0.00     0.006 C 
BRANCH   4   5
ATOM      5  C   UNL     1      -2.631 -32.156 -51.618  1.00  0.00     0.053 C 
BRANCH   5   6
ATOM      6  C   UNL     1      -1.530 -32.964 -51.003  1.00  0.00     0.041 C 
ATOM      7  O   UNL     1      -0.342 -32.829 -51.401  1.00  0.00    -0.550 OA
ATOM      8  O   UNL     1      -1.811 -33.849 -49.969  1.00  0.00    -0.550 OA
ENDBRANCH   5   6
ENDBRANCH   4   5
ENDBRANCH   3   4
ENDBRANCH   2   3
ENDBRANCH   1   2
BRANCH   1   9
ATOM      9  C   UNL     1      -4.996 -28.840 -53.127  1.00  0.00     0.000 C 
BRANCH   9  10
ATOM     10  C   UNL     1      -4.793 -28.870 -51.607  1.00  0.00    -0.000 C 
BRANCH  10  11
ATOM     11  C   UNL     1      -5.943 -28.152 -50.884  1.00  0.00    -0.000 C 
BRANCH  11  12
ATOM     12  C   UNL     1      -6.346 -28.848 -49.575  1.00  0.00    -0.000 C 
BRANCH  12  13
ATOM     13  C   UNL     1      -6.644 -30.343 -49.767  1.00  0.00    -0.003 C 
ATOM     14  C   UNL     1      -7.889 -30.759 -48.988  1.00  0.00     0.004 C 
ENDBRANCH  12  13
ENDBRANCH  11  12
ENDBRANCH  10  11
ENDBRANCH   9  10
ENDBRANCH   1   9
TORSDOF 10
ENDMDL
MODEL 2
REMARK VINA RESULT:    -5.259      0.841      1.288
REMARK INTER + INTRA:          -9.366
REMARK INTER:                  -8.337
REMARK INTRA:                  -1.029
REMARK UNBOUND:                -1.032
REMARK SMILES CCCCCCCCCCCC(=O)[O-]
REMARK SMILES IDX 7 1 8 2 9 3 10 4 11 5 12 6 13 7 14 8 6 9 5 10 4 11 3 12 2 13
REMARK SMILES IDX 1 14
REMARK H PARENT
REMARK Flexibility Score: inf
ROOT
ATOM      1  C   UNL     1      -4.700 -29.597 -51.904  1.00  0.00     0.000 C 
ENDROOT
BRANCH   1   2
ATOM      2  C   UNL     1      -5.243 -30.577 -52.959  1.00  0.00     0.000 C 
BRANCH   2   3
ATOM      3  C   UNL     1      -5.275 -32.053 -52.523  1.00  0.00     0.000 C 
BRANCH   3   4
ATOM      4  C   UNL     1      -4.298 -32.360 -51.375  1.00  0.00     0.006 C 
BRANCH   4   5
ATOM      5  C   UNL     1      -2.990 -32.983 -51.880  1.00  0.00     0.053 C 
BRANCH   5   6
ATOM      6  C   UNL     1      -1.904 -32.904 -50.852  1.00  0.00     0.041 C 
ATOM      7  O   UNL     1      -1.064 -31.966 -50.884  1.00  0.00    -0.550 OA
ATOM      8  O   UNL     1      -1.834 -33.854 -49.840  1.00  0.00    -0.550 OA
ENDBRANCH   5   6
ENDBRANCH   4   5
ENDBRANCH   3   4
ENDBRANCH   2   3
ENDBRANCH   1   2
BRANCH   1   9
ATOM      9  C   UNL     1      -5.474 -28.272 -51.860  1.00  0.00     0.000 C 
BRANCH   9  10
ATOM     10  C   UNL     1      -6.057 -28.021 -50.464  1.00  0.00    -0.000 C 
BRANCH  10  11
ATOM     11  C   UNL     1      -6.005 -29.296 -49.608  1.00  0.00    -0.000 C 
BRANCH  11  12
ATOM     12  C   UNL     1      -7.116 -29.342 -48.547  1.00  0.00    -0.000 C 
BRANCH  12  13
ATOM     13  C   UNL     1      -8.144 -30.452 -48.814  1.00  0.00    -0.003 C 
ATOM     14  C   UNL     1      -7.510 -31.617 -49.570  1.00  0.00     0.004 C 
ENDBRANCH  12  13
ENDBRANCH  11  12
ENDBRANCH  10  11
ENDBRANCH   9  10
ENDBRANCH   1   9
TORSDOF 10
ENDMDL
MODEL 3
REMARK VINA RESULT:    -5.143      3.193      5.791
REMARK INTER + INTRA:          -9.182
REMARK INTER:                  -8.031
REMARK INTRA:                  -1.150
REMARK UNBOUND:                -1.032
REMARK SMILES CCCCCCCCCCCC(=O)[O-]
REMARK SMILES IDX 7 1 8 2 9 3 10 4 11 5 12 6 13 7 14 8 6 9 5 10 4 11 3 12 2 13
REMARK SMILES IDX 1 14
REMARK H PARENT
REMARK Flexibility Score: inf
ROOT
ATOM      1  C   UNL     1      -4.396 -32.657 -51.700  1.00  0.00     0.000 C 
ENDROOT
BRANCH   1   2
ATOM      2  C   UNL     1      -5.197 -31.576 -50.952  1.00  0.00     0.000 C 
BRANCH   2   3
ATOM      3  C   UNL     1      -5.363 -30.246 -51.710  1.00  0.00     0.000 C 
BRANCH   3   4
ATOM      4  C   UNL     1      -4.062 -29.771 -52.380  1.00  0.00     0.006 C 
BRANCH   4   5
ATOM      5  C   UNL     1      -4.316 -28.672 -53.420  1.00  0.00     0.053 C 
BRANCH   5   6
ATOM      6  C   UNL     1      -5.300 -29.108 -54.462  1.00  0.00     0.041 C 
ATOM      7  O   UNL     1      -6.247 -28.349 -54.799  1.00  0.00    -0.550 OA
ATOM      8  O   UNL     1      -5.155 -30.343 -55.081  1.00  0.00    -0.550 OA
ENDBRANCH   5   6
ENDBRANCH   4   5
ENDBRANCH   3   4
ENDBRANCH   2   3
ENDBRANCH   1   2
BRANCH   1   9
ATOM      9  C   UNL     1      -3.288 -33.283 -50.843  1.00  0.00     0.000 C 
BRANCH   9  10
ATOM     10  C   UNL     1      -2.045 -33.590 -51.687  1.00  0.00    -0.000 C 
BRANCH  10  11
ATOM     11  C   UNL     1      -2.096 -32.848 -53.031  1.00  0.00    -0.000 C 
BRANCH  11  12
ATOM     12  C   UNL     1      -0.934 -31.857 -53.205  1.00  0.00    -0.000 C 
BRANCH  12  13
ATOM     13  C   UNL     1      -0.149 -31.631 -51.904  1.00  0.00    -0.003 C 
ATOM     14  C   UNL     1      -0.335 -30.206 -51.391  1.00  0.00     0.004 C 
ENDBRANCH  12  13
ENDBRANCH  11  12
ENDBRANCH  10  11
ENDBRANCH   9  10
ENDBRANCH   1   9
TORSDOF 10
ENDMDL
MODEL 4
REMARK VINA RESULT:    -5.135      1.581      1.747
REMARK INTER + INTRA:          -9.169
REMARK INTER:                  -7.830
REMARK INTRA:                  -1.339
REMARK UNBOUND:                -1.032
REMARK SMILES CCCCCCCCCCCC(=O)[O-]
REMARK SMILES IDX 7 1 8 2 9 3 10 4 11 5 12 6 13 7 14 8 6 9 5 10 4 11 3 12 2 13
REMARK SMILES IDX 1 14
REMARK H PARENT
REMARK Flexibility Score: inf
ROOT
ATOM      1  C   UNL     1      -5.195 -30.440 -52.770  1.00  0.00     0.000 C 
ENDROOT
BRANCH   1   2
ATOM      2  C   UNL     1      -5.376 -31.882 -52.261  1.00  0.00     0.000 C 
BRANCH   2   3
ATOM      3  C   UNL     1      -4.455 -32.281 -51.094  1.00  0.00     0.000 C 
BRANCH   3   4
ATOM      4  C   UNL     1      -3.229 -33.092 -51.548  1.00  0.00     0.006 C 
BRANCH   4   5
ATOM      5  C   UNL     1      -1.910 -32.378 -51.224  1.00  0.00     0.053 C 
BRANCH   5   6
ATOM      6  C   UNL     1      -1.580 -31.331 -52.244  1.00  0.00     0.041 C 
ATOM      7  O   UNL     1      -1.672 -31.590 -53.473  1.00  0.00    -0.550 OA
ATOM      8  O   UNL     1      -1.197 -30.060 -51.836  1.00  0.00    -0.550 OA
ENDBRANCH   5   6
ENDBRANCH   4   5
ENDBRANCH   3   4
ENDBRANCH   2   3
ENDBRANCH   1   2
BRANCH   1   9
ATOM      9  C   UNL     1      -4.717 -29.474 -51.678  1.00  0.00     0.000 C 
BRANCH   9  10
ATOM     10  C   UNL     1      -5.535 -28.176 -51.695  1.00  0.00    -0.000 C 
BRANCH  10  11
ATOM     11  C   UNL     1      -6.299 -27.990 -50.375  1.00  0.00    -0.000 C 
BRANCH  11  12
ATOM     12  C   UNL     1      -6.171 -29.203 -49.441  1.00  0.00    -0.000 C 
BRANCH  12  13
ATOM     13  C   UNL     1      -7.534 -29.771 -49.017  1.00  0.00    -0.003 C 
ATOM     14  C   UNL     1      -7.610 -31.272 -49.280  1.00  0.00     0.004 C 
ENDBRANCH  12  13
ENDBRANCH  11  12
ENDBRANCH  10  11
ENDBRANCH   9  10
ENDBRANCH   1   9
TORSDOF 10
ENDMDL
MODEL 5
REMARK VINA RESULT:    -5.127      3.209      5.635
REMARK INTER + INTRA:          -9.157
REMARK INTER:                  -7.978
REMARK INTRA:                  -1.179
REMARK UNBOUND:                -1.032
REMARK SMILES CCCCCCCCCCCC(=O)[O-]
REMARK SMILES IDX 7 1 8 2 9 3 10 4 11 5 12 6 13 7 14 8 6 9 5 10 4 11 3 12 2 13
REMARK SMILES IDX 1 14
REMARK H PARENT
REMARK Flexibility Score: inf
ROOT
ATOM      1  C   UNL     1      -0.533 -29.939 -51.299  1.00  0.00     0.000 C 
ENDROOT
BRANCH   1   2
ATOM      2  C   UNL     1      -0.763 -28.861 -52.373  1.00  0.00     0.000 C 
BRANCH   2   3
ATOM      3  C   UNL     1      -2.239 -28.591 -52.720  1.00  0.00     0.000 C 
BRANCH   3   4
ATOM      4  C   UNL     1      -3.137 -29.824 -52.520  1.00  0.00     0.006 C 
BRANCH   4   5
ATOM      5  C   UNL     1      -4.612 -29.518 -52.808  1.00  0.00     0.053 C 
BRANCH   5   6
ATOM      6  C   UNL     1      -5.146 -30.360 -53.927  1.00  0.00     0.041 C 
ATOM      7  O   UNL     1      -5.245 -29.885 -55.089  1.00  0.00    -0.550 OA
ATOM      8  O   UNL     1      -5.509 -31.680 -53.691  1.00  0.00    -0.550 OA
ENDBRANCH   5   6
ENDBRANCH   4   5
ENDBRANCH   3   4
ENDBRANCH   2   3
ENDBRANCH   1   2
BRANCH   1   9
ATOM      9  C   UNL     1       0.388 -31.072 -51.774  1.00  0.00     0.000 C 
BRANCH   9  10
ATOM     10  C   UNL     1      -0.009 -31.552 -53.176  1.00  0.00    -0.000 C 
BRANCH  10  11
ATOM     11  C   UNL     1      -0.410 -33.035 -53.156  1.00  0.00    -0.000 C 
BRANCH  11  12
ATOM     12  C   UNL     1      -1.922 -33.237 -52.968  1.00  0.00    -0.000 C 
BRANCH  12  13
ATOM     13  C   UNL     1      -2.286 -33.686 -51.545  1.00  0.00    -0.003 C 
ATOM     14  C   UNL     1      -3.631 -33.108 -51.113  1.00  0.00     0.004 C 
ENDBRANCH  12  13
ENDBRANCH  11  12
ENDBRANCH  10  11
ENDBRANCH   9  10
ENDBRANCH   1   9
TORSDOF 10
ENDMDL
MODEL 6
REMARK VINA RESULT:    -5.087      3.361      5.821
REMARK INTER + INTRA:          -9.093
REMARK INTER:                  -8.150
REMARK INTRA:                  -0.942
REMARK UNBOUND:                -1.032
REMARK SMILES CCCCCCCCCCCC(=O)[O-]
REMARK SMILES IDX 7 1 8 2 9 3 10 4 11 5 12 6 13 7 14 8 6 9 5 10 4 11 3 12 2 13
REMARK SMILES IDX 1 14
REMARK H PARENT
REMARK Flexibility Score: inf
ROOT
ATOM      1  C   UNL     1      -3.783 -32.812 -51.118  1.00  0.00     0.000 C 
ENDROOT
BRANCH   1   2
ATOM      2  C   UNL     1      -4.608 -32.120 -52.217  1.00  0.00     0.000 C 
BRANCH   2   3
ATOM      3  C   UNL     1      -5.674 -31.132 -51.709  1.00  0.00     0.000 C 
BRANCH   3   4
ATOM      4  C   UNL     1      -5.828 -31.152 -50.178  1.00  0.00     0.006 C 
BRANCH   4   5
ATOM      5  C   UNL     1      -7.285 -31.357 -49.746  1.00  0.00     0.053 C 
BRANCH   5   6
ATOM      6  C   UNL     1      -7.814 -30.174 -48.994  1.00  0.00     0.041 C 
ATOM      7  O   UNL     1      -7.176 -29.087 -48.989  1.00  0.00    -0.550 OA
ATOM      8  O   UNL     1      -9.026 -30.262 -48.321  1.00  0.00    -0.550 OA
ENDBRANCH   5   6
ENDBRANCH   4   5
ENDBRANCH   3   4
ENDBRANCH   2   3
ENDBRANCH   1   2
BRANCH   1   9
ATOM      9  C   UNL     1      -2.486 -33.441 -51.646  1.00  0.00     0.000 C 
BRANCH   9  10
ATOM     10  C   UNL     1      -2.196 -32.981 -53.080  1.00  0.00    -0.000 C 
BRANCH  10  11
ATOM     11  C   UNL     1      -1.074 -31.932 -53.105  1.00  0.00    -0.000 C 
BRANCH  11  12
ATOM     12  C   UNL     1      -0.456 -31.693 -51.718  1.00  0.00    -0.000 C 
BRANCH  12  13
ATOM     13  C   UNL     1      -0.480 -30.213 -51.306  1.00  0.00    -0.003 C 
ATOM     14  C   UNL     1      -1.622 -29.470 -51.994  1.00  0.00     0.004 C 
ENDBRANCH  12  13
ENDBRANCH  11  12
ENDBRANCH  10  11
ENDBRANCH   9  10
ENDBRANCH   1   9
TORSDOF 10
ENDMDL
MODEL 7
REMARK VINA RESULT:    -4.954      1.063      2.737
REMARK INTER + INTRA:          -8.883
REMARK INTER:                  -7.647
REMARK INTRA:                  -1.236
REMARK UNBOUND:                -1.032
REMARK SMILES CCCCCCCCCCCC(=O)[O-]
REMARK SMILES IDX 7 1 8 2 9 3 10 4 11 5 12 6 13 7 14 8 6 9 5 10 4 11 3 12 2 13
REMARK SMILES IDX 1 14
REMARK H PARENT
REMARK Flexibility Score: inf
ROOT
ATOM      1  C   UNL     1      -6.689 -32.001 -50.831  1.00  0.00     0.000 C 
ENDROOT
BRANCH   1   2
ATOM      2  C   UNL     1      -5.528 -32.175 -51.826  1.00  0.00     0.000 C 
BRANCH   2   3
ATOM      3  C   UNL     1      -4.132 -32.290 -51.186  1.00  0.00     0.000 C 
BRANCH   3   4
ATOM      4  C   UNL     1      -3.002 -32.387 -52.226  1.00  0.00     0.006 C 
BRANCH   4   5
ATOM      5  C   UNL     1      -1.951 -31.285 -52.042  1.00  0.00     0.053 C 
BRANCH   5   6
ATOM      6  C   UNL     1      -0.684 -31.820 -51.446  1.00  0.00     0.041 C 
ATOM      7  O   UNL     1       0.263 -31.040 -51.162  1.00  0.00    -0.550 OA
ATOM      8  O   UNL     1      -0.560 -33.178 -51.180  1.00  0.00    -0.550 OA
ENDBRANCH   5   6
ENDBRANCH   4   5
ENDBRANCH   3   4
ENDBRANCH   2   3
ENDBRANCH   1   2
BRANCH   1   9
ATOM      9  C   UNL     1      -6.304 -31.170 -49.599  1.00  0.00     0.000 C 
BRANCH   9  10
ATOM     10  C   UNL     1      -7.129 -29.879 -49.526  1.00  0.00    -0.000 C 
BRANCH  10  11
ATOM     11  C   UNL     1      -6.217 -28.645 -49.474  1.00  0.00    -0.000 C 
BRANCH  11  12
ATOM     12  C   UNL     1      -6.056 -27.970 -50.846  1.00  0.00    -0.000 C 
BRANCH  12  13
ATOM     13  C   UNL     1      -4.805 -28.449 -51.598  1.00  0.00    -0.003 C 
ATOM     14  C   UNL     1      -5.130 -28.774 -53.053  1.00  0.00     0.004 C 
ENDBRANCH  12  13
ENDBRANCH  11  12
ENDBRANCH  10  11
ENDBRANCH   9  10
ENDBRANCH   1   9
TORSDOF 10
ENDMDL
MODEL 8
REMARK VINA RESULT:    -4.947      3.553      5.643
REMARK INTER + INTRA:          -8.871
REMARK INTER:                  -7.927
REMARK INTRA:                  -0.944
REMARK UNBOUND:                -1.032
REMARK SMILES CCCCCCCCCCCC(=O)[O-]
REMARK SMILES IDX 7 1 8 2 9 3 10 4 11 5 12 6 13 7 14 8 6 9 5 10 4 11 3 12 2 13
REMARK SMILES IDX 1 14
REMARK H PARENT
REMARK Flexibility Score: inf
ROOT
ATOM      1  C   UNL     1      -2.522 -32.648 -53.202  1.00  0.00     0.000 C 
ENDROOT
BRANCH   1   2
ATOM      2  C   UNL     1      -3.069 -33.017 -51.811  1.00  0.00     0.000 C 
BRANCH   2   3
ATOM      3  C   UNL     1      -4.384 -32.317 -51.421  1.00  0.00     0.000 C 
BRANCH   3   4
ATOM      4  C   UNL     1      -5.262 -31.972 -52.636  1.00  0.00     0.006 C 
BRANCH   4   5
ATOM      5  C   UNL     1      -5.356 -30.459 -52.871  1.00  0.00     0.053 C 
BRANCH   5   6
ATOM      6  C   UNL     1      -5.362 -30.122 -54.331  1.00  0.00     0.041 C 
ATOM      7  O   UNL     1      -4.945 -30.957 -55.177  1.00  0.00    -0.550 OA
ATOM      8  O   UNL     1      -5.855 -28.896 -54.760  1.00  0.00    -0.550 OA
ENDBRANCH   5   6
ENDBRANCH   4   5
ENDBRANCH   3   4
ENDBRANCH   2   3
ENDBRANCH   1   2
BRANCH   1   9
ATOM      9  C   UNL     1      -1.146 -31.969 -53.144  1.00  0.00     0.000 C 
BRANCH   9  10
ATOM     10  C   UNL     1      -0.668 -31.815 -51.695  1.00  0.00    -0.000 C 
BRANCH  10  11
ATOM     11  C   UNL     1      -0.560 -30.333 -51.306  1.00  0.00    -0.000 C 
BRANCH  11  12
ATOM     12  C   UNL     1      -1.173 -29.397 -52.360  1.00  0.00    -0.000 C 
BRANCH  12  13
ATOM     13  C   UNL     1      -0.381 -28.091 -52.523  1.00  0.00    -0.003 C 
ATOM     14  C   UNL     1       0.274 -28.014 -53.900  1.00  0.00     0.004 C 
ENDBRANCH  12  13
ENDBRANCH  11  12
ENDBRANCH  10  11
ENDBRANCH   9  10
ENDBRANCH   1   9
TORSDOF 10
ENDMDL
MODEL 9
REMARK VINA RESULT:    -4.925      3.043      5.374
REMARK INTER + INTRA:          -8.836
REMARK INTER:                  -7.783
REMARK INTRA:                  -1.054
REMARK UNBOUND:                -1.032
REMARK SMILES CCCCCCCCCCCC(=O)[O-]
REMARK SMILES IDX 7 1 8 2 9 3 10 4 11 5 12 6 13 7 14 8 6 9 5 10 4 11 3 12 2 13
REMARK SMILES IDX 1 14
REMARK H PARENT
REMARK Flexibility Score: inf
ROOT
ATOM      1  C   UNL     1      -5.317 -30.025 -54.166  1.00  0.00     0.000 C 
ENDROOT
BRANCH   1   2
ATOM      2  C   UNL     1      -5.161 -28.600 -53.605  1.00  0.00     0.000 C 
BRANCH   2   3
ATOM      3  C   UNL     1      -4.544 -28.518 -52.197  1.00  0.00     0.000 C 
BRANCH   3   4
ATOM      4  C   UNL     1      -5.584 -28.212 -51.105  1.00  0.00     0.006 C 
BRANCH   4   5
ATOM      5  C   UNL     1      -5.998 -29.471 -50.332  1.00  0.00     0.053 C 
BRANCH   5   6
ATOM      6  C   UNL     1      -6.761 -29.134 -49.087  1.00  0.00     0.041 C 
ATOM      7  O   UNL     1      -7.879 -29.669 -48.863  1.00  0.00    -0.550 OA
ATOM      8  O   UNL     1      -6.224 -28.249 -48.161  1.00  0.00    -0.550 OA
ENDBRANCH   5   6
ENDBRANCH   4   5
ENDBRANCH   3   4
ENDBRANCH   2   3
ENDBRANCH   1   2
BRANCH   1   9
ATOM      9  C   UNL     1      -4.442 -31.056 -53.440  1.00  0.00     0.000 C 
BRANCH   9  10
ATOM     10  C   UNL     1      -5.302 -32.066 -52.671  1.00  0.00    -0.000 C 
BRANCH  10  11
ATOM     11  C   UNL     1      -4.519 -32.676 -51.498  1.00  0.00    -0.000 C 
BRANCH  11  12
ATOM     12  C   UNL     1      -3.032 -32.288 -51.514  1.00  0.00    -0.000 C 
BRANCH  12  13
ATOM     13  C   UNL     1      -2.113 -33.481 -51.816  1.00  0.00    -0.003 C 
ATOM     14  C   UNL     1      -1.669 -33.476 -53.276  1.00  0.00     0.004 C 
ENDBRANCH  12  13
ENDBRANCH  11  12
ENDBRANCH  10  11
ENDBRANCH   9  10
ENDBRANCH   1   9
TORSDOF 10
ENDMDL
