MODEL 1
REMARK VINA RESULT:    -3.764      0.000      0.000
REMARK INTER + INTRA:         -10.074
REMARK INTER:                  -7.285
REMARK INTRA:                  -2.789
REMARK UNBOUND:                -2.789
REMARK SMILES CCCCCCCCCCCCCCCCCC(=O)[O-]
REMARK SMILES IDX 10 1 11 2 12 3 13 4 14 5 15 6 16 7 17 8 18 9 19 10 20 11
REMARK SMILES IDX 9 12 8 13 7 14 6 15 5 16 4 17 3 18 2 19 1 20
REMARK H PARENT
REMARK Flexibility Score: inf
ROOT
ATOM      1  C   UNL     1      74.851  79.291  78.719  1.00  0.00     0.000 C 
ENDROOT
BRANCH   1   2
ATOM      2  C   UNL     1      75.494  80.431  79.522  1.00  0.00     0.000 C 
BRANCH   2   3
ATOM      3  C   UNL     1      75.463  81.746  78.730  1.00  0.00     0.000 C 
BRANCH   3   4
ATOM      4  C   UNL     1      76.799  82.061  78.031  1.00  0.00     0.000 C 
BRANCH   4   5
ATOM      5  C   UNL     1      78.028  81.350  78.626  1.00  0.00     0.000 C 
BRANCH   5   6
ATOM      6  C   UNL     1      79.279  81.475  77.744  1.00  0.00     0.000 C 
BRANCH   6   7
ATOM      7  C   UNL     1      78.898  81.565  76.259  1.00  0.00     0.006 C 
BRANCH   7   8
ATOM      8  C   UNL     1      79.447  82.832  75.593  1.00  0.00     0.053 C 
BRANCH   8   9
ATOM      9  C   UNL     1      78.494  83.385  74.577  1.00  0.00     0.041 C 
ATOM     10  O   UNL     1      78.374  82.830  73.453  1.00  0.00    -0.550 OA
ATOM     11  O   UNL     1      77.766  84.533  74.858  1.00  0.00    -0.550 OA
ENDBRANCH   8   9
ENDBRANCH   7   8
ENDBRANCH   6   7
ENDBRANCH   5   6
ENDBRANCH   4   5
ENDBRANCH   3   4
ENDBRANCH   2   3
ENDBRANCH   1   2
BRANCH   1  12
ATOM     12  C   UNL     1      75.889  78.394  78.020  1.00  0.00     0.000 C 
BRANCH  12  13
ATOM     13  C   UNL     1      75.764  78.330  76.485  1.00  0.00    -0.000 C 
BRANCH  13  14
ATOM     14  C   UNL     1      75.088  79.552  75.832  1.00  0.00    -0.000 C 
BRANCH  14  15
ATOM     15  C   UNL     1      75.916  80.245  74.734  1.00  0.00    -0.000 C 
BRANCH  15  16
ATOM     16  C   UNL     1      75.195  81.452  74.117  1.00  0.00    -0.000 C 
BRANCH  16  17
ATOM     17  C   UNL     1      74.398  82.220  75.181  1.00  0.00    -0.000 C 
BRANCH  17  18
ATOM     18  C   UNL     1      73.047  82.736  74.659  1.00  0.00    -0.000 C 
BRANCH  18  19
ATOM     19  C   UNL     1      71.873  82.486  75.628  1.00  0.00    -0.003 C 
ATOM     20  C   UNL     1      72.286  81.649  76.838  1.00  0.00     0.004 C 
ENDBRANCH  18  19
ENDBRANCH  17  18
ENDBRANCH  16  17
ENDBRANCH  15  16
ENDBRANCH  14  15
ENDBRANCH  13  14
ENDBRANCH  12  13
ENDBRANCH   1  12
TORSDOF 16
ENDMDL
MODEL 2
REMARK VINA RESULT:    -3.713      1.301      2.192
REMARK INTER + INTRA:          -9.974
REMARK INTER:                  -7.830
REMARK INTRA:                  -2.144
REMARK UNBOUND:                -2.789
REMARK SMILES CCCCCCCCCCCCCCCCCC(=O)[O-]
REMARK SMILES IDX 10 1 11 2 12 3 13 4 14 5 15 6 16 7 17 8 18 9 19 10 20 11
REMARK SMILES IDX 9 12 8 13 7 14 6 15 5 16 4 17 3 18 2 19 1 20
REMARK H PARENT
REMARK Flexibility Score: inf
ROOT
ATOM      1  C   UNL     1      75.398  80.148  78.636  1.00  0.00     0.000 C 
ENDROOT
BRANCH   1   2
ATOM      2  C   UNL     1      76.599  79.937  79.569  1.00  0.00     0.000 C 
BRANCH   2   3
ATOM      3  C   UNL     1      77.617  78.973  78.943  1.00  0.00     0.000 C 
BRANCH   3   4
ATOM      4  C   UNL     1      78.001  79.354  77.501  1.00  0.00     0.000 C 
BRANCH   4   5
ATOM      5  C   UNL     1      79.385  80.011  77.348  1.00  0.00     0.000 C 
BRANCH   5   6
ATOM      6  C   UNL     1      79.306  81.522  77.084  1.00  0.00     0.000 C 
BRANCH   6   7
ATOM      7  C   UNL     1      80.140  81.910  75.855  1.00  0.00     0.006 C 
BRANCH   7   8
ATOM      8  C   UNL     1      79.982  83.390  75.487  1.00  0.00     0.053 C 
BRANCH   8   9
ATOM      9  C   UNL     1      78.751  83.632  74.667  1.00  0.00     0.041 C 
ATOM     10  O   UNL     1      77.986  84.594  74.942  1.00  0.00    -0.550 OA
ATOM     11  O   UNL     1      78.429  82.773  73.625  1.00  0.00    -0.550 OA
ENDBRANCH   8   9
ENDBRANCH   7   8
ENDBRANCH   6   7
ENDBRANCH   5   6
ENDBRANCH   4   5
ENDBRANCH   3   4
ENDBRANCH   2   3
ENDBRANCH   1   2
BRANCH   1  12
ATOM     12  C   UNL     1      75.003  81.629  78.498  1.00  0.00     0.000 C 
BRANCH  12  13
ATOM     13  C   UNL     1      75.967  82.481  77.649  1.00  0.00    -0.000 C 
BRANCH  13  14
ATOM     14  C   UNL     1      75.414  82.931  76.282  1.00  0.00    -0.000 C 
BRANCH  14  15
ATOM     15  C   UNL     1      75.398  81.841  75.195  1.00  0.00    -0.000 C 
BRANCH  15  16
ATOM     16  C   UNL     1      74.073  81.793  74.419  1.00  0.00    -0.000 C 
BRANCH  16  17
ATOM     17  C   UNL     1      73.140  82.931  74.854  1.00  0.00    -0.000 C 
BRANCH  17  18
ATOM     18  C   UNL     1      71.652  82.572  74.709  1.00  0.00    -0.000 C 
BRANCH  18  19
ATOM     19  C   UNL     1      70.945  82.310  76.055  1.00  0.00    -0.003 C 
ATOM     20  C   UNL     1      71.767  82.793  77.249  1.00  0.00     0.004 C 
ENDBRANCH  18  19
ENDBRANCH  17  18
ENDBRANCH  16  17
ENDBRANCH  15  16
ENDBRANCH  14  15
ENDBRANCH  13  14
ENDBRANCH  12  13
ENDBRANCH   1  12
TORSDOF 16
ENDMDL
MODEL 3
REMARK VINA RESULT:    -3.685      1.614      2.831
REMARK INTER + INTRA:          -9.920
REMARK INTER:                  -8.130
REMARK INTRA:                  -1.790
REMARK UNBOUND:                -2.789
REMARK SMILES CCCCCCCCCCCCCCCCCC(=O)[O-]
REMARK SMILES IDX 10 1 11 2 12 3 13 4 14 5 15 6 16 7 17 8 18 9 19 10 20 11
REMARK SMILES IDX 9 12 8 13 7 14 6 15 5 16 4 17 3 18 2 19 1 20
REMARK H PARENT
REMARK Flexibility Score: inf
ROOT
ATOM      1  C   UNL     1      78.483  81.383  78.687  1.00  0.00     0.000 C 
ENDROOT
BRANCH   1   2
ATOM      2  C   UNL     1      78.992  79.949  78.477  1.00  0.00     0.000 C 
BRANCH   2   3
ATOM      3  C   UNL     1      80.526  79.914  78.425  1.00  0.00     0.000 C 
BRANCH   3   4
ATOM      4  C   UNL     1      81.143  81.234  77.925  1.00  0.00     0.000 C 
BRANCH   4   5
ATOM      5  C   UNL     1      81.954  81.120  76.621  1.00  0.00     0.000 C 
BRANCH   5   6
ATOM      6  C   UNL     1      81.836  82.366  75.731  1.00  0.00     0.000 C 
BRANCH   6   7
ATOM      7  C   UNL     1      80.491  82.388  74.991  1.00  0.00     0.006 C 
BRANCH   7   8
ATOM      8  C   UNL     1      79.630  83.594  75.383  1.00  0.00     0.053 C 
BRANCH   8   9
ATOM      9  C   UNL     1      78.335  83.623  74.630  1.00  0.00     0.041 C 
ATOM     10  O   UNL     1      78.086  82.743  73.765  1.00  0.00    -0.550 OA
ATOM     11  O   UNL     1      77.420  84.642  74.858  1.00  0.00    -0.550 OA
ENDBRANCH   8   9
ENDBRANCH   7   8
ENDBRANCH   6   7
ENDBRANCH   5   6
ENDBRANCH   4   5
ENDBRANCH   3   4
ENDBRANCH   2   3
ENDBRANCH   1   2
BRANCH   1  12
ATOM     12  C   UNL     1      77.425  81.798  77.648  1.00  0.00     0.000 C 
BRANCH  12  13
ATOM     13  C   UNL     1      75.973  81.799  78.164  1.00  0.00    -0.000 C 
BRANCH  13  14
ATOM     14  C   UNL     1      74.888  81.805  77.068  1.00  0.00    -0.000 C 
BRANCH  14  15
ATOM     15  C   UNL     1      75.374  81.384  75.669  1.00  0.00    -0.000 C 
BRANCH  15  16
ATOM     16  C   UNL     1      74.472  81.911  74.543  1.00  0.00    -0.000 C 
BRANCH  16  17
ATOM     17  C   UNL     1      73.575  83.051  75.044  1.00  0.00    -0.000 C 
BRANCH  17  18
ATOM     18  C   UNL     1      72.106  82.885  74.621  1.00  0.00    -0.000 C 
BRANCH  18  19
ATOM     19  C   UNL     1      71.257  82.087  75.631  1.00  0.00    -0.003 C 
ATOM     20  C   UNL     1      71.345  82.659  77.046  1.00  0.00     0.004 C 
ENDBRANCH  18  19
ENDBRANCH  17  18
ENDBRANCH  16  17
ENDBRANCH  15  16
ENDBRANCH  14  15
ENDBRANCH  13  14
ENDBRANCH  12  13
ENDBRANCH   1  12
TORSDOF 16
ENDMDL
MODEL 4
REMARK VINA RESULT:    -3.625      2.562      5.285
REMARK INTER + INTRA:          -9.804
REMARK INTER:                  -7.154
REMARK INTRA:                  -2.649
REMARK UNBOUND:                -2.789
REMARK SMILES CCCCCCCCCCCCCCCCCC(=O)[O-]
REMARK SMILES IDX 10 1 11 2 12 3 13 4 14 5 15 6 16 7 17 8 18 9 19 10 20 11
REMARK SMILES IDX 9 12 8 13 7 14 6 15 5 16 4 17 3 18 2 19 1 20
REMARK H PARENT
REMARK Flexibility Score: inf
ROOT
ATOM      1  C   UNL     1      79.279  80.467  78.298  1.00  0.00     0.000 C 
ENDROOT
BRANCH   1   2
ATOM      2  C   UNL     1      78.123  81.398  78.692  1.00  0.00     0.000 C 
BRANCH   2   3
ATOM      3  C   UNL     1      76.768  80.767  78.344  1.00  0.00     0.000 C 
BRANCH   3   4
ATOM      4  C   UNL     1      75.577  81.701  78.627  1.00  0.00     0.000 C 
BRANCH   4   5
ATOM      5  C   UNL     1      74.772  82.124  77.384  1.00  0.00     0.000 C 
BRANCH   5   6
ATOM      6  C   UNL     1      75.597  82.948  76.385  1.00  0.00     0.000 C 
BRANCH   6   7
ATOM      7  C   UNL     1      74.817  83.177  75.083  1.00  0.00     0.006 C 
BRANCH   7   8
ATOM      8  C   UNL     1      74.271  81.871  74.494  1.00  0.00     0.053 C 
BRANCH   8   9
ATOM      9  C   UNL     1      72.785  81.923  74.306  1.00  0.00     0.041 C 
ATOM     10  O   UNL     1      72.116  82.864  74.809  1.00  0.00    -0.550 OA
ATOM     11  O   UNL     1      72.136  80.915  73.607  1.00  0.00    -0.550 OA
ENDBRANCH   8   9
ENDBRANCH   7   8
ENDBRANCH   6   7
ENDBRANCH   5   6
ENDBRANCH   4   5
ENDBRANCH   3   4
ENDBRANCH   2   3
ENDBRANCH   1   2
BRANCH   1  12
ATOM     12  C   UNL     1      80.640  80.946  78.836  1.00  0.00     0.000 C 
BRANCH  12  13
ATOM     13  C   UNL     1      81.754  81.060  77.776  1.00  0.00    -0.000 C 
BRANCH  13  14
ATOM     14  C   UNL     1      81.263  81.270  76.330  1.00  0.00    -0.000 C 
BRANCH  14  15
ATOM     15  C   UNL     1      81.645  82.622  75.702  1.00  0.00    -0.000 C 
BRANCH  15  16
ATOM     16  C   UNL     1      80.445  83.567  75.546  1.00  0.00    -0.000 C 
BRANCH  16  17
ATOM     17  C   UNL     1      79.133  82.777  75.438  1.00  0.00    -0.000 C 
BRANCH  17  18
ATOM     18  C   UNL     1      78.568  82.751  74.008  1.00  0.00    -0.000 C 
BRANCH  18  19
ATOM     19  C   UNL     1      77.918  81.406  73.625  1.00  0.00    -0.003 C 
ATOM     20  C   UNL     1      77.892  80.418  74.790  1.00  0.00     0.004 C 
ENDBRANCH  18  19
ENDBRANCH  17  18
ENDBRANCH  16  17
ENDBRANCH  15  16
ENDBRANCH  14  15
ENDBRANCH  13  14
ENDBRANCH  12  13
ENDBRANCH   1  12
TORSDOF 16
ENDMDL
MODEL 5
REMARK VINA RESULT:    -3.597      2.693      5.113
REMARK INTER + INTRA:          -9.750
REMARK INTER:                  -6.668
REMARK INTRA:                  -3.082
REMARK UNBOUND:                -2.789
REMARK SMILES CCCCCCCCCCCCCCCCCC(=O)[O-]
REMARK SMILES IDX 10 1 11 2 12 3 13 4 14 5 15 6 16 7 17 8 18 9 19 10 20 11
REMARK SMILES IDX 9 12 8 13 7 14 6 15 5 16 4 17 3 18 2 19 1 20
REMARK H PARENT
REMARK Flexibility Score: inf
ROOT
ATOM      1  C   UNL     1      78.122  80.073  78.565  1.00  0.00     0.000 C 
ENDROOT
BRANCH   1   2
ATOM      2  C   UNL     1      78.063  81.599  78.403  1.00  0.00     0.000 C 
BRANCH   2   3
ATOM      3  C   UNL     1      76.609  82.086  78.319  1.00  0.00     0.000 C 
BRANCH   3   4
ATOM      4  C   UNL     1      75.583  80.969  78.588  1.00  0.00     0.000 C 
BRANCH   4   5
ATOM      5  C   UNL     1      74.313  81.029  77.719  1.00  0.00     0.000 C 
BRANCH   5   6
ATOM      6  C   UNL     1      74.376  82.119  76.639  1.00  0.00     0.000 C 
BRANCH   6   7
ATOM      7  C   UNL     1      73.749  81.629  75.326  1.00  0.00     0.006 C 
BRANCH   7   8
ATOM      8  C   UNL     1      73.102  82.768  74.530  1.00  0.00     0.053 C 
BRANCH   8   9
ATOM      9  C   UNL     1      71.608  82.650  74.502  1.00  0.00     0.041 C 
ATOM     10  O   UNL     1      70.982  82.787  73.418  1.00  0.00    -0.550 OA
ATOM     11  O   UNL     1      70.906  82.425  75.678  1.00  0.00    -0.550 OA
ENDBRANCH   8   9
ENDBRANCH   7   8
ENDBRANCH   6   7
ENDBRANCH   5   6
ENDBRANCH   4   5
ENDBRANCH   3   4
ENDBRANCH   2   3
ENDBRANCH   1   2
BRANCH   1  12
ATOM     12  C   UNL     1      78.732  79.366  77.340  1.00  0.00     0.000 C 
BRANCH  12  13
ATOM     13  C   UNL     1      77.710  78.705  76.396  1.00  0.00    -0.000 C 
BRANCH  13  14
ATOM     14  C   UNL     1      76.971  79.672  75.449  1.00  0.00    -0.000 C 
BRANCH  14  15
ATOM     15  C   UNL     1      77.883  80.587  74.611  1.00  0.00    -0.000 C 
BRANCH  15  16
ATOM     16  C   UNL     1      77.226  81.933  74.274  1.00  0.00    -0.000 C 
BRANCH  16  17
ATOM     17  C   UNL     1      78.005  83.097  74.902  1.00  0.00    -0.000 C 
BRANCH  17  18
ATOM     18  C   UNL     1      79.520  83.005  74.656  1.00  0.00    -0.000 C 
BRANCH  18  19
ATOM     19  C   UNL     1      80.365  83.154  75.937  1.00  0.00    -0.003 C 
ATOM     20  C   UNL     1      81.188  81.902  76.241  1.00  0.00     0.004 C 
ENDBRANCH  18  19
ENDBRANCH  17  18
ENDBRANCH  16  17
ENDBRANCH  15  16
ENDBRANCH  14  15
ENDBRANCH  13  14
ENDBRANCH  12  13
ENDBRANCH   1  12
TORSDOF 16
ENDMDL
MODEL 6
REMARK VINA RESULT:    -3.569      1.422      5.050
REMARK INTER + INTRA:          -9.697
REMARK INTER:                  -6.881
REMARK INTRA:                  -2.816
REMARK UNBOUND:                -2.789
REMARK SMILES CCCCCCCCCCCCCCCCCC(=O)[O-]
REMARK SMILES IDX 10 1 11 2 12 3 13 4 14 5 15 6 16 7 17 8 18 9 19 10 20 11
REMARK SMILES IDX 9 12 8 13 7 14 6 15 5 16 4 17 3 18 2 19 1 20
REMARK H PARENT
REMARK Flexibility Score: inf
ROOT
ATOM      1  C   UNL     1      74.040  82.881  76.154  1.00  0.00     0.000 C 
ENDROOT
BRANCH   1   2
ATOM      2  C   UNL     1      73.916  82.753  74.629  1.00  0.00     0.000 C 
BRANCH   2   3
ATOM      3  C   UNL     1      73.183  81.460  74.244  1.00  0.00     0.000 C 
BRANCH   3   4
ATOM      4  C   UNL     1      74.096  80.432  73.552  1.00  0.00     0.000 C 
BRANCH   4   5
ATOM      5  C   UNL     1      75.594  80.789  73.550  1.00  0.00     0.000 C 
BRANCH   5   6
ATOM      6  C   UNL     1      76.367  80.138  74.706  1.00  0.00     0.000 C 
BRANCH   6   7
ATOM      7  C   UNL     1      77.712  80.843  74.934  1.00  0.00     0.006 C 
BRANCH   7   8
ATOM      8  C   UNL     1      77.544  82.227  75.572  1.00  0.00     0.053 C 
BRANCH   8   9
ATOM      9  C   UNL     1      77.853  83.328  74.604  1.00  0.00     0.041 C 
ATOM     10  O   UNL     1      78.539  83.092  73.575  1.00  0.00    -0.550 OA
ATOM     11  O   UNL     1      77.415  84.621  74.858  1.00  0.00    -0.550 OA
ENDBRANCH   8   9
ENDBRANCH   7   8
ENDBRANCH   6   7
ENDBRANCH   5   6
ENDBRANCH   4   5
ENDBRANCH   3   4
ENDBRANCH   2   3
ENDBRANCH   1   2
BRANCH   1  12
ATOM     12  C   UNL     1      73.440  81.677  76.904  1.00  0.00     0.000 C 
BRANCH  12  13
ATOM     13  C   UNL     1      74.441  80.888  77.770  1.00  0.00    -0.000 C 
BRANCH  13  14
ATOM     14  C   UNL     1      75.439  81.750  78.569  1.00  0.00    -0.000 C 
BRANCH  14  15
ATOM     15  C   UNL     1      76.648  80.986  79.140  1.00  0.00    -0.000 C 
BRANCH  15  16
ATOM     16  C   UNL     1      76.984  79.719  78.339  1.00  0.00    -0.000 C 
BRANCH  16  17
ATOM     17  C   UNL     1      78.325  79.123  78.790  1.00  0.00    -0.000 C 
BRANCH  17  18
ATOM     18  C   UNL     1      79.429  79.269  77.729  1.00  0.00    -0.000 C 
BRANCH  18  19
ATOM     19  C   UNL     1      80.145  80.634  77.765  1.00  0.00    -0.003 C 
ATOM     20  C   UNL     1      80.996  80.813  79.022  1.00  0.00     0.004 C 
ENDBRANCH  18  19
ENDBRANCH  17  18
ENDBRANCH  16  17
ENDBRANCH  15  16
ENDBRANCH  14  15
ENDBRANCH  13  14
ENDBRANCH  12  13
ENDBRANCH   1  12
TORSDOF 16
ENDMDL
MODEL 7
REMARK VINA RESULT:    -3.555      2.402      6.089
REMARK INTER + INTRA:          -9.669
REMARK INTER:                  -7.672
REMARK INTRA:                  -1.998
REMARK UNBOUND:                -2.789
REMARK SMILES CCCCCCCCCCCCCCCCCC(=O)[O-]
REMARK SMILES IDX 10 1 11 2 12 3 13 4 14 5 15 6 16 7 17 8 18 9 19 10 20 11
REMARK SMILES IDX 9 12 8 13 7 14 6 15 5 16 4 17 3 18 2 19 1 20
REMARK H PARENT
REMARK Flexibility Score: inf
ROOT
ATOM      1  C   UNL     1      79.314  81.345  78.655  1.00  0.00     0.000 C 
ENDROOT
BRANCH   1   2
ATOM      2  C   UNL     1      77.897  81.811  78.291  1.00  0.00     0.000 C 
BRANCH   2   3
ATOM      3  C   UNL     1      76.875  80.687  78.515  1.00  0.00     0.000 C 
BRANCH   3   4
ATOM      4  C   UNL     1      75.479  81.209  78.901  1.00  0.00     0.000 C 
BRANCH   4   5
ATOM      5  C   UNL     1      74.687  81.860  77.752  1.00  0.00     0.000 C 
BRANCH   5   6
ATOM      6  C   UNL     1      74.950  81.199  76.392  1.00  0.00     0.000 C 
BRANCH   6   7
ATOM      7  C   UNL     1      74.714  82.190  75.243  1.00  0.00     0.006 C 
BRANCH   7   8
ATOM      8  C   UNL     1      75.132  83.618  75.612  1.00  0.00     0.053 C 
BRANCH   8   9
ATOM      9  C   UNL     1      76.433  84.001  74.972  1.00  0.00     0.041 C 
ATOM     10  O   UNL     1      76.766  85.212  74.892  1.00  0.00    -0.550 OA
ATOM     11  O   UNL     1      77.258  83.023  74.434  1.00  0.00    -0.550 OA
ENDBRANCH   8   9
ENDBRANCH   7   8
ENDBRANCH   6   7
ENDBRANCH   5   6
ENDBRANCH   4   5
ENDBRANCH   3   4
ENDBRANCH   2   3
ENDBRANCH   1   2
BRANCH   1  12
ATOM     12  C   UNL     1      79.701  80.022  77.969  1.00  0.00     0.000 C 
BRANCH  12  13
ATOM     13  C   UNL     1      81.053  79.431  78.416  1.00  0.00    -0.000 C 
BRANCH  13  14
ATOM     14  C   UNL     1      81.901  80.345  79.323  1.00  0.00    -0.000 C 
BRANCH  14  15
ATOM     15  C   UNL     1      83.031  81.106  78.607  1.00  0.00    -0.000 C 
BRANCH  15  16
ATOM     16  C   UNL     1      83.692  80.280  77.494  1.00  0.00    -0.000 C 
BRANCH  16  17
ATOM     17  C   UNL     1      83.689  81.047  76.164  1.00  0.00    -0.000 C 
BRANCH  17  18
ATOM     18  C   UNL     1      82.825  82.318  76.210  1.00  0.00    -0.000 C 
BRANCH  18  19
ATOM     19  C   UNL     1      81.536  82.221  75.369  1.00  0.00    -0.003 C 
ATOM     20  C   UNL     1      80.526  83.313  75.721  1.00  0.00     0.004 C 
ENDBRANCH  18  19
ENDBRANCH  17  18
ENDBRANCH  16  17
ENDBRANCH  15  16
ENDBRANCH  14  15
ENDBRANCH  13  14
ENDBRANCH  12  13
ENDBRANCH   1  12
TORSDOF 16
ENDMDL
MODEL 8
REMARK VINA RESULT:    -3.507      2.591      5.650
REMARK INTER + INTRA:          -9.576
REMARK INTER:                  -6.368
REMARK INTRA:                  -3.208
REMARK UNBOUND:                -2.789
REMARK SMILES CCCCCCCCCCCCCCCCCC(=O)[O-]
REMARK SMILES IDX 10 1 11 2 12 3 13 4 14 5 15 6 16 7 17 8 18 9 19 10 20 11
REMARK SMILES IDX 9 12 8 13 7 14 6 15 5 16 4 17 3 18 2 19 1 20
REMARK H PARENT
REMARK Flexibility Score: inf
ROOT
ATOM      1  C   UNL     1      75.305  79.192  77.308  1.00  0.00     0.000 C 
ENDROOT
BRANCH   1   2
ATOM      2  C   UNL     1      75.224  79.417  75.791  1.00  0.00     0.000 C 
BRANCH   2   3
ATOM      3  C   UNL     1      76.432  80.223  75.291  1.00  0.00     0.000 C 
BRANCH   3   4
ATOM      4  C   UNL     1      76.033  81.538  74.595  1.00  0.00     0.000 C 
BRANCH   4   5
ATOM      5  C   UNL     1      76.323  82.816  75.404  1.00  0.00     0.000 C 
BRANCH   5   6
ATOM      6  C   UNL     1      75.062  83.646  75.684  1.00  0.00     0.000 C 
BRANCH   6   7
ATOM      7  C   UNL     1      73.795  82.870  75.299  1.00  0.00     0.006 C 
BRANCH   7   8
ATOM      8  C   UNL     1      72.750  82.868  76.422  1.00  0.00     0.053 C 
BRANCH   8   9
ATOM      9  C   UNL     1      71.793  81.723  76.290  1.00  0.00     0.041 C 
ATOM     10  O   UNL     1      70.842  81.595  77.106  1.00  0.00    -0.550 OA
ATOM     11  O   UNL     1      71.972  80.778  75.289  1.00  0.00    -0.550 OA
ENDBRANCH   8   9
ENDBRANCH   7   8
ENDBRANCH   6   7
ENDBRANCH   5   6
ENDBRANCH   4   5
ENDBRANCH   3   4
ENDBRANCH   2   3
ENDBRANCH   1   2
BRANCH   1  12
ATOM     12  C   UNL     1      74.631  80.317  78.115  1.00  0.00     0.000 C 
BRANCH  12  13
ATOM     13  C   UNL     1      75.602  81.325  78.759  1.00  0.00    -0.000 C 
BRANCH  13  14
ATOM     14  C   UNL     1      76.985  80.755  79.135  1.00  0.00    -0.000 C 
BRANCH  14  15
ATOM     15  C   UNL     1      78.173  81.378  78.380  1.00  0.00    -0.000 C 
BRANCH  15  16
ATOM     16  C   UNL     1      79.166  80.328  77.860  1.00  0.00    -0.000 C 
BRANCH  16  17
ATOM     17  C   UNL     1      79.907  80.839  76.617  1.00  0.00    -0.000 C 
BRANCH  17  18
ATOM     18  C   UNL     1      79.866  82.371  76.485  1.00  0.00    -0.000 C 
BRANCH  18  19
ATOM     19  C   UNL     1      80.375  82.888  75.124  1.00  0.00    -0.003 C 
ATOM     20  C   UNL     1      79.728  82.161  73.945  1.00  0.00     0.004 C 
ENDBRANCH  18  19
ENDBRANCH  17  18
ENDBRANCH  16  17
ENDBRANCH  15  16
ENDBRANCH  14  15
ENDBRANCH  13  14
ENDBRANCH  12  13
ENDBRANCH   1  12
TORSDOF 16
ENDMDL
MODEL 9
REMARK VINA RESULT:    -3.468      1.821      3.022
REMARK INTER + INTRA:          -9.501
REMARK INTER:                  -7.034
REMARK INTRA:                  -2.467
REMARK UNBOUND:                -2.789
REMARK SMILES CCCCCCCCCCCCCCCCCC(=O)[O-]
REMARK SMILES IDX 10 1 11 2 12 3 13 4 14 5 15 6 16 7 17 8 18 9 19 10 20 11
REMARK SMILES IDX 9 12 8 13 7 14 6 15 5 16 4 17 3 18 2 19 1 20
REMARK H PARENT
REMARK Flexibility Score: inf
ROOT
ATOM      1  C   UNL     1      77.648  81.077  78.738  1.00  0.00     0.000 C 
ENDROOT
BRANCH   1   2
ATOM      2  C   UNL     1      79.046  81.426  78.207  1.00  0.00     0.000 C 
BRANCH   2   3
ATOM      3  C   UNL     1      79.573  80.320  77.281  1.00  0.00     0.000 C 
BRANCH   3   4
ATOM      4  C   UNL     1      78.451  79.463  76.667  1.00  0.00     0.000 C 
BRANCH   4   5
ATOM      5  C   UNL     1      78.226  79.669  75.158  1.00  0.00     0.000 C 
BRANCH   5   6
ATOM      6  C   UNL     1      77.259  80.820  74.847  1.00  0.00     0.000 C 
BRANCH   6   7
ATOM      7  C   UNL     1      77.905  81.841  73.899  1.00  0.00     0.006 C 
BRANCH   7   8
ATOM      8  C   UNL     1      78.397  83.091  74.639  1.00  0.00     0.053 C 
BRANCH   8   9
ATOM      9  C   UNL     1      79.874  83.046  74.887  1.00  0.00     0.041 C 
ATOM     10  O   UNL     1      80.391  83.783  75.768  1.00  0.00    -0.550 OA
ATOM     11  O   UNL     1      80.684  82.218  74.122  1.00  0.00    -0.550 OA
ENDBRANCH   8   9
ENDBRANCH   7   8
ENDBRANCH   6   7
ENDBRANCH   5   6
ENDBRANCH   4   5
ENDBRANCH   3   4
ENDBRANCH   2   3
ENDBRANCH   1   2
BRANCH   1  12
ATOM     12  C   UNL     1      76.572  82.082  78.289  1.00  0.00     0.000 C 
BRANCH  12  13
ATOM     13  C   UNL     1      75.131  81.533  78.288  1.00  0.00    -0.000 C 
BRANCH  13  14
ATOM     14  C   UNL     1      74.292  81.900  77.048  1.00  0.00    -0.000 C 
BRANCH  14  15
ATOM     15  C   UNL     1      74.923  82.957  76.123  1.00  0.00    -0.000 C 
BRANCH  15  16
ATOM     16  C   UNL     1      74.012  83.340  74.948  1.00  0.00    -0.000 C 
BRANCH  16  17
ATOM     17  C   UNL     1      73.155  82.146  74.504  1.00  0.00    -0.000 C 
BRANCH  17  18
ATOM     18  C   UNL     1      71.669  82.505  74.339  1.00  0.00    -0.000 C 
BRANCH  18  19
ATOM     19  C   UNL     1      70.744  81.788  75.344  1.00  0.00    -0.003 C 
ATOM     20  C   UNL     1      70.742  82.460  76.717  1.00  0.00     0.004 C 
ENDBRANCH  18  19
ENDBRANCH  17  18
ENDBRANCH  16  17
ENDBRANCH  15  16
ENDBRANCH  14  15
ENDBRANCH  13  14
ENDBRANCH  12  13
ENDBRANCH   1  12
TORSDOF 16
ENDMDL
