MODEL 1
REMARK VINA RESULT:    -4.181      0.000      0.000
REMARK INTER + INTRA:         -13.298
REMARK INTER:                  -9.557
REMARK INTRA:                  -3.741
REMARK UNBOUND:                -3.741
REMARK SMILES CCCCCCCCCCCCCCCCCCCCCCCC(=O)[O-]
REMARK SMILES IDX 13 1 14 2 15 3 16 4 17 5 18 6 19 7 20 8 21 9 22 10 23 11
REMARK SMILES IDX 24 12 25 13 26 14 12 15 11 16 10 17 9 18 8 19 7 20 6 21 5 22
REMARK SMILES IDX 4 23 3 24 2 25 1 26
REMARK H PARENT
REMARK Flexibility Score: inf
ROOT
ATOM      1  C   UNL     1      41.337  14.219  22.151  1.00  0.00     0.000 C 
ENDROOT
BRANCH   1   2
ATOM      2  C   UNL     1      41.986  15.595  22.375  1.00  0.00     0.000 C 
BRANCH   2   3
ATOM      3  C   UNL     1      41.894  16.498  21.132  1.00  0.00     0.000 C 
BRANCH   3   4
ATOM      4  C   UNL     1      43.243  16.657  20.411  1.00  0.00     0.000 C 
BRANCH   4   5
ATOM      5  C   UNL     1      44.439  16.298  21.310  1.00  0.00     0.000 C 
BRANCH   5   6
ATOM      6  C   UNL     1      45.368  15.245  20.675  1.00  0.00     0.000 C 
BRANCH   6   7
ATOM      7  C   UNL     1      45.944  14.207  21.657  1.00  0.00     0.000 C 
BRANCH   7   8
ATOM      8  C   UNL     1      46.019  14.671  23.123  1.00  0.00     0.000 C 
BRANCH   8   9
ATOM      9  C   UNL     1      45.322  13.710  24.111  1.00  0.00     0.000 C 
BRANCH   9  10
ATOM     10  C   UNL     1      44.800  14.434  25.361  1.00  0.00     0.006 C 
BRANCH  10  11
ATOM     11  C   UNL     1      44.289  15.835  25.012  1.00  0.00     0.053 C 
BRANCH  11  12
ATOM     12  C   UNL     1      43.667  16.481  26.209  1.00  0.00     0.041 C 
ATOM     13  O   UNL     1      44.251  17.435  26.788  1.00  0.00    -0.550 OA
ATOM     14  O   UNL     1      42.420  16.062  26.655  1.00  0.00    -0.550 OA
ENDBRANCH  11  12
ENDBRANCH  10  11
ENDBRANCH   9  10
ENDBRANCH   8   9
ENDBRANCH   7   8
ENDBRANCH   6   7
ENDBRANCH   5   6
ENDBRANCH   4   5
ENDBRANCH   3   4
ENDBRANCH   2   3
ENDBRANCH   1   2
BRANCH   1  15
ATOM     15  C   UNL     1      41.946  13.128  23.048  1.00  0.00     0.000 C 
BRANCH  15  16
ATOM     16  C   UNL     1      41.378  13.151  24.476  1.00  0.00     0.000 C 
BRANCH  16  17
ATOM     17  C   UNL     1      41.590  11.822  25.218  1.00  0.00     0.000 C 
BRANCH  17  18
ATOM     18  C   UNL     1      42.819  11.076  24.674  1.00  0.00    -0.000 C 
BRANCH  18  19
ATOM     19  C   UNL     1      43.686  10.468  25.788  1.00  0.00    -0.000 C 
BRANCH  19  20
ATOM     20  C   UNL     1      44.970   9.819  25.252  1.00  0.00    -0.000 C 
BRANCH  20  21
ATOM     21  C   UNL     1      44.693   8.403  24.727  1.00  0.00    -0.000 C 
BRANCH  21  22
ATOM     22  C   UNL     1      45.900   7.784  23.996  1.00  0.00    -0.000 C 
BRANCH  22  23
ATOM     23  C   UNL     1      45.818   7.815  22.460  1.00  0.00    -0.000 C 
BRANCH  23  24
ATOM     24  C   UNL     1      44.464   8.321  21.941  1.00  0.00    -0.000 C 
BRANCH  24  25
ATOM     25  C   UNL     1      44.655   9.444  20.915  1.00  0.00    -0.003 C 
ATOM     26  C   UNL     1      45.399  10.628  21.527  1.00  0.00     0.004 C 
ENDBRANCH  24  25
ENDBRANCH  23  24
ENDBRANCH  22  23
ENDBRANCH  21  22
ENDBRANCH  20  21
ENDBRANCH  19  20
ENDBRANCH  18  19
ENDBRANCH  17  18
ENDBRANCH  16  17
ENDBRANCH  15  16
ENDBRANCH   1  15
TORSDOF 22
ENDMDL
MODEL 2
REMARK VINA RESULT:    -4.142      2.653      7.008
REMARK INTER + INTRA:         -13.209
REMARK INTER:                  -9.391
REMARK INTRA:                  -3.818
REMARK UNBOUND:                -3.741
REMARK SMILES CCCCCCCCCCCCCCCCCCCCCCCC(=O)[O-]
REMARK SMILES IDX 13 1 14 2 15 3 16 4 17 5 18 6 19 7 20 8 21 9 22 10 23 11
REMARK SMILES IDX 24 12 25 13 26 14 12 15 11 16 10 17 9 18 8 19 7 20 6 21 5 22
REMARK SMILES IDX 4 23 3 24 2 25 1 26
REMARK H PARENT
REMARK Flexibility Score: inf
ROOT
ATOM      1  C   UNL     1      44.116   9.489  21.286  1.00  0.00     0.000 C 
ENDROOT
BRANCH   1   2
ATOM      2  C   UNL     1      44.221   8.248  22.189  1.00  0.00     0.000 C 
BRANCH   2   3
ATOM      3  C   UNL     1      45.498   8.252  23.048  1.00  0.00     0.000 C 
BRANCH   3   4
ATOM      4  C   UNL     1      45.225   8.616  24.517  1.00  0.00     0.000 C 
BRANCH   4   5
ATOM      5  C   UNL     1      43.733   8.522  24.882  1.00  0.00     0.000 C 
BRANCH   5   6
ATOM      6  C   UNL     1      43.099   9.898  25.157  1.00  0.00     0.000 C 
BRANCH   6   7
ATOM      7  C   UNL     1      43.325  10.448  26.579  1.00  0.00     0.000 C 
BRANCH   7   8
ATOM      8  C   UNL     1      42.039  10.747  27.372  1.00  0.00     0.000 C 
BRANCH   8   9
ATOM      9  C   UNL     1      41.443  12.140  27.081  1.00  0.00     0.000 C 
BRANCH   9  10
ATOM     10  C   UNL     1      39.983  12.066  26.611  1.00  0.00     0.006 C 
BRANCH  10  11
ATOM     11  C   UNL     1      39.654  10.675  26.059  1.00  0.00     0.053 C 
BRANCH  11  12
ATOM     12  C   UNL     1      38.583  10.025  26.876  1.00  0.00     0.041 C 
ATOM     13  O   UNL     1      38.128   8.899  26.542  1.00  0.00    -0.550 OA
ATOM     14  O   UNL     1      38.123  10.639  28.034  1.00  0.00    -0.550 OA
ENDBRANCH  11  12
ENDBRANCH  10  11
ENDBRANCH   9  10
ENDBRANCH   8   9
ENDBRANCH   7   8
ENDBRANCH   6   7
ENDBRANCH   5   6
ENDBRANCH   4   5
ENDBRANCH   3   4
ENDBRANCH   2   3
ENDBRANCH   1   2
BRANCH   1  15
ATOM     15  C   UNL     1      45.472  10.184  21.081  1.00  0.00     0.000 C 
BRANCH  15  16
ATOM     16  C   UNL     1      45.484  11.626  21.613  1.00  0.00     0.000 C 
BRANCH  16  17
ATOM     17  C   UNL     1      44.185  11.998  22.344  1.00  0.00     0.000 C 
BRANCH  17  18
ATOM     18  C   UNL     1      44.477  12.863  23.581  1.00  0.00    -0.000 C 
BRANCH  18  19
ATOM     19  C   UNL     1      43.228  13.589  24.106  1.00  0.00    -0.000 C 
BRANCH  19  20
ATOM     20  C   UNL     1      41.928  13.063  23.480  1.00  0.00    -0.000 C 
BRANCH  20  21
ATOM     21  C   UNL     1      41.210  14.169  22.693  1.00  0.00    -0.000 C 
BRANCH  21  22
ATOM     22  C   UNL     1      41.981  15.502  22.687  1.00  0.00    -0.000 C 
BRANCH  22  23
ATOM     23  C   UNL     1      41.874  16.311  21.382  1.00  0.00    -0.000 C 
BRANCH  23  24
ATOM     24  C   UNL     1      43.195  16.370  20.601  1.00  0.00    -0.000 C 
BRANCH  24  25
ATOM     25  C   UNL     1      44.392  16.128  21.530  1.00  0.00    -0.003 C 
ATOM     26  C   UNL     1      45.466  15.294  20.837  1.00  0.00     0.004 C 
ENDBRANCH  24  25
ENDBRANCH  23  24
ENDBRANCH  22  23
ENDBRANCH  21  22
ENDBRANCH  20  21
ENDBRANCH  19  20
ENDBRANCH  18  19
ENDBRANCH  17  18
ENDBRANCH  16  17
ENDBRANCH  15  16
ENDBRANCH   1  15
TORSDOF 22
ENDMDL
MODEL 3
REMARK VINA RESULT:    -4.116      5.800      8.456
REMARK INTER + INTRA:         -13.151
REMARK INTER:                  -9.845
REMARK INTRA:                  -3.306
REMARK UNBOUND:                -3.741
REMARK SMILES CCCCCCCCCCCCCCCCCCCCCCCC(=O)[O-]
REMARK SMILES IDX 13 1 14 2 15 3 16 4 17 5 18 6 19 7 20 8 21 9 22 10 23 11
REMARK SMILES IDX 24 12 25 13 26 14 12 15 11 16 10 17 9 18 8 19 7 20 6 21 5 22
REMARK SMILES IDX 4 23 3 24 2 25 1 26
REMARK H PARENT
REMARK Flexibility Score: inf
ROOT
ATOM      1  C   UNL     1      35.278  15.742  27.823  1.00  0.00     0.000 C 
ENDROOT
BRANCH   1   2
ATOM      2  C   UNL     1      35.845  16.869  28.702  1.00  0.00     0.000 C 
BRANCH   2   3
ATOM      3  C   UNL     1      37.360  17.060  28.509  1.00  0.00     0.000 C 
BRANCH   3   4
ATOM      4  C   UNL     1      38.184  16.494  29.677  1.00  0.00     0.000 C 
BRANCH   4   5
ATOM      5  C   UNL     1      39.232  15.465  29.217  1.00  0.00     0.000 C 
BRANCH   5   6
ATOM      6  C   UNL     1      39.501  15.525  27.701  1.00  0.00     0.000 C 
BRANCH   6   7
ATOM      7  C   UNL     1      40.622  14.594  27.200  1.00  0.00     0.000 C 
BRANCH   7   8
ATOM      8  C   UNL     1      40.902  14.670  25.688  1.00  0.00     0.000 C 
BRANCH   8   9
ATOM      9  C   UNL     1      40.786  13.309  24.969  1.00  0.00     0.000 C 
BRANCH   9  10
ATOM     10  C   UNL     1      41.298  13.366  23.522  1.00  0.00     0.006 C 
BRANCH  10  11
ATOM     11  C   UNL     1      41.683  14.796  23.131  1.00  0.00     0.053 C 
BRANCH  11  12
ATOM     12  C   UNL     1      43.140  14.876  22.801  1.00  0.00     0.041 C 
ATOM     13  O   UNL     1      43.981  14.242  23.492  1.00  0.00    -0.550 OA
ATOM     14  O   UNL     1      43.564  15.611  21.701  1.00  0.00    -0.550 OA
ENDBRANCH  11  12
ENDBRANCH  10  11
ENDBRANCH   9  10
ENDBRANCH   8   9
ENDBRANCH   7   8
ENDBRANCH   6   7
ENDBRANCH   5   6
ENDBRANCH   4   5
ENDBRANCH   3   4
ENDBRANCH   2   3
ENDBRANCH   1   2
BRANCH   1  15
ATOM     15  C   UNL     1      34.878  14.502  28.640  1.00  0.00     0.000 C 
BRANCH  15  16
ATOM     16  C   UNL     1      36.045  13.521  28.838  1.00  0.00     0.000 C 
BRANCH  16  17
ATOM     17  C   UNL     1      36.618  13.008  27.508  1.00  0.00     0.000 C 
BRANCH  17  18
ATOM     18  C   UNL     1      37.908  12.205  27.737  1.00  0.00    -0.000 C 
BRANCH  18  19
ATOM     19  C   UNL     1      38.119  11.107  26.682  1.00  0.00    -0.000 C 
BRANCH  19  20
ATOM     20  C   UNL     1      36.798  10.548  26.134  1.00  0.00    -0.000 C 
BRANCH  20  21
ATOM     21  C   UNL     1      36.701   9.034  26.372  1.00  0.00    -0.000 C 
BRANCH  21  22
ATOM     22  C   UNL     1      35.249   8.521  26.408  1.00  0.00    -0.000 C 
BRANCH  22  23
ATOM     23  C   UNL     1      34.472   8.855  27.694  1.00  0.00    -0.000 C 
BRANCH  23  24
ATOM     24  C   UNL     1      35.355   8.840  28.950  1.00  0.00    -0.000 C 
BRANCH  24  25
ATOM     25  C   UNL     1      35.144  10.109  29.785  1.00  0.00    -0.003 C 
ATOM     26  C   UNL     1      33.737  10.668  29.590  1.00  0.00     0.004 C 
ENDBRANCH  24  25
ENDBRANCH  23  24
ENDBRANCH  22  23
ENDBRANCH  21  22
ENDBRANCH  20  21
ENDBRANCH  19  20
ENDBRANCH  18  19
ENDBRANCH  17  18
ENDBRANCH  16  17
ENDBRANCH  15  16
ENDBRANCH   1  15
TORSDOF 22
ENDMDL
MODEL 4
REMARK VINA RESULT:    -4.090      2.833      5.414
REMARK INTER + INTRA:         -13.091
REMARK INTER:                  -9.937
REMARK INTRA:                  -3.154
REMARK UNBOUND:                -3.741
REMARK SMILES CCCCCCCCCCCCCCCCCCCCCCCC(=O)[O-]
REMARK SMILES IDX 13 1 14 2 15 3 16 4 17 5 18 6 19 7 20 8 21 9 22 10 23 11
REMARK SMILES IDX 24 12 25 13 26 14 12 15 11 16 10 17 9 18 8 19 7 20 6 21 5 22
REMARK SMILES IDX 4 23 3 24 2 25 1 26
REMARK H PARENT
REMARK Flexibility Score: inf
ROOT
ATOM      1  C   UNL     1      42.738  16.749  20.749  1.00  0.00     0.000 C 
ENDROOT
BRANCH   1   2
ATOM      2  C   UNL     1      41.627  16.036  21.537  1.00  0.00     0.000 C 
BRANCH   2   3
ATOM      3  C   UNL     1      42.183  15.003  22.534  1.00  0.00     0.000 C 
BRANCH   3   4
ATOM      4  C   UNL     1      42.018  15.443  23.999  1.00  0.00     0.000 C 
BRANCH   4   5
ATOM      5  C   UNL     1      41.227  14.423  24.836  1.00  0.00     0.000 C 
BRANCH   5   6
ATOM      6  C   UNL     1      41.183  13.025  24.189  1.00  0.00     0.000 C 
BRANCH   6   7
ATOM      7  C   UNL     1      41.815  11.897  25.027  1.00  0.00     0.000 C 
BRANCH   7   8
ATOM      8  C   UNL     1      40.819  11.075  25.865  1.00  0.00     0.000 C 
BRANCH   8   9
ATOM      9  C   UNL     1      40.795  11.468  27.358  1.00  0.00     0.000 C 
BRANCH   9  10
ATOM     10  C   UNL     1      39.373  11.743  27.868  1.00  0.00     0.006 C 
BRANCH  10  11
ATOM     11  C   UNL     1      38.469  12.240  26.735  1.00  0.00     0.053 C 
BRANCH  11  12
ATOM     12  C   UNL     1      37.195  11.457  26.699  1.00  0.00     0.041 C 
ATOM     13  O   UNL     1      36.742  11.036  25.601  1.00  0.00    -0.550 OA
ATOM     14  O   UNL     1      36.533  11.150  27.881  1.00  0.00    -0.550 OA
ENDBRANCH  11  12
ENDBRANCH  10  11
ENDBRANCH   9  10
ENDBRANCH   8   9
ENDBRANCH   7   8
ENDBRANCH   6   7
ENDBRANCH   5   6
ENDBRANCH   4   5
ENDBRANCH   3   4
ENDBRANCH   2   3
ENDBRANCH   1   2
BRANCH   1  15
ATOM     15  C   UNL     1      44.124  16.126  20.989  1.00  0.00     0.000 C 
BRANCH  15  16
ATOM     16  C   UNL     1      45.130  17.129  21.576  1.00  0.00     0.000 C 
BRANCH  16  17
ATOM     17  C   UNL     1      45.670  16.691  22.946  1.00  0.00     0.000 C 
BRANCH  17  18
ATOM     18  C   UNL     1      46.065  15.206  22.935  1.00  0.00    -0.000 C 
BRANCH  18  19
ATOM     19  C   UNL     1      45.634  14.467  24.212  1.00  0.00    -0.000 C 
BRANCH  19  20
ATOM     20  C   UNL     1      45.073  13.066  23.926  1.00  0.00    -0.000 C 
BRANCH  20  21
ATOM     21  C   UNL     1      44.978  12.810  22.415  1.00  0.00    -0.000 C 
BRANCH  21  22
ATOM     22  C   UNL     1      44.501  11.386  22.074  1.00  0.00    -0.000 C 
BRANCH  22  23
ATOM     23  C   UNL     1      45.432  10.593  21.140  1.00  0.00    -0.000 C 
BRANCH  23  24
ATOM     24  C   UNL     1      44.866   9.219  20.753  1.00  0.00    -0.000 C 
BRANCH  24  25
ATOM     25  C   UNL     1      44.553   8.382  22.000  1.00  0.00    -0.003 C 
ATOM     26  C   UNL     1      45.828   8.037  22.765  1.00  0.00     0.004 C 
ENDBRANCH  24  25
ENDBRANCH  23  24
ENDBRANCH  22  23
ENDBRANCH  21  22
ENDBRANCH  20  21
ENDBRANCH  19  20
ENDBRANCH  18  19
ENDBRANCH  17  18
ENDBRANCH  16  17
ENDBRANCH  15  16
ENDBRANCH   1  15
TORSDOF 22
ENDMDL
MODEL 5
REMARK VINA RESULT:    -4.076      1.162      3.555
REMARK INTER + INTRA:         -13.058
REMARK INTER:                  -9.050
REMARK INTRA:                  -4.008
REMARK UNBOUND:                -3.741
REMARK SMILES CCCCCCCCCCCCCCCCCCCCCCCC(=O)[O-]
REMARK SMILES IDX 13 1 14 2 15 3 16 4 17 5 18 6 19 7 20 8 21 9 22 10 23 11
REMARK SMILES IDX 24 12 25 13 26 14 12 15 11 16 10 17 9 18 8 19 7 20 6 21 5 22
REMARK SMILES IDX 4 23 3 24 2 25 1 26
REMARK H PARENT
REMARK Flexibility Score: inf
ROOT
ATOM      1  C   UNL     1      42.723  12.163  22.846  1.00  0.00     0.000 C 
ENDROOT
BRANCH   1   2
ATOM      2  C   UNL     1      42.125  12.889  24.062  1.00  0.00     0.000 C 
BRANCH   2   3
ATOM      3  C   UNL     1      41.555  14.273  23.700  1.00  0.00     0.000 C 
BRANCH   3   4
ATOM      4  C   UNL     1      41.669  14.588  22.200  1.00  0.00     0.000 C 
BRANCH   4   5
ATOM      5  C   UNL     1      41.777  16.097  21.920  1.00  0.00     0.000 C 
BRANCH   5   6
ATOM      6  C   UNL     1      42.670  16.415  20.704  1.00  0.00     0.000 C 
BRANCH   6   7
ATOM      7  C   UNL     1      44.133  16.762  21.041  1.00  0.00     0.000 C 
BRANCH   7   8
ATOM      8  C   UNL     1      45.135  15.609  20.846  1.00  0.00     0.000 C 
BRANCH   8   9
ATOM      9  C   UNL     1      45.873  15.207  22.141  1.00  0.00     0.000 C 
BRANCH   9  10
ATOM     10  C   UNL     1      45.339  15.950  23.374  1.00  0.00     0.006 C 
BRANCH  10  11
ATOM     11  C   UNL     1      45.160  14.995  24.558  1.00  0.00     0.053 C 
BRANCH  11  12
ATOM     12  C   UNL     1      44.635  15.729  25.751  1.00  0.00     0.041 C 
ATOM     13  O   UNL     1      44.071  16.847  25.608  1.00  0.00    -0.550 OA
ATOM     14  O   UNL     1      44.725  15.158  27.014  1.00  0.00    -0.550 OA
ENDBRANCH  11  12
ENDBRANCH  10  11
ENDBRANCH   9  10
ENDBRANCH   8   9
ENDBRANCH   7   8
ENDBRANCH   6   7
ENDBRANCH   5   6
ENDBRANCH   4   5
ENDBRANCH   3   4
ENDBRANCH   2   3
ENDBRANCH   1   2
BRANCH   1  15
ATOM     15  C   UNL     1      44.202  11.793  23.050  1.00  0.00     0.000 C 
BRANCH  15  16
ATOM     16  C   UNL     1      45.000  11.800  21.736  1.00  0.00     0.000 C 
BRANCH  16  17
ATOM     17  C   UNL     1      45.684  10.454  21.452  1.00  0.00     0.000 C 
BRANCH  17  18
ATOM     18  C   UNL     1      44.679   9.432  20.896  1.00  0.00    -0.000 C 
BRANCH  18  19
ATOM     19  C   UNL     1      44.463   8.238  21.840  1.00  0.00    -0.000 C 
BRANCH  19  20
ATOM     20  C   UNL     1      45.715   7.894  22.659  1.00  0.00    -0.000 C 
BRANCH  20  21
ATOM     21  C   UNL     1      45.508   8.223  24.145  1.00  0.00    -0.000 C 
BRANCH  21  22
ATOM     22  C   UNL     1      44.052   8.592  24.483  1.00  0.00    -0.000 C 
BRANCH  22  23
ATOM     23  C   UNL     1      43.793   8.936  25.961  1.00  0.00    -0.000 C 
BRANCH  23  24
ATOM     24  C   UNL     1      42.628   9.918  26.154  1.00  0.00    -0.000 C 
BRANCH  24  25
ATOM     25  C   UNL     1      43.050  11.103  27.031  1.00  0.00    -0.003 C 
ATOM     26  C   UNL     1      44.469  11.555  26.700  1.00  0.00     0.004 C 
ENDBRANCH  24  25
ENDBRANCH  23  24
ENDBRANCH  22  23
ENDBRANCH  21  22
ENDBRANCH  20  21
ENDBRANCH  19  20
ENDBRANCH  18  19
ENDBRANCH  17  18
ENDBRANCH  16  17
ENDBRANCH  15  16
ENDBRANCH   1  15
TORSDOF 22
ENDMDL
MODEL 6
REMARK VINA RESULT:    -4.039      1.885      6.777
REMARK INTER + INTRA:         -12.975
REMARK INTER:                  -9.345
REMARK INTRA:                  -3.629
REMARK UNBOUND:                -3.741
REMARK SMILES CCCCCCCCCCCCCCCCCCCCCCCC(=O)[O-]
REMARK SMILES IDX 13 1 14 2 15 3 16 4 17 5 18 6 19 7 20 8 21 9 22 10 23 11
REMARK SMILES IDX 24 12 25 13 26 14 12 15 11 16 10 17 9 18 8 19 7 20 6 21 5 22
REMARK SMILES IDX 4 23 3 24 2 25 1 26
REMARK H PARENT
REMARK Flexibility Score: inf
ROOT
ATOM      1  C   UNL     1      45.731  11.877  22.421  1.00  0.00     0.000 C 
ENDROOT
BRANCH   1   2
ATOM      2  C   UNL     1      45.617  10.674  21.469  1.00  0.00     0.000 C 
BRANCH   2   3
ATOM      3  C   UNL     1      44.215  10.040  21.489  1.00  0.00     0.000 C 
BRANCH   3   4
ATOM      4  C   UNL     1      44.233   8.572  21.947  1.00  0.00     0.000 C 
BRANCH   4   5
ATOM      5  C   UNL     1      45.563   8.176  22.610  1.00  0.00     0.000 C 
BRANCH   5   6
ATOM      6  C   UNL     1      45.478   8.148  24.148  1.00  0.00     0.000 C 
BRANCH   6   7
ATOM      7  C   UNL     1      44.108   8.544  24.733  1.00  0.00     0.000 C 
BRANCH   7   8
ATOM      8  C   UNL     1      44.160   9.606  25.847  1.00  0.00     0.000 C 
BRANCH   8   9
ATOM      9  C   UNL     1      44.074  11.055  25.322  1.00  0.00     0.000 C 
BRANCH   9  10
ATOM     10  C   UNL     1      42.701  11.376  24.713  1.00  0.00     0.006 C 
BRANCH  10  11
ATOM     11  C   UNL     1      41.580  11.143  25.731  1.00  0.00     0.053 C 
BRANCH  11  12
ATOM     12  C   UNL     1      40.477  12.134  25.533  1.00  0.00     0.041 C 
ATOM     13  O   UNL     1      40.313  12.683  24.411  1.00  0.00    -0.550 OA
ATOM     14  O   UNL     1      39.600  12.415  26.573  1.00  0.00    -0.550 OA
ENDBRANCH  11  12
ENDBRANCH  10  11
ENDBRANCH   9  10
ENDBRANCH   8   9
ENDBRANCH   7   8
ENDBRANCH   6   7
ENDBRANCH   5   6
ENDBRANCH   4   5
ENDBRANCH   3   4
ENDBRANCH   2   3
ENDBRANCH   1   2
BRANCH   1  15
ATOM     15  C   UNL     1      44.867  13.067  21.972  1.00  0.00     0.000 C 
BRANCH  15  16
ATOM     16  C   UNL     1      45.644  14.394  21.966  1.00  0.00     0.000 C 
BRANCH  16  17
ATOM     17  C   UNL     1      45.912  14.916  20.546  1.00  0.00     0.000 C 
BRANCH  17  18
ATOM     18  C   UNL     1      44.816  15.900  20.104  1.00  0.00    -0.000 C 
BRANCH  18  19
ATOM     19  C   UNL     1      43.978  16.423  21.282  1.00  0.00    -0.000 C 
BRANCH  19  20
ATOM     20  C   UNL     1      42.520  16.708  20.892  1.00  0.00    -0.000 C 
BRANCH  20  21
ATOM     21  C   UNL     1      41.548  15.933  21.794  1.00  0.00    -0.000 C 
BRANCH  21  22
ATOM     22  C   UNL     1      42.232  15.322  23.032  1.00  0.00    -0.000 C 
BRANCH  22  23
ATOM     23  C   UNL     1      41.588  15.691  24.380  1.00  0.00    -0.000 C 
BRANCH  23  24
ATOM     24  C   UNL     1      42.601  15.750  25.533  1.00  0.00    -0.000 C 
BRANCH  24  25
ATOM     25  C   UNL     1      43.998  15.335  25.057  1.00  0.00    -0.003 C 
ATOM     26  C   UNL     1      44.755  14.592  26.155  1.00  0.00     0.004 C 
ENDBRANCH  24  25
ENDBRANCH  23  24
ENDBRANCH  22  23
ENDBRANCH  21  22
ENDBRANCH  20  21
ENDBRANCH  19  20
ENDBRANCH  18  19
ENDBRANCH  17  18
ENDBRANCH  16  17
ENDBRANCH  15  16
ENDBRANCH   1  15
TORSDOF 22
ENDMDL
MODEL 7
REMARK VINA RESULT:    -3.999      2.546      7.124
REMARK INTER + INTRA:         -12.884
REMARK INTER:                  -9.228
REMARK INTRA:                  -3.656
REMARK UNBOUND:                -3.741
REMARK SMILES CCCCCCCCCCCCCCCCCCCCCCCC(=O)[O-]
REMARK SMILES IDX 13 1 14 2 15 3 16 4 17 5 18 6 19 7 20 8 21 9 22 10 23 11
REMARK SMILES IDX 24 12 25 13 26 14 12 15 11 16 10 17 9 18 8 19 7 20 6 21 5 22
REMARK SMILES IDX 4 23 3 24 2 25 1 26
REMARK H PARENT
REMARK Flexibility Score: inf
ROOT
ATOM      1  C   UNL     1      43.745  11.081  22.062  1.00  0.00     0.000 C 
ENDROOT
BRANCH   1   2
ATOM      2  C   UNL     1      44.933  10.345  21.420  1.00  0.00     0.000 C 
BRANCH   2   3
ATOM      3  C   UNL     1      45.685   9.453  22.423  1.00  0.00     0.000 C 
BRANCH   3   4
ATOM      4  C   UNL     1      44.765   8.437  23.122  1.00  0.00     0.000 C 
BRANCH   4   5
ATOM      5  C   UNL     1      44.865   8.507  24.655  1.00  0.00     0.000 C 
BRANCH   5   6
ATOM      6  C   UNL     1      45.277   9.902  25.164  1.00  0.00     0.000 C 
BRANCH   6   7
ATOM      7  C   UNL     1      44.203  10.640  25.986  1.00  0.00     0.000 C 
BRANCH   7   8
ATOM      8  C   UNL     1      42.751  10.361  25.557  1.00  0.00     0.000 C 
BRANCH   8   9
ATOM      9  C   UNL     1      41.701  10.836  26.585  1.00  0.00     0.000 C 
BRANCH   9  10
ATOM     10  C   UNL     1      40.293  10.316  26.265  1.00  0.00     0.006 C 
BRANCH  10  11
ATOM     11  C   UNL     1      39.298  11.473  26.126  1.00  0.00     0.053 C 
BRANCH  11  12
ATOM     12  C   UNL     1      37.894  10.979  26.271  1.00  0.00     0.041 C 
ATOM     13  O   UNL     1      36.926  11.772  26.129  1.00  0.00    -0.550 OA
ATOM     14  O   UNL     1      37.652   9.632  26.513  1.00  0.00    -0.550 OA
ENDBRANCH  11  12
ENDBRANCH  10  11
ENDBRANCH   9  10
ENDBRANCH   8   9
ENDBRANCH   7   8
ENDBRANCH   6   7
ENDBRANCH   5   6
ENDBRANCH   4   5
ENDBRANCH   3   4
ENDBRANCH   2   3
ENDBRANCH   1   2
BRANCH   1  15
ATOM     15  C   UNL     1      44.131  12.473  22.591  1.00  0.00     0.000 C 
BRANCH  15  16
ATOM     16  C   UNL     1      45.306  13.094  21.820  1.00  0.00     0.000 C 
BRANCH  16  17
ATOM     17  C   UNL     1      45.365  14.623  21.963  1.00  0.00     0.000 C 
BRANCH  17  18
ATOM     18  C   UNL     1      45.628  15.295  20.606  1.00  0.00    -0.000 C 
BRANCH  18  19
ATOM     19  C   UNL     1      44.386  16.005  20.044  1.00  0.00    -0.000 C 
BRANCH  19  20
ATOM     20  C   UNL     1      43.581  16.739  21.126  1.00  0.00    -0.000 C 
BRANCH  20  21
ATOM     21  C   UNL     1      42.081  16.433  20.999  1.00  0.00    -0.000 C 
BRANCH  21  22
ATOM     22  C   UNL     1      41.620  15.285  21.915  1.00  0.00    -0.000 C 
BRANCH  22  23
ATOM     23  C   UNL     1      41.852  15.518  23.419  1.00  0.00    -0.000 C 
BRANCH  23  24
ATOM     24  C   UNL     1      41.392  14.338  24.287  1.00  0.00    -0.000 C 
BRANCH  24  25
ATOM     25  C   UNL     1      42.368  14.095  25.444  1.00  0.00    -0.003 C 
ATOM     26  C   UNL     1      43.617  14.961  25.301  1.00  0.00     0.004 C 
ENDBRANCH  24  25
ENDBRANCH  23  24
ENDBRANCH  22  23
ENDBRANCH  21  22
ENDBRANCH  20  21
ENDBRANCH  19  20
ENDBRANCH  18  19
ENDBRANCH  17  18
ENDBRANCH  16  17
ENDBRANCH  15  16
ENDBRANCH   1  15
TORSDOF 22
ENDMDL
MODEL 8
REMARK VINA RESULT:    -3.988      3.044      5.717
REMARK INTER + INTRA:         -12.858
REMARK INTER:                  -8.668
REMARK INTRA:                  -4.190
REMARK UNBOUND:                -3.741
REMARK SMILES CCCCCCCCCCCCCCCCCCCCCCCC(=O)[O-]
REMARK SMILES IDX 13 1 14 2 15 3 16 4 17 5 18 6 19 7 20 8 21 9 22 10 23 11
REMARK SMILES IDX 24 12 25 13 26 14 12 15 11 16 10 17 9 18 8 19 7 20 6 21 5 22
REMARK SMILES IDX 4 23 3 24 2 25 1 26
REMARK H PARENT
REMARK Flexibility Score: inf
ROOT
ATOM      1  C   UNL     1      41.459  13.767  22.724  1.00  0.00     0.000 C 
ENDROOT
BRANCH   1   2
ATOM      2  C   UNL     1      41.997  15.205  22.799  1.00  0.00     0.000 C 
BRANCH   2   3
ATOM      3  C   UNL     1      41.668  16.022  21.536  1.00  0.00     0.000 C 
BRANCH   3   4
ATOM      4  C   UNL     1      42.925  16.439  20.754  1.00  0.00     0.000 C 
BRANCH   4   5
ATOM      5  C   UNL     1      44.219  16.231  21.560  1.00  0.00     0.000 C 
BRANCH   5   6
ATOM      6  C   UNL     1      45.358  15.632  20.714  1.00  0.00     0.000 C 
BRANCH   6   7
ATOM      7  C   UNL     1      45.764  14.193  21.089  1.00  0.00     0.000 C 
BRANCH   7   8
ATOM      8  C   UNL     1      45.852  13.917  22.601  1.00  0.00     0.000 C 
BRANCH   8   9
ATOM      9  C   UNL     1      46.121  12.436  22.944  1.00  0.00     0.000 C 
BRANCH   9  10
ATOM     10  C   UNL     1      45.556  11.479  21.885  1.00  0.00     0.006 C 
BRANCH  10  11
ATOM     11  C   UNL     1      45.710  10.019  22.324  1.00  0.00     0.053 C 
BRANCH  11  12
ATOM     12  C   UNL     1      44.612   9.180  21.752  1.00  0.00     0.041 C 
ATOM     13  O   UNL     1      43.510   9.705  21.442  1.00  0.00    -0.550 OA
ATOM     14  O   UNL     1      44.822   7.828  21.515  1.00  0.00    -0.550 OA
ENDBRANCH  11  12
ENDBRANCH  10  11
ENDBRANCH   9  10
ENDBRANCH   8   9
ENDBRANCH   7   8
ENDBRANCH   6   7
ENDBRANCH   5   6
ENDBRANCH   4   5
ENDBRANCH   3   4
ENDBRANCH   2   3
ENDBRANCH   1   2
BRANCH   1  15
ATOM     15  C   UNL     1      42.460  12.734  23.270  1.00  0.00     0.000 C 
BRANCH  15  16
ATOM     16  C   UNL     1      41.925  11.983  24.500  1.00  0.00     0.000 C 
BRANCH  16  17
ATOM     17  C   UNL     1      43.033  11.253  25.275  1.00  0.00     0.000 C 
BRANCH  17  18
ATOM     18  C   UNL     1      43.505  12.085  26.478  1.00  0.00    -0.000 C 
BRANCH  18  19
ATOM     19  C   UNL     1      44.736  12.948  26.157  1.00  0.00    -0.000 C 
BRANCH  19  20
ATOM     20  C   UNL     1      44.415  14.449  26.126  1.00  0.00    -0.000 C 
BRANCH  20  21
ATOM     21  C   UNL     1      43.185  14.767  26.989  1.00  0.00    -0.000 C 
BRANCH  21  22
ATOM     22  C   UNL     1      42.135  15.619  26.251  1.00  0.00    -0.000 C 
BRANCH  22  23
ATOM     23  C   UNL     1      40.689  15.105  26.356  1.00  0.00    -0.000 C 
BRANCH  23  24
ATOM     24  C   UNL     1      40.520  13.995  27.404  1.00  0.00    -0.000 C 
BRANCH  24  25
ATOM     25  C   UNL     1      39.421  13.010  26.987  1.00  0.00    -0.003 C 
ATOM     26  C   UNL     1      38.200  13.132  27.896  1.00  0.00     0.004 C 
ENDBRANCH  24  25
ENDBRANCH  23  24
ENDBRANCH  22  23
ENDBRANCH  21  22
ENDBRANCH  20  21
ENDBRANCH  19  20
ENDBRANCH  18  19
ENDBRANCH  17  18
ENDBRANCH  16  17
ENDBRANCH  15  16
ENDBRANCH   1  15
TORSDOF 22
ENDMDL
MODEL 9
REMARK VINA RESULT:    -3.983      2.429      6.737
REMARK INTER + INTRA:         -12.847
REMARK INTER:                  -9.026
REMARK INTRA:                  -3.821
REMARK UNBOUND:                -3.741
REMARK SMILES CCCCCCCCCCCCCCCCCCCCCCCC(=O)[O-]
REMARK SMILES IDX 13 1 14 2 15 3 16 4 17 5 18 6 19 7 20 8 21 9 22 10 23 11
REMARK SMILES IDX 24 12 25 13 26 14 12 15 11 16 10 17 9 18 8 19 7 20 6 21 5 22
REMARK SMILES IDX 4 23 3 24 2 25 1 26
REMARK H PARENT
REMARK Flexibility Score: inf
ROOT
ATOM      1  C   UNL     1      44.313  12.048  22.339  1.00  0.00     0.000 C 
ENDROOT
BRANCH   1   2
ATOM      2  C   UNL     1      45.024  10.867  21.657  1.00  0.00     0.000 C 
BRANCH   2   3
ATOM      3  C   UNL     1      44.089   9.664  21.441  1.00  0.00     0.000 C 
BRANCH   3   4
ATOM      4  C   UNL     1      44.444   8.467  22.338  1.00  0.00     0.000 C 
BRANCH   4   5
ATOM      5  C   UNL     1      45.563   8.792  23.343  1.00  0.00     0.000 C 
BRANCH   5   6
ATOM      6  C   UNL     1      45.036   9.004  24.775  1.00  0.00     0.000 C 
BRANCH   6   7
ATOM      7  C   UNL     1      43.501   9.038  24.907  1.00  0.00     0.000 C 
BRANCH   7   8
ATOM      8  C   UNL     1      42.951  10.155  25.813  1.00  0.00     0.000 C 
BRANCH   8   9
ATOM      9  C   UNL     1      42.033  11.153  25.076  1.00  0.00     0.000 C 
BRANCH   9  10
ATOM     10  C   UNL     1      40.775  11.498  25.885  1.00  0.00     0.006 C 
BRANCH  10  11
ATOM     11  C   UNL     1      40.052  10.228  26.347  1.00  0.00     0.053 C 
BRANCH  11  12
ATOM     12  C   UNL     1      38.575  10.454  26.397  1.00  0.00     0.041 C 
ATOM     13  O   UNL     1      38.084  11.532  25.968  1.00  0.00    -0.550 OA
ATOM     14  O   UNL     1      37.735   9.454  26.873  1.00  0.00    -0.550 OA
ENDBRANCH  11  12
ENDBRANCH  10  11
ENDBRANCH   9  10
ENDBRANCH   8   9
ENDBRANCH   7   8
ENDBRANCH   6   7
ENDBRANCH   5   6
ENDBRANCH   4   5
ENDBRANCH   3   4
ENDBRANCH   2   3
ENDBRANCH   1   2
BRANCH   1  15
ATOM     15  C   UNL     1      45.297  13.005  23.034  1.00  0.00     0.000 C 
BRANCH  15  16
ATOM     16  C   UNL     1      45.387  12.764  24.549  1.00  0.00     0.000 C 
BRANCH  16  17
ATOM     17  C   UNL     1      44.405  13.638  25.346  1.00  0.00     0.000 C 
BRANCH  17  18
ATOM     18  C   UNL     1      44.130  14.963  24.619  1.00  0.00    -0.000 C 
BRANCH  18  19
ATOM     19  C   UNL     1      42.725  15.517  24.904  1.00  0.00    -0.000 C 
BRANCH  19  20
ATOM     20  C   UNL     1      41.638  14.845  24.052  1.00  0.00    -0.000 C 
BRANCH  20  21
ATOM     21  C   UNL     1      42.071  14.752  22.581  1.00  0.00    -0.000 C 
BRANCH  21  22
ATOM     22  C   UNL     1      41.618  15.961  21.742  1.00  0.00    -0.000 C 
BRANCH  22  23
ATOM     23  C   UNL     1      42.736  16.661  20.950  1.00  0.00    -0.000 C 
BRANCH  23  24
ATOM     24  C   UNL     1      44.120  16.039  21.187  1.00  0.00    -0.000 C 
BRANCH  24  25
ATOM     25  C   UNL     1      45.208  17.118  21.227  1.00  0.00    -0.003 C 
ATOM     26  C   UNL     1      45.869  17.182  22.602  1.00  0.00     0.004 C 
ENDBRANCH  24  25
ENDBRANCH  23  24
ENDBRANCH  22  23
ENDBRANCH  21  22
ENDBRANCH  20  21
ENDBRANCH  19  20
ENDBRANCH  18  19
ENDBRANCH  17  18
ENDBRANCH  16  17
ENDBRANCH  15  16
ENDBRANCH   1  15
TORSDOF 22
ENDMDL
