MODEL 1
REMARK VINA RESULT:    -2.710      0.000      0.000
REMARK INTER + INTRA:          -6.606
REMARK INTER:                  -5.879
REMARK INTRA:                  -0.726
REMARK UNBOUND:                -0.726
REMARK SMILES CCCCCCCCCCCCCCCCCCCCCC(=O)[O-]
REMARK SMILES IDX 12 1 11 2 10 3 9 4 8 5 7 6 6 7 5 8 4 9 3 10 2 11 1 12 13 13
REMARK SMILES IDX 14 14 15 15 16 16 17 17 18 18 19 19 20 20 21 21 22 22 23 23
REMARK SMILES IDX 24 24
REMARK H PARENT
REMARK Flexibility Score: inf
ROOT
ATOM      1  C   UNL     1      -0.163 -22.370 -15.850  1.00  0.00     0.000 C 
ENDROOT
BRANCH   1   2
ATOM      2  C   UNL     1       1.306 -22.799 -15.661  1.00  0.00     0.000 C 
BRANCH   2   3
ATOM      3  C   UNL     1       2.304 -21.674 -15.980  1.00  0.00     0.000 C 
BRANCH   3   4
ATOM      4  C   UNL     1       3.733 -21.986 -15.497  1.00  0.00    -0.000 C 
BRANCH   4   5
ATOM      5  C   UNL     1       4.649 -22.654 -16.542  1.00  0.00    -0.000 C 
BRANCH   5   6
ATOM      6  C   UNL     1       6.160 -22.475 -16.298  1.00  0.00    -0.000 C 
BRANCH   6   7
ATOM      7  C   UNL     1       6.730 -21.098 -16.696  1.00  0.00    -0.000 C 
BRANCH   7   8
ATOM      8  C   UNL     1       7.312 -20.269 -15.536  1.00  0.00    -0.000 C 
BRANCH   8   9
ATOM      9  C   UNL     1       8.416 -21.016 -14.766  1.00  0.00    -0.000 C 
BRANCH   9  10
ATOM     10  C   UNL     1       9.604 -20.111 -14.393  1.00  0.00    -0.000 C 
BRANCH  10  11
ATOM     11  C   UNL     1      10.990 -20.657 -14.783  1.00  0.00    -0.003 C 
ATOM     12  C   UNL     1      11.096 -21.020 -16.265  1.00  0.00     0.004 C 
ENDBRANCH  10  11
ENDBRANCH   9  10
ENDBRANCH   8   9
ENDBRANCH   7   8
ENDBRANCH   6   7
ENDBRANCH   5   6
ENDBRANCH   4   5
ENDBRANCH   3   4
ENDBRANCH   2   3
ENDBRANCH   1   2
BRANCH   1  13
ATOM     13  C   UNL     1      -1.182 -23.087 -14.945  1.00  0.00     0.000 C 
BRANCH  13  14
ATOM     14  C   UNL     1      -2.562 -22.410 -14.842  1.00  0.00     0.000 C 
BRANCH  14  15
ATOM     15  C   UNL     1      -3.520 -22.759 -15.999  1.00  0.00     0.000 C 
BRANCH  15  16
ATOM     16  C   UNL     1      -4.955 -22.264 -15.754  1.00  0.00     0.000 C 
BRANCH  16  17
ATOM     17  C   UNL     1      -5.537 -21.503 -16.959  1.00  0.00     0.000 C 
BRANCH  17  18
ATOM     18  C   UNL     1      -7.075 -21.387 -16.931  1.00  0.00     0.000 C 
BRANCH  18  19
ATOM     19  C   UNL     1      -7.660 -21.806 -15.571  1.00  0.00     0.000 C 
BRANCH  19  20
ATOM     20  C   UNL     1      -8.527 -20.712 -14.922  1.00  0.00     0.006 C 
BRANCH  20  21
ATOM     21  C   UNL     1      -9.121 -21.120 -13.561  1.00  0.00     0.053 C 
BRANCH  21  22
ATOM     22  C   UNL     1      -8.074 -21.330 -12.511  1.00  0.00     0.041 C 
ATOM     23  O   UNL     1      -7.864 -20.445 -11.639  1.00  0.00    -0.550 OA
ATOM     24  O   UNL     1      -7.318 -22.496 -12.503  1.00  0.00    -0.550 OA
ENDBRANCH  21  22
ENDBRANCH  20  21
ENDBRANCH  19  20
ENDBRANCH  18  19
ENDBRANCH  17  18
ENDBRANCH  16  17
ENDBRANCH  15  16
ENDBRANCH  14  15
ENDBRANCH  13  14
ENDBRANCH   1  13
TORSDOF 20
ENDMDL
MODEL 2
REMARK VINA RESULT:    -2.460      5.948     13.942
REMARK INTER + INTRA:          -6.062
REMARK INTER:                  -5.123
REMARK INTRA:                  -0.939
REMARK UNBOUND:                -0.726
REMARK SMILES CCCCCCCCCCCCCCCCCCCCCC(=O)[O-]
REMARK SMILES IDX 12 1 11 2 10 3 9 4 8 5 7 6 6 7 5 8 4 9 3 10 2 11 1 12 13 13
REMARK SMILES IDX 14 14 15 15 16 16 17 17 18 18 19 19 20 20 21 21 22 22 23 23
REMARK SMILES IDX 24 24
REMARK H PARENT
REMARK Flexibility Score: inf
ROOT
ATOM      1  C   UNL     1      -0.125 -22.049 -16.223  1.00  0.00     0.000 C 
ENDROOT
BRANCH   1   2
ATOM      2  C   UNL     1      -0.722 -22.996 -15.164  1.00  0.00     0.000 C 
BRANCH   2   3
ATOM      3  C   UNL     1      -2.153 -22.610 -14.755  1.00  0.00     0.000 C 
BRANCH   3   4
ATOM      4  C   UNL     1      -3.018 -22.164 -15.948  1.00  0.00    -0.000 C 
BRANCH   4   5
ATOM      5  C   UNL     1      -4.531 -22.418 -15.796  1.00  0.00    -0.000 C 
BRANCH   5   6
ATOM      6  C   UNL     1      -5.407 -21.858 -16.934  1.00  0.00    -0.000 C 
BRANCH   6   7
ATOM      7  C   UNL     1      -6.645 -21.060 -16.476  1.00  0.00    -0.000 C 
BRANCH   7   8
ATOM      8  C   UNL     1      -7.988 -21.801 -16.605  1.00  0.00    -0.000 C 
BRANCH   8   9
ATOM      9  C   UNL     1      -8.797 -21.798 -15.296  1.00  0.00    -0.000 C 
BRANCH   9  10
ATOM     10  C   UNL     1      -8.684 -20.471 -14.524  1.00  0.00    -0.000 C 
BRANCH  10  11
ATOM     11  C   UNL     1      -8.232 -20.605 -13.058  1.00  0.00    -0.003 C 
ATOM     12  C   UNL     1      -7.187 -21.701 -12.849  1.00  0.00     0.004 C 
ENDBRANCH  10  11
ENDBRANCH   9  10
ENDBRANCH   8   9
ENDBRANCH   7   8
ENDBRANCH   6   7
ENDBRANCH   5   6
ENDBRANCH   4   5
ENDBRANCH   3   4
ENDBRANCH   2   3
ENDBRANCH   1   2
BRANCH   1  13
ATOM     13  C   UNL     1       1.319 -21.586 -15.955  1.00  0.00     0.000 C 
BRANCH  13  14
ATOM     14  C   UNL     1       2.378 -22.706 -15.939  1.00  0.00     0.000 C 
BRANCH  14  15
ATOM     15  C   UNL     1       3.832 -22.195 -15.978  1.00  0.00     0.000 C 
BRANCH  15  16
ATOM     16  C   UNL     1       4.753 -23.083 -16.832  1.00  0.00     0.000 C 
BRANCH  16  17
ATOM     17  C   UNL     1       6.121 -22.434 -17.107  1.00  0.00     0.000 C 
BRANCH  17  18
ATOM     18  C   UNL     1       6.754 -22.872 -18.444  1.00  0.00     0.000 C 
BRANCH  18  19
ATOM     19  C   UNL     1       8.282 -22.687 -18.446  1.00  0.00     0.000 C 
BRANCH  19  20
ATOM     20  C   UNL     1       8.811 -22.047 -19.743  1.00  0.00     0.006 C 
BRANCH  20  21
ATOM     21  C   UNL     1       8.190 -22.637 -21.022  1.00  0.00     0.053 C 
BRANCH  21  22
ATOM     22  C   UNL     1       8.538 -21.854 -22.251  1.00  0.00     0.041 C 
ATOM     23  O   UNL     1       8.520 -22.408 -23.382  1.00  0.00    -0.550 OA
ATOM     24  O   UNL     1       8.898 -20.516 -22.146  1.00  0.00    -0.550 OA
ENDBRANCH  21  22
ENDBRANCH  20  21
ENDBRANCH  19  20
ENDBRANCH  18  19
ENDBRANCH  17  18
ENDBRANCH  16  17
ENDBRANCH  15  16
ENDBRANCH  14  15
ENDBRANCH  13  14
ENDBRANCH   1  13
TORSDOF 20
ENDMDL
MODEL 3
REMARK VINA RESULT:    -1.974      6.066     14.148
REMARK INTER + INTRA:          -5.009
REMARK INTER:                  -4.134
REMARK INTRA:                  -0.875
REMARK UNBOUND:                -0.726
REMARK SMILES CCCCCCCCCCCCCCCCCCCCCC(=O)[O-]
REMARK SMILES IDX 12 1 11 2 10 3 9 4 8 5 7 6 6 7 5 8 4 9 3 10 2 11 1 12 13 13
REMARK SMILES IDX 14 14 15 15 16 16 17 17 18 18 19 19 20 20 21 21 22 22 23 23
REMARK SMILES IDX 24 24
REMARK H PARENT
REMARK Flexibility Score: inf
ROOT
ATOM      1  C   UNL     1       3.895 -21.999 -16.364  1.00  0.00     0.000 C 
ENDROOT
BRANCH   1   2
ATOM      2  C   UNL     1       2.852 -22.427 -15.313  1.00  0.00     0.000 C 
BRANCH   2   3
ATOM      3  C   UNL     1       1.584 -23.030 -15.939  1.00  0.00     0.000 C 
BRANCH   3   4
ATOM      4  C   UNL     1       0.395 -22.050 -15.945  1.00  0.00    -0.000 C 
BRANCH   4   5
ATOM      5  C   UNL     1      -0.990 -22.698 -15.752  1.00  0.00    -0.000 C 
BRANCH   5   6
ATOM      6  C   UNL     1      -1.709 -22.329 -14.439  1.00  0.00    -0.000 C 
BRANCH   6   7
ATOM      7  C   UNL     1      -3.195 -22.736 -14.368  1.00  0.00    -0.000 C 
BRANCH   7   8
ATOM      8  C   UNL     1      -3.878 -22.965 -15.728  1.00  0.00    -0.000 C 
BRANCH   8   9
ATOM      9  C   UNL     1      -4.378 -21.659 -16.371  1.00  0.00    -0.000 C 
BRANCH   9  10
ATOM     10  C   UNL     1      -5.796 -21.783 -16.957  1.00  0.00    -0.000 C 
BRANCH  10  11
ATOM     11  C   UNL     1      -6.929 -21.293 -16.038  1.00  0.00    -0.003 C 
ATOM     12  C   UNL     1      -8.297 -21.865 -16.413  1.00  0.00     0.004 C 
ENDBRANCH  10  11
ENDBRANCH   9  10
ENDBRANCH   8   9
ENDBRANCH   7   8
ENDBRANCH   6   7
ENDBRANCH   5   6
ENDBRANCH   4   5
ENDBRANCH   3   4
ENDBRANCH   2   3
ENDBRANCH   1   2
BRANCH   1  13
ATOM     13  C   UNL     1       4.919 -23.080 -16.757  1.00  0.00     0.000 C 
BRANCH  13  14
ATOM     14  C   UNL     1       6.358 -22.836 -16.262  1.00  0.00     0.000 C 
BRANCH  14  15
ATOM     15  C   UNL     1       7.118 -21.752 -17.053  1.00  0.00     0.000 C 
BRANCH  15  16
ATOM     16  C   UNL     1       8.542 -21.516 -16.523  1.00  0.00     0.000 C 
BRANCH  16  17
ATOM     17  C   UNL     1       9.579 -22.458 -17.161  1.00  0.00     0.000 C 
BRANCH  17  18
ATOM     18  C   UNL     1      10.815 -21.725 -17.723  1.00  0.00     0.000 C 
BRANCH  18  19
ATOM     19  C   UNL     1      10.952 -21.908 -19.244  1.00  0.00     0.000 C 
BRANCH  19  20
ATOM     20  C   UNL     1       9.656 -21.584 -20.012  1.00  0.00     0.006 C 
BRANCH  20  21
ATOM     21  C   UNL     1       9.857 -20.587 -21.169  1.00  0.00     0.053 C 
BRANCH  21  22
ATOM     22  C   UNL     1       9.399 -21.131 -22.488  1.00  0.00     0.041 C 
ATOM     23  O   UNL     1      10.242 -21.473 -23.360  1.00  0.00    -0.550 OA
ATOM     24  O   UNL     1       8.041 -21.246 -22.761  1.00  0.00    -0.550 OA
ENDBRANCH  21  22
ENDBRANCH  20  21
ENDBRANCH  19  20
ENDBRANCH  18  19
ENDBRANCH  17  18
ENDBRANCH  16  17
ENDBRANCH  15  16
ENDBRANCH  14  15
ENDBRANCH  13  14
ENDBRANCH   1  13
TORSDOF 20
ENDMDL
MODEL 4
REMARK VINA RESULT:    -1.822      1.080      2.163
REMARK INTER + INTRA:          -4.678
REMARK INTER:                  -3.689
REMARK INTRA:                  -0.989
REMARK UNBOUND:                -0.726
REMARK SMILES CCCCCCCCCCCCCCCCCCCCCC(=O)[O-]
REMARK SMILES IDX 12 1 11 2 10 3 9 4 8 5 7 6 6 7 5 8 4 9 3 10 2 11 1 12 13 13
REMARK SMILES IDX 14 14 15 15 16 16 17 17 18 18 19 19 20 20 21 21 22 22 23 23
REMARK SMILES IDX 24 24
REMARK H PARENT
REMARK Flexibility Score: inf
ROOT
ATOM      1  C   UNL     1      -2.425 -23.125 -15.354  1.00  0.00     0.000 C 
ENDROOT
BRANCH   1   2
ATOM      2  C   UNL     1      -0.957 -23.118 -14.885  1.00  0.00     0.000 C 
BRANCH   2   3
ATOM      3  C   UNL     1       0.014 -22.610 -15.963  1.00  0.00     0.000 C 
BRANCH   3   4
ATOM      4  C   UNL     1       1.491 -22.865 -15.608  1.00  0.00    -0.000 C 
BRANCH   4   5
ATOM      5  C   UNL     1       2.464 -21.733 -15.991  1.00  0.00    -0.000 C 
BRANCH   5   6
ATOM      6  C   UNL     1       3.882 -21.859 -15.400  1.00  0.00    -0.000 C 
BRANCH   6   7
ATOM      7  C   UNL     1       5.032 -21.701 -16.415  1.00  0.00    -0.000 C 
BRANCH   7   8
ATOM      8  C   UNL     1       6.307 -21.037 -15.863  1.00  0.00    -0.000 C 
BRANCH   8   9
ATOM      9  C   UNL     1       7.495 -22.012 -15.775  1.00  0.00    -0.000 C 
BRANCH   9  10
ATOM     10  C   UNL     1       8.859 -21.306 -15.882  1.00  0.00    -0.000 C 
BRANCH  10  11
ATOM     11  C   UNL     1       9.266 -20.479 -14.648  1.00  0.00    -0.003 C 
ATOM     12  C   UNL     1      10.779 -20.311 -14.511  1.00  0.00     0.004 C 
ENDBRANCH  10  11
ENDBRANCH   9  10
ENDBRANCH   8   9
ENDBRANCH   7   8
ENDBRANCH   6   7
ENDBRANCH   5   6
ENDBRANCH   4   5
ENDBRANCH   3   4
ENDBRANCH   2   3
ENDBRANCH   1   2
BRANCH   1  13
ATOM     13  C   UNL     1      -3.161 -21.777 -15.241  1.00  0.00     0.000 C 
BRANCH  13  14
ATOM     14  C   UNL     1      -4.129 -21.456 -16.397  1.00  0.00     0.000 C 
BRANCH  14  15
ATOM     15  C   UNL     1      -5.443 -22.263 -16.356  1.00  0.00     0.000 C 
BRANCH  15  16
ATOM     16  C   UNL     1      -6.497 -21.734 -17.344  1.00  0.00     0.000 C 
BRANCH  16  17
ATOM     17  C   UNL     1      -7.871 -21.513 -16.687  1.00  0.00     0.000 C 
BRANCH  17  18
ATOM     18  C   UNL     1      -7.790 -20.859 -15.292  1.00  0.00     0.000 C 
BRANCH  18  19
ATOM     19  C   UNL     1      -9.096 -21.034 -14.497  1.00  0.00     0.000 C 
BRANCH  19  20
ATOM     20  C   UNL     1      -8.924 -21.897 -13.234  1.00  0.00     0.006 C 
BRANCH  20  21
ATOM     21  C   UNL     1      -7.862 -23.003 -13.381  1.00  0.00     0.053 C 
BRANCH  21  22
ATOM     22  C   UNL     1      -6.737 -22.860 -12.401  1.00  0.00     0.041 C 
ATOM     23  O   UNL     1      -6.978 -22.768 -11.168  1.00  0.00    -0.550 OA
ATOM     24  O   UNL     1      -5.423 -22.812 -12.851  1.00  0.00    -0.550 OA
ENDBRANCH  21  22
ENDBRANCH  20  21
ENDBRANCH  19  20
ENDBRANCH  18  19
ENDBRANCH  17  18
ENDBRANCH  16  17
ENDBRANCH  15  16
ENDBRANCH  14  15
ENDBRANCH  13  14
ENDBRANCH   1  13
TORSDOF 20
ENDMDL
MODEL 5
REMARK VINA RESULT:    -1.626      5.973     13.960
REMARK INTER + INTRA:          -4.254
REMARK INTER:                  -3.511
REMARK INTRA:                  -0.743
REMARK UNBOUND:                -0.726
REMARK SMILES CCCCCCCCCCCCCCCCCCCCCC(=O)[O-]
REMARK SMILES IDX 12 1 11 2 10 3 9 4 8 5 7 6 6 7 5 8 4 9 3 10 2 11 1 12 13 13
REMARK SMILES IDX 14 14 15 15 16 16 17 17 18 18 19 19 20 20 21 21 22 22 23 23
REMARK SMILES IDX 24 24
REMARK H PARENT
REMARK Flexibility Score: inf
ROOT
ATOM      1  C   UNL     1       5.902 -22.173 -17.163  1.00  0.00     0.000 C 
ENDROOT
BRANCH   1   2
ATOM      2  C   UNL     1       4.764 -22.246 -16.126  1.00  0.00     0.000 C 
BRANCH   2   3
ATOM      3  C   UNL     1       3.589 -23.125 -16.587  1.00  0.00     0.000 C 
BRANCH   3   4
ATOM      4  C   UNL     1       2.365 -23.025 -15.657  1.00  0.00    -0.000 C 
BRANCH   4   5
ATOM      5  C   UNL     1       1.510 -21.755 -15.830  1.00  0.00    -0.000 C 
BRANCH   5   6
ATOM      6  C   UNL     1       0.039 -22.003 -16.217  1.00  0.00    -0.000 C 
BRANCH   6   7
ATOM      7  C   UNL     1      -0.715 -23.005 -15.319  1.00  0.00    -0.000 C 
BRANCH   7   8
ATOM      8  C   UNL     1      -1.756 -22.383 -14.371  1.00  0.00    -0.000 C 
BRANCH   8   9
ATOM      9  C   UNL     1      -3.161 -22.982 -14.553  1.00  0.00    -0.000 C 
BRANCH   9  10
ATOM     10  C   UNL     1      -3.829 -22.555 -15.872  1.00  0.00    -0.000 C 
BRANCH  10  11
ATOM     11  C   UNL     1      -5.333 -22.238 -15.771  1.00  0.00    -0.003 C 
ATOM     12  C   UNL     1      -5.885 -21.544 -17.016  1.00  0.00     0.004 C 
ENDBRANCH  10  11
ENDBRANCH   9  10
ENDBRANCH   8   9
ENDBRANCH   7   8
ENDBRANCH   6   7
ENDBRANCH   5   6
ENDBRANCH   4   5
ENDBRANCH   3   4
ENDBRANCH   2   3
ENDBRANCH   1   2
BRANCH   1  13
ATOM     13  C   UNL     1       7.072 -21.243 -16.794  1.00  0.00     0.000 C 
BRANCH  13  14
ATOM     14  C   UNL     1       7.748 -21.539 -15.442  1.00  0.00     0.000 C 
BRANCH  14  15
ATOM     15  C   UNL     1       8.684 -20.417 -14.949  1.00  0.00     0.000 C 
BRANCH  15  16
ATOM     16  C   UNL     1      10.166 -20.828 -14.963  1.00  0.00     0.000 C 
BRANCH  16  17
ATOM     17  C   UNL     1      10.769 -20.838 -16.380  1.00  0.00     0.000 C 
BRANCH  17  18
ATOM     18  C   UNL     1      10.446 -22.117 -17.179  1.00  0.00     0.000 C 
BRANCH  18  19
ATOM     19  C   UNL     1      11.089 -22.102 -18.576  1.00  0.00     0.000 C 
BRANCH  19  20
ATOM     20  C   UNL     1      10.164 -21.521 -19.662  1.00  0.00     0.006 C 
BRANCH  20  21
ATOM     21  C   UNL     1      10.607 -21.863 -21.097  1.00  0.00     0.053 C 
BRANCH  21  22
ATOM     22  C   UNL     1       9.717 -21.254 -22.138  1.00  0.00     0.041 C 
ATOM     23  O   UNL     1       9.486 -21.869 -23.213  1.00  0.00    -0.550 OA
ATOM     24  O   UNL     1       9.156 -20.000 -21.929  1.00  0.00    -0.550 OA
ENDBRANCH  21  22
ENDBRANCH  20  21
ENDBRANCH  19  20
ENDBRANCH  18  19
ENDBRANCH  17  18
ENDBRANCH  16  17
ENDBRANCH  15  16
ENDBRANCH  14  15
ENDBRANCH  13  14
ENDBRANCH   1  13
TORSDOF 20
ENDMDL
MODEL 6
REMARK VINA RESULT:    -1.573      2.697      6.381
REMARK INTER + INTRA:          -4.138
REMARK INTER:                  -3.152
REMARK INTRA:                  -0.986
REMARK UNBOUND:                -0.726
REMARK SMILES CCCCCCCCCCCCCCCCCCCCCC(=O)[O-]
REMARK SMILES IDX 12 1 11 2 10 3 9 4 8 5 7 6 6 7 5 8 4 9 3 10 2 11 1 12 13 13
REMARK SMILES IDX 14 14 15 15 16 16 17 17 18 18 19 19 20 20 21 21 22 22 23 23
REMARK SMILES IDX 24 24
REMARK H PARENT
REMARK Flexibility Score: inf
ROOT
ATOM      1  C   UNL     1       6.961 -20.689 -15.950  1.00  0.00     0.000 C 
ENDROOT
BRANCH   1   2
ATOM      2  C   UNL     1       8.019 -21.132 -14.921  1.00  0.00     0.000 C 
BRANCH   2   3
ATOM      3  C   UNL     1       9.205 -20.159 -14.823  1.00  0.00     0.000 C 
BRANCH   3   4
ATOM      4  C   UNL     1      10.566 -20.849 -15.034  1.00  0.00    -0.000 C 
BRANCH   4   5
ATOM      5  C   UNL     1      11.125 -20.774 -16.469  1.00  0.00    -0.000 C 
BRANCH   5   6
ATOM      6  C   UNL     1      11.006 -22.076 -17.287  1.00  0.00    -0.000 C 
BRANCH   6   7
ATOM      7  C   UNL     1       9.564 -22.552 -17.556  1.00  0.00    -0.000 C 
BRANCH   7   8
ATOM      8  C   UNL     1       9.094 -22.425 -19.017  1.00  0.00    -0.000 C 
BRANCH   8   9
ATOM      9  C   UNL     1      10.250 -22.539 -20.026  1.00  0.00    -0.000 C 
BRANCH   9  10
ATOM     10  C   UNL     1       9.765 -22.741 -21.473  1.00  0.00    -0.000 C 
BRANCH  10  11
ATOM     11  C   UNL     1       9.978 -21.536 -22.408  1.00  0.00    -0.003 C 
ATOM     12  C   UNL     1       8.912 -20.453 -22.244  1.00  0.00     0.004 C 
ENDBRANCH  10  11
ENDBRANCH   9  10
ENDBRANCH   8   9
ENDBRANCH   7   8
ENDBRANCH   6   7
ENDBRANCH   5   6
ENDBRANCH   4   5
ENDBRANCH   3   4
ENDBRANCH   2   3
ENDBRANCH   1   2
BRANCH   1  13
ATOM     13  C   UNL     1       5.512 -21.095 -15.624  1.00  0.00     0.000 C 
BRANCH  13  14
ATOM     14  C   UNL     1       4.832 -22.003 -16.667  1.00  0.00     0.000 C 
BRANCH  14  15
ATOM     15  C   UNL     1       3.824 -23.003 -16.066  1.00  0.00     0.000 C 
BRANCH  15  16
ATOM     16  C   UNL     1       2.590 -22.314 -15.461  1.00  0.00     0.000 C 
BRANCH  16  17
ATOM     17  C   UNL     1       1.265 -22.915 -15.964  1.00  0.00     0.000 C 
BRANCH  17  18
ATOM     18  C   UNL     1       0.032 -22.044 -15.645  1.00  0.00     0.000 C 
BRANCH  18  19
ATOM     19  C   UNL     1      -1.283 -22.830 -15.794  1.00  0.00     0.000 C 
BRANCH  19  20
ATOM     20  C   UNL     1      -2.217 -22.681 -14.579  1.00  0.00     0.006 C 
BRANCH  20  21
ATOM     21  C   UNL     1      -3.696 -22.964 -14.899  1.00  0.00     0.053 C 
BRANCH  21  22
ATOM     22  C   UNL     1      -4.552 -23.037 -13.672  1.00  0.00     0.041 C 
ATOM     23  O   UNL     1      -4.021 -23.124 -12.532  1.00  0.00    -0.550 OA
ATOM     24  O   UNL     1      -5.937 -23.025 -13.785  1.00  0.00    -0.550 OA
ENDBRANCH  21  22
ENDBRANCH  20  21
ENDBRANCH  19  20
ENDBRANCH  18  19
ENDBRANCH  17  18
ENDBRANCH  16  17
ENDBRANCH  15  16
ENDBRANCH  14  15
ENDBRANCH  13  14
ENDBRANCH   1  13
TORSDOF 20
ENDMDL
MODEL 7
REMARK VINA RESULT:    -1.507      5.992     14.195
REMARK INTER + INTRA:          -3.994
REMARK INTER:                  -3.191
REMARK INTRA:                  -0.803
REMARK UNBOUND:                -0.726
REMARK SMILES CCCCCCCCCCCCCCCCCCCCCC(=O)[O-]
REMARK SMILES IDX 12 1 11 2 10 3 9 4 8 5 7 6 6 7 5 8 4 9 3 10 2 11 1 12 13 13
REMARK SMILES IDX 14 14 15 15 16 16 17 17 18 18 19 19 20 20 21 21 22 22 23 23
REMARK SMILES IDX 24 24
REMARK H PARENT
REMARK Flexibility Score: inf
ROOT
ATOM      1  C   UNL     1       2.532 -21.494 -15.413  1.00  0.00     0.000 C 
ENDROOT
BRANCH   1   2
ATOM      2  C   UNL     1       1.493 -22.356 -16.156  1.00  0.00     0.000 C 
BRANCH   2   3
ATOM      3  C   UNL     1       0.449 -22.979 -15.214  1.00  0.00     0.000 C 
BRANCH   3   4
ATOM      4  C   UNL     1      -0.985 -22.494 -15.505  1.00  0.00    -0.000 C 
BRANCH   4   5
ATOM      5  C   UNL     1      -2.042 -22.907 -14.462  1.00  0.00    -0.000 C 
BRANCH   5   6
ATOM      6  C   UNL     1      -3.468 -23.096 -15.014  1.00  0.00    -0.000 C 
BRANCH   6   7
ATOM      7  C   UNL     1      -4.601 -22.625 -14.079  1.00  0.00    -0.000 C 
BRANCH   7   8
ATOM      8  C   UNL     1      -6.024 -22.999 -14.533  1.00  0.00    -0.000 C 
BRANCH   8   9
ATOM      9  C   UNL     1      -7.105 -22.104 -13.902  1.00  0.00    -0.000 C 
BRANCH   9  10
ATOM     10  C   UNL     1      -8.074 -22.883 -12.994  1.00  0.00    -0.000 C 
BRANCH  10  11
ATOM     11  C   UNL     1      -9.022 -22.013 -12.149  1.00  0.00    -0.003 C 
ATOM     12  C   UNL     1      -8.284 -21.085 -11.183  1.00  0.00     0.004 C 
ENDBRANCH  10  11
ENDBRANCH   9  10
ENDBRANCH   8   9
ENDBRANCH   7   8
ENDBRANCH   6   7
ENDBRANCH   5   6
ENDBRANCH   4   5
ENDBRANCH   3   4
ENDBRANCH   2   3
ENDBRANCH   1   2
BRANCH   1  13
ATOM     13  C   UNL     1       4.004 -21.867 -15.671  1.00  0.00     0.000 C 
BRANCH  13  14
ATOM     14  C   UNL     1       4.236 -22.900 -16.790  1.00  0.00     0.000 C 
BRANCH  14  15
ATOM     15  C   UNL     1       5.721 -23.120 -17.144  1.00  0.00     0.000 C 
BRANCH  15  16
ATOM     16  C   UNL     1       6.673 -22.317 -16.241  1.00  0.00     0.000 C 
BRANCH  16  17
ATOM     17  C   UNL     1       7.702 -21.497 -17.040  1.00  0.00     0.000 C 
BRANCH  17  18
ATOM     18  C   UNL     1       9.023 -22.250 -17.300  1.00  0.00     0.000 C 
BRANCH  18  19
ATOM     19  C   UNL     1       9.219 -22.571 -18.792  1.00  0.00     0.000 C 
BRANCH  19  20
ATOM     20  C   UNL     1       9.089 -21.333 -19.699  1.00  0.00     0.006 C 
BRANCH  20  21
ATOM     21  C   UNL     1      10.000 -21.378 -20.940  1.00  0.00     0.053 C 
BRANCH  21  22
ATOM     22  C   UNL     1       9.242 -21.222 -22.222  1.00  0.00     0.041 C 
ATOM     23  O   UNL     1       8.705 -20.120 -22.512  1.00  0.00    -0.550 OA
ATOM     24  O   UNL     1       9.113 -22.300 -23.092  1.00  0.00    -0.550 OA
ENDBRANCH  21  22
ENDBRANCH  20  21
ENDBRANCH  19  20
ENDBRANCH  18  19
ENDBRANCH  17  18
ENDBRANCH  16  17
ENDBRANCH  15  16
ENDBRANCH  14  15
ENDBRANCH  13  14
ENDBRANCH   1  13
TORSDOF 20
ENDMDL
