MODEL 1
REMARK VINA RESULT:    -4.934      0.000      0.000
REMARK INTER + INTRA:          -5.078
REMARK INTER:                  -5.078
REMARK INTRA:                   0.000
REMARK UNBOUND:                 0.000
REMARK SMILES O=c1ccc2ccc(O)cc2o1
REMARK SMILES IDX 6 1 7 2 8 3 10 4 11 5 5 6 4 7 3 8 2 9 1 10 12 11 9 12
REMARK H PARENT 9 13
REMARK Flexibility Score: inf
ROOT
ATOM      1  C   UNL     1      10.234  -6.219  -7.745  1.00  0.00     0.016 A 
ATOM      2  C   UNL     1       9.505  -5.890  -6.597  1.00  0.00     0.047 A 
ATOM      3  C   UNL     1       8.203  -5.386  -6.706  1.00  0.00     0.119 A 
ATOM      4  C   UNL     1       7.625  -5.209  -7.972  1.00  0.00     0.094 A 
ATOM      5  C   UNL     1       8.346  -5.535  -9.125  1.00  0.00     0.142 A 
ATOM      6  C   UNL     1       9.659  -6.044  -9.011  1.00  0.00     0.018 A 
ATOM      7  C   UNL     1      10.356  -6.362 -10.181  1.00  0.00     0.019 A 
ATOM      8  C   UNL     1       9.739  -6.169 -11.418  1.00  0.00     0.094 A 
ATOM      9  C   UNL     1       8.436  -5.661 -11.454  1.00  0.00     0.336 A 
ATOM     10  O   UNL     1       7.863  -5.480 -12.560  1.00  0.00    -0.246 OA
ATOM     11  O   UNL     1       7.796  -5.368 -10.325  1.00  0.00    -0.423 OA
ENDROOT
BRANCH   3  12
ATOM     12  O   UNL     1       7.493  -5.063  -5.551  1.00  0.00    -0.508 OA
ATOM     13  H   UNL     1       7.227  -5.772  -4.878  1.00  0.00     0.293 HD
ENDBRANCH   3  12
TORSDOF 1
ENDMDL
MODEL 2
REMARK VINA RESULT:    -4.901     21.764     22.849
REMARK INTER + INTRA:          -5.044
REMARK INTER:                  -5.044
REMARK INTRA:                   0.000
REMARK UNBOUND:                 0.000
REMARK SMILES O=c1ccc2ccc(O)cc2o1
REMARK SMILES IDX 6 1 7 2 8 3 10 4 11 5 5 6 4 7 3 8 2 9 1 10 12 11 9 12
REMARK H PARENT 9 13
REMARK Flexibility Score: inf
ROOT
ATOM      1  C   UNL     1      25.124   6.868 -19.357  1.00  0.00     0.016 A 
ATOM      2  C   UNL     1      24.537   5.853 -20.120  1.00  0.00     0.047 A 
ATOM      3  C   UNL     1      23.197   5.949 -20.514  1.00  0.00     0.119 A 
ATOM      4  C   UNL     1      22.437   7.068 -20.141  1.00  0.00     0.094 A 
ATOM      5  C   UNL     1      23.015   8.087 -19.378  1.00  0.00     0.142 A 
ATOM      6  C   UNL     1      24.368   7.987 -18.982  1.00  0.00     0.018 A 
ATOM      7  C   UNL     1      24.919   9.021 -18.220  1.00  0.00     0.019 A 
ATOM      8  C   UNL     1      24.124  10.114 -17.874  1.00  0.00     0.094 A 
ATOM      9  C   UNL     1      22.792  10.146 -18.300  1.00  0.00     0.336 A 
ATOM     10  O   UNL     1      22.058  11.123 -17.998  1.00  0.00    -0.246 OA
ATOM     11  O   UNL     1      22.293   9.148 -19.025  1.00  0.00    -0.423 OA
ENDROOT
BRANCH   3  12
ATOM     12  O   UNL     1      22.630   4.929 -21.274  1.00  0.00    -0.508 OA
ATOM     13  H   UNL     1      22.247   4.097 -20.841  1.00  0.00     0.293 HD
ENDBRANCH   3  12
TORSDOF 1
ENDMDL
MODEL 3
REMARK VINA RESULT:    -4.880      2.026      2.681
REMARK INTER + INTRA:          -5.023
REMARK INTER:                  -5.023
REMARK INTRA:                   0.000
REMARK UNBOUND:                 0.000
REMARK SMILES O=c1ccc2ccc(O)cc2o1
REMARK SMILES IDX 6 1 7 2 8 3 10 4 11 5 5 6 4 7 3 8 2 9 1 10 12 11 9 12
REMARK H PARENT 9 13
REMARK Flexibility Score: inf
ROOT
ATOM      1  C   UNL     1       7.566  -5.504  -8.755  1.00  0.00     0.016 A 
ATOM      2  C   UNL     1       7.238  -5.616  -7.399  1.00  0.00     0.047 A 
ATOM      3  C   UNL     1       8.229  -5.898  -6.452  1.00  0.00     0.119 A 
ATOM      4  C   UNL     1       9.560  -6.069  -6.862  1.00  0.00     0.094 A 
ATOM      5  C   UNL     1       9.898  -5.960  -8.215  1.00  0.00     0.142 A 
ATOM      6  C   UNL     1       8.894  -5.675  -9.168  1.00  0.00     0.018 A 
ATOM      7  C   UNL     1       9.262  -5.571 -10.513  1.00  0.00     0.019 A 
ATOM      8  C   UNL     1      10.598  -5.749 -10.873  1.00  0.00     0.094 A 
ATOM      9  C   UNL     1      11.537  -6.029  -9.875  1.00  0.00     0.336 A 
ATOM     10  O   UNL     1      12.747  -6.193 -10.179  1.00  0.00    -0.246 OA
ATOM     11  O   UNL     1      11.160  -6.122  -8.602  1.00  0.00    -0.423 OA
ENDROOT
BRANCH   3  12
ATOM     12  O   UNL     1       7.883  -6.006  -5.107  1.00  0.00    -0.508 OA
ATOM     13  H   UNL     1       8.456  -5.597  -4.378  1.00  0.00     0.293 HD
ENDBRANCH   3  12
TORSDOF 1
ENDMDL
MODEL 4
REMARK VINA RESULT:    -4.850      2.468      2.905
REMARK INTER + INTRA:          -4.992
REMARK INTER:                  -4.992
REMARK INTRA:                   0.000
REMARK UNBOUND:                 0.000
REMARK SMILES O=c1ccc2ccc(O)cc2o1
REMARK SMILES IDX 6 1 7 2 8 3 10 4 11 5 5 6 4 7 3 8 2 9 1 10 12 11 9 12
REMARK H PARENT 9 13
REMARK Flexibility Score: inf
ROOT
ATOM      1  C   UNL     1       8.247  -8.215  -6.735  1.00  0.00     0.016 A 
ATOM      2  C   UNL     1       7.668  -7.262  -5.891  1.00  0.00     0.047 A 
ATOM      3  C   UNL     1       8.099  -5.931  -5.924  1.00  0.00     0.119 A 
ATOM      4  C   UNL     1       9.118  -5.548  -6.808  1.00  0.00     0.094 A 
ATOM      5  C   UNL     1       9.704  -6.493  -7.656  1.00  0.00     0.142 A 
ATOM      6  C   UNL     1       9.266  -7.836  -7.620  1.00  0.00     0.018 A 
ATOM      7  C   UNL     1       9.870  -8.759  -8.480  1.00  0.00     0.019 A 
ATOM      8  C   UNL     1      10.880  -8.331  -9.342  1.00  0.00     0.094 A 
ATOM      9  C   UNL     1      11.263  -6.985  -9.323  1.00  0.00     0.336 A 
ATOM     10  O   UNL     1      12.172  -6.580 -10.093  1.00  0.00    -0.246 OA
ATOM     11  O   UNL     1      10.671  -6.128  -8.495  1.00  0.00    -0.423 OA
ENDROOT
BRANCH   3  12
ATOM     12  O   UNL     1       7.509  -4.997  -5.075  1.00  0.00    -0.508 OA
ATOM     13  H   UNL     1       7.997  -4.154  -4.795  1.00  0.00     0.293 HD
ENDBRANCH   3  12
TORSDOF 1
ENDMDL
MODEL 5
REMARK VINA RESULT:    -4.772     22.034     22.542
REMARK INTER + INTRA:          -4.911
REMARK INTER:                  -4.911
REMARK INTRA:                   0.000
REMARK UNBOUND:                 0.000
REMARK SMILES O=c1ccc2ccc(O)cc2o1
REMARK SMILES IDX 6 1 7 2 8 3 10 4 11 5 5 6 4 7 3 8 2 9 1 10 12 11 9 12
REMARK H PARENT 9 13
REMARK Flexibility Score: inf
ROOT
ATOM      1  C   UNL     1      24.741   8.581 -18.483  1.00  0.00     0.016 A 
ATOM      2  C   UNL     1      23.886   9.623 -18.109  1.00  0.00     0.047 A 
ATOM      3  C   UNL     1      22.574   9.671 -18.597  1.00  0.00     0.119 A 
ATOM      4  C   UNL     1      22.114   8.671 -19.465  1.00  0.00     0.094 A 
ATOM      5  C   UNL     1      22.961   7.625 -19.845  1.00  0.00     0.142 A 
ATOM      6  C   UNL     1      24.284   7.580 -19.351  1.00  0.00     0.018 A 
ATOM      7  C   UNL     1      25.109   6.522 -19.748  1.00  0.00     0.019 A 
ATOM      8  C   UNL     1      24.606   5.551 -20.613  1.00  0.00     0.094 A 
ATOM      9  C   UNL     1      23.286   5.661 -21.063  1.00  0.00     0.336 A 
ATOM     10  O   UNL     1      22.813   4.794 -21.844  1.00  0.00    -0.246 OA
ATOM     11  O   UNL     1      22.522   6.677 -20.669  1.00  0.00    -0.423 OA
ENDROOT
BRANCH   3  12
ATOM     12  O   UNL     1      21.737  10.717 -18.213  1.00  0.00    -0.508 OA
ATOM     13  H   UNL     1      20.729  10.633 -18.260  1.00  0.00     0.293 HD
ENDBRANCH   3  12
TORSDOF 1
ENDMDL
MODEL 6
REMARK VINA RESULT:    -4.732     10.101     10.722
REMARK INTER + INTRA:          -4.870
REMARK INTER:                  -4.870
REMARK INTRA:                   0.000
REMARK UNBOUND:                 0.000
REMARK SMILES O=c1ccc2ccc(O)cc2o1
REMARK SMILES IDX 6 1 7 2 8 3 10 4 11 5 5 6 4 7 3 8 2 9 1 10 12 11 9 12
REMARK H PARENT 9 13
REMARK Flexibility Score: inf
ROOT
ATOM      1  C   UNL     1      13.020   3.977  -3.331  1.00  0.00     0.016 A 
ATOM      2  C   UNL     1      11.857   3.349  -2.875  1.00  0.00     0.047 A 
ATOM      3  C   UNL     1      11.126   2.509  -3.725  1.00  0.00     0.119 A 
ATOM      4  C   UNL     1      11.562   2.296  -5.041  1.00  0.00     0.094 A 
ATOM      5  C   UNL     1      12.725   2.919  -5.506  1.00  0.00     0.142 A 
ATOM      6  C   UNL     1      13.459   3.766  -4.645  1.00  0.00     0.018 A 
ATOM      7  C   UNL     1      14.617   4.375  -5.137  1.00  0.00     0.019 A 
ATOM      8  C   UNL     1      15.012   4.132  -6.453  1.00  0.00     0.094 A 
ATOM      9  C   UNL     1      14.235   3.283  -7.248  1.00  0.00     0.336 A 
ATOM     10  O   UNL     1      14.574   3.051  -8.438  1.00  0.00    -0.246 OA
ATOM     11  O   UNL     1      13.137   2.715  -6.754  1.00  0.00    -0.423 OA
ENDROOT
BRANCH   3  12
ATOM     12  O   UNL     1       9.970   1.893  -3.252  1.00  0.00    -0.508 OA
ATOM     13  H   UNL     1       9.164   1.751  -3.850  1.00  0.00     0.293 HD
ENDBRANCH   3  12
TORSDOF 1
ENDMDL
MODEL 7
REMARK VINA RESULT:    -4.689     12.525     13.596
REMARK INTER + INTRA:          -4.826
REMARK INTER:                  -4.826
REMARK INTRA:                   0.000
REMARK UNBOUND:                 0.000
REMARK SMILES O=c1ccc2ccc(O)cc2o1
REMARK SMILES IDX 6 1 7 2 8 3 10 4 11 5 5 6 4 7 3 8 2 9 1 10 12 11 9 12
REMARK H PARENT 9 13
REMARK Flexibility Score: inf
ROOT
ATOM      1  C   UNL     1      20.707  -2.353  -8.570  1.00  0.00     0.016 A 
ATOM      2  C   UNL     1      19.363  -2.373  -8.182  1.00  0.00     0.047 A 
ATOM      3  C   UNL     1      19.005  -2.788  -6.894  1.00  0.00     0.119 A 
ATOM      4  C   UNL     1      19.997  -3.187  -5.986  1.00  0.00     0.094 A 
ATOM      5  C   UNL     1      21.343  -3.171  -6.365  1.00  0.00     0.142 A 
ATOM      6  C   UNL     1      21.701  -2.751  -7.666  1.00  0.00     0.018 A 
ATOM      7  C   UNL     1      23.055  -2.745  -8.016  1.00  0.00     0.019 A 
ATOM      8  C   UNL     1      24.006  -3.150  -7.079  1.00  0.00     0.094 A 
ATOM      9  C   UNL     1      23.578  -3.553  -5.810  1.00  0.00     0.336 A 
ATOM     10  O   UNL     1      24.420  -3.922  -4.950  1.00  0.00    -0.246 OA
ATOM     11  O   UNL     1      22.283  -3.549  -5.502  1.00  0.00    -0.423 OA
ENDROOT
BRANCH   3  12
ATOM     12  O   UNL     1      17.661  -2.802  -6.526  1.00  0.00    -0.508 OA
ATOM     13  H   UNL     1      16.923  -2.864  -7.218  1.00  0.00     0.293 HD
ENDBRANCH   3  12
TORSDOF 1
ENDMDL
MODEL 8
REMARK VINA RESULT:    -4.674      2.081      4.618
REMARK INTER + INTRA:          -4.810
REMARK INTER:                  -4.810
REMARK INTRA:                   0.000
REMARK UNBOUND:                 0.000
REMARK SMILES O=c1ccc2ccc(O)cc2o1
REMARK SMILES IDX 6 1 7 2 8 3 10 4 11 5 5 6 4 7 3 8 2 9 1 10 12 11 9 12
REMARK H PARENT 9 13
REMARK Flexibility Score: inf
ROOT
ATOM      1  C   UNL     1       9.255  -5.636 -10.669  1.00  0.00     0.016 A 
ATOM      2  C   UNL     1      10.540  -5.931 -11.135  1.00  0.00     0.047 A 
ATOM      3  C   UNL     1      11.553  -6.291 -10.238  1.00  0.00     0.119 A 
ATOM      4  C   UNL     1      11.279  -6.356  -8.864  1.00  0.00     0.094 A 
ATOM      5  C   UNL     1       9.997  -6.062  -8.388  1.00  0.00     0.142 A 
ATOM      6  C   UNL     1       8.978  -5.700  -9.297  1.00  0.00     0.018 A 
ATOM      7  C   UNL     1       7.706  -5.412  -8.792  1.00  0.00     0.019 A 
ATOM      8  C   UNL     1       7.481  -5.490  -7.417  1.00  0.00     0.094 A 
ATOM      9  C   UNL     1       8.539  -5.856  -6.578  1.00  0.00     0.336 A 
ATOM     10  O   UNL     1       8.356  -5.932  -5.334  1.00  0.00    -0.246 OA
ATOM     11  O   UNL     1       9.739  -6.125  -7.084  1.00  0.00    -0.423 OA
ENDROOT
BRANCH   3  12
ATOM     12  O   UNL     1      12.827  -6.582 -10.721  1.00  0.00    -0.508 OA
ATOM     13  H   UNL     1      13.095  -7.526 -10.973  1.00  0.00     0.293 HD
ENDBRANCH   3  12
TORSDOF 1
ENDMDL
MODEL 9
REMARK VINA RESULT:    -4.597      1.832      4.661
REMARK INTER + INTRA:          -4.731
REMARK INTER:                  -4.731
REMARK INTRA:                   0.000
REMARK UNBOUND:                 0.000
REMARK SMILES O=c1ccc2ccc(O)cc2o1
REMARK SMILES IDX 6 1 7 2 8 3 10 4 11 5 5 6 4 7 3 8 2 9 1 10 12 11 9 12
REMARK H PARENT 9 13
REMARK Flexibility Score: inf
ROOT
ATOM      1  C   UNL     1       7.900  -8.401  -9.096  1.00  0.00     0.016 A 
ATOM      2  C   UNL     1       8.072  -7.889 -10.387  1.00  0.00     0.047 A 
ATOM      3  C   UNL     1       8.297  -6.520 -10.581  1.00  0.00     0.119 A 
ATOM      4  C   UNL     1       8.349  -5.657  -9.478  1.00  0.00     0.094 A 
ATOM      5  C   UNL     1       8.178  -6.159  -8.184  1.00  0.00     0.142 A 
ATOM      6  C   UNL     1       7.952  -7.540  -7.991  1.00  0.00     0.018 A 
ATOM      7  C   UNL     1       7.784  -8.013  -6.686  1.00  0.00     0.019 A 
ATOM      8  C   UNL     1       7.845  -7.116  -5.620  1.00  0.00     0.094 A 
ATOM      9  C   UNL     1       8.071  -5.761  -5.886  1.00  0.00     0.336 A 
ATOM     10  O   UNL     1       8.129  -4.935  -4.938  1.00  0.00    -0.246 OA
ATOM     11  O   UNL     1       8.228  -5.337  -7.138  1.00  0.00    -0.423 OA
ENDROOT
BRANCH   3  12
ATOM     12  O   UNL     1       8.466  -6.030 -11.874  1.00  0.00    -0.508 OA
ATOM     13  H   UNL     1       8.630  -6.650 -12.659  1.00  0.00     0.293 HD
ENDBRANCH   3  12
TORSDOF 1
ENDMDL
