MODEL 1
REMARK VINA RESULT:    -7.039      0.000      0.000
REMARK INTER + INTRA:          -8.770
REMARK INTER:                  -8.479
REMARK INTRA:                  -0.290
REMARK UNBOUND:                -0.290
REMARK SMILES O=c1c(O)c(-c2ccc(O)c(O)c2)oc2cc(O)cc(O)c12
REMARK SMILES IDX 5 1 3 2 2 3 1 4 22 5 20 6 19 7 17 8 16 9 15 10 14 11 6 12
REMARK SMILES IDX 7 13 8 14 9 15 13 16 11 17 10 18 12 20 4 22 21 24 18 26
REMARK H PARENT 10 19 12 21 4 23 21 25 18 27
REMARK Flexibility Score: inf
ROOT
ATOM      1  C   UNL     1     114.199 115.680 135.998  1.00  0.00     0.180 A 
ATOM      2  C   UNL     1     114.207 116.313 137.252  1.00  0.00     0.208 A 
ATOM      3  C   UNL     1     115.436 116.540 137.892  1.00  0.00     0.238 A 
ATOM      4  O   UNL     1     115.434 117.059 139.040  1.00  0.00    -0.285 OA
ATOM      5  C   UNL     1     116.641 116.146 137.263  1.00  0.00     0.111 A 
ATOM      6  C   UNL     1     117.945 116.362 137.801  1.00  0.00     0.134 A 
ATOM      7  C   UNL     1     119.059 115.814 137.153  1.00  0.00     0.093 A 
ATOM      8  C   UNL     1     118.922 115.113 135.953  1.00  0.00     0.123 A 
ATOM      9  C   UNL     1     117.660 114.948 135.389  1.00  0.00     0.094 A 
ATOM     10  C   UNL     1     116.526 115.452 136.030  1.00  0.00     0.146 A 
ATOM     11  O   UNL     1     115.340 115.263 135.464  1.00  0.00    -0.452 OA
ENDROOT
BRANCH   1  12
ATOM     12  C   UNL     1     112.944 115.429 135.250  1.00  0.00     0.025 A 
ATOM     13  C   UNL     1     112.101 114.352 135.577  1.00  0.00     0.016 A 
ATOM     14  C   UNL     1     110.910 114.149 134.874  1.00  0.00     0.051 A 
ATOM     15  C   UNL     1     110.539 115.025 133.845  1.00  0.00     0.157 A 
ATOM     16  C   UNL     1     112.557 116.316 134.233  1.00  0.00     0.062 A 
ATOM     17  C   UNL     1     111.366 116.115 133.526  1.00  0.00     0.158 A 
BRANCH  15  18
ATOM     18  O   UNL     1     109.352 114.819 133.144  1.00  0.00    -0.504 OA
ATOM     19  H   UNL     1     109.351 114.467 132.194  1.00  0.00     0.293 HD
ENDBRANCH  15  18
BRANCH  17  20
ATOM     20  O   UNL     1     111.021 117.008 132.512  1.00  0.00    -0.504 OA
ATOM     21  H   UNL     1     111.013 116.738 131.536  1.00  0.00     0.293 HD
ENDBRANCH  17  20
ENDBRANCH   1  12
BRANCH   2  22
ATOM     22  O   UNL     1     113.004 116.675 137.866  1.00  0.00    -0.502 OA
ATOM     23  H   UNL     1     112.147 116.815 137.344  1.00  0.00     0.293 HD
ENDBRANCH   2  22
BRANCH   6  24
ATOM     24  O   UNL     1     118.201 117.126 138.944  1.00  0.00    -0.507 OA
ATOM     25  H   UNL     1     117.816 116.939 139.857  1.00  0.00     0.293 HD
ENDBRANCH   6  24
BRANCH   8  26
ATOM     26  O   UNL     1     120.038 114.584 135.307  1.00  0.00    -0.508 OA
ATOM     27  H   UNL     1     120.045 114.425 134.307  1.00  0.00     0.293 HD
ENDBRANCH   8  26
TORSDOF 6
ENDMDL
MODEL 2
REMARK VINA RESULT:    -6.954      5.716      8.854
REMARK INTER + INTRA:          -8.667
REMARK INTER:                  -8.354
REMARK INTRA:                  -0.313
REMARK UNBOUND:                -0.290
REMARK SMILES O=c1c(O)c(-c2ccc(O)c(O)c2)oc2cc(O)cc(O)c12
REMARK SMILES IDX 5 1 3 2 2 3 1 4 22 5 20 6 19 7 17 8 16 9 15 10 14 11 6 12
REMARK SMILES IDX 7 13 8 14 9 15 13 16 11 17 10 18 12 20 4 22 21 24 18 26
REMARK H PARENT 10 19 12 21 4 23 21 25 18 27
REMARK Flexibility Score: inf
ROOT
ATOM      1  C   UNL     1     116.821 120.777 141.105  1.00  0.00     0.180 A 
ATOM      2  C   UNL     1     118.177 120.750 140.735  1.00  0.00     0.208 A 
ATOM      3  C   UNL     1     118.616 119.770 139.830  1.00  0.00     0.238 A 
ATOM      4  O   UNL     1     119.841 119.717 139.544  1.00  0.00    -0.285 OA
ATOM      5  C   UNL     1     117.692 118.842 139.293  1.00  0.00     0.111 A 
ATOM      6  C   UNL     1     118.019 117.833 138.339  1.00  0.00     0.134 A 
ATOM      7  C   UNL     1     117.052 116.886 137.976  1.00  0.00     0.093 A 
ATOM      8  C   UNL     1     115.753 116.951 138.485  1.00  0.00     0.123 A 
ATOM      9  C   UNL     1     115.409 117.968 139.372  1.00  0.00     0.094 A 
ATOM     10  C   UNL     1     116.360 118.906 139.780  1.00  0.00     0.146 A 
ATOM     11  O   UNL     1     115.993 119.852 140.636  1.00  0.00    -0.452 OA
ENDROOT
BRANCH   1  12
ATOM     12  C   UNL     1     116.278 121.794 142.035  1.00  0.00     0.025 A 
ATOM     13  C   UNL     1     116.163 121.539 143.413  1.00  0.00     0.016 A 
ATOM     14  C   UNL     1     115.670 122.523 144.274  1.00  0.00     0.051 A 
ATOM     15  C   UNL     1     115.299 123.779 143.775  1.00  0.00     0.157 A 
ATOM     16  C   UNL     1     115.925 123.062 141.542  1.00  0.00     0.062 A 
ATOM     17  C   UNL     1     115.431 124.049 142.402  1.00  0.00     0.158 A 
BRANCH  15  18
ATOM     18  O   UNL     1     114.807 124.758 144.637  1.00  0.00    -0.504 OA
ATOM     19  H   UNL     1     113.900 124.667 145.080  1.00  0.00     0.293 HD
ENDBRANCH  15  18
BRANCH  17  20
ATOM     20  O   UNL     1     115.077 125.291 141.876  1.00  0.00    -0.504 OA
ATOM     21  H   UNL     1     115.131 126.142 142.422  1.00  0.00     0.293 HD
ENDBRANCH  17  20
ENDBRANCH   1  12
BRANCH   2  22
ATOM     22  O   UNL     1     119.076 121.663 141.293  1.00  0.00    -0.502 OA
ATOM     23  H   UNL     1     119.692 121.420 142.060  1.00  0.00     0.293 HD
ENDBRANCH   2  22
BRANCH   6  24
ATOM     24  O   UNL     1     119.259 117.734 137.700  1.00  0.00    -0.507 OA
ATOM     25  H   UNL     1     119.452 117.134 136.913  1.00  0.00     0.293 HD
ENDBRANCH   6  24
BRANCH   8  26
ATOM     26  O   UNL     1     114.794 116.015 138.107  1.00  0.00    -0.508 OA
ATOM     27  H   UNL     1     114.160 115.603 138.782  1.00  0.00     0.293 HD
ENDBRANCH   8  26
TORSDOF 6
ENDMDL
MODEL 3
REMARK VINA RESULT:    -6.586      1.732      2.493
REMARK INTER + INTRA:          -8.224
REMARK INTER:                  -8.006
REMARK INTRA:                  -0.219
REMARK UNBOUND:                -0.290
REMARK SMILES O=c1c(O)c(-c2ccc(O)c(O)c2)oc2cc(O)cc(O)c12
REMARK SMILES IDX 5 1 3 2 2 3 1 4 22 5 20 6 19 7 17 8 16 9 15 10 14 11 6 12
REMARK SMILES IDX 7 13 8 14 9 15 13 16 11 17 10 18 12 20 4 22 21 24 18 26
REMARK H PARENT 10 19 12 21 4 23 21 25 18 27
REMARK Flexibility Score: inf
ROOT
ATOM      1  C   UNL     1     115.646 115.261 135.094  1.00  0.00     0.180 A 
ATOM      2  C   UNL     1     116.262 115.557 136.322  1.00  0.00     0.208 A 
ATOM      3  C   UNL     1     117.659 115.451 136.425  1.00  0.00     0.238 A 
ATOM      4  O   UNL     1     118.201 115.665 137.542  1.00  0.00    -0.285 OA
ATOM      5  C   UNL     1     118.422 115.069 135.296  1.00  0.00     0.111 A 
ATOM      6  C   UNL     1     119.845 114.968 135.276  1.00  0.00     0.134 A 
ATOM      7  C   UNL     1     120.486 114.455 134.141  1.00  0.00     0.093 A 
ATOM      8  C   UNL     1     119.758 114.098 133.004  1.00  0.00     0.123 A 
ATOM      9  C   UNL     1     118.374 114.248 132.993  1.00  0.00     0.094 A 
ATOM     10  C   UNL     1     117.704 114.724 134.122  1.00  0.00     0.146 A 
ATOM     11  O   UNL     1     116.382 114.841 134.073  1.00  0.00    -0.452 OA
ENDROOT
BRANCH   1  12
ATOM     12  C   UNL     1     114.181 115.373 134.901  1.00  0.00     0.025 A 
ATOM     13  C   UNL     1     113.291 114.474 135.515  1.00  0.00     0.016 A 
ATOM     14  C   UNL     1     111.912 114.614 135.337  1.00  0.00     0.051 A 
ATOM     15  C   UNL     1     111.402 115.660 134.557  1.00  0.00     0.157 A 
ATOM     16  C   UNL     1     113.664 116.433 134.138  1.00  0.00     0.062 A 
ATOM     17  C   UNL     1     112.284 116.575 133.957  1.00  0.00     0.158 A 
BRANCH  15  18
ATOM     18  O   UNL     1     110.026 115.797 134.381  1.00  0.00    -0.504 OA
ATOM     19  H   UNL     1     109.369 115.174 134.837  1.00  0.00     0.293 HD
ENDBRANCH  15  18
BRANCH  17  20
ATOM     20  O   UNL     1     111.807 117.631 133.181  1.00  0.00    -0.504 OA
ATOM     21  H   UNL     1     112.427 118.309 132.756  1.00  0.00     0.293 HD
ENDBRANCH  17  20
ENDBRANCH   1  12
BRANCH   2  22
ATOM     22  O   UNL     1     115.488 115.912 137.431  1.00  0.00    -0.502 OA
ATOM     23  H   UNL     1     114.485 115.773 137.462  1.00  0.00     0.293 HD
ENDBRANCH   2  22
BRANCH   6  24
ATOM     24  O   UNL     1     120.672 115.383 136.324  1.00  0.00    -0.507 OA
ATOM     25  H   UNL     1     120.571 116.253 136.826  1.00  0.00     0.293 HD
ENDBRANCH   6  24
BRANCH   8  26
ATOM     26  O   UNL     1     120.405 113.602 131.873  1.00  0.00    -0.508 OA
ATOM     27  H   UNL     1     120.603 114.193 131.074  1.00  0.00     0.293 HD
ENDBRANCH   8  26
TORSDOF 6
ENDMDL
MODEL 4
REMARK VINA RESULT:    -6.538      7.434     10.202
REMARK INTER + INTRA:          -8.165
REMARK INTER:                  -7.876
REMARK INTRA:                  -0.290
REMARK UNBOUND:                -0.290
REMARK SMILES O=c1c(O)c(-c2ccc(O)c(O)c2)oc2cc(O)cc(O)c12
REMARK SMILES IDX 5 1 3 2 2 3 1 4 22 5 20 6 19 7 17 8 16 9 15 10 14 11 6 12
REMARK SMILES IDX 7 13 8 14 9 15 13 16 11 17 10 18 12 20 4 22 21 24 18 26
REMARK H PARENT 10 19 12 21 4 23 21 25 18 27
REMARK Flexibility Score: inf
ROOT
ATOM      1  C   UNL     1     115.975 121.959 141.558  1.00  0.00     0.180 A 
ATOM      2  C   UNL     1     115.665 121.893 142.928  1.00  0.00     0.208 A 
ATOM      3  C   UNL     1     115.084 123.012 143.548  1.00  0.00     0.238 A 
ATOM      4  O   UNL     1     114.859 122.967 144.786  1.00  0.00    -0.285 OA
ATOM      5  C   UNL     1     114.806 124.173 142.789  1.00  0.00     0.111 A 
ATOM      6  C   UNL     1     114.184 125.349 143.306  1.00  0.00     0.134 A 
ATOM      7  C   UNL     1     114.076 126.486 142.496  1.00  0.00     0.093 A 
ATOM      8  C   UNL     1     114.510 126.469 141.168  1.00  0.00     0.123 A 
ATOM      9  C   UNL     1     115.065 125.307 140.638  1.00  0.00     0.094 A 
ATOM     10  C   UNL     1     115.218 124.168 141.431  1.00  0.00     0.146 A 
ATOM     11  O   UNL     1     115.763 123.085 140.889  1.00  0.00    -0.452 OA
ENDROOT
BRANCH   1  12
ATOM     12  C   UNL     1     116.565 120.813 140.829  1.00  0.00     0.025 A 
ATOM     13  C   UNL     1     117.946 120.740 140.575  1.00  0.00     0.016 A 
ATOM     14  C   UNL     1     118.483 119.637 139.905  1.00  0.00     0.051 A 
ATOM     15  C   UNL     1     117.653 118.587 139.493  1.00  0.00     0.157 A 
ATOM     16  C   UNL     1     115.740 119.747 140.432  1.00  0.00     0.062 A 
ATOM     17  C   UNL     1     116.275 118.642 139.761  1.00  0.00     0.158 A 
BRANCH  15  18
ATOM     18  O   UNL     1     118.192 117.488 138.825  1.00  0.00    -0.504 OA
ATOM     19  H   UNL     1     118.517 116.669 139.326  1.00  0.00     0.293 HD
ENDBRANCH  15  18
BRANCH  17  20
ATOM     20  O   UNL     1     115.424 117.609 139.371  1.00  0.00    -0.504 OA
ATOM     21  H   UNL     1     115.021 116.962 140.037  1.00  0.00     0.293 HD
ENDBRANCH  17  20
ENDBRANCH   1  12
BRANCH   2  22
ATOM     22  O   UNL     1     115.968 120.744 143.664  1.00  0.00    -0.502 OA
ATOM     23  H   UNL     1     115.273 120.040 143.884  1.00  0.00     0.293 HD
ENDBRANCH   2  22
BRANCH   6  24
ATOM     24  O   UNL     1     113.633 125.442 144.588  1.00  0.00    -0.507 OA
ATOM     25  H   UNL     1     112.743 125.868 144.800  1.00  0.00     0.293 HD
ENDBRANCH   6  24
BRANCH   8  26
ATOM     26  O   UNL     1     114.385 127.600 140.364  1.00  0.00    -0.508 OA
ATOM     27  H   UNL     1     115.159 127.942 139.807  1.00  0.00     0.293 HD
ENDBRANCH   8  26
TORSDOF 6
ENDMDL
MODEL 5
REMARK VINA RESULT:    -6.495      5.521      8.099
REMARK INTER + INTRA:          -8.114
REMARK INTER:                  -8.023
REMARK INTRA:                  -0.091
REMARK UNBOUND:                -0.290
REMARK SMILES O=c1c(O)c(-c2ccc(O)c(O)c2)oc2cc(O)cc(O)c12
REMARK SMILES IDX 5 1 3 2 2 3 1 4 22 5 20 6 19 7 17 8 16 9 15 10 14 11 6 12
REMARK SMILES IDX 7 13 8 14 9 15 13 16 11 17 10 18 12 20 4 22 21 24 18 26
REMARK H PARENT 10 19 12 21 4 23 21 25 18 27
REMARK Flexibility Score: inf
ROOT
ATOM      1  C   UNL     1     115.539 120.036 140.011  1.00  0.00     0.180 A 
ATOM      2  C   UNL     1     114.519 120.892 139.561  1.00  0.00     0.208 A 
ATOM      3  C   UNL     1     114.131 121.972 140.371  1.00  0.00     0.238 A 
ATOM      4  O   UNL     1     113.180 122.704 139.988  1.00  0.00    -0.285 OA
ATOM      5  C   UNL     1     114.777 122.191 141.610  1.00  0.00     0.111 A 
ATOM      6  C   UNL     1     114.493 123.276 142.492  1.00  0.00     0.134 A 
ATOM      7  C   UNL     1     115.103 123.321 143.752  1.00  0.00     0.093 A 
ATOM      8  C   UNL     1     116.035 122.354 144.136  1.00  0.00     0.123 A 
ATOM      9  C   UNL     1     116.364 121.324 143.258  1.00  0.00     0.094 A 
ATOM     10  C   UNL     1     115.746 121.233 142.009  1.00  0.00     0.146 A 
ATOM     11  O   UNL     1     116.080 120.229 141.207  1.00  0.00    -0.452 OA
ENDROOT
BRANCH   1  12
ATOM     12  C   UNL     1     116.020 118.891 139.202  1.00  0.00     0.025 A 
ATOM     13  C   UNL     1     117.369 118.779 138.824  1.00  0.00     0.016 A 
ATOM     14  C   UNL     1     117.804 117.677 138.081  1.00  0.00     0.051 A 
ATOM     15  C   UNL     1     116.903 116.668 137.718  1.00  0.00     0.157 A 
ATOM     16  C   UNL     1     115.124 117.867 138.854  1.00  0.00     0.062 A 
ATOM     17  C   UNL     1     115.557 116.763 138.110  1.00  0.00     0.158 A 
BRANCH  15  18
ATOM     18  O   UNL     1     117.340 115.572 136.976  1.00  0.00    -0.504 OA
ATOM     19  H   UNL     1     117.043 115.428 136.017  1.00  0.00     0.293 HD
ENDBRANCH  15  18
BRANCH  17  20
ATOM     20  O   UNL     1     114.637 115.772 137.770  1.00  0.00    -0.504 OA
ATOM     21  H   UNL     1     114.143 115.775 136.886  1.00  0.00     0.293 HD
ENDBRANCH  17  20
ENDBRANCH   1  12
BRANCH   2  22
ATOM     22  O   UNL     1     113.879 120.645 138.343  1.00  0.00    -0.502 OA
ATOM     23  H   UNL     1     114.258 120.015 137.647  1.00  0.00     0.293 HD
ENDBRANCH   2  22
BRANCH   6  24
ATOM     24  O   UNL     1     113.647 124.343 142.171  1.00  0.00    -0.507 OA
ATOM     25  H   UNL     1     113.586 124.772 141.260  1.00  0.00     0.293 HD
ENDBRANCH   6  24
BRANCH   8  26
ATOM     26  O   UNL     1     116.649 122.414 145.385  1.00  0.00    -0.508 OA
ATOM     27  H   UNL     1     116.109 122.511 146.237  1.00  0.00     0.293 HD
ENDBRANCH   8  26
TORSDOF 6
ENDMDL
MODEL 6
REMARK VINA RESULT:    -6.464      9.056     10.515
REMARK INTER + INTRA:          -8.077
REMARK INTER:                  -7.901
REMARK INTRA:                  -0.176
REMARK UNBOUND:                -0.290
REMARK SMILES O=c1c(O)c(-c2ccc(O)c(O)c2)oc2cc(O)cc(O)c12
REMARK SMILES IDX 5 1 3 2 2 3 1 4 22 5 20 6 19 7 17 8 16 9 15 10 14 11 6 12
REMARK SMILES IDX 7 13 8 14 9 15 13 16 11 17 10 18 12 20 4 22 21 24 18 26
REMARK H PARENT 10 19 12 21 4 23 21 25 18 27
REMARK Flexibility Score: inf
ROOT
ATOM      1  C   UNL     1     111.329 123.632 141.548  1.00  0.00     0.180 A 
ATOM      2  C   UNL     1     110.513 123.912 142.658  1.00  0.00     0.208 A 
ATOM      3  C   UNL     1     111.117 124.138 143.906  1.00  0.00     0.238 A 
ATOM      4  O   UNL     1     110.380 124.335 144.908  1.00  0.00    -0.285 OA
ATOM      5  C   UNL     1     112.527 124.097 144.024  1.00  0.00     0.111 A 
ATOM      6  C   UNL     1     113.247 124.349 145.230  1.00  0.00     0.134 A 
ATOM      7  C   UNL     1     114.634 124.154 145.261  1.00  0.00     0.093 A 
ATOM      8  C   UNL     1     115.333 123.776 144.112  1.00  0.00     0.123 A 
ATOM      9  C   UNL     1     114.647 123.585 142.916  1.00  0.00     0.094 A 
ATOM     10  C   UNL     1     113.260 123.739 142.863  1.00  0.00     0.146 A 
ATOM     11  O   UNL     1     112.643 123.536 141.704  1.00  0.00    -0.452 OA
ENDROOT
BRANCH   1  12
ATOM     12  C   UNL     1     110.767 123.408 140.195  1.00  0.00     0.025 A 
ATOM     13  C   UNL     1     110.067 124.422 139.517  1.00  0.00     0.016 A 
ATOM     14  C   UNL     1     109.567 124.195 138.231  1.00  0.00     0.051 A 
ATOM     15  C   UNL     1     109.770 122.960 137.601  1.00  0.00     0.157 A 
ATOM     16  C   UNL     1     110.986 122.179 139.551  1.00  0.00     0.062 A 
ATOM     17  C   UNL     1     110.486 121.949 138.265  1.00  0.00     0.158 A 
BRANCH  15  18
ATOM     18  O   UNL     1     109.269 122.736 136.320  1.00  0.00    -0.504 OA
ATOM     19  H   UNL     1     108.649 123.400 135.870  1.00  0.00     0.293 HD
ENDBRANCH  15  18
BRANCH  17  20
ATOM     20  O   UNL     1     110.710 120.712 137.662  1.00  0.00    -0.504 OA
ATOM     21  H   UNL     1     110.518 120.548 136.682  1.00  0.00     0.293 HD
ENDBRANCH  17  20
ENDBRANCH   1  12
BRANCH   2  22
ATOM     22  O   UNL     1     109.122 123.927 142.524  1.00  0.00    -0.502 OA
ATOM     23  H   UNL     1     108.499 123.946 143.322  1.00  0.00     0.293 HD
ENDBRANCH   2  22
BRANCH   6  24
ATOM     24  O   UNL     1     112.657 124.818 146.408  1.00  0.00    -0.507 OA
ATOM     25  H   UNL     1     112.646 124.317 147.283  1.00  0.00     0.293 HD
ENDBRANCH   6  24
BRANCH   8  26
ATOM     26  O   UNL     1     116.715 123.598 144.148  1.00  0.00    -0.508 OA
ATOM     27  H   UNL     1     117.157 123.020 144.853  1.00  0.00     0.293 HD
ENDBRANCH   8  26
TORSDOF 6
ENDMDL
MODEL 7
REMARK VINA RESULT:    -6.440      6.872      9.614
REMARK INTER + INTRA:          -8.048
REMARK INTER:                  -7.748
REMARK INTRA:                  -0.300
REMARK UNBOUND:                -0.290
REMARK SMILES O=c1c(O)c(-c2ccc(O)c(O)c2)oc2cc(O)cc(O)c12
REMARK SMILES IDX 5 1 3 2 2 3 1 4 22 5 20 6 19 7 17 8 16 9 15 10 14 11 6 12
REMARK SMILES IDX 7 13 8 14 9 15 13 16 11 17 10 18 12 20 4 22 21 24 18 26
REMARK H PARENT 10 19 12 21 4 23 21 25 18 27
REMARK Flexibility Score: inf
ROOT
ATOM      1  C   UNL     1     115.940 122.174 141.377  1.00  0.00     0.180 A 
ATOM      2  C   UNL     1     115.096 121.333 140.630  1.00  0.00     0.208 A 
ATOM      3  C   UNL     1     115.659 120.252 139.932  1.00  0.00     0.238 A 
ATOM      4  O   UNL     1     114.906 119.535 139.221  1.00  0.00    -0.285 OA
ATOM      5  C   UNL     1     117.052 120.015 140.003  1.00  0.00     0.111 A 
ATOM      6  C   UNL     1     117.723 118.927 139.369  1.00  0.00     0.134 A 
ATOM      7  C   UNL     1     119.122 118.865 139.399  1.00  0.00     0.093 A 
ATOM      8  C   UNL     1     119.870 119.818 140.095  1.00  0.00     0.123 A 
ATOM      9  C   UNL     1     119.220 120.851 140.767  1.00  0.00     0.094 A 
ATOM     10  C   UNL     1     117.829 120.959 140.725  1.00  0.00     0.146 A 
ATOM     11  O   UNL     1     117.250 121.965 141.370  1.00  0.00    -0.452 OA
ENDROOT
BRANCH   1  12
ATOM     12  C   UNL     1     115.418 123.319 142.159  1.00  0.00     0.025 A 
ATOM     13  C   UNL     1     115.437 124.626 141.643  1.00  0.00     0.016 A 
ATOM     14  C   UNL     1     114.917 125.688 142.390  1.00  0.00     0.051 A 
ATOM     15  C   UNL     1     114.360 125.456 143.655  1.00  0.00     0.157 A 
ATOM     16  C   UNL     1     114.840 123.089 143.419  1.00  0.00     0.062 A 
ATOM     17  C   UNL     1     114.320 124.149 144.169  1.00  0.00     0.158 A 
BRANCH  15  18
ATOM     18  O   UNL     1     113.844 126.517 144.398  1.00  0.00    -0.504 OA
ATOM     19  H   UNL     1     113.841 126.502 145.411  1.00  0.00     0.293 HD
ENDBRANCH  15  18
BRANCH  17  20
ATOM     20  O   UNL     1     113.765 123.885 145.421  1.00  0.00    -0.504 OA
ATOM     21  H   UNL     1     113.746 122.953 145.816  1.00  0.00     0.293 HD
ENDBRANCH  17  20
ENDBRANCH   1  12
BRANCH   2  22
ATOM     22  O   UNL     1     113.726 121.597 140.556  1.00  0.00    -0.502 OA
ATOM     23  H   UNL     1     113.276 122.301 141.129  1.00  0.00     0.293 HD
ENDBRANCH   2  22
BRANCH   6  24
ATOM     24  O   UNL     1     117.066 117.873 138.725  1.00  0.00    -0.507 OA
ATOM     25  H   UNL     1     117.437 117.360 137.940  1.00  0.00     0.293 HD
ENDBRANCH   6  24
BRANCH   8  26
ATOM     26  O   UNL     1     121.260 119.740 140.133  1.00  0.00    -0.508 OA
ATOM     27  H   UNL     1     121.738 118.866 140.318  1.00  0.00     0.293 HD
ENDBRANCH   8  26
TORSDOF 6
ENDMDL
MODEL 8
REMARK VINA RESULT:    -6.433      7.731     10.981
REMARK INTER + INTRA:          -8.040
REMARK INTER:                  -8.071
REMARK INTRA:                   0.031
REMARK UNBOUND:                -0.290
REMARK SMILES O=c1c(O)c(-c2ccc(O)c(O)c2)oc2cc(O)cc(O)c12
REMARK SMILES IDX 5 1 3 2 2 3 1 4 22 5 20 6 19 7 17 8 16 9 15 10 14 11 6 12
REMARK SMILES IDX 7 13 8 14 9 15 13 16 11 17 10 18 12 20 4 22 21 24 18 26
REMARK H PARENT 10 19 12 21 4 23 21 25 18 27
REMARK Flexibility Score: inf
ROOT
ATOM      1  C   UNL     1     115.107 122.082 142.242  1.00  0.00     0.180 A 
ATOM      2  C   UNL     1     115.264 122.408 143.600  1.00  0.00     0.208 A 
ATOM      3  C   UNL     1     114.260 123.152 144.242  1.00  0.00     0.238 A 
ATOM      4  O   UNL     1     114.430 123.488 145.443  1.00  0.00    -0.285 OA
ATOM      5  C   UNL     1     113.106 123.546 143.523  1.00  0.00     0.111 A 
ATOM      6  C   UNL     1     112.009 124.267 144.082  1.00  0.00     0.134 A 
ATOM      7  C   UNL     1     110.979 124.716 143.246  1.00  0.00     0.093 A 
ATOM      8  C   UNL     1     110.976 124.415 141.882  1.00  0.00     0.123 A 
ATOM      9  C   UNL     1     112.013 123.661 141.338  1.00  0.00     0.094 A 
ATOM     10  C   UNL     1     113.071 123.229 142.139  1.00  0.00     0.146 A 
ATOM     11  O   UNL     1     114.045 122.522 141.578  1.00  0.00    -0.452 OA
ENDROOT
BRANCH   1  12
ATOM     12  C   UNL     1     116.110 121.280 141.504  1.00  0.00     0.025 A 
ATOM     13  C   UNL     1     115.731 120.171 140.726  1.00  0.00     0.016 A 
ATOM     14  C   UNL     1     116.693 119.443 140.019  1.00  0.00     0.051 A 
ATOM     15  C   UNL     1     118.041 119.820 140.068  1.00  0.00     0.157 A 
ATOM     16  C   UNL     1     117.460 121.666 141.533  1.00  0.00     0.062 A 
ATOM     17  C   UNL     1     118.425 120.938 140.827  1.00  0.00     0.158 A 
BRANCH  15  18
ATOM     18  O   UNL     1     118.998 119.091 139.363  1.00  0.00    -0.504 OA
ATOM     19  H   UNL     1     119.866 119.514 139.055  1.00  0.00     0.293 HD
ENDBRANCH  15  18
BRANCH  17  20
ATOM     20  O   UNL     1     119.758 121.343 140.889  1.00  0.00    -0.504 OA
ATOM     21  H   UNL     1     120.491 120.730 141.225  1.00  0.00     0.293 HD
ENDBRANCH  17  20
ENDBRANCH   1  12
BRANCH   2  22
ATOM     22  O   UNL     1     116.421 122.028 144.286  1.00  0.00    -0.502 OA
ATOM     23  H   UNL     1     117.253 121.699 143.810  1.00  0.00     0.293 HD
ENDBRANCH   2  22
BRANCH   6  24
ATOM     24  O   UNL     1     111.869 124.541 145.446  1.00  0.00    -0.507 OA
ATOM     25  H   UNL     1     111.005 124.461 145.961  1.00  0.00     0.293 HD
ENDBRANCH   6  24
BRANCH   8  26
ATOM     26  O   UNL     1     109.940 124.853 141.060  1.00  0.00    -0.508 OA
ATOM     27  H   UNL     1     109.263 124.207 140.671  1.00  0.00     0.293 HD
ENDBRANCH   8  26
TORSDOF 6
ENDMDL
MODEL 9
REMARK VINA RESULT:    -6.286      7.274     10.276
REMARK INTER + INTRA:          -7.862
REMARK INTER:                  -7.587
REMARK INTRA:                  -0.275
REMARK UNBOUND:                -0.290
REMARK SMILES O=c1c(O)c(-c2ccc(O)c(O)c2)oc2cc(O)cc(O)c12
REMARK SMILES IDX 5 1 3 2 2 3 1 4 22 5 20 6 19 7 17 8 16 9 15 10 14 11 6 12
REMARK SMILES IDX 7 13 8 14 9 15 13 16 11 17 10 18 12 20 4 22 21 24 18 26
REMARK H PARENT 10 19 12 21 4 23 21 25 18 27
REMARK Flexibility Score: inf
ROOT
ATOM      1  C   UNL     1     116.100 121.972 141.033  1.00  0.00     0.180 A 
ATOM      2  C   UNL     1     116.041 123.151 140.269  1.00  0.00     0.208 A 
ATOM      3  C   UNL     1     115.543 124.322 140.863  1.00  0.00     0.238 A 
ATOM      4  O   UNL     1     115.442 125.361 140.159  1.00  0.00    -0.285 OA
ATOM      5  C   UNL     1     115.126 124.303 142.216  1.00  0.00     0.111 A 
ATOM      6  C   UNL     1     114.642 125.440 142.930  1.00  0.00     0.134 A 
ATOM      7  C   UNL     1     114.135 125.277 144.225  1.00  0.00     0.093 A 
ATOM      8  C   UNL     1     114.153 124.030 144.855  1.00  0.00     0.123 A 
ATOM      9  C   UNL     1     114.678 122.926 144.187  1.00  0.00     0.094 A 
ATOM     10  C   UNL     1     115.158 123.050 142.882  1.00  0.00     0.146 A 
ATOM     11  O   UNL     1     115.640 121.970 142.277  1.00  0.00    -0.452 OA
ENDROOT
BRANCH   1  12
ATOM     12  C   UNL     1     116.637 120.705 140.484  1.00  0.00     0.025 A 
ATOM     13  C   UNL     1     115.782 119.674 140.054  1.00  0.00     0.016 A 
ATOM     14  C   UNL     1     116.311 118.496 139.518  1.00  0.00     0.051 A 
ATOM     15  C   UNL     1     117.697 118.337 139.390  1.00  0.00     0.157 A 
ATOM     16  C   UNL     1     118.024 120.549 140.334  1.00  0.00     0.062 A 
ATOM     17  C   UNL     1     118.557 119.371 139.798  1.00  0.00     0.158 A 
BRANCH  15  18
ATOM     18  O   UNL     1     118.221 117.162 138.856  1.00  0.00    -0.504 OA
ATOM     19  H   UNL     1     119.156 117.127 138.466  1.00  0.00     0.293 HD
ENDBRANCH  15  18
BRANCH  17  20
ATOM     20  O   UNL     1     119.940 119.246 139.677  1.00  0.00    -0.504 OA
ATOM     21  H   UNL     1     120.370 118.472 139.186  1.00  0.00     0.293 HD
ENDBRANCH  17  20
ENDBRANCH   1  12
BRANCH   2  22
ATOM     22  O   UNL     1     116.439 123.142 138.929  1.00  0.00    -0.502 OA
ATOM     23  H   UNL     1     117.000 122.398 138.533  1.00  0.00     0.293 HD
ENDBRANCH   2  22
BRANCH   6  24
ATOM     24  O   UNL     1     114.664 126.745 142.429  1.00  0.00    -0.507 OA
ATOM     25  H   UNL     1     113.872 127.371 142.423  1.00  0.00     0.293 HD
ENDBRANCH   6  24
BRANCH   8  26
ATOM     26  O   UNL     1     113.660 123.880 146.149  1.00  0.00    -0.508 OA
ATOM     27  H   UNL     1     113.564 122.966 146.577  1.00  0.00     0.293 HD
ENDBRANCH   8  26
TORSDOF 6
ENDMDL
