MODEL 1
REMARK VINA RESULT:    -3.574      0.000      0.000
REMARK INTER + INTRA:         -14.154
REMARK INTER:                  -9.006
REMARK INTRA:                  -5.147
REMARK UNBOUND:                -5.147
REMARK SMILES CCCCCCCCCCCCCCCCCCCCCCCCCCCC(=O)[O-]
REMARK SMILES IDX 15 1 16 2 17 3 18 4 19 5 20 6 21 7 22 8 23 9 24 10 25 11
REMARK SMILES IDX 26 12 27 13 28 14 29 15 30 16 14 17 13 18 12 19 11 20 10 21
REMARK SMILES IDX 9 22 8 23 7 24 6 25 5 26 4 27 3 28 2 29 1 30
REMARK H PARENT
REMARK Flexibility Score: inf
ROOT
ATOM      1  C   UNL     1     -13.248 -76.221  -8.231  1.00  0.00     0.000 C 
ENDROOT
BRANCH   1   2
ATOM      2  C   UNL     1     -14.023 -77.503  -7.876  1.00  0.00     0.000 C 
BRANCH   2   3
ATOM      3  C   UNL     1     -14.905 -77.406  -6.616  1.00  0.00     0.000 C 
BRANCH   3   4
ATOM      4  C   UNL     1     -16.351 -76.941  -6.896  1.00  0.00     0.000 C 
BRANCH   4   5
ATOM      5  C   UNL     1     -16.637 -75.537  -6.339  1.00  0.00     0.000 C 
BRANCH   5   6
ATOM      6  C   UNL     1     -17.067 -74.536  -7.430  1.00  0.00     0.000 C 
BRANCH   6   7
ATOM      7  C   UNL     1     -17.633 -75.178  -8.711  1.00  0.00     0.000 C 
BRANCH   7   8
ATOM      8  C   UNL     1     -17.594 -74.231  -9.923  1.00  0.00     0.000 C 
BRANCH   8   9
ATOM      9  C   UNL     1     -17.185 -72.793  -9.537  1.00  0.00     0.000 C 
BRANCH   9  10
ATOM     10  C   UNL     1     -15.908 -72.302 -10.247  1.00  0.00     0.000 C 
BRANCH  10  11
ATOM     11  C   UNL     1     -16.088 -71.941 -11.735  1.00  0.00     0.000 C 
BRANCH  11  12
ATOM     12  C   UNL     1     -15.359 -70.659 -12.188  1.00  0.00     0.006 C 
BRANCH  12  13
ATOM     13  C   UNL     1     -15.619 -69.429 -11.302  1.00  0.00     0.053 C 
BRANCH  13  14
ATOM     14  C   UNL     1     -14.476 -68.463 -11.330  1.00  0.00     0.041 C 
ATOM     15  O   UNL     1     -13.365 -68.779 -10.826  1.00  0.00    -0.550 OA
ATOM     16  O   UNL     1     -14.626 -67.222 -11.940  1.00  0.00    -0.550 OA
ENDBRANCH  13  14
ENDBRANCH  12  13
ENDBRANCH  11  12
ENDBRANCH  10  11
ENDBRANCH   9  10
ENDBRANCH   8   9
ENDBRANCH   7   8
ENDBRANCH   6   7
ENDBRANCH   5   6
ENDBRANCH   4   5
ENDBRANCH   3   4
ENDBRANCH   2   3
ENDBRANCH   1   2
BRANCH   1  17
ATOM     17  C   UNL     1     -13.924 -75.306  -9.275  1.00  0.00     0.000 C 
BRANCH  17  18
ATOM     18  C   UNL     1     -14.441 -76.023 -10.534  1.00  0.00     0.000 C 
BRANCH  18  19
ATOM     19  C   UNL     1     -14.241 -75.198 -11.817  1.00  0.00     0.000 C 
BRANCH  19  20
ATOM     20  C   UNL     1     -12.811 -74.638 -11.944  1.00  0.00     0.000 C 
BRANCH  20  21
ATOM     21  C   UNL     1     -12.719 -73.226 -12.556  1.00  0.00     0.000 C 
BRANCH  21  22
ATOM     22  C   UNL     1     -11.871 -72.215 -11.758  1.00  0.00    -0.000 C 
BRANCH  22  23
ATOM     23  C   UNL     1     -12.279 -72.087 -10.276  1.00  0.00    -0.000 C 
BRANCH  23  24
ATOM     24  C   UNL     1     -11.323 -72.830  -9.329  1.00  0.00    -0.000 C 
BRANCH  24  25
ATOM     25  C   UNL     1      -9.937 -72.991  -9.964  1.00  0.00    -0.000 C 
BRANCH  25  26
ATOM     26  C   UNL     1      -8.826 -72.668  -8.955  1.00  0.00    -0.000 C 
BRANCH  26  27
ATOM     27  C   UNL     1      -8.800 -71.181  -8.562  1.00  0.00    -0.000 C 
BRANCH  27  28
ATOM     28  C   UNL     1      -8.583 -70.255  -9.773  1.00  0.00    -0.000 C 
BRANCH  28  29
ATOM     29  C   UNL     1      -9.783 -69.329 -10.027  1.00  0.00    -0.003 C 
ATOM     30  C   UNL     1      -9.925 -68.933 -11.497  1.00  0.00     0.004 C 
ENDBRANCH  28  29
ENDBRANCH  27  28
ENDBRANCH  26  27
ENDBRANCH  25  26
ENDBRANCH  24  25
ENDBRANCH  23  24
ENDBRANCH  22  23
ENDBRANCH  21  22
ENDBRANCH  20  21
ENDBRANCH  19  20
ENDBRANCH  18  19
ENDBRANCH  17  18
ENDBRANCH   1  17
TORSDOF 26
ENDMDL
MODEL 2
REMARK VINA RESULT:    -3.470      9.828     13.632
REMARK INTER + INTRA:         -13.891
REMARK INTER:                  -8.375
REMARK INTRA:                  -5.516
REMARK UNBOUND:                -5.147
REMARK SMILES CCCCCCCCCCCCCCCCCCCCCCCCCCCC(=O)[O-]
REMARK SMILES IDX 15 1 16 2 17 3 18 4 19 5 20 6 21 7 22 8 23 9 24 10 25 11
REMARK SMILES IDX 26 12 27 13 28 14 29 15 30 16 14 17 13 18 12 19 11 20 10 21
REMARK SMILES IDX 9 22 8 23 7 24 6 25 5 26 4 27 3 28 2 29 1 30
REMARK H PARENT
REMARK Flexibility Score: inf
ROOT
ATOM      1  C   UNL     1      -4.614 -65.997  -8.026  1.00  0.00     0.000 C 
ENDROOT
BRANCH   1   2
ATOM      2  C   UNL     1      -4.720 -67.040  -6.899  1.00  0.00     0.000 C 
BRANCH   2   3
ATOM      3  C   UNL     1      -3.726 -66.849  -5.736  1.00  0.00     0.000 C 
BRANCH   3   4
ATOM      4  C   UNL     1      -4.269 -67.306  -4.364  1.00  0.00     0.000 C 
BRANCH   4   5
ATOM      5  C   UNL     1      -4.495 -66.132  -3.398  1.00  0.00     0.000 C 
BRANCH   5   6
ATOM      6  C   UNL     1      -4.115 -64.769  -4.011  1.00  0.00     0.000 C 
BRANCH   6   7
ATOM      7  C   UNL     1      -5.301 -63.819  -4.262  1.00  0.00     0.000 C 
BRANCH   7   8
ATOM      8  C   UNL     1      -4.902 -62.556  -5.044  1.00  0.00     0.000 C 
BRANCH   8   9
ATOM      9  C   UNL     1      -3.408 -62.550  -5.435  1.00  0.00     0.000 C 
BRANCH   9  10
ATOM     10  C   UNL     1      -3.156 -62.169  -6.907  1.00  0.00     0.000 C 
BRANCH  10  11
ATOM     11  C   UNL     1      -2.259 -63.148  -7.690  1.00  0.00     0.000 C 
BRANCH  11  12
ATOM     12  C   UNL     1      -1.585 -64.241  -6.835  1.00  0.00     0.006 C 
BRANCH  12  13
ATOM     13  C   UNL     1      -0.104 -64.490  -7.167  1.00  0.00     0.053 C 
BRANCH  13  14
ATOM     14  C   UNL     1       0.807 -63.598  -6.382  1.00  0.00     0.041 C 
ATOM     15  O   UNL     1       1.647 -62.870  -6.974  1.00  0.00    -0.550 OA
ATOM     16  O   UNL     1       0.709 -63.548  -4.996  1.00  0.00    -0.550 OA
ENDBRANCH  13  14
ENDBRANCH  12  13
ENDBRANCH  11  12
ENDBRANCH  10  11
ENDBRANCH   9  10
ENDBRANCH   8   9
ENDBRANCH   7   8
ENDBRANCH   6   7
ENDBRANCH   5   6
ENDBRANCH   4   5
ENDBRANCH   3   4
ENDBRANCH   2   3
ENDBRANCH   1   2
BRANCH   1  17
ATOM     17  C   UNL     1      -5.552 -64.778  -7.891  1.00  0.00     0.000 C 
BRANCH  17  18
ATOM     18  C   UNL     1      -6.995 -65.108  -7.466  1.00  0.00     0.000 C 
BRANCH  18  19
ATOM     19  C   UNL     1      -7.798 -63.861  -7.060  1.00  0.00     0.000 C 
BRANCH  19  20
ATOM     20  C   UNL     1      -7.582 -62.677  -8.023  1.00  0.00     0.000 C 
BRANCH  20  21
ATOM     21  C   UNL     1      -8.758 -62.393  -8.977  1.00  0.00     0.000 C 
BRANCH  21  22
ATOM     22  C   UNL     1      -8.671 -63.079 -10.355  1.00  0.00    -0.000 C 
BRANCH  22  23
ATOM     23  C   UNL     1      -9.611 -64.292 -10.511  1.00  0.00    -0.000 C 
BRANCH  23  24
ATOM     24  C   UNL     1      -8.853 -65.627 -10.587  1.00  0.00    -0.000 C 
BRANCH  24  25
ATOM     25  C   UNL     1      -7.412 -65.413 -11.064  1.00  0.00    -0.000 C 
BRANCH  25  26
ATOM     26  C   UNL     1      -6.606 -66.719 -10.991  1.00  0.00    -0.000 C 
BRANCH  26  27
ATOM     27  C   UNL     1      -7.331 -67.815 -10.193  1.00  0.00    -0.000 C 
BRANCH  27  28
ATOM     28  C   UNL     1      -6.365 -68.879  -9.641  1.00  0.00    -0.000 C 
BRANCH  28  29
ATOM     29  C   UNL     1      -5.259 -69.246 -10.644  1.00  0.00    -0.003 C 
ATOM     30  C   UNL     1      -3.858 -69.160 -10.038  1.00  0.00     0.004 C 
ENDBRANCH  28  29
ENDBRANCH  27  28
ENDBRANCH  26  27
ENDBRANCH  25  26
ENDBRANCH  24  25
ENDBRANCH  23  24
ENDBRANCH  22  23
ENDBRANCH  21  22
ENDBRANCH  20  21
ENDBRANCH  19  20
ENDBRANCH  18  19
ENDBRANCH  17  18
ENDBRANCH   1  17
TORSDOF 26
ENDMDL
MODEL 3
REMARK VINA RESULT:    -3.391     10.757     14.384
REMARK INTER + INTRA:         -13.692
REMARK INTER:                  -8.404
REMARK INTRA:                  -5.288
REMARK UNBOUND:                -5.147
REMARK SMILES CCCCCCCCCCCCCCCCCCCCCCCCCCCC(=O)[O-]
REMARK SMILES IDX 15 1 16 2 17 3 18 4 19 5 20 6 21 7 22 8 23 9 24 10 25 11
REMARK SMILES IDX 26 12 27 13 28 14 29 15 30 16 14 17 13 18 12 19 11 20 10 21
REMARK SMILES IDX 9 22 8 23 7 24 6 25 5 26 4 27 3 28 2 29 1 30
REMARK H PARENT
REMARK Flexibility Score: inf
ROOT
ATOM      1  C   UNL     1      -9.076 -64.996  -7.697  1.00  0.00     0.000 C 
ENDROOT
BRANCH   1   2
ATOM      2  C   UNL     1      -9.076 -63.799  -6.728  1.00  0.00     0.000 C 
BRANCH   2   3
ATOM      3  C   UNL     1      -7.773 -63.606  -5.928  1.00  0.00     0.000 C 
BRANCH   3   4
ATOM      4  C   UNL     1      -7.230 -62.160  -5.953  1.00  0.00     0.000 C 
BRANCH   4   5
ATOM      5  C   UNL     1      -6.194 -61.938  -7.068  1.00  0.00     0.000 C 
BRANCH   5   6
ATOM      6  C   UNL     1      -6.822 -61.415  -8.375  1.00  0.00     0.000 C 
BRANCH   6   7
ATOM      7  C   UNL     1      -6.039 -61.765  -9.654  1.00  0.00     0.000 C 
BRANCH   7   8
ATOM      8  C   UNL     1      -4.617 -61.177  -9.664  1.00  0.00     0.000 C 
BRANCH   8   9
ATOM      9  C   UNL     1      -3.528 -62.265  -9.783  1.00  0.00     0.000 C 
BRANCH   9  10
ATOM     10  C   UNL     1      -2.636 -62.386  -8.532  1.00  0.00     0.000 C 
BRANCH  10  11
ATOM     11  C   UNL     1      -3.047 -63.496  -7.544  1.00  0.00     0.000 C 
BRANCH  11  12
ATOM     12  C   UNL     1      -1.999 -63.828  -6.462  1.00  0.00     0.006 C 
BRANCH  12  13
ATOM     13  C   UNL     1      -0.732 -62.958  -6.512  1.00  0.00     0.053 C 
BRANCH  13  14
ATOM     14  C   UNL     1       0.492 -63.762  -6.825  1.00  0.00     0.041 C 
ATOM     15  O   UNL     1       0.383 -64.934  -7.275  1.00  0.00    -0.550 OA
ATOM     16  O   UNL     1       1.755 -63.207  -6.650  1.00  0.00    -0.550 OA
ENDBRANCH  13  14
ENDBRANCH  12  13
ENDBRANCH  11  12
ENDBRANCH  10  11
ENDBRANCH   9  10
ENDBRANCH   8   9
ENDBRANCH   7   8
ENDBRANCH   6   7
ENDBRANCH   5   6
ENDBRANCH   4   5
ENDBRANCH   3   4
ENDBRANCH   2   3
ENDBRANCH   1   2
BRANCH   1  17
ATOM     17  C   UNL     1      -8.293 -64.786  -9.010  1.00  0.00     0.000 C 
BRANCH  17  18
ATOM     18  C   UNL     1      -7.170 -65.805  -9.271  1.00  0.00     0.000 C 
BRANCH  18  19
ATOM     19  C   UNL     1      -5.802 -65.335  -8.747  1.00  0.00     0.000 C 
BRANCH  19  20
ATOM     20  C   UNL     1      -5.424 -65.990  -7.404  1.00  0.00     0.000 C 
BRANCH  20  21
ATOM     21  C   UNL     1      -4.680 -67.334  -7.523  1.00  0.00     0.000 C 
BRANCH  21  22
ATOM     22  C   UNL     1      -4.375 -68.041  -6.187  1.00  0.00    -0.000 C 
BRANCH  22  23
ATOM     23  C   UNL     1      -3.656 -67.146  -5.156  1.00  0.00    -0.000 C 
BRANCH  23  24
ATOM     24  C   UNL     1      -4.456 -66.975  -3.855  1.00  0.00    -0.000 C 
BRANCH  24  25
ATOM     25  C   UNL     1      -4.172 -65.614  -3.211  1.00  0.00    -0.000 C 
BRANCH  25  26
ATOM     26  C   UNL     1      -4.660 -64.466  -4.109  1.00  0.00    -0.000 C 
BRANCH  26  27
ATOM     27  C   UNL     1      -4.818 -63.144  -3.340  1.00  0.00    -0.000 C 
BRANCH  27  28
ATOM     28  C   UNL     1      -4.066 -61.979  -4.010  1.00  0.00    -0.000 C 
BRANCH  28  29
ATOM     29  C   UNL     1      -2.941 -61.419  -3.124  1.00  0.00    -0.003 C 
ATOM     30  C   UNL     1      -1.776 -62.395  -2.957  1.00  0.00     0.004 C 
ENDBRANCH  28  29
ENDBRANCH  27  28
ENDBRANCH  26  27
ENDBRANCH  25  26
ENDBRANCH  24  25
ENDBRANCH  23  24
ENDBRANCH  22  23
ENDBRANCH  21  22
ENDBRANCH  20  21
ENDBRANCH  19  20
ENDBRANCH  18  19
ENDBRANCH  17  18
ENDBRANCH   1  17
TORSDOF 26
ENDMDL
MODEL 4
REMARK VINA RESULT:    -3.375     14.049     17.739
REMARK INTER + INTRA:         -13.651
REMARK INTER:                  -7.919
REMARK INTRA:                  -5.732
REMARK UNBOUND:                -5.147
REMARK SMILES CCCCCCCCCCCCCCCCCCCCCCCCCCCC(=O)[O-]
REMARK SMILES IDX 15 1 16 2 17 3 18 4 19 5 20 6 21 7 22 8 23 9 24 10 25 11
REMARK SMILES IDX 26 12 27 13 28 14 29 15 30 16 14 17 13 18 12 19 11 20 10 21
REMARK SMILES IDX 9 22 8 23 7 24 6 25 5 26 4 27 3 28 2 29 1 30
REMARK H PARENT
REMARK Flexibility Score: inf
ROOT
ATOM      1  C   UNL     1      -3.689 -66.430   2.080  1.00  0.00     0.000 C 
ENDROOT
BRANCH   1   2
ATOM      2  C   UNL     1      -5.046 -65.970   2.643  1.00  0.00     0.000 C 
BRANCH   2   3
ATOM      3  C   UNL     1      -5.685 -64.773   1.912  1.00  0.00     0.000 C 
BRANCH   3   4
ATOM      4  C   UNL     1      -4.674 -63.894   1.144  1.00  0.00     0.000 C 
BRANCH   4   5
ATOM      5  C   UNL     1      -5.214 -63.428  -0.219  1.00  0.00     0.000 C 
BRANCH   5   6
ATOM      6  C   UNL     1      -5.595 -64.600  -1.146  1.00  0.00     0.000 C 
BRANCH   6   7
ATOM      7  C   UNL     1      -7.060 -64.600  -1.621  1.00  0.00     0.000 C 
BRANCH   7   8
ATOM      8  C   UNL     1      -7.888 -63.460  -1.005  1.00  0.00     0.000 C 
BRANCH   8   9
ATOM      9  C   UNL     1      -9.018 -63.977  -0.089  1.00  0.00     0.000 C 
BRANCH   9  10
ATOM     10  C   UNL     1      -9.034 -65.510   0.067  1.00  0.00     0.000 C 
BRANCH  10  11
ATOM     11  C   UNL     1      -9.171 -66.017   1.516  1.00  0.00     0.000 C 
BRANCH  11  12
ATOM     12  C   UNL     1      -9.010 -64.934   2.604  1.00  0.00     0.006 C 
BRANCH  12  13
ATOM     13  C   UNL     1      -8.692 -65.479   4.006  1.00  0.00     0.053 C 
BRANCH  13  14
ATOM     14  C   UNL     1      -9.913 -66.004   4.698  1.00  0.00     0.041 C 
ATOM     15  O   UNL     1      -9.921 -67.171   5.170  1.00  0.00    -0.550 OA
ATOM     16  O   UNL     1     -11.031 -65.192   4.848  1.00  0.00    -0.550 OA
ENDBRANCH  13  14
ENDBRANCH  12  13
ENDBRANCH  11  12
ENDBRANCH  10  11
ENDBRANCH   9  10
ENDBRANCH   8   9
ENDBRANCH   7   8
ENDBRANCH   6   7
ENDBRANCH   5   6
ENDBRANCH   4   5
ENDBRANCH   3   4
ENDBRANCH   2   3
ENDBRANCH   1   2
BRANCH   1  17
ATOM     17  C   UNL     1      -2.468 -66.147   2.981  1.00  0.00     0.000 C 
BRANCH  17  18
ATOM     18  C   UNL     1      -2.757 -66.153   4.493  1.00  0.00     0.000 C 
BRANCH  18  19
ATOM     19  C   UNL     1      -2.448 -64.804   5.165  1.00  0.00     0.000 C 
BRANCH  19  20
ATOM     20  C   UNL     1      -2.750 -63.602   4.250  1.00  0.00     0.000 C 
BRANCH  20  21
ATOM     21  C   UNL     1      -3.953 -62.742   4.683  1.00  0.00     0.000 C 
BRANCH  21  22
ATOM     22  C   UNL     1      -4.915 -63.409   5.687  1.00  0.00    -0.000 C 
BRANCH  22  23
ATOM     23  C   UNL     1      -6.395 -63.023   5.487  1.00  0.00    -0.000 C 
BRANCH  23  24
ATOM     24  C   UNL     1      -6.596 -62.003   4.356  1.00  0.00    -0.000 C 
BRANCH  24  25
ATOM     25  C   UNL     1      -8.087 -61.755   4.100  1.00  0.00    -0.000 C 
BRANCH  25  26
ATOM     26  C   UNL     1      -8.336 -61.336   2.643  1.00  0.00    -0.000 C 
BRANCH  26  27
ATOM     27  C   UNL     1      -7.068 -60.794   1.962  1.00  0.00    -0.000 C 
BRANCH  27  28
ATOM     28  C   UNL     1      -7.358 -60.180   0.580  1.00  0.00    -0.000 C 
BRANCH  28  29
ATOM     29  C   UNL     1      -6.114 -60.151  -0.323  1.00  0.00    -0.003 C 
ATOM     30  C   UNL     1      -6.462 -60.064  -1.809  1.00  0.00     0.004 C 
ENDBRANCH  28  29
ENDBRANCH  27  28
ENDBRANCH  26  27
ENDBRANCH  25  26
ENDBRANCH  24  25
ENDBRANCH  23  24
ENDBRANCH  22  23
ENDBRANCH  21  22
ENDBRANCH  20  21
ENDBRANCH  19  20
ENDBRANCH  18  19
ENDBRANCH  17  18
ENDBRANCH   1  17
TORSDOF 26
ENDMDL
MODEL 5
REMARK VINA RESULT:    -3.367     10.683     13.852
REMARK INTER + INTRA:         -13.632
REMARK INTER:                  -8.071
REMARK INTRA:                  -5.561
REMARK UNBOUND:                -5.147
REMARK SMILES CCCCCCCCCCCCCCCCCCCCCCCCCCCC(=O)[O-]
REMARK SMILES IDX 15 1 16 2 17 3 18 4 19 5 20 6 21 7 22 8 23 9 24 10 25 11
REMARK SMILES IDX 26 12 27 13 28 14 29 15 30 16 14 17 13 18 12 19 11 20 10 21
REMARK SMILES IDX 9 22 8 23 7 24 6 25 5 26 4 27 3 28 2 29 1 30
REMARK H PARENT
REMARK Flexibility Score: inf
ROOT
ATOM      1  C   UNL     1      -4.781 -66.411  -6.717  1.00  0.00     0.000 C 
ENDROOT
BRANCH   1   2
ATOM      2  C   UNL     1      -3.738 -66.036  -5.649  1.00  0.00     0.000 C 
BRANCH   2   3
ATOM      3  C   UNL     1      -4.305 -65.809  -4.233  1.00  0.00     0.000 C 
BRANCH   3   4
ATOM      4  C   UNL     1      -3.866 -64.476  -3.588  1.00  0.00     0.000 C 
BRANCH   4   5
ATOM      5  C   UNL     1      -5.025 -63.751  -2.884  1.00  0.00     0.000 C 
BRANCH   5   6
ATOM      6  C   UNL     1      -6.295 -63.665  -3.754  1.00  0.00     0.000 C 
BRANCH   6   7
ATOM      7  C   UNL     1      -6.388 -62.409  -4.640  1.00  0.00     0.000 C 
BRANCH   7   8
ATOM      8  C   UNL     1      -5.920 -62.659  -6.084  1.00  0.00     0.000 C 
BRANCH   8   9
ATOM      9  C   UNL     1      -4.701 -61.792  -6.469  1.00  0.00     0.000 C 
BRANCH   9  10
ATOM     10  C   UNL     1      -3.462 -62.614  -6.875  1.00  0.00     0.000 C 
BRANCH  10  11
ATOM     11  C   UNL     1      -2.342 -61.808  -7.561  1.00  0.00     0.000 C 
BRANCH  11  12
ATOM     12  C   UNL     1      -0.911 -62.311  -7.284  1.00  0.00     0.006 C 
BRANCH  12  13
ATOM     13  C   UNL     1      -0.819 -63.432  -6.235  1.00  0.00     0.053 C 
BRANCH  13  14
ATOM     14  C   UNL     1       0.160 -64.494  -6.629  1.00  0.00     0.041 C 
ATOM     15  O   UNL     1       1.037 -64.882  -5.812  1.00  0.00    -0.550 OA
ATOM     16  O   UNL     1       0.085 -65.079  -7.888  1.00  0.00    -0.550 OA
ENDBRANCH  13  14
ENDBRANCH  12  13
ENDBRANCH  11  12
ENDBRANCH  10  11
ENDBRANCH   9  10
ENDBRANCH   8   9
ENDBRANCH   7   8
ENDBRANCH   6   7
ENDBRANCH   5   6
ENDBRANCH   4   5
ENDBRANCH   3   4
ENDBRANCH   2   3
ENDBRANCH   1   2
BRANCH   1  17
ATOM     17  C   UNL     1      -4.617 -67.814  -7.339  1.00  0.00     0.000 C 
BRANCH  17  18
ATOM     18  C   UNL     1      -5.260 -67.994  -8.726  1.00  0.00     0.000 C 
BRANCH  18  19
ATOM     19  C   UNL     1      -4.236 -68.346  -9.818  1.00  0.00     0.000 C 
BRANCH  19  20
ATOM     20  C   UNL     1      -4.236 -67.333 -10.980  1.00  0.00     0.000 C 
BRANCH  20  21
ATOM     21  C   UNL     1      -2.840 -66.851 -11.420  1.00  0.00     0.000 C 
BRANCH  21  22
ATOM     22  C   UNL     1      -2.218 -65.741 -10.548  1.00  0.00    -0.000 C 
BRANCH  22  23
ATOM     23  C   UNL     1      -3.254 -64.908  -9.764  1.00  0.00    -0.000 C 
BRANCH  23  24
ATOM     24  C   UNL     1      -3.663 -63.622 -10.499  1.00  0.00    -0.000 C 
BRANCH  24  25
ATOM     25  C   UNL     1      -5.188 -63.492 -10.569  1.00  0.00    -0.000 C 
BRANCH  25  26
ATOM     26  C   UNL     1      -5.863 -64.296  -9.448  1.00  0.00    -0.000 C 
BRANCH  26  27
ATOM     27  C   UNL     1      -7.071 -65.106  -9.948  1.00  0.00    -0.000 C 
BRANCH  27  28
ATOM     28  C   UNL     1      -8.121 -65.339  -8.847  1.00  0.00    -0.000 C 
BRANCH  28  29
ATOM     29  C   UNL     1      -8.542 -64.035  -8.151  1.00  0.00    -0.003 C 
ATOM     30  C   UNL     1      -9.173 -64.272  -6.778  1.00  0.00     0.004 C 
ENDBRANCH  28  29
ENDBRANCH  27  28
ENDBRANCH  26  27
ENDBRANCH  25  26
ENDBRANCH  24  25
ENDBRANCH  23  24
ENDBRANCH  22  23
ENDBRANCH  21  22
ENDBRANCH  20  21
ENDBRANCH  19  20
ENDBRANCH  18  19
ENDBRANCH  17  18
ENDBRANCH   1  17
TORSDOF 26
ENDMDL
MODEL 6
REMARK VINA RESULT:    -3.265     10.816     15.144
REMARK INTER + INTRA:         -13.375
REMARK INTER:                  -7.779
REMARK INTRA:                  -5.596
REMARK UNBOUND:                -5.147
REMARK SMILES CCCCCCCCCCCCCCCCCCCCCCCCCCCC(=O)[O-]
REMARK SMILES IDX 15 1 16 2 17 3 18 4 19 5 20 6 21 7 22 8 23 9 24 10 25 11
REMARK SMILES IDX 26 12 27 13 28 14 29 15 30 16 14 17 13 18 12 19 11 20 10 21
REMARK SMILES IDX 9 22 8 23 7 24 6 25 5 26 4 27 3 28 2 29 1 30
REMARK H PARENT
REMARK Flexibility Score: inf
ROOT
ATOM      1  C   UNL     1      -2.798 -61.650  -8.268  1.00  0.00     0.000 C 
ENDROOT
BRANCH   1   2
ATOM      2  C   UNL     1      -3.409 -62.967  -7.755  1.00  0.00     0.000 C 
BRANCH   2   3
ATOM      3  C   UNL     1      -4.330 -62.826  -6.526  1.00  0.00     0.000 C 
BRANCH   3   4
ATOM      4  C   UNL     1      -5.293 -61.621  -6.600  1.00  0.00     0.000 C 
BRANCH   4   5
ATOM      5  C   UNL     1      -6.770 -62.046  -6.619  1.00  0.00     0.000 C 
BRANCH   5   6
ATOM      6  C   UNL     1      -6.955 -63.575  -6.529  1.00  0.00     0.000 C 
BRANCH   6   7
ATOM      7  C   UNL     1      -8.375 -64.075  -6.853  1.00  0.00     0.000 C 
BRANCH   7   8
ATOM      8  C   UNL     1      -8.423 -64.971  -8.103  1.00  0.00     0.000 C 
BRANCH   8   9
ATOM      9  C   UNL     1      -7.201 -64.767  -9.025  1.00  0.00     0.000 C 
BRANCH   9  10
ATOM     10  C   UNL     1      -6.404 -66.059  -9.288  1.00  0.00     0.000 C 
BRANCH  10  11
ATOM     11  C   UNL     1      -5.015 -66.115  -8.622  1.00  0.00     0.000 C 
BRANCH  11  12
ATOM     12  C   UNL     1      -4.891 -67.112  -7.451  1.00  0.00     0.006 C 
BRANCH  12  13
ATOM     13  C   UNL     1      -4.677 -66.459  -6.075  1.00  0.00     0.053 C 
BRANCH  13  14
ATOM     14  C   UNL     1      -3.263 -66.590  -5.602  1.00  0.00     0.041 C 
ATOM     15  O   UNL     1      -2.963 -67.448  -4.730  1.00  0.00    -0.550 OA
ATOM     16  O   UNL     1      -2.269 -65.784  -6.146  1.00  0.00    -0.550 OA
ENDBRANCH  13  14
ENDBRANCH  12  13
ENDBRANCH  11  12
ENDBRANCH  10  11
ENDBRANCH   9  10
ENDBRANCH   8   9
ENDBRANCH   7   8
ENDBRANCH   6   7
ENDBRANCH   5   6
ENDBRANCH   4   5
ENDBRANCH   3   4
ENDBRANCH   2   3
ENDBRANCH   1   2
BRANCH   1  17
ATOM     17  C   UNL     1      -1.461 -61.241  -7.613  1.00  0.00     0.000 C 
BRANCH  17  18
ATOM     18  C   UNL     1      -0.574 -62.411  -7.153  1.00  0.00     0.000 C 
BRANCH  18  19
ATOM     19  C   UNL     1      -0.106 -62.269  -5.695  1.00  0.00     0.000 C 
BRANCH  19  20
ATOM     20  C   UNL     1      -1.167 -62.743  -4.682  1.00  0.00     0.000 C 
BRANCH  20  21
ATOM     21  C   UNL     1      -1.600 -61.682  -3.652  1.00  0.00     0.000 C 
BRANCH  21  22
ATOM     22  C   UNL     1      -2.470 -60.537  -4.209  1.00  0.00    -0.000 C 
BRANCH  22  23
ATOM     23  C   UNL     1      -3.781 -60.310  -3.429  1.00  0.00    -0.000 C 
BRANCH  23  24
ATOM     24  C   UNL     1      -4.302 -61.589  -2.756  1.00  0.00    -0.000 C 
BRANCH  24  25
ATOM     25  C   UNL     1      -5.819 -61.722  -2.930  1.00  0.00    -0.000 C 
BRANCH  25  26
ATOM     26  C   UNL     1      -6.271 -63.178  -2.745  1.00  0.00    -0.000 C 
BRANCH  26  27
ATOM     27  C   UNL     1      -5.274 -64.185  -3.340  1.00  0.00    -0.000 C 
BRANCH  27  28
ATOM     28  C   UNL     1      -4.662 -65.111  -2.274  1.00  0.00    -0.000 C 
BRANCH  28  29
ATOM     29  C   UNL     1      -5.111 -64.744  -0.850  1.00  0.00    -0.003 C 
ATOM     30  C   UNL     1      -3.938 -64.431   0.080  1.00  0.00     0.004 C 
ENDBRANCH  28  29
ENDBRANCH  27  28
ENDBRANCH  26  27
ENDBRANCH  25  26
ENDBRANCH  24  25
ENDBRANCH  23  24
ENDBRANCH  22  23
ENDBRANCH  21  22
ENDBRANCH  20  21
ENDBRANCH  19  20
ENDBRANCH  18  19
ENDBRANCH  17  18
ENDBRANCH   1  17
TORSDOF 26
ENDMDL
MODEL 7
REMARK VINA RESULT:    -3.247     12.001     15.439
REMARK INTER + INTRA:         -13.329
REMARK INTER:                  -8.717
REMARK INTRA:                  -4.613
REMARK UNBOUND:                -5.147
REMARK SMILES CCCCCCCCCCCCCCCCCCCCCCCCCCCC(=O)[O-]
REMARK SMILES IDX 15 1 16 2 17 3 18 4 19 5 20 6 21 7 22 8 23 9 24 10 25 11
REMARK SMILES IDX 26 12 27 13 28 14 29 15 30 16 14 17 13 18 12 19 11 20 10 21
REMARK SMILES IDX 9 22 8 23 7 24 6 25 5 26 4 27 3 28 2 29 1 30
REMARK H PARENT
REMARK Flexibility Score: inf
ROOT
ATOM      1  C   UNL     1      -8.895 -64.295   0.034  1.00  0.00     0.000 C 
ENDROOT
BRANCH   1   2
ATOM      2  C   UNL     1      -8.259 -64.561  -1.343  1.00  0.00     0.000 C 
BRANCH   2   3
ATOM      3  C   UNL     1      -7.406 -63.406  -1.904  1.00  0.00     0.000 C 
BRANCH   3   4
ATOM      4  C   UNL     1      -6.387 -63.843  -2.978  1.00  0.00     0.000 C 
BRANCH   4   5
ATOM      5  C   UNL     1      -4.952 -63.398  -2.647  1.00  0.00     0.000 C 
BRANCH   5   6
ATOM      6  C   UNL     1      -3.930 -64.548  -2.747  1.00  0.00     0.000 C 
BRANCH   6   7
ATOM      7  C   UNL     1      -4.546 -65.955  -2.855  1.00  0.00     0.000 C 
BRANCH   7   8
ATOM      8  C   UNL     1      -4.159 -66.681  -4.155  1.00  0.00     0.000 C 
BRANCH   8   9
ATOM      9  C   UNL     1      -3.971 -65.710  -5.341  1.00  0.00     0.000 C 
BRANCH   9  10
ATOM     10  C   UNL     1      -5.284 -65.365  -6.070  1.00  0.00     0.000 C 
BRANCH  10  11
ATOM     11  C   UNL     1      -5.111 -64.841  -7.510  1.00  0.00     0.000 C 
BRANCH  11  12
ATOM     12  C   UNL     1      -6.364 -64.180  -8.120  1.00  0.00     0.006 C 
BRANCH  12  13
ATOM     13  C   UNL     1      -7.504 -63.928  -7.120  1.00  0.00     0.053 C 
BRANCH  13  14
ATOM     14  C   UNL     1      -7.670 -62.472  -6.809  1.00  0.00     0.041 C 
ATOM     15  O   UNL     1      -7.830 -62.093  -5.618  1.00  0.00    -0.550 OA
ATOM     16  O   UNL     1      -7.618 -61.531  -7.831  1.00  0.00    -0.550 OA
ENDBRANCH  13  14
ENDBRANCH  12  13
ENDBRANCH  11  12
ENDBRANCH  10  11
ENDBRANCH   9  10
ENDBRANCH   8   9
ENDBRANCH   7   8
ENDBRANCH   6   7
ENDBRANCH   5   6
ENDBRANCH   4   5
ENDBRANCH   3   4
ENDBRANCH   2   3
ENDBRANCH   1   2
BRANCH   1  17
ATOM     17  C   UNL     1      -8.769 -65.445   1.055  1.00  0.00     0.000 C 
BRANCH  17  18
ATOM     18  C   UNL     1      -9.024 -65.049   2.521  1.00  0.00     0.000 C 
BRANCH  18  19
ATOM     19  C   UNL     1      -8.607 -66.143   3.517  1.00  0.00     0.000 C 
BRANCH  19  20
ATOM     20  C   UNL     1      -7.450 -65.701   4.435  1.00  0.00     0.000 C 
BRANCH  20  21
ATOM     21  C   UNL     1      -6.509 -66.835   4.885  1.00  0.00     0.000 C 
BRANCH  21  22
ATOM     22  C   UNL     1      -5.091 -66.796   4.279  1.00  0.00    -0.000 C 
BRANCH  22  23
ATOM     23  C   UNL     1      -5.060 -66.419   2.783  1.00  0.00    -0.000 C 
BRANCH  23  24
ATOM     24  C   UNL     1      -3.665 -65.981   2.308  1.00  0.00    -0.000 C 
BRANCH  24  25
ATOM     25  C   UNL     1      -3.752 -65.221   0.980  1.00  0.00    -0.000 C 
BRANCH  25  26
ATOM     26  C   UNL     1      -5.153 -64.625   0.775  1.00  0.00    -0.000 C 
BRANCH  26  27
ATOM     27  C   UNL     1      -5.192 -63.110   1.034  1.00  0.00    -0.000 C 
BRANCH  27  28
ATOM     28  C   UNL     1      -6.247 -62.719   2.085  1.00  0.00    -0.000 C 
BRANCH  28  29
ATOM     29  C   UNL     1      -5.676 -62.699   3.512  1.00  0.00    -0.003 C 
ATOM     30  C   UNL     1      -4.170 -62.433   3.545  1.00  0.00     0.004 C 
ENDBRANCH  28  29
ENDBRANCH  27  28
ENDBRANCH  26  27
ENDBRANCH  25  26
ENDBRANCH  24  25
ENDBRANCH  23  24
ENDBRANCH  22  23
ENDBRANCH  21  22
ENDBRANCH  20  21
ENDBRANCH  19  20
ENDBRANCH  18  19
ENDBRANCH  17  18
ENDBRANCH   1  17
TORSDOF 26
ENDMDL
MODEL 8
REMARK VINA RESULT:    -3.210     10.338     14.740
REMARK INTER + INTRA:         -13.235
REMARK INTER:                  -7.726
REMARK INTRA:                  -5.509
REMARK UNBOUND:                -5.147
REMARK SMILES CCCCCCCCCCCCCCCCCCCCCCCCCCCC(=O)[O-]
REMARK SMILES IDX 15 1 16 2 17 3 18 4 19 5 20 6 21 7 22 8 23 9 24 10 25 11
REMARK SMILES IDX 26 12 27 13 28 14 29 15 30 16 14 17 13 18 12 19 11 20 10 21
REMARK SMILES IDX 9 22 8 23 7 24 6 25 5 26 4 27 3 28 2 29 1 30
REMARK H PARENT
REMARK Flexibility Score: inf
ROOT
ATOM      1  C   UNL     1      -4.014 -65.586  -7.782  1.00  0.00     0.000 C 
ENDROOT
BRANCH   1   2
ATOM      2  C   UNL     1      -4.945 -66.229  -6.738  1.00  0.00     0.000 C 
BRANCH   2   3
ATOM      3  C   UNL     1      -4.308 -67.351  -5.895  1.00  0.00     0.000 C 
BRANCH   3   4
ATOM      4  C   UNL     1      -3.925 -66.919  -4.462  1.00  0.00     0.000 C 
BRANCH   4   5
ATOM      5  C   UNL     1      -4.656 -65.641  -4.016  1.00  0.00     0.000 C 
BRANCH   5   6
ATOM      6  C   UNL     1      -3.933 -64.907  -2.869  1.00  0.00     0.000 C 
BRANCH   6   7
ATOM      7  C   UNL     1      -3.258 -63.583  -3.273  1.00  0.00     0.000 C 
BRANCH   7   8
ATOM      8  C   UNL     1      -4.072 -62.788  -4.309  1.00  0.00     0.000 C 
BRANCH   8   9
ATOM      9  C   UNL     1      -3.826 -61.266  -4.214  1.00  0.00     0.000 C 
BRANCH   9  10
ATOM     10  C   UNL     1      -2.872 -60.726  -5.296  1.00  0.00     0.000 C 
BRANCH  10  11
ATOM     11  C   UNL     1      -1.381 -60.713  -4.903  1.00  0.00     0.000 C 
BRANCH  11  12
ATOM     12  C   UNL     1      -0.459 -61.551  -5.813  1.00  0.00     0.006 C 
BRANCH  12  13
ATOM     13  C   UNL     1      -0.283 -63.013  -5.373  1.00  0.00     0.053 C 
BRANCH  13  14
ATOM     14  C   UNL     1       0.658 -63.762  -6.265  1.00  0.00     0.041 C 
ATOM     15  O   UNL     1       1.276 -63.159  -7.182  1.00  0.00    -0.550 OA
ATOM     16  O   UNL     1       0.877 -65.120  -6.064  1.00  0.00    -0.550 OA
ENDBRANCH  13  14
ENDBRANCH  12  13
ENDBRANCH  11  12
ENDBRANCH  10  11
ENDBRANCH   9  10
ENDBRANCH   8   9
ENDBRANCH   7   8
ENDBRANCH   6   7
ENDBRANCH   5   6
ENDBRANCH   4   5
ENDBRANCH   3   4
ENDBRANCH   2   3
ENDBRANCH   1   2
BRANCH   1  17
ATOM     17  C   UNL     1      -3.010 -64.553  -7.226  1.00  0.00     0.000 C 
BRANCH  17  18
ATOM     18  C   UNL     1      -2.769 -63.328  -8.126  1.00  0.00     0.000 C 
BRANCH  18  19
ATOM     19  C   UNL     1      -4.036 -62.872  -8.868  1.00  0.00     0.000 C 
BRANCH  19  20
ATOM     20  C   UNL     1      -4.776 -61.735  -8.135  1.00  0.00     0.000 C 
BRANCH  20  21
ATOM     21  C   UNL     1      -6.300 -61.925  -8.013  1.00  0.00     0.000 C 
BRANCH  21  22
ATOM     22  C   UNL     1      -6.834 -62.071  -6.573  1.00  0.00    -0.000 C 
BRANCH  22  23
ATOM     23  C   UNL     1      -7.237 -63.513  -6.199  1.00  0.00    -0.000 C 
BRANCH  23  24
ATOM     24  C   UNL     1      -8.575 -63.938  -6.825  1.00  0.00    -0.000 C 
BRANCH  24  25
ATOM     25  C   UNL     1      -8.365 -65.032  -7.877  1.00  0.00    -0.000 C 
BRANCH  25  26
ATOM     26  C   UNL     1      -9.024 -64.649  -9.211  1.00  0.00    -0.000 C 
BRANCH  26  27
ATOM     27  C   UNL     1      -7.994 -64.308 -10.300  1.00  0.00    -0.000 C 
BRANCH  27  28
ATOM     28  C   UNL     1      -6.671 -65.074 -10.122  1.00  0.00    -0.000 C 
BRANCH  28  29
ATOM     29  C   UNL     1      -6.673 -66.428 -10.849  1.00  0.00    -0.003 C 
ATOM     30  C   UNL     1      -6.645 -67.618  -9.888  1.00  0.00     0.004 C 
ENDBRANCH  28  29
ENDBRANCH  27  28
ENDBRANCH  26  27
ENDBRANCH  25  26
ENDBRANCH  24  25
ENDBRANCH  23  24
ENDBRANCH  22  23
ENDBRANCH  21  22
ENDBRANCH  20  21
ENDBRANCH  19  20
ENDBRANCH  18  19
ENDBRANCH  17  18
ENDBRANCH   1  17
TORSDOF 26
ENDMDL
MODEL 9
REMARK VINA RESULT:    -3.203      9.494     13.269
REMARK INTER + INTRA:         -13.220
REMARK INTER:                  -7.956
REMARK INTRA:                  -5.263
REMARK UNBOUND:                -5.147
REMARK SMILES CCCCCCCCCCCCCCCCCCCCCCCCCCCC(=O)[O-]
REMARK SMILES IDX 15 1 16 2 17 3 18 4 19 5 20 6 21 7 22 8 23 9 24 10 25 11
REMARK SMILES IDX 26 12 27 13 28 14 29 15 30 16 14 17 13 18 12 19 11 20 10 21
REMARK SMILES IDX 9 22 8 23 7 24 6 25 5 26 4 27 3 28 2 29 1 30
REMARK H PARENT
REMARK Flexibility Score: inf
ROOT
ATOM      1  C   UNL     1      -3.919 -66.074  -4.050  1.00  0.00     0.000 C 
ENDROOT
BRANCH   1   2
ATOM      2  C   UNL     1      -4.855 -65.549  -2.946  1.00  0.00     0.000 C 
BRANCH   2   3
ATOM      3  C   UNL     1      -5.425 -64.137  -3.189  1.00  0.00     0.000 C 
BRANCH   3   4
ATOM      4  C   UNL     1      -5.473 -63.727  -4.677  1.00  0.00     0.000 C 
BRANCH   4   5
ATOM      5  C   UNL     1      -6.857 -63.209  -5.102  1.00  0.00     0.000 C 
BRANCH   5   6
ATOM      6  C   UNL     1      -7.337 -63.808  -6.440  1.00  0.00     0.000 C 
BRANCH   6   7
ATOM      7  C   UNL     1      -7.942 -62.790  -7.424  1.00  0.00     0.000 C 
BRANCH   7   8
ATOM      8  C   UNL     1      -6.935 -61.714  -7.867  1.00  0.00     0.000 C 
BRANCH   8   9
ATOM      9  C   UNL     1      -5.702 -62.315  -8.577  1.00  0.00     0.000 C 
BRANCH   9  10
ATOM     10  C   UNL     1      -4.410 -61.503  -8.364  1.00  0.00     0.000 C 
BRANCH  10  11
ATOM     11  C   UNL     1      -3.590 -61.898  -7.120  1.00  0.00     0.000 C 
BRANCH  11  12
ATOM     12  C   UNL     1      -2.541 -63.005  -7.354  1.00  0.00     0.006 C 
BRANCH  12  13
ATOM     13  C   UNL     1      -1.258 -62.856  -6.521  1.00  0.00     0.053 C 
BRANCH  13  14
ATOM     14  C   UNL     1      -0.336 -64.024  -6.691  1.00  0.00     0.041 C 
ATOM     15  O   UNL     1      -0.751 -65.195  -6.479  1.00  0.00    -0.550 OA
ATOM     16  O   UNL     1       0.974 -63.823  -7.111  1.00  0.00    -0.550 OA
ENDBRANCH  13  14
ENDBRANCH  12  13
ENDBRANCH  11  12
ENDBRANCH  10  11
ENDBRANCH   9  10
ENDBRANCH   8   9
ENDBRANCH   7   8
ENDBRANCH   6   7
ENDBRANCH   5   6
ENDBRANCH   4   5
ENDBRANCH   3   4
ENDBRANCH   2   3
ENDBRANCH   1   2
BRANCH   1  17
ATOM     17  C   UNL     1      -4.276 -67.467  -4.613  1.00  0.00     0.000 C 
BRANCH  17  18
ATOM     18  C   UNL     1      -4.621 -67.497  -6.113  1.00  0.00     0.000 C 
BRANCH  18  19
ATOM     19  C   UNL     1      -4.110 -66.259  -6.868  1.00  0.00     0.000 C 
BRANCH  19  20
ATOM     20  C   UNL     1      -4.981 -65.909  -8.091  1.00  0.00     0.000 C 
BRANCH  20  21
ATOM     21  C   UNL     1      -4.195 -65.551  -9.367  1.00  0.00     0.000 C 
BRANCH  21  22
ATOM     22  C   UNL     1      -5.052 -65.320 -10.628  1.00  0.00    -0.000 C 
BRANCH  22  23
ATOM     23  C   UNL     1      -6.560 -65.561 -10.412  1.00  0.00    -0.000 C 
BRANCH  23  24
ATOM     24  C   UNL     1      -7.067 -66.828 -11.121  1.00  0.00    -0.000 C 
BRANCH  24  25
ATOM     25  C   UNL     1      -7.429 -67.917 -10.105  1.00  0.00    -0.000 C 
BRANCH  25  26
ATOM     26  C   UNL     1      -6.538 -69.156 -10.283  1.00  0.00    -0.000 C 
BRANCH  26  27
ATOM     27  C   UNL     1      -5.306 -69.134  -9.363  1.00  0.00    -0.000 C 
BRANCH  27  28
ATOM     28  C   UNL     1      -3.983 -69.170 -10.148  1.00  0.00    -0.000 C 
BRANCH  28  29
ATOM     29  C   UNL     1      -4.202 -69.210 -11.669  1.00  0.00    -0.003 C 
ATOM     30  C   UNL     1      -3.462 -68.093 -12.405  1.00  0.00     0.004 C 
ENDBRANCH  28  29
ENDBRANCH  27  28
ENDBRANCH  26  27
ENDBRANCH  25  26
ENDBRANCH  24  25
ENDBRANCH  23  24
ENDBRANCH  22  23
ENDBRANCH  21  22
ENDBRANCH  20  21
ENDBRANCH  19  20
ENDBRANCH  18  19
ENDBRANCH  17  18
ENDBRANCH   1  17
TORSDOF 26
ENDMDL
