MODEL 1
REMARK VINA RESULT:    -7.252      0.000      0.000
REMARK INTER + INTRA:          -9.075
REMARK INTER:                  -8.735
REMARK INTRA:                  -0.339
REMARK UNBOUND:                -0.339
REMARK SMILES O=c1c(O)c(-c2ccc(O)cc2O)oc2cc(O)cc(O)c12
REMARK SMILES IDX 5 1 3 2 2 3 1 4 22 5 20 6 19 7 17 8 16 9 15 10 14 11 6 12
REMARK SMILES IDX 8 13 7 14 9 15 11 16 12 17 10 18 13 20 4 22 21 24 18 26
REMARK H PARENT 10 19 13 21 4 23 21 25 18 27
REMARK Flexibility Score: inf
ROOT
ATOM      1  C   UNL     1     166.110 148.400 148.490  1.00  0.00     0.184 A 
ATOM      2  C   UNL     1     166.296 147.806 147.229  1.00  0.00     0.208 A 
ATOM      3  C   UNL     1     166.066 146.428 147.089  1.00  0.00     0.238 A 
ATOM      4  O   UNL     1     166.227 145.885 145.963  1.00  0.00    -0.285 OA
ATOM      5  C   UNL     1     165.664 145.672 148.209  1.00  0.00     0.111 A 
ATOM      6  C   UNL     1     165.415 144.279 148.154  1.00  0.00     0.134 A 
ATOM      7  C   UNL     1     165.020 143.597 149.315  1.00  0.00     0.093 A 
ATOM      8  C   UNL     1     164.871 144.280 150.527  1.00  0.00     0.123 A 
ATOM      9  C   UNL     1     165.116 145.652 150.586  1.00  0.00     0.094 A 
ATOM     10  C   UNL     1     165.508 146.351 149.441  1.00  0.00     0.146 A 
ATOM     11  O   UNL     1     165.732 147.658 149.526  1.00  0.00    -0.451 OA
ENDROOT
BRANCH   1  12
ATOM     12  C   UNL     1     166.318 149.849 148.695  1.00  0.00     0.063 A 
ATOM     13  C   UNL     1     167.818 151.765 148.662  1.00  0.00     0.047 A 
ATOM     14  C   UNL     1     167.604 150.391 148.528  1.00  0.00     0.020 A 
ATOM     15  C   UNL     1     166.752 152.617 148.958  1.00  0.00     0.119 A 
ATOM     16  C   UNL     1     165.467 152.088 149.124  1.00  0.00     0.093 A 
ATOM     17  C   UNL     1     165.240 150.712 149.002  1.00  0.00     0.130 A 
BRANCH  15  18
ATOM     18  O   UNL     1     166.980 153.986 149.084  1.00  0.00    -0.508 OA
ATOM     19  H   UNL     1     167.699 154.348 149.699  1.00  0.00     0.293 HD
ENDBRANCH  15  18
BRANCH  17  20
ATOM     20  O   UNL     1     163.944 150.235 149.213  1.00  0.00    -0.507 OA
ATOM     21  H   UNL     1     163.603 149.947 150.120  1.00  0.00     0.293 HD
ENDBRANCH  17  20
ENDBRANCH   1  12
BRANCH   2  22
ATOM     22  O   UNL     1     166.718 148.580 146.146  1.00  0.00    -0.502 OA
ATOM     23  H   UNL     1     166.079 149.154 145.609  1.00  0.00     0.293 HD
ENDBRANCH   2  22
BRANCH   6  24
ATOM     24  O   UNL     1     165.556 143.571 146.960  1.00  0.00    -0.507 OA
ATOM     25  H   UNL     1     165.294 142.596 146.885  1.00  0.00     0.293 HD
ENDBRANCH   6  24
BRANCH   8  26
ATOM     26  O   UNL     1     164.480 143.601 151.680  1.00  0.00    -0.508 OA
ATOM     27  H   UNL     1     165.159 143.214 152.324  1.00  0.00     0.293 HD
ENDBRANCH   8  26
TORSDOF 6
ENDMDL
MODEL 2
REMARK VINA RESULT:    -7.193      1.920      2.888
REMARK INTER + INTRA:          -9.004
REMARK INTER:                  -8.663
REMARK INTRA:                  -0.341
REMARK UNBOUND:                -0.339
REMARK SMILES O=c1c(O)c(-c2ccc(O)cc2O)oc2cc(O)cc(O)c12
REMARK SMILES IDX 5 1 3 2 2 3 1 4 22 5 20 6 19 7 17 8 16 9 15 10 14 11 6 12
REMARK SMILES IDX 8 13 7 14 9 15 11 16 12 17 10 18 13 20 4 22 21 24 18 26
REMARK H PARENT 10 19 13 21 4 23 21 25 18 27
REMARK Flexibility Score: inf
ROOT
ATOM      1  C   UNL     1     166.357 145.961 149.447  1.00  0.00     0.184 A 
ATOM      2  C   UNL     1     166.912 144.913 148.693  1.00  0.00     0.208 A 
ATOM      3  C   UNL     1     166.477 143.600 148.934  1.00  0.00     0.238 A 
ATOM      4  O   UNL     1     166.966 142.652 148.262  1.00  0.00    -0.285 OA
ATOM      5  C   UNL     1     165.503 143.361 149.926  1.00  0.00     0.111 A 
ATOM      6  C   UNL     1     165.013 142.069 150.233  1.00  0.00     0.134 A 
ATOM      7  C   UNL     1     164.044 141.913 151.236  1.00  0.00     0.093 A 
ATOM      8  C   UNL     1     163.560 143.023 151.938  1.00  0.00     0.123 A 
ATOM      9  C   UNL     1     164.040 144.298 151.638  1.00  0.00     0.094 A 
ATOM     10  C   UNL     1     165.003 144.476 150.641  1.00  0.00     0.146 A 
ATOM     11  O   UNL     1     165.442 145.701 150.376  1.00  0.00    -0.451 OA
ENDROOT
BRANCH   1  12
ATOM     12  C   UNL     1     166.762 147.366 149.226  1.00  0.00     0.063 A 
ATOM     13  C   UNL     1     168.510 149.058 149.241  1.00  0.00     0.047 A 
ATOM     14  C   UNL     1     168.087 147.752 149.492  1.00  0.00     0.020 A 
ATOM     15  C   UNL     1     167.620 149.996 148.713  1.00  0.00     0.119 A 
ATOM     16  C   UNL     1     166.299 149.623 148.441  1.00  0.00     0.093 A 
ATOM     17  C   UNL     1     165.858 148.319 148.698  1.00  0.00     0.130 A 
BRANCH  15  18
ATOM     18  O   UNL     1     168.058 151.295 148.462  1.00  0.00    -0.508 OA
ATOM     19  H   UNL     1     168.264 151.939 149.217  1.00  0.00     0.293 HD
ENDBRANCH  15  18
BRANCH  17  20
ATOM     20  O   UNL     1     164.521 148.010 148.441  1.00  0.00    -0.507 OA
ATOM     21  H   UNL     1     164.226 147.442 147.658  1.00  0.00     0.293 HD
ENDBRANCH  17  20
ENDBRANCH   1  12
BRANCH   2  22
ATOM     22  O   UNL     1     167.893 145.182 147.735  1.00  0.00    -0.502 OA
ATOM     23  H   UNL     1     168.045 144.582 146.934  1.00  0.00     0.293 HD
ENDBRANCH   2  22
BRANCH   6  24
ATOM     24  O   UNL     1     165.478 140.944 149.551  1.00  0.00    -0.507 OA
ATOM     25  H   UNL     1     166.331 140.469 149.825  1.00  0.00     0.293 HD
ENDBRANCH   6  24
BRANCH   8  26
ATOM     26  O   UNL     1     162.599 142.867 152.935  1.00  0.00    -0.508 OA
ATOM     27  H   UNL     1     161.824 143.512 153.030  1.00  0.00     0.293 HD
ENDBRANCH   8  26
TORSDOF 6
ENDMDL
MODEL 3
REMARK VINA RESULT:    -7.109      1.963      2.564
REMARK INTER + INTRA:          -8.903
REMARK INTER:                  -8.560
REMARK INTRA:                  -0.343
REMARK UNBOUND:                -0.339
REMARK SMILES O=c1c(O)c(-c2ccc(O)cc2O)oc2cc(O)cc(O)c12
REMARK SMILES IDX 5 1 3 2 2 3 1 4 22 5 20 6 19 7 17 8 16 9 15 10 14 11 6 12
REMARK SMILES IDX 8 13 7 14 9 15 11 16 12 17 10 18 13 20 4 22 21 24 18 26
REMARK H PARENT 10 19 13 21 4 23 21 25 18 27
REMARK Flexibility Score: inf
ROOT
ATOM      1  C   UNL     1     167.865 149.227 148.372  1.00  0.00     0.184 A 
ATOM      2  C   UNL     1     168.476 148.633 147.254  1.00  0.00     0.208 A 
ATOM      3  C   UNL     1     168.287 147.261 147.028  1.00  0.00     0.238 A 
ATOM      4  O   UNL     1     168.827 146.717 146.028  1.00  0.00    -0.285 OA
ATOM      5  C   UNL     1     167.500 146.510 147.926  1.00  0.00     0.111 A 
ATOM      6  C   UNL     1     167.262 145.122 147.773  1.00  0.00     0.134 A 
ATOM      7  C   UNL     1     166.469 144.444 148.711  1.00  0.00     0.093 A 
ATOM      8  C   UNL     1     165.911 145.127 149.798  1.00  0.00     0.123 A 
ATOM      9  C   UNL     1     166.143 146.495 149.953  1.00  0.00     0.094 A 
ATOM     10  C   UNL     1     166.928 147.188 149.029  1.00  0.00     0.146 A 
ATOM     11  O   UNL     1     167.131 148.490 149.200  1.00  0.00    -0.451 OA
ENDROOT
BRANCH   1  12
ATOM     12  C   UNL     1     168.012 150.672 148.652  1.00  0.00     0.063 A 
ATOM     13  C   UNL     1     166.999 152.879 148.807  1.00  0.00     0.047 A 
ATOM     14  C   UNL     1     166.902 151.520 148.498  1.00  0.00     0.020 A 
ATOM     15  C   UNL     1     168.201 153.407 149.281  1.00  0.00     0.119 A 
ATOM     16  C   UNL     1     169.312 152.572 149.441  1.00  0.00     0.093 A 
ATOM     17  C   UNL     1     169.232 151.210 149.124  1.00  0.00     0.130 A 
BRANCH  15  18
ATOM     18  O   UNL     1     168.281 154.764 149.590  1.00  0.00    -0.508 OA
ATOM     19  H   UNL     1     169.108 155.308 149.374  1.00  0.00     0.293 HD
ENDBRANCH  15  18
BRANCH  17  20
ATOM     20  O   UNL     1     170.381 150.429 149.269  1.00  0.00    -0.507 OA
ATOM     21  H   UNL     1     171.228 150.592 148.741  1.00  0.00     0.293 HD
ENDBRANCH  17  20
ENDBRANCH   1  12
BRANCH   2  22
ATOM     22  O   UNL     1     169.269 149.401 146.399  1.00  0.00    -0.502 OA
ATOM     23  H   UNL     1     169.268 149.268 145.395  1.00  0.00     0.293 HD
ENDBRANCH   2  22
BRANCH   6  24
ATOM     24  O   UNL     1     167.806 144.415 146.700  1.00  0.00    -0.507 OA
ATOM     25  H   UNL     1     167.260 144.196 145.874  1.00  0.00     0.293 HD
ENDBRANCH   6  24
BRANCH   8  26
ATOM     26  O   UNL     1     165.124 144.453 150.730  1.00  0.00    -0.508 OA
ATOM     27  H   UNL     1     164.337 143.883 150.446  1.00  0.00     0.293 HD
ENDBRANCH   8  26
TORSDOF 6
ENDMDL
MODEL 4
REMARK VINA RESULT:    -7.097      2.263      2.589
REMARK INTER + INTRA:          -8.889
REMARK INTER:                  -8.542
REMARK INTRA:                  -0.346
REMARK UNBOUND:                -0.339
REMARK SMILES O=c1c(O)c(-c2ccc(O)cc2O)oc2cc(O)cc(O)c12
REMARK SMILES IDX 5 1 3 2 2 3 1 4 22 5 20 6 19 7 17 8 16 9 15 10 14 11 6 12
REMARK SMILES IDX 8 13 7 14 9 15 11 16 12 17 10 18 13 20 4 22 21 24 18 26
REMARK H PARENT 10 19 13 21 4 23 21 25 18 27
REMARK Flexibility Score: inf
ROOT
ATOM      1  C   UNL     1     168.421 149.187 148.579  1.00  0.00     0.184 A 
ATOM      2  C   UNL     1     169.232 148.685 147.546  1.00  0.00     0.208 A 
ATOM      3  C   UNL     1     169.210 147.308 147.275  1.00  0.00     0.238 A 
ATOM      4  O   UNL     1     169.930 146.847 146.349  1.00  0.00    -0.285 OA
ATOM      5  C   UNL     1     168.385 146.461 148.043  1.00  0.00     0.111 A 
ATOM      6  C   UNL     1     168.306 145.062 147.837  1.00  0.00     0.134 A 
ATOM      7  C   UNL     1     167.463 144.286 148.646  1.00  0.00     0.093 A 
ATOM      8  C   UNL     1     166.700 144.881 149.658  1.00  0.00     0.123 A 
ATOM      9  C   UNL     1     166.775 146.259 149.865  1.00  0.00     0.094 A 
ATOM     10  C   UNL     1     167.606 147.050 149.068  1.00  0.00     0.146 A 
ATOM     11  O   UNL     1     167.657 148.360 149.286  1.00  0.00    -0.451 OA
ENDROOT
BRANCH   1  12
ATOM     12  C   UNL     1     168.388 150.630 148.899  1.00  0.00     0.063 A 
ATOM     13  C   UNL     1     169.557 152.622 149.665  1.00  0.00     0.047 A 
ATOM     14  C   UNL     1     169.544 151.250 149.405  1.00  0.00     0.020 A 
ATOM     15  C   UNL     1     168.421 153.395 149.416  1.00  0.00     0.119 A 
ATOM     16  C   UNL     1     167.266 152.789 148.910  1.00  0.00     0.093 A 
ATOM     17  C   UNL     1     167.235 151.412 148.655  1.00  0.00     0.130 A 
BRANCH  15  18
ATOM     18  O   UNL     1     168.451 154.764 149.676  1.00  0.00    -0.508 OA
ATOM     19  H   UNL     1     167.953 155.424 149.090  1.00  0.00     0.293 HD
ENDBRANCH  15  18
BRANCH  17  20
ATOM     20  O   UNL     1     166.045 150.854 148.184  1.00  0.00    -0.507 OA
ATOM     21  H   UNL     1     165.853 149.861 148.211  1.00  0.00     0.293 HD
ENDBRANCH  17  20
ENDBRANCH   1  12
BRANCH   2  22
ATOM     22  O   UNL     1     170.055 149.549 146.820  1.00  0.00    -0.502 OA
ATOM     23  H   UNL     1     169.914 149.728 145.833  1.00  0.00     0.293 HD
ENDBRANCH   2  22
BRANCH   6  24
ATOM     24  O   UNL     1     169.055 144.440 146.837  1.00  0.00    -0.507 OA
ATOM     25  H   UNL     1     169.755 144.944 146.305  1.00  0.00     0.293 HD
ENDBRANCH   6  24
BRANCH   8  26
ATOM     26  O   UNL     1     165.863 144.109 150.462  1.00  0.00    -0.508 OA
ATOM     27  H   UNL     1     164.857 144.122 150.347  1.00  0.00     0.293 HD
ENDBRANCH   8  26
TORSDOF 6
ENDMDL
MODEL 5
REMARK VINA RESULT:    -6.893      2.079      6.932
REMARK INTER + INTRA:          -8.643
REMARK INTER:                  -8.268
REMARK INTRA:                  -0.375
REMARK UNBOUND:                -0.339
REMARK SMILES O=c1c(O)c(-c2ccc(O)cc2O)oc2cc(O)cc(O)c12
REMARK SMILES IDX 5 1 3 2 2 3 1 4 22 5 20 6 19 7 17 8 16 9 15 10 14 11 6 12
REMARK SMILES IDX 8 13 7 14 9 15 11 16 12 17 10 18 13 20 4 22 21 24 18 26
REMARK H PARENT 10 19 13 21 4 23 21 25 18 27
REMARK Flexibility Score: inf
ROOT
ATOM      1  C   UNL     1     166.884 148.332 148.514  1.00  0.00     0.184 A 
ATOM      2  C   UNL     1     166.069 149.475 148.601  1.00  0.00     0.208 A 
ATOM      3  C   UNL     1     166.650 150.738 148.414  1.00  0.00     0.238 A 
ATOM      4  O   UNL     1     165.929 151.769 148.487  1.00  0.00    -0.285 OA
ATOM      5  C   UNL     1     168.032 150.836 148.152  1.00  0.00     0.111 A 
ATOM      6  C   UNL     1     168.697 152.071 147.954  1.00  0.00     0.134 A 
ATOM      7  C   UNL     1     170.077 152.086 147.700  1.00  0.00     0.093 A 
ATOM      8  C   UNL     1     170.803 150.890 147.642  1.00  0.00     0.123 A 
ATOM      9  C   UNL     1     170.153 149.671 147.837  1.00  0.00     0.094 A 
ATOM     10  C   UNL     1     168.779 149.635 148.088  1.00  0.00     0.146 A 
ATOM     11  O   UNL     1     168.185 148.460 148.268  1.00  0.00    -0.451 OA
ENDROOT
BRANCH   1  12
ATOM     12  C   UNL     1     166.326 146.974 148.684  1.00  0.00     0.063 A 
ATOM     13  C   UNL     1     165.495 145.232 150.165  1.00  0.00     0.047 A 
ATOM     14  C   UNL     1     166.073 146.490 149.979  1.00  0.00     0.020 A 
ATOM     15  C   UNL     1     165.156 144.444 149.064  1.00  0.00     0.119 A 
ATOM     16  C   UNL     1     165.401 144.917 147.770  1.00  0.00     0.093 A 
ATOM     17  C   UNL     1     165.989 146.172 147.569  1.00  0.00     0.130 A 
BRANCH  15  18
ATOM     18  O   UNL     1     164.575 143.193 149.266  1.00  0.00    -0.508 OA
ATOM     19  H   UNL     1     164.244 142.632 148.490  1.00  0.00     0.293 HD
ENDBRANCH  15  18
BRANCH  17  20
ATOM     20  O   UNL     1     166.243 146.579 146.257  1.00  0.00    -0.507 OA
ATOM     21  H   UNL     1     166.863 146.079 145.635  1.00  0.00     0.293 HD
ENDBRANCH  17  20
ENDBRANCH   1  12
BRANCH   2  22
ATOM     22  O   UNL     1     164.708 149.343 148.886  1.00  0.00    -0.502 OA
ATOM     23  H   UNL     1     164.323 148.509 149.314  1.00  0.00     0.293 HD
ENDBRANCH   2  22
BRANCH   6  24
ATOM     24  O   UNL     1     167.999 153.278 148.007  1.00  0.00    -0.507 OA
ATOM     25  H   UNL     1     168.449 154.163 147.801  1.00  0.00     0.293 HD
ENDBRANCH   6  24
BRANCH   8  26
ATOM     26  O   UNL     1     172.174 150.905 147.391  1.00  0.00    -0.508 OA
ATOM     27  H   UNL     1     172.649 151.749 147.094  1.00  0.00     0.293 HD
ENDBRANCH   8  26
TORSDOF 6
ENDMDL
MODEL 6
REMARK VINA RESULT:    -6.874     10.150     12.173
REMARK INTER + INTRA:          -8.620
REMARK INTER:                  -8.239
REMARK INTRA:                  -0.381
REMARK UNBOUND:                -0.339
REMARK SMILES O=c1c(O)c(-c2ccc(O)cc2O)oc2cc(O)cc(O)c12
REMARK SMILES IDX 5 1 3 2 2 3 1 4 22 5 20 6 19 7 17 8 16 9 15 10 14 11 6 12
REMARK SMILES IDX 8 13 7 14 9 15 11 16 12 17 10 18 13 20 4 22 21 24 18 26
REMARK H PARENT 10 19 13 21 4 23 21 25 18 27
REMARK Flexibility Score: inf
ROOT
ATOM      1  C   UNL     1     173.254 144.987 155.318  1.00  0.00     0.184 A 
ATOM      2  C   UNL     1     174.422 145.766 155.403  1.00  0.00     0.208 A 
ATOM      3  C   UNL     1     174.488 146.786 156.365  1.00  0.00     0.238 A 
ATOM      4  O   UNL     1     175.531 147.489 156.453  1.00  0.00    -0.285 OA
ATOM      5  C   UNL     1     173.387 147.011 157.217  1.00  0.00     0.111 A 
ATOM      6  C   UNL     1     173.371 148.020 158.211  1.00  0.00     0.134 A 
ATOM      7  C   UNL     1     172.234 148.183 159.018  1.00  0.00     0.093 A 
ATOM      8  C   UNL     1     171.115 147.360 158.848  1.00  0.00     0.123 A 
ATOM      9  C   UNL     1     171.127 146.365 157.870  1.00  0.00     0.094 A 
ATOM     10  C   UNL     1     172.249 146.184 157.057  1.00  0.00     0.146 A 
ATOM     11  O   UNL     1     172.233 145.228 156.135  1.00  0.00    -0.451 OA
ENDROOT
BRANCH   1  12
ATOM     12  C   UNL     1     173.133 143.888 154.337  1.00  0.00     0.063 A 
ATOM     13  C   UNL     1     172.399 143.118 152.149  1.00  0.00     0.047 A 
ATOM     14  C   UNL     1     172.480 144.123 153.115  1.00  0.00     0.020 A 
ATOM     15  C   UNL     1     172.974 141.868 152.385  1.00  0.00     0.119 A 
ATOM     16  C   UNL     1     173.629 141.623 153.597  1.00  0.00     0.093 A 
ATOM     17  C   UNL     1     173.709 142.619 154.579  1.00  0.00     0.130 A 
BRANCH  15  18
ATOM     18  O   UNL     1     172.890 140.877 151.409  1.00  0.00    -0.508 OA
ATOM     19  H   UNL     1     173.663 140.249 151.225  1.00  0.00     0.293 HD
ENDBRANCH  15  18
BRANCH  17  20
ATOM     20  O   UNL     1     174.343 142.308 155.784  1.00  0.00    -0.507 OA
ATOM     21  H   UNL     1     175.273 141.913 155.832  1.00  0.00     0.293 HD
ENDBRANCH  17  20
ENDBRANCH   1  12
BRANCH   2  22
ATOM     22  O   UNL     1     175.485 145.531 154.528  1.00  0.00    -0.502 OA
ATOM     23  H   UNL     1     175.362 145.049 153.646  1.00  0.00     0.293 HD
ENDBRANCH   2  22
BRANCH   6  24
ATOM     24  O   UNL     1     174.471 148.856 158.403  1.00  0.00    -0.507 OA
ATOM     25  H   UNL     1     174.702 149.232 159.315  1.00  0.00     0.293 HD
ENDBRANCH   6  24
BRANCH   8  26
ATOM     26  O   UNL     1     169.986 147.523 159.649  1.00  0.00    -0.508 OA
ATOM     27  H   UNL     1     169.674 146.796 160.280  1.00  0.00     0.293 HD
ENDBRANCH   8  26
TORSDOF 6
ENDMDL
MODEL 7
REMARK VINA RESULT:    -6.700      2.532      3.073
REMARK INTER + INTRA:          -8.411
REMARK INTER:                  -8.267
REMARK INTRA:                  -0.144
REMARK UNBOUND:                -0.339
REMARK SMILES O=c1c(O)c(-c2ccc(O)cc2O)oc2cc(O)cc(O)c12
REMARK SMILES IDX 5 1 3 2 2 3 1 4 22 5 20 6 19 7 17 8 16 9 15 10 14 11 6 12
REMARK SMILES IDX 8 13 7 14 9 15 11 16 12 17 10 18 13 20 4 22 21 24 18 26
REMARK H PARENT 10 19 13 21 4 23 21 25 18 27
REMARK Flexibility Score: inf
ROOT
ATOM      1  C   UNL     1     167.961 149.054 148.237  1.00  0.00     0.184 A 
ATOM      2  C   UNL     1     167.200 148.638 147.131  1.00  0.00     0.208 A 
ATOM      3  C   UNL     1     167.082 147.265 146.867  1.00  0.00     0.238 A 
ATOM      4  O   UNL     1     166.399 146.879 145.880  1.00  0.00    -0.285 OA
ATOM      5  C   UNL     1     167.732 146.337 147.707  1.00  0.00     0.111 A 
ATOM      6  C   UNL     1     167.668 144.936 147.509  1.00  0.00     0.134 A 
ATOM      7  C   UNL     1     168.346 144.077 148.387  1.00  0.00     0.093 A 
ATOM      8  C   UNL     1     169.087 144.593 149.457  1.00  0.00     0.123 A 
ATOM      9  C   UNL     1     169.154 145.972 149.656  1.00  0.00     0.094 A 
ATOM     10  C   UNL     1     168.484 146.844 148.793  1.00  0.00     0.146 A 
ATOM     11  O   UNL     1     168.564 148.153 149.007  1.00  0.00    -0.451 OA
ENDROOT
BRANCH   1  12
ATOM     12  C   UNL     1     168.106 150.486 148.576  1.00  0.00     0.063 A 
ATOM     13  C   UNL     1     167.066 152.650 148.969  1.00  0.00     0.047 A 
ATOM     14  C   UNL     1     166.966 151.307 148.599  1.00  0.00     0.020 A 
ATOM     15  C   UNL     1     168.303 153.190 149.328  1.00  0.00     0.119 A 
ATOM     16  C   UNL     1     169.445 152.381 149.311  1.00  0.00     0.093 A 
ATOM     17  C   UNL     1     169.360 151.035 148.932  1.00  0.00     0.130 A 
BRANCH  15  18
ATOM     18  O   UNL     1     168.387 154.530 149.700  1.00  0.00    -0.508 OA
ATOM     19  H   UNL     1     167.896 154.886 150.512  1.00  0.00     0.293 HD
ENDBRANCH  15  18
BRANCH  17  20
ATOM     20  O   UNL     1     170.536 150.283 148.899  1.00  0.00    -0.507 OA
ATOM     21  H   UNL     1     171.241 150.329 149.623  1.00  0.00     0.293 HD
ENDBRANCH  17  20
ENDBRANCH   1  12
BRANCH   2  22
ATOM     22  O   UNL     1     166.588 149.585 146.306  1.00  0.00    -0.502 OA
ATOM     23  H   UNL     1     165.582 149.639 146.198  1.00  0.00     0.293 HD
ENDBRANCH   2  22
BRANCH   6  24
ATOM     24  O   UNL     1     166.938 144.393 146.451  1.00  0.00    -0.507 OA
ATOM     25  H   UNL     1     166.200 144.913 145.991  1.00  0.00     0.293 HD
ENDBRANCH   6  24
BRANCH   8  26
ATOM     26  O   UNL     1     169.761 143.739 150.329  1.00  0.00    -0.508 OA
ATOM     27  H   UNL     1     170.668 143.353 150.097  1.00  0.00     0.293 HD
ENDBRANCH   8  26
TORSDOF 6
ENDMDL
MODEL 8
REMARK VINA RESULT:    -6.683      2.072      6.865
REMARK INTER + INTRA:          -8.390
REMARK INTER:                  -7.991
REMARK INTRA:                  -0.399
REMARK UNBOUND:                -0.339
REMARK SMILES O=c1c(O)c(-c2ccc(O)cc2O)oc2cc(O)cc(O)c12
REMARK SMILES IDX 5 1 3 2 2 3 1 4 22 5 20 6 19 7 17 8 16 9 15 10 14 11 6 12
REMARK SMILES IDX 8 13 7 14 9 15 11 16 12 17 10 18 13 20 4 22 21 24 18 26
REMARK H PARENT 10 19 13 21 4 23 21 25 18 27
REMARK Flexibility Score: inf
ROOT
ATOM      1  C   UNL     1     167.592 148.384 148.387  1.00  0.00     0.184 A 
ATOM      2  C   UNL     1     168.920 148.390 147.926  1.00  0.00     0.208 A 
ATOM      3  C   UNL     1     169.575 149.620 147.762  1.00  0.00     0.238 A 
ATOM      4  O   UNL     1     170.767 149.638 147.352  1.00  0.00    -0.285 OA
ATOM      5  C   UNL     1     168.890 150.817 148.053  1.00  0.00     0.111 A 
ATOM      6  C   UNL     1     169.475 152.099 147.912  1.00  0.00     0.134 A 
ATOM      7  C   UNL     1     168.726 153.244 148.220  1.00  0.00     0.093 A 
ATOM      8  C   UNL     1     167.403 153.132 148.665  1.00  0.00     0.123 A 
ATOM      9  C   UNL     1     166.822 151.872 148.805  1.00  0.00     0.094 A 
ATOM     10  C   UNL     1     167.552 150.718 148.506  1.00  0.00     0.146 A 
ATOM     11  O   UNL     1     166.974 149.531 148.650  1.00  0.00    -0.451 OA
ENDROOT
BRANCH   1  12
ATOM     12  C   UNL     1     166.856 147.118 148.597  1.00  0.00     0.063 A 
ATOM     13  C   UNL     1     166.039 145.412 150.127  1.00  0.00     0.047 A 
ATOM     14  C   UNL     1     166.773 146.576 149.891  1.00  0.00     0.020 A 
ATOM     15  C   UNL     1     165.372 144.777 149.077  1.00  0.00     0.119 A 
ATOM     16  C   UNL     1     165.446 145.309 147.785  1.00  0.00     0.093 A 
ATOM     17  C   UNL     1     166.187 146.470 147.532  1.00  0.00     0.130 A 
BRANCH  15  18
ATOM     18  O   UNL     1     164.639 143.619 149.329  1.00  0.00    -0.508 OA
ATOM     19  H   UNL     1     164.188 143.105 148.581  1.00  0.00     0.293 HD
ENDBRANCH  15  18
BRANCH  17  20
ATOM     20  O   UNL     1     166.256 146.937 146.218  1.00  0.00    -0.507 OA
ATOM     21  H   UNL     1     165.508 146.813 145.549  1.00  0.00     0.293 HD
ENDBRANCH  17  20
ENDBRANCH   1  12
BRANCH   2  22
ATOM     22  O   UNL     1     169.561 147.186 147.623  1.00  0.00    -0.502 OA
ATOM     23  H   UNL     1     170.501 146.980 147.939  1.00  0.00     0.293 HD
ENDBRANCH   2  22
BRANCH   6  24
ATOM     24  O   UNL     1     170.791 152.242 147.470  1.00  0.00    -0.507 OA
ATOM     25  H   UNL     1     171.350 153.052 147.713  1.00  0.00     0.293 HD
ENDBRANCH   6  24
BRANCH   8  26
ATOM     26  O   UNL     1     166.659 154.271 148.970  1.00  0.00    -0.508 OA
ATOM     27  H   UNL     1     166.937 154.902 149.711  1.00  0.00     0.293 HD
ENDBRANCH   8  26
TORSDOF 6
ENDMDL
MODEL 9
REMARK VINA RESULT:    -6.661      2.714      6.998
REMARK INTER + INTRA:          -8.363
REMARK INTER:                  -8.122
REMARK INTRA:                  -0.241
REMARK UNBOUND:                -0.339
REMARK SMILES O=c1c(O)c(-c2ccc(O)cc2O)oc2cc(O)cc(O)c12
REMARK SMILES IDX 5 1 3 2 2 3 1 4 22 5 20 6 19 7 17 8 16 9 15 10 14 11 6 12
REMARK SMILES IDX 8 13 7 14 9 15 11 16 12 17 10 18 13 20 4 22 21 24 18 26
REMARK H PARENT 10 19 13 21 4 23 21 25 18 27
REMARK Flexibility Score: inf
ROOT
ATOM      1  C   UNL     1     166.693 144.698 149.483  1.00  0.00     0.184 A 
ATOM      2  C   UNL     1     168.084 144.532 149.598  1.00  0.00     0.208 A 
ATOM      3  C   UNL     1     168.931 145.475 148.996  1.00  0.00     0.238 A 
ATOM      4  O   UNL     1     170.180 145.339 149.094  1.00  0.00    -0.285 OA
ATOM      5  C   UNL     1     168.373 146.559 148.287  1.00  0.00     0.111 A 
ATOM      6  C   UNL     1     169.156 147.551 147.648  1.00  0.00     0.134 A 
ATOM      7  C   UNL     1     168.525 148.598 146.959  1.00  0.00     0.093 A 
ATOM      8  C   UNL     1     167.128 148.670 146.895  1.00  0.00     0.123 A 
ATOM      9  C   UNL     1     166.353 147.694 147.522  1.00  0.00     0.094 A 
ATOM     10  C   UNL     1     166.962 146.644 148.216  1.00  0.00     0.146 A 
ATOM     11  O   UNL     1     166.199 145.730 148.805  1.00  0.00    -0.451 OA
ENDROOT
BRANCH   1  12
ATOM     12  C   UNL     1     165.750 143.748 150.111  1.00  0.00     0.063 A 
ATOM     13  C   UNL     1     165.011 141.452 150.435  1.00  0.00     0.047 A 
ATOM     14  C   UNL     1     165.853 142.378 149.814  1.00  0.00     0.020 A 
ATOM     15  C   UNL     1     164.061 141.879 151.365  1.00  0.00     0.119 A 
ATOM     16  C   UNL     1     163.952 143.241 151.670  1.00  0.00     0.093 A 
ATOM     17  C   UNL     1     164.782 144.181 151.047  1.00  0.00     0.130 A 
BRANCH  15  18
ATOM     18  O   UNL     1     163.232 140.944 151.980  1.00  0.00    -0.508 OA
ATOM     19  H   UNL     1     162.379 140.622 151.538  1.00  0.00     0.293 HD
ENDBRANCH  15  18
BRANCH  17  20
ATOM     20  O   UNL     1     164.606 145.529 151.363  1.00  0.00    -0.507 OA
ATOM     21  H   UNL     1     163.706 145.929 151.594  1.00  0.00     0.293 HD
ENDBRANCH  17  20
ENDBRANCH   1  12
BRANCH   2  22
ATOM     22  O   UNL     1     168.603 143.434 150.287  1.00  0.00    -0.502 OA
ATOM     23  H   UNL     1     169.041 143.524 151.196  1.00  0.00     0.293 HD
ENDBRANCH   2  22
BRANCH   6  24
ATOM     24  O   UNL     1     170.550 147.506 147.694  1.00  0.00    -0.507 OA
ATOM     25  H   UNL     1     171.107 148.347 147.785  1.00  0.00     0.293 HD
ENDBRANCH   6  24
BRANCH   8  26
ATOM     26  O   UNL     1     166.502 149.709 146.209  1.00  0.00    -0.508 OA
ATOM     27  H   UNL     1     166.960 150.191 145.445  1.00  0.00     0.293 HD
ENDBRANCH   8  26
TORSDOF 6
ENDMDL
