MODEL 1
REMARK VINA RESULT:    -7.373      0.000      0.000
REMARK INTER + INTRA:          -7.588
REMARK INTER:                  -7.588
REMARK INTRA:                   0.000
REMARK UNBOUND:                 0.000
REMARK SMILES CC1(C)CC[C@]2(C)CC[C@]3(C)C(=CC[C@@H]4[C@]5(C)CC[C@H](O)C(C)(C)[C@H]5CC[C@@]43C)[C@H]2C1
REMARK SMILES IDX 1 1 2 2 4 3 5 4 6 5 8 6 9 7 10 8 12 9 13 10 14 11 15 12
REMARK SMILES IDX 28 13 27 14 26 15 25 16 16 17 18 18 19 19 20 20 22 21 23 22
REMARK SMILES IDX 24 23 17 24 29 25 30 26 31 27 11 28 7 29 3 30 21 31
REMARK H PARENT 21 32
REMARK Flexibility Score: inf
ROOT
ATOM      1  C   UNL     1      13.994 -15.678  32.718  1.00  0.00     0.011 C 
ATOM      2  C   UNL     1      13.336 -15.895  31.339  1.00  0.00    -0.035 C 
ATOM      3  C   UNL     1      11.984 -15.141  31.315  1.00  0.00     0.007 C 
ATOM      4  C   UNL     1      11.366 -15.061  29.911  1.00  0.00     0.008 C 
ATOM      5  C   UNL     1      12.330 -14.466  28.847  1.00  0.00    -0.026 C 
ATOM      6  C   UNL     1      11.664 -14.640  27.465  1.00  0.00     0.008 C 
ATOM      7  C   UNL     1      12.526 -14.115  26.310  1.00  0.00     0.012 C 
ATOM      8  C   UNL     1      14.018 -14.632  26.263  1.00  0.00    -0.006 C 
ATOM      9  C   UNL     1      14.583 -14.782  27.688  1.00  0.00    -0.064 C 
ATOM     10  C   UNL     1      15.918 -14.751  27.861  1.00  0.00    -0.027 C 
ATOM     11  C   UNL     1      16.914 -14.734  26.744  1.00  0.00     0.032 C 
ATOM     12  C   UNL     1      16.447 -14.213  25.338  1.00  0.00     0.006 C 
ATOM     13  C   UNL     1      14.960 -13.644  25.386  1.00  0.00    -0.020 C 
ATOM     14  C   UNL     1      15.013 -12.206  26.013  1.00  0.00     0.008 C 
ATOM     15  C   UNL     1      16.066 -11.261  25.406  1.00  0.00     0.005 C 
ATOM     16  C   UNL     1      17.492 -11.864  25.425  1.00  0.00     0.003 C 
ATOM     17  C   UNL     1      17.548 -13.253  24.681  1.00  0.00    -0.025 C 
ATOM     18  C   UNL     1      18.991 -13.905  24.796  1.00  0.00     0.010 C 
ATOM     19  C   UNL     1      20.070 -12.954  25.332  1.00  0.00     0.033 C 
ATOM     20  C   UNL     1      19.969 -11.586  24.654  1.00  0.00     0.120 C 
ATOM     21  C   UNL     1      18.648 -10.832  25.061  1.00  0.00    -0.006 C 
ATOM     22  C   UNL     1      18.924  -9.942  26.308  1.00  0.00     0.014 C 
ATOM     23  C   UNL     1      18.250  -9.881  23.903  1.00  0.00     0.014 C 
ATOM     24  C   UNL     1      17.300 -13.087  23.146  1.00  0.00     0.012 C 
ATOM     25  C   UNL     1      14.363 -13.540  23.942  1.00  0.00     0.012 C 
ATOM     26  C   UNL     1      13.657 -15.269  28.826  1.00  0.00     0.022 C 
ATOM     27  C   UNL     1      14.296 -15.348  30.243  1.00  0.00     0.015 C 
ATOM     28  C   UNL     1      13.985 -16.061  25.647  1.00  0.00     0.017 C 
ATOM     29  C   UNL     1      12.558 -12.957  29.142  1.00  0.00     0.012 C 
ATOM     30  C   UNL     1      13.108 -17.416  31.159  1.00  0.00     0.011 C 
ENDROOT
BRANCH  20  31
ATOM     31  O   UNL     1      21.122 -10.844  24.973  1.00  0.00    -0.393 OA
ATOM     32  H   UNL     1      20.871  -9.884  24.936  1.00  0.00     0.210 HD
ENDBRANCH  20  31
TORSDOF 1
ENDMDL
MODEL 2
REMARK VINA RESULT:    -7.025      3.824      6.503
REMARK INTER + INTRA:          -7.230
REMARK INTER:                  -7.230
REMARK INTRA:                   0.000
REMARK UNBOUND:                 0.000
REMARK SMILES CC1(C)CC[C@]2(C)CC[C@]3(C)C(=CC[C@@H]4[C@]5(C)CC[C@H](O)C(C)(C)[C@H]5CC[C@@]43C)[C@H]2C1
REMARK SMILES IDX 1 1 2 2 4 3 5 4 6 5 8 6 9 7 10 8 12 9 13 10 14 11 15 12
REMARK SMILES IDX 28 13 27 14 26 15 25 16 16 17 18 18 19 19 20 20 22 21 23 22
REMARK SMILES IDX 24 23 17 24 29 25 30 26 31 27 11 28 7 29 3 30 21 31
REMARK H PARENT 21 32
REMARK Flexibility Score: inf
ROOT
ATOM      1  C   UNL     1      12.500 -11.337  23.372  1.00  0.00     0.011 C 
ATOM      2  C   UNL     1      13.249 -11.648  24.685  1.00  0.00    -0.035 C 
ATOM      3  C   UNL     1      12.211 -12.052  25.760  1.00  0.00     0.007 C 
ATOM      4  C   UNL     1      12.853 -12.639  27.026  1.00  0.00     0.008 C 
ATOM      5  C   UNL     1      13.811 -13.828  26.735  1.00  0.00    -0.026 C 
ATOM      6  C   UNL     1      14.537 -14.175  28.052  1.00  0.00     0.008 C 
ATOM      7  C   UNL     1      15.542 -15.324  27.901  1.00  0.00     0.012 C 
ATOM      8  C   UNL     1      16.587 -15.187  26.724  1.00  0.00    -0.006 C 
ATOM      9  C   UNL     1      15.937 -14.518  25.499  1.00  0.00    -0.064 C 
ATOM     10  C   UNL     1      16.480 -14.726  24.284  1.00  0.00    -0.027 C 
ATOM     11  C   UNL     1      17.773 -15.442  24.049  1.00  0.00     0.032 C 
ATOM     12  C   UNL     1      18.280 -16.444  25.147  1.00  0.00     0.006 C 
ATOM     13  C   UNL     1      17.211 -16.627  26.314  1.00  0.00    -0.020 C 
ATOM     14  C   UNL     1      16.094 -17.602  25.798  1.00  0.00     0.008 C 
ATOM     15  C   UNL     1      16.604 -18.905  25.153  1.00  0.00     0.005 C 
ATOM     16  C   UNL     1      17.610 -18.649  24.004  1.00  0.00     0.003 C 
ATOM     17  C   UNL     1      18.842 -17.791  24.488  1.00  0.00    -0.025 C 
ATOM     18  C   UNL     1      19.812 -17.453  23.277  1.00  0.00     0.010 C 
ATOM     19  C   UNL     1      19.519 -18.245  21.997  1.00  0.00     0.033 C 
ATOM     20  C   UNL     1      19.286 -19.724  22.317  1.00  0.00     0.120 C 
ATOM     21  C   UNL     1      17.957 -19.936  23.134  1.00  0.00    -0.006 C 
ATOM     22  C   UNL     1      16.780 -20.196  22.150  1.00  0.00     0.014 C 
ATOM     23  C   UNL     1      18.114 -21.212  24.002  1.00  0.00     0.014 C 
ATOM     24  C   UNL     1      19.724 -18.585  25.506  1.00  0.00     0.012 C 
ATOM     25  C   UNL     1      17.881 -17.258  27.581  1.00  0.00     0.012 C 
ATOM     26  C   UNL     1      14.893 -13.397  25.709  1.00  0.00     0.022 C 
ATOM     27  C   UNL     1      14.251 -12.809  24.419  1.00  0.00     0.015 C 
ATOM     28  C   UNL     1      17.702 -14.219  27.217  1.00  0.00     0.017 C 
ATOM     29  C   UNL     1      12.986 -15.049  26.243  1.00  0.00     0.012 C 
ATOM     30  C   UNL     1      14.000 -10.363  25.116  1.00  0.00     0.011 C 
ENDROOT
BRANCH  20  31
ATOM     31  O   UNL     1      19.286 -20.447  21.110  1.00  0.00    -0.393 OA
ATOM     32  H   UNL     1      19.675 -21.339  21.304  1.00  0.00     0.210 HD
ENDBRANCH  20  31
TORSDOF 1
ENDMDL
MODEL 3
REMARK VINA RESULT:    -6.714      3.072      5.577
REMARK INTER + INTRA:          -6.910
REMARK INTER:                  -6.910
REMARK INTRA:                   0.000
REMARK UNBOUND:                 0.000
REMARK SMILES CC1(C)CC[C@]2(C)CC[C@]3(C)C(=CC[C@@H]4[C@]5(C)CC[C@H](O)C(C)(C)[C@H]5CC[C@@]43C)[C@H]2C1
REMARK SMILES IDX 1 1 2 2 4 3 5 4 6 5 8 6 9 7 10 8 12 9 13 10 14 11 15 12
REMARK SMILES IDX 28 13 27 14 26 15 25 16 16 17 18 18 19 19 20 20 22 21 23 22
REMARK SMILES IDX 24 23 17 24 29 25 30 26 31 27 11 28 7 29 3 30 21 31
REMARK H PARENT 21 32
REMARK Flexibility Score: inf
ROOT
ATOM      1  C   UNL     1      10.698 -14.093  25.299  1.00  0.00     0.011 C 
ATOM      2  C   UNL     1      11.861 -13.232  25.835  1.00  0.00    -0.035 C 
ATOM      3  C   UNL     1      11.786 -13.211  27.382  1.00  0.00     0.007 C 
ATOM      4  C   UNL     1      13.039 -12.610  28.036  1.00  0.00     0.008 C 
ATOM      5  C   UNL     1      14.360 -13.286  27.573  1.00  0.00    -0.026 C 
ATOM      6  C   UNL     1      15.532 -12.456  28.137  1.00  0.00     0.008 C 
ATOM      7  C   UNL     1      16.907 -13.000  27.731  1.00  0.00     0.012 C 
ATOM      8  C   UNL     1      17.124 -13.268  26.190  1.00  0.00    -0.006 C 
ATOM      9  C   UNL     1      15.827 -13.789  25.544  1.00  0.00    -0.064 C 
ATOM     10  C   UNL     1      15.912 -14.500  24.403  1.00  0.00    -0.027 C 
ATOM     11  C   UNL     1      17.174 -14.692  23.622  1.00  0.00     0.032 C 
ATOM     12  C   UNL     1      18.545 -14.532  24.370  1.00  0.00     0.006 C 
ATOM     13  C   UNL     1      18.339 -14.312  25.934  1.00  0.00    -0.020 C 
ATOM     14  C   UNL     1      18.032 -15.708  26.584  1.00  0.00     0.008 C 
ATOM     15  C   UNL     1      19.000 -16.841  26.195  1.00  0.00     0.005 C 
ATOM     16  C   UNL     1      19.123 -17.022  24.662  1.00  0.00     0.003 C 
ATOM     17  C   UNL     1      19.572 -15.688  23.951  1.00  0.00    -0.025 C 
ATOM     18  C   UNL     1      19.597 -15.862  22.373  1.00  0.00     0.010 C 
ATOM     19  C   UNL     1      19.470 -17.316  21.899  1.00  0.00     0.033 C 
ATOM     20  C   UNL     1      20.378 -18.234  22.720  1.00  0.00     0.120 C 
ATOM     21  C   UNL     1      19.893 -18.342  24.215  1.00  0.00    -0.006 C 
ATOM     22  C   UNL     1      18.922 -19.550  24.357  1.00  0.00     0.014 C 
ATOM     23  C   UNL     1      21.124 -18.641  25.109  1.00  0.00     0.014 C 
ATOM     24  C   UNL     1      21.037 -15.301  24.339  1.00  0.00     0.012 C 
ATOM     25  C   UNL     1      19.639 -13.730  26.585  1.00  0.00     0.012 C 
ATOM     26  C   UNL     1      14.464 -13.241  26.026  1.00  0.00     0.022 C 
ATOM     27  C   UNL     1      13.202 -13.857  25.353  1.00  0.00     0.015 C 
ATOM     28  C   UNL     1      17.425 -11.891  25.527  1.00  0.00     0.017 C 
ATOM     29  C   UNL     1      14.419 -14.737  28.127  1.00  0.00     0.012 C 
ATOM     30  C   UNL     1      11.688 -11.800  25.268  1.00  0.00     0.011 C 
ENDROOT
BRANCH  20  31
ATOM     31  O   UNL     1      20.431 -19.490  22.089  1.00  0.00    -0.393 OA
ATOM     32  H   UNL     1      21.182 -19.992  22.500  1.00  0.00     0.210 HD
ENDBRANCH  20  31
TORSDOF 1
ENDMDL
MODEL 4
REMARK VINA RESULT:    -6.547      3.886      7.187
REMARK INTER + INTRA:          -6.738
REMARK INTER:                  -6.738
REMARK INTRA:                   0.000
REMARK UNBOUND:                 0.000
REMARK SMILES CC1(C)CC[C@]2(C)CC[C@]3(C)C(=CC[C@@H]4[C@]5(C)CC[C@H](O)C(C)(C)[C@H]5CC[C@@]43C)[C@H]2C1
REMARK SMILES IDX 1 1 2 2 4 3 5 4 6 5 8 6 9 7 10 8 12 9 13 10 14 11 15 12
REMARK SMILES IDX 28 13 27 14 26 15 25 16 16 17 18 18 19 19 20 20 22 21 23 22
REMARK SMILES IDX 24 23 17 24 29 25 30 26 31 27 11 28 7 29 3 30 21 31
REMARK H PARENT 21 32
REMARK Flexibility Score: inf
ROOT
ATOM      1  C   UNL     1      17.565 -21.226  22.236  1.00  0.00     0.011 C 
ATOM      2  C   UNL     1      18.322 -20.608  23.431  1.00  0.00    -0.035 C 
ATOM      3  C   UNL     1      19.726 -20.168  22.949  1.00  0.00     0.007 C 
ATOM      4  C   UNL     1      20.470 -19.302  23.977  1.00  0.00     0.008 C 
ATOM      5  C   UNL     1      19.653 -18.066  24.446  1.00  0.00    -0.026 C 
ATOM      6  C   UNL     1      20.422 -17.416  25.616  1.00  0.00     0.008 C 
ATOM      7  C   UNL     1      19.709 -16.189  26.198  1.00  0.00     0.012 C 
ATOM      8  C   UNL     1      18.190 -16.385  26.588  1.00  0.00    -0.006 C 
ATOM      9  C   UNL     1      17.493 -17.325  25.588  1.00  0.00    -0.064 C 
ATOM     10  C   UNL     1      16.154 -17.253  25.458  1.00  0.00    -0.027 C 
ATOM     11  C   UNL     1      15.265 -16.427  26.334  1.00  0.00     0.032 C 
ATOM     12  C   UNL     1      15.893 -15.201  27.088  1.00  0.00     0.006 C 
ATOM     13  C   UNL     1      17.410 -14.965  26.664  1.00  0.00    -0.020 C 
ATOM     14  C   UNL     1      17.416 -14.239  25.272  1.00  0.00     0.008 C 
ATOM     15  C   UNL     1      16.498 -13.007  25.168  1.00  0.00     0.005 C 
ATOM     16  C   UNL     1      15.033 -13.319  25.559  1.00  0.00     0.003 C 
ATOM     17  C   UNL     1      14.933 -13.921  27.014  1.00  0.00    -0.025 C 
ATOM     18  C   UNL     1      13.438 -14.328  27.361  1.00  0.00     0.010 C 
ATOM     19  C   UNL     1      12.395 -13.803  26.367  1.00  0.00     0.033 C 
ATOM     20  C   UNL     1      12.662 -12.334  26.030  1.00  0.00     0.120 C 
ATOM     21  C   UNL     1      13.998 -12.160  25.214  1.00  0.00    -0.006 C 
ATOM     22  C   UNL     1      13.685 -12.219  23.690  1.00  0.00     0.014 C 
ATOM     23  C   UNL     1      14.570 -10.749  25.506  1.00  0.00     0.014 C 
ATOM     24  C   UNL     1      15.327 -12.863  28.096  1.00  0.00     0.012 C 
ATOM     25  C   UNL     1      18.138 -14.053  27.709  1.00  0.00     0.012 C 
ATOM     26  C   UNL     1      18.274 -18.519  24.994  1.00  0.00     0.022 C 
ATOM     27  C   UNL     1      17.509 -19.390  23.955  1.00  0.00     0.015 C 
ATOM     28  C   UNL     1      18.165 -17.108  27.967  1.00  0.00     0.017 C 
ATOM     29  C   UNL     1      19.520 -17.058  23.271  1.00  0.00     0.012 C 
ATOM     30  C   UNL     1      18.445 -21.698  24.525  1.00  0.00     0.011 C 
ENDROOT
BRANCH  20  31
ATOM     31  O   UNL     1      11.549 -11.826  25.335  1.00  0.00    -0.393 OA
ATOM     32  H   UNL     1      11.110 -11.165  25.931  1.00  0.00     0.210 HD
ENDBRANCH  20  31
TORSDOF 1
ENDMDL
MODEL 5
REMARK VINA RESULT:    -6.144      4.166      7.828
REMARK INTER + INTRA:          -6.323
REMARK INTER:                  -6.323
REMARK INTRA:                   0.000
REMARK UNBOUND:                 0.000
REMARK SMILES CC1(C)CC[C@]2(C)CC[C@]3(C)C(=CC[C@@H]4[C@]5(C)CC[C@H](O)C(C)(C)[C@H]5CC[C@@]43C)[C@H]2C1
REMARK SMILES IDX 1 1 2 2 4 3 5 4 6 5 8 6 9 7 10 8 12 9 13 10 14 11 15 12
REMARK SMILES IDX 28 13 27 14 26 15 25 16 16 17 18 18 19 19 20 20 22 21 23 22
REMARK SMILES IDX 24 23 17 24 29 25 30 26 31 27 11 28 7 29 3 30 21 31
REMARK H PARENT 21 32
REMARK Flexibility Score: inf
ROOT
ATOM      1  C   UNL     1      19.186 -22.078  23.465  1.00  0.00     0.011 C 
ATOM      2  C   UNL     1      19.968 -20.794  23.811  1.00  0.00    -0.035 C 
ATOM      3  C   UNL     1      20.555 -20.207  22.504  1.00  0.00     0.007 C 
ATOM      4  C   UNL     1      21.125 -18.792  22.683  1.00  0.00     0.008 C 
ATOM      5  C   UNL     1      20.111 -17.795  23.311  1.00  0.00    -0.026 C 
ATOM      6  C   UNL     1      20.874 -16.490  23.625  1.00  0.00     0.008 C 
ATOM      7  C   UNL     1      19.993 -15.419  24.278  1.00  0.00     0.012 C 
ATOM      8  C   UNL     1      19.157 -15.877  25.538  1.00  0.00    -0.006 C 
ATOM      9  C   UNL     1      18.670 -17.327  25.366  1.00  0.00    -0.064 C 
ATOM     10  C   UNL     1      17.595 -17.736  26.067  1.00  0.00    -0.027 C 
ATOM     11  C   UNL     1      16.921 -16.925  27.128  1.00  0.00     0.032 C 
ATOM     12  C   UNL     1      17.100 -15.365  27.100  1.00  0.00     0.006 C 
ATOM     13  C   UNL     1      17.899 -14.889  25.806  1.00  0.00    -0.020 C 
ATOM     14  C   UNL     1      16.903 -14.897  24.592  1.00  0.00     0.008 C 
ATOM     15  C   UNL     1      15.557 -14.190  24.840  1.00  0.00     0.005 C 
ATOM     16  C   UNL     1      14.821 -14.729  26.091  1.00  0.00     0.003 C 
ATOM     17  C   UNL     1      15.713 -14.617  27.386  1.00  0.00    -0.025 C 
ATOM     18  C   UNL     1      14.984 -15.264  28.639  1.00  0.00     0.010 C 
ATOM     19  C   UNL     1      13.502 -15.586  28.407  1.00  0.00     0.033 C 
ATOM     20  C   UNL     1      12.798 -14.419  27.710  1.00  0.00     0.120 C 
ATOM     21  C   UNL     1      13.317 -14.226  26.236  1.00  0.00    -0.006 C 
ATOM     22  C   UNL     1      12.427 -15.051  25.262  1.00  0.00     0.014 C 
ATOM     23  C   UNL     1      13.152 -12.734  25.850  1.00  0.00     0.014 C 
ATOM     24  C   UNL     1      15.955 -13.124  27.784  1.00  0.00     0.012 C 
ATOM     25  C   UNL     1      18.442 -13.432  25.999  1.00  0.00     0.012 C 
ATOM     26  C   UNL     1      19.580 -18.355  24.656  1.00  0.00     0.022 C 
ATOM     27  C   UNL     1      18.991 -19.786  24.483  1.00  0.00     0.015 C 
ATOM     28  C   UNL     1      20.131 -15.878  26.753  1.00  0.00     0.017 C 
ATOM     29  C   UNL     1      18.969 -17.513  22.296  1.00  0.00     0.012 C 
ATOM     30  C   UNL     1      21.108 -21.185  24.785  1.00  0.00     0.011 C 
ENDROOT
BRANCH  20  31
ATOM     31  O   UNL     1      11.409 -14.644  27.756  1.00  0.00    -0.393 OA
ATOM     32  H   UNL     1      11.111 -14.442  28.681  1.00  0.00     0.210 HD
ENDBRANCH  20  31
TORSDOF 1
ENDMDL
MODEL 6
REMARK VINA RESULT:    -5.740      3.678      6.302
REMARK INTER + INTRA:          -5.908
REMARK INTER:                  -5.908
REMARK INTRA:                   0.000
REMARK UNBOUND:                 0.000
REMARK SMILES CC1(C)CC[C@]2(C)CC[C@]3(C)C(=CC[C@@H]4[C@]5(C)CC[C@H](O)C(C)(C)[C@H]5CC[C@@]43C)[C@H]2C1
REMARK SMILES IDX 1 1 2 2 4 3 5 4 6 5 8 6 9 7 10 8 12 9 13 10 14 11 15 12
REMARK SMILES IDX 28 13 27 14 26 15 25 16 16 17 18 18 19 19 20 20 22 21 23 22
REMARK SMILES IDX 24 23 17 24 29 25 30 26 31 27 11 28 7 29 3 30 21 31
REMARK H PARENT 21 32
REMARK Flexibility Score: inf
ROOT
ATOM      1  C   UNL     1      11.601 -12.831  25.498  1.00  0.00     0.011 C 
ATOM      2  C   UNL     1      12.990 -12.295  25.904  1.00  0.00    -0.035 C 
ATOM      3  C   UNL     1      13.037 -12.167  27.446  1.00  0.00     0.007 C 
ATOM      4  C   UNL     1      14.451 -11.899  27.984  1.00  0.00     0.008 C 
ATOM      5  C   UNL     1      15.501 -12.938  27.500  1.00  0.00    -0.026 C 
ATOM      6  C   UNL     1      16.893 -12.432  27.936  1.00  0.00     0.008 C 
ATOM      7  C   UNL     1      18.035 -13.357  27.496  1.00  0.00     0.012 C 
ATOM      8  C   UNL     1      18.057 -13.760  25.968  1.00  0.00    -0.006 C 
ATOM      9  C   UNL     1      16.623 -13.939  25.436  1.00  0.00    -0.064 C 
ATOM     10  C   UNL     1      16.428 -14.709  24.348  1.00  0.00    -0.027 C 
ATOM     11  C   UNL     1      17.529 -15.286  23.514  1.00  0.00     0.032 C 
ATOM     12  C   UNL     1      18.944 -15.468  24.172  1.00  0.00     0.006 C 
ATOM     13  C   UNL     1      18.921 -15.111  25.724  1.00  0.00    -0.020 C 
ATOM     14  C   UNL     1      18.296 -16.330  26.492  1.00  0.00     0.008 C 
ATOM     15  C   UNL     1      18.889 -17.706  26.135  1.00  0.00     0.005 C 
ATOM     16  C   UNL     1      18.845 -18.000  24.616  1.00  0.00     0.003 C 
ATOM     17  C   UNL     1      19.585 -16.883  23.784  1.00  0.00    -0.025 C 
ATOM     18  C   UNL     1      19.445 -17.146  22.224  1.00  0.00     0.010 C 
ATOM     19  C   UNL     1      18.894 -18.533  21.867  1.00  0.00     0.033 C 
ATOM     20  C   UNL     1      19.577 -19.618  22.703  1.00  0.00     0.120 C 
ATOM     21  C   UNL     1      19.192 -19.504  24.226  1.00  0.00    -0.006 C 
ATOM     22  C   UNL     1      17.943 -20.387  24.511  1.00  0.00     0.014 C 
ATOM     23  C   UNL     1      20.359 -20.079  25.070  1.00  0.00     0.014 C 
ATOM     24  C   UNL     1      21.125 -16.894  24.060  1.00  0.00     0.012 C 
ATOM     25  C   UNL     1      20.374 -14.875  26.257  1.00  0.00     0.012 C 
ATOM     26  C   UNL     1      15.499 -13.011  25.950  1.00  0.00     0.022 C 
ATOM     27  C   UNL     1      14.072 -13.292  25.396  1.00  0.00     0.015 C 
ATOM     28  C   UNL     1      18.670 -12.560  25.190  1.00  0.00     0.017 C 
ATOM     29  C   UNL     1      15.206 -14.315  28.156  1.00  0.00     0.012 C 
ATOM     30  C   UNL     1      13.170 -10.906  25.243  1.00  0.00     0.011 C 
ENDROOT
BRANCH  20  31
ATOM     31  O   UNL     1      19.240 -20.874  22.165  1.00  0.00    -0.393 OA
ATOM     32  H   UNL     1      18.745 -21.369  22.868  1.00  0.00     0.210 HD
ENDBRANCH  20  31
TORSDOF 1
ENDMDL
MODEL 7
REMARK VINA RESULT:    -5.311      3.405      7.213
REMARK INTER + INTRA:          -5.466
REMARK INTER:                  -5.466
REMARK INTRA:                   0.000
REMARK UNBOUND:                 0.000
REMARK SMILES CC1(C)CC[C@]2(C)CC[C@]3(C)C(=CC[C@@H]4[C@]5(C)CC[C@H](O)C(C)(C)[C@H]5CC[C@@]43C)[C@H]2C1
REMARK SMILES IDX 1 1 2 2 4 3 5 4 6 5 8 6 9 7 10 8 12 9 13 10 14 11 15 12
REMARK SMILES IDX 28 13 27 14 26 15 25 16 16 17 18 18 19 19 20 20 22 21 23 22
REMARK SMILES IDX 24 23 17 24 29 25 30 26 31 27 11 28 7 29 3 30 21 31
REMARK H PARENT 21 32
REMARK Flexibility Score: inf
ROOT
ATOM      1  C   UNL     1      19.386 -18.627  21.936  1.00  0.00     0.011 C 
ATOM      2  C   UNL     1      19.658 -17.996  23.318  1.00  0.00    -0.035 C 
ATOM      3  C   UNL     1      20.913 -17.095  23.209  1.00  0.00     0.007 C 
ATOM      4  C   UNL     1      21.125 -16.209  24.446  1.00  0.00     0.008 C 
ATOM      5  C   UNL     1      19.880 -15.352  24.811  1.00  0.00    -0.026 C 
ATOM      6  C   UNL     1      20.157 -14.683  26.174  1.00  0.00     0.008 C 
ATOM      7  C   UNL     1      18.990 -13.822  26.671  1.00  0.00     0.012 C 
ATOM      8  C   UNL     1      17.569 -14.513  26.684  1.00  0.00    -0.006 C 
ATOM      9  C   UNL     1      17.418 -15.459  25.479  1.00  0.00    -0.064 C 
ATOM     10  C   UNL     1      16.179 -15.768  25.050  1.00  0.00    -0.027 C 
ATOM     11  C   UNL     1      14.920 -15.380  25.760  1.00  0.00     0.032 C 
ATOM     12  C   UNL     1      14.963 -14.149  26.733  1.00  0.00     0.006 C 
ATOM     13  C   UNL     1      16.376 -13.415  26.690  1.00  0.00    -0.020 C 
ATOM     14  C   UNL     1      16.419 -12.523  25.399  1.00  0.00     0.008 C 
ATOM     15  C   UNL     1      15.192 -11.616  25.184  1.00  0.00     0.005 C 
ATOM     16  C   UNL     1      13.858 -12.402  25.201  1.00  0.00     0.003 C 
ATOM     17  C   UNL     1      13.677 -13.213  26.541  1.00  0.00    -0.025 C 
ATOM     18  C   UNL     1      12.354 -14.091  26.502  1.00  0.00     0.010 C 
ATOM     19  C   UNL     1      11.411 -13.757  25.339  1.00  0.00     0.033 C 
ATOM     20  C   UNL     1      11.253 -12.241  25.189  1.00  0.00     0.120 C 
ATOM     21  C   UNL     1      12.594 -11.562  24.719  1.00  0.00    -0.006 C 
ATOM     22  C   UNL     1      12.618 -11.486  23.165  1.00  0.00     0.014 C 
ATOM     23  C   UNL     1      12.616 -10.104  25.246  1.00  0.00     0.014 C 
ATOM     24  C   UNL     1      13.493 -12.257  27.766  1.00  0.00     0.012 C 
ATOM     25  C   UNL     1      16.556 -12.492  27.943  1.00  0.00     0.012 C 
ATOM     26  C   UNL     1      18.640 -16.268  24.988  1.00  0.00     0.022 C 
ATOM     27  C   UNL     1      18.412 -17.164  23.736  1.00  0.00     0.015 C 
ATOM     28  C   UNL     1      17.510 -15.406  27.958  1.00  0.00     0.017 C 
ATOM     29  C   UNL     1      19.661 -14.268  23.720  1.00  0.00     0.012 C 
ATOM     30  C   UNL     1      19.909 -19.150  24.322  1.00  0.00     0.011 C 
ENDROOT
BRANCH  20  31
ATOM     31  O   UNL     1      10.193 -11.989  24.299  1.00  0.00    -0.393 OA
ATOM     32  H   UNL     1       9.454 -11.594  24.830  1.00  0.00     0.210 HD
ENDBRANCH  20  31
TORSDOF 1
ENDMDL
MODEL 8
REMARK VINA RESULT:    -5.259      2.487      7.746
REMARK INTER + INTRA:          -5.413
REMARK INTER:                  -5.413
REMARK INTRA:                   0.000
REMARK UNBOUND:                 0.000
REMARK SMILES CC1(C)CC[C@]2(C)CC[C@]3(C)C(=CC[C@@H]4[C@]5(C)CC[C@H](O)C(C)(C)[C@H]5CC[C@@]43C)[C@H]2C1
REMARK SMILES IDX 1 1 2 2 4 3 5 4 6 5 8 6 9 7 10 8 12 9 13 10 14 11 15 12
REMARK SMILES IDX 28 13 27 14 26 15 25 16 16 17 18 18 19 19 20 20 22 21 23 22
REMARK SMILES IDX 24 23 17 24 29 25 30 26 31 27 11 28 7 29 3 30 21 31
REMARK H PARENT 21 32
REMARK Flexibility Score: inf
ROOT
ATOM      1  C   UNL     1      20.135  -8.875  26.526  1.00  0.00     0.011 C 
ATOM      2  C   UNL     1      19.870 -10.058  25.571  1.00  0.00    -0.035 C 
ATOM      3  C   UNL     1      21.122 -10.970  25.557  1.00  0.00     0.007 C 
ATOM      4  C   UNL     1      20.878 -12.314  24.854  1.00  0.00     0.008 C 
ATOM      5  C   UNL     1      19.656 -13.091  25.418  1.00  0.00    -0.026 C 
ATOM      6  C   UNL     1      19.405 -14.301  24.492  1.00  0.00     0.008 C 
ATOM      7  C   UNL     1      18.200 -15.147  24.920  1.00  0.00     0.012 C 
ATOM      8  C   UNL     1      16.850 -14.364  25.168  1.00  0.00    -0.006 C 
ATOM      9  C   UNL     1      17.132 -12.986  25.795  1.00  0.00    -0.064 C 
ATOM     10  C   UNL     1      16.153 -12.382  26.495  1.00  0.00    -0.027 C 
ATOM     11  C   UNL     1      14.745 -12.882  26.582  1.00  0.00     0.032 C 
ATOM     12  C   UNL     1      14.478 -14.405  26.308  1.00  0.00     0.006 C 
ATOM     13  C   UNL     1      15.836 -15.213  26.106  1.00  0.00    -0.020 C 
ATOM     14  C   UNL     1      16.459 -15.474  27.524  1.00  0.00     0.008 C 
ATOM     15  C   UNL     1      15.491 -16.053  28.572  1.00  0.00     0.005 C 
ATOM     16  C   UNL     1      14.211 -15.197  28.741  1.00  0.00     0.003 C 
ATOM     17  C   UNL     1      13.448 -15.013  27.374  1.00  0.00    -0.025 C 
ATOM     18  C   UNL     1      12.196 -14.052  27.544  1.00  0.00     0.010 C 
ATOM     19  C   UNL     1      11.829 -13.749  29.003  1.00  0.00     0.033 C 
ATOM     20  C   UNL     1      11.852 -15.029  29.842  1.00  0.00     0.120 C 
ATOM     21  C   UNL     1      13.312 -15.599  29.992  1.00  0.00    -0.006 C 
ATOM     22  C   UNL     1      13.966 -15.013  31.277  1.00  0.00     0.014 C 
ATOM     23  C   UNL     1      13.221 -17.134  30.187  1.00  0.00     0.014 C 
ATOM     24  C   UNL     1      12.853 -16.368  26.866  1.00  0.00     0.012 C 
ATOM     25  C   UNL     1      15.559 -16.593  25.419  1.00  0.00     0.012 C 
ATOM     26  C   UNL     1      18.389 -12.197  25.363  1.00  0.00     0.022 C 
ATOM     27  C   UNL     1      18.623 -10.836  26.082  1.00  0.00     0.015 C 
ATOM     28  C   UNL     1      16.220 -14.093  23.771  1.00  0.00     0.017 C 
ATOM     29  C   UNL     1      19.973 -13.579  26.859  1.00  0.00     0.012 C 
ATOM     30  C   UNL     1      19.613  -9.475  24.159  1.00  0.00     0.011 C 
ENDROOT
BRANCH  20  31
ATOM     31  O   UNL     1      11.261 -14.755  31.090  1.00  0.00    -0.393 OA
ATOM     32  H   UNL     1      10.364 -14.370  30.910  1.00  0.00     0.210 HD
ENDBRANCH  20  31
TORSDOF 1
ENDMDL
