MODEL 1
REMARK VINA RESULT:    -4.370      0.000      0.000
REMARK INTER + INTRA:          -8.280
REMARK INTER:                  -7.435
REMARK INTRA:                  -0.846
REMARK UNBOUND:                -0.846
REMARK SMILES CCCCCCCCCCCCCC(=O)[O-]
REMARK SMILES IDX 8 1 9 2 10 3 11 4 12 5 13 6 14 7 15 8 16 9 7 10 6 11 5 12
REMARK SMILES IDX 4 13 3 14 2 15 1 16
REMARK H PARENT
REMARK Flexibility Score: inf
ROOT
ATOM      1  C   UNL     1     100.052 -69.764   5.539  1.00  0.00     0.000 C 
ENDROOT
BRANCH   1   2
ATOM      2  C   UNL     1      99.341 -68.900   4.482  1.00  0.00     0.000 C 
BRANCH   2   3
ATOM      3  C   UNL     1     100.207 -67.734   3.983  1.00  0.00     0.000 C 
BRANCH   3   4
ATOM      4  C   UNL     1     100.383 -67.795   2.459  1.00  0.00     0.000 C 
BRANCH   4   5
ATOM      5  C   UNL     1      99.094 -68.205   1.729  1.00  0.00     0.006 C 
BRANCH   5   6
ATOM      6  C   UNL     1      99.317 -68.455   0.232  1.00  0.00     0.053 C 
BRANCH   6   7
ATOM      7  C   UNL     1      98.442 -69.571  -0.246  1.00  0.00     0.041 C 
ATOM      8  O   UNL     1      98.113 -70.500   0.538  1.00  0.00    -0.550 OA
ATOM      9  O   UNL     1      97.948 -69.559  -1.544  1.00  0.00    -0.550 OA
ENDBRANCH   6   7
ENDBRANCH   5   6
ENDBRANCH   4   5
ENDBRANCH   3   4
ENDBRANCH   2   3
ENDBRANCH   1   2
BRANCH   1  10
ATOM     10  C   UNL     1     101.576 -69.547   5.643  1.00  0.00     0.000 C 
BRANCH  10  11
ATOM     11  C   UNL     1     102.064 -68.968   6.984  1.00  0.00    -0.000 C 
BRANCH  11  12
ATOM     12  C   UNL     1     101.503 -67.567   7.269  1.00  0.00    -0.000 C 
BRANCH  12  13
ATOM     13  C   UNL     1     101.203 -67.390   8.764  1.00  0.00    -0.000 C 
BRANCH  13  14
ATOM     14  C   UNL     1     100.925 -68.725   9.482  1.00  0.00    -0.000 C 
BRANCH  14  15
ATOM     15  C   UNL     1     100.224 -68.595  10.845  1.00  0.00    -0.003 C 
ATOM     16  C   UNL     1     100.001 -67.144  11.269  1.00  0.00     0.004 C 
ENDBRANCH  14  15
ENDBRANCH  13  14
ENDBRANCH  12  13
ENDBRANCH  11  12
ENDBRANCH  10  11
ENDBRANCH   1  10
TORSDOF 12
ENDMDL
MODEL 2
REMARK VINA RESULT:    -4.220      1.157      1.484
REMARK INTER + INTRA:          -8.026
REMARK INTER:                  -7.105
REMARK INTRA:                  -0.921
REMARK UNBOUND:                -0.846
REMARK SMILES CCCCCCCCCCCCCC(=O)[O-]
REMARK SMILES IDX 8 1 9 2 10 3 11 4 12 5 13 6 14 7 15 8 16 9 7 10 6 11 5 12
REMARK SMILES IDX 4 13 3 14 2 15 1 16
REMARK H PARENT
REMARK Flexibility Score: inf
ROOT
ATOM      1  C   UNL     1      99.116 -68.782   3.952  1.00  0.00     0.000 C 
ENDROOT
BRANCH   1   2
ATOM      2  C   UNL     1      97.868 -67.881   3.908  1.00  0.00     0.000 C 
BRANCH   2   3
ATOM      3  C   UNL     1      98.018 -66.701   2.937  1.00  0.00     0.000 C 
BRANCH   3   4
ATOM      4  C   UNL     1      99.309 -66.829   2.115  1.00  0.00     0.000 C 
BRANCH   4   5
ATOM      5  C   UNL     1      99.040 -67.046   0.618  1.00  0.00     0.006 C 
BRANCH   5   6
ATOM      6  C   UNL     1      99.749 -68.288   0.064  1.00  0.00     0.053 C 
BRANCH   6   7
ATOM      7  C   UNL     1      98.753 -69.355  -0.267  1.00  0.00     0.041 C 
ATOM      8  O   UNL     1      98.471 -70.243   0.581  1.00  0.00    -0.550 OA
ATOM      9  O   UNL     1      98.100 -69.340  -1.491  1.00  0.00    -0.550 OA
ENDBRANCH   6   7
ENDBRANCH   5   6
ENDBRANCH   4   5
ENDBRANCH   3   4
ENDBRANCH   2   3
ENDBRANCH   1   2
BRANCH   1  10
ATOM     10  C   UNL     1      99.832 -68.840   5.318  1.00  0.00     0.000 C 
BRANCH  10  11
ATOM     11  C   UNL     1     100.888 -67.744   5.549  1.00  0.00    -0.000 C 
BRANCH  11  12
ATOM     12  C   UNL     1     101.165 -67.486   7.038  1.00  0.00    -0.000 C 
BRANCH  12  13
ATOM     13  C   UNL     1     100.966 -68.767   7.862  1.00  0.00    -0.000 C 
BRANCH  13  14
ATOM     14  C   UNL     1     101.081 -68.527   9.379  1.00  0.00    -0.000 C 
BRANCH  14  15
ATOM     15  C   UNL     1     100.643 -67.129   9.850  1.00  0.00    -0.003 C 
ATOM     16  C   UNL     1      99.898 -67.152  11.183  1.00  0.00     0.004 C 
ENDBRANCH  14  15
ENDBRANCH  13  14
ENDBRANCH  12  13
ENDBRANCH  11  12
ENDBRANCH  10  11
ENDBRANCH   1  10
TORSDOF 12
ENDMDL
MODEL 3
REMARK VINA RESULT:    -4.183      1.336      2.028
REMARK INTER + INTRA:          -7.962
REMARK INTER:                  -6.926
REMARK INTRA:                  -1.036
REMARK UNBOUND:                -0.846
REMARK SMILES CCCCCCCCCCCCCC(=O)[O-]
REMARK SMILES IDX 8 1 9 2 10 3 11 4 12 5 13 6 14 7 15 8 16 9 7 10 6 11 5 12
REMARK SMILES IDX 4 13 3 14 2 15 1 16
REMARK H PARENT
REMARK Flexibility Score: inf
ROOT
ATOM      1  C   UNL     1      98.676 -68.687   3.967  1.00  0.00     0.000 C 
ENDROOT
BRANCH   1   2
ATOM      2  C   UNL     1      97.804 -67.423   3.855  1.00  0.00     0.000 C 
BRANCH   2   3
ATOM      3  C   UNL     1      98.550 -66.236   3.229  1.00  0.00     0.000 C 
BRANCH   3   4
ATOM      4  C   UNL     1      98.534 -66.327   1.696  1.00  0.00     0.000 C 
BRANCH   4   5
ATOM      5  C   UNL     1      99.945 -66.331   1.087  1.00  0.00     0.006 C 
BRANCH   5   6
ATOM      6  C   UNL     1     100.475 -67.747   0.832  1.00  0.00     0.053 C 
BRANCH   6   7
ATOM      7  C   UNL     1      99.487 -68.539   0.035  1.00  0.00     0.041 C 
ATOM      8  O   UNL     1      99.202 -68.194  -1.142  1.00  0.00    -0.550 OA
ATOM      9  O   UNL     1      98.920 -69.686   0.572  1.00  0.00    -0.550 OA
ENDBRANCH   6   7
ENDBRANCH   5   6
ENDBRANCH   4   5
ENDBRANCH   3   4
ENDBRANCH   2   3
ENDBRANCH   1   2
BRANCH   1  10
ATOM     10  C   UNL     1     100.005 -68.499   4.728  1.00  0.00     0.000 C 
BRANCH  10  11
ATOM     11  C   UNL     1     100.325 -69.590   5.766  1.00  0.00    -0.000 C 
BRANCH  11  12
ATOM     12  C   UNL     1     101.252 -69.096   6.886  1.00  0.00    -0.000 C 
BRANCH  12  13
ATOM     13  C   UNL     1     100.948 -67.634   7.244  1.00  0.00    -0.000 C 
BRANCH  13  14
ATOM     14  C   UNL     1     100.948 -67.376   8.762  1.00  0.00    -0.000 C 
BRANCH  14  15
ATOM     15  C   UNL     1     100.721 -68.625   9.632  1.00  0.00    -0.003 C 
ATOM     16  C   UNL     1     100.252 -68.292  11.048  1.00  0.00     0.004 C 
ENDBRANCH  14  15
ENDBRANCH  13  14
ENDBRANCH  12  13
ENDBRANCH  11  12
ENDBRANCH  10  11
ENDBRANCH   1  10
TORSDOF 12
ENDMDL
MODEL 4
REMARK VINA RESULT:    -4.181      1.456      1.910
REMARK INTER + INTRA:          -7.960
REMARK INTER:                  -7.292
REMARK INTRA:                  -0.668
REMARK UNBOUND:                -0.846
REMARK SMILES CCCCCCCCCCCCCC(=O)[O-]
REMARK SMILES IDX 8 1 9 2 10 3 11 4 12 5 13 6 14 7 15 8 16 9 7 10 6 11 5 12
REMARK SMILES IDX 4 13 3 14 2 15 1 16
REMARK H PARENT
REMARK Flexibility Score: inf
ROOT
ATOM      1  C   UNL     1      99.877 -69.419   5.305  1.00  0.00     0.000 C 
ENDROOT
BRANCH   1   2
ATOM      2  C   UNL     1      99.574 -68.093   4.585  1.00  0.00     0.000 C 
BRANCH   2   3
ATOM      3  C   UNL     1      98.083 -67.916   4.262  1.00  0.00     0.000 C 
BRANCH   3   4
ATOM      4  C   UNL     1      97.895 -67.185   2.925  1.00  0.00     0.000 C 
BRANCH   4   5
ATOM      5  C   UNL     1      99.229 -66.858   2.235  1.00  0.00     0.006 C 
BRANCH   5   6
ATOM      6  C   UNL     1      99.163 -67.023   0.712  1.00  0.00     0.053 C 
BRANCH   6   7
ATOM      7  C   UNL     1      99.744 -68.340   0.303  1.00  0.00     0.041 C 
ATOM      8  O   UNL     1     100.890 -68.393  -0.215  1.00  0.00    -0.550 OA
ATOM      9  O   UNL     1      99.041 -69.514   0.541  1.00  0.00    -0.550 OA
ENDBRANCH   6   7
ENDBRANCH   5   6
ENDBRANCH   4   5
ENDBRANCH   3   4
ENDBRANCH   2   3
ENDBRANCH   1   2
BRANCH   1  10
ATOM     10  C   UNL     1     100.890 -69.316   6.465  1.00  0.00     0.000 C 
BRANCH  10  11
ATOM     11  C   UNL     1     100.983 -67.931   7.131  1.00  0.00    -0.000 C 
BRANCH  11  12
ATOM     12  C   UNL     1     101.646 -67.978   8.516  1.00  0.00    -0.000 C 
BRANCH  12  13
ATOM     13  C   UNL     1     100.724 -68.652   9.543  1.00  0.00    -0.000 C 
BRANCH  13  14
ATOM     14  C   UNL     1     100.298 -67.704  10.679  1.00  0.00    -0.000 C 
BRANCH  14  15
ATOM     15  C   UNL     1     100.188 -66.222  10.281  1.00  0.00    -0.003 C 
ATOM     16  C   UNL     1      99.736 -65.324  11.432  1.00  0.00     0.004 C 
ENDBRANCH  14  15
ENDBRANCH  13  14
ENDBRANCH  12  13
ENDBRANCH  11  12
ENDBRANCH  10  11
ENDBRANCH   1  10
TORSDOF 12
ENDMDL
MODEL 5
REMARK VINA RESULT:    -4.043      1.334      2.275
REMARK INTER + INTRA:          -7.725
REMARK INTER:                  -6.522
REMARK INTRA:                  -1.203
REMARK UNBOUND:                -0.846
REMARK SMILES CCCCCCCCCCCCCC(=O)[O-]
REMARK SMILES IDX 8 1 9 2 10 3 11 4 12 5 13 6 14 7 15 8 16 9 7 10 6 11 5 12
REMARK SMILES IDX 4 13 3 14 2 15 1 16
REMARK H PARENT
REMARK Flexibility Score: inf
ROOT
ATOM      1  C   UNL     1     100.621 -69.011   7.101  1.00  0.00     0.000 C 
ENDROOT
BRANCH   1   2
ATOM      2  C   UNL     1     100.597 -69.616   5.686  1.00  0.00     0.000 C 
BRANCH   2   3
ATOM      3  C   UNL     1      99.426 -69.101   4.837  1.00  0.00     0.000 C 
BRANCH   3   4
ATOM      4  C   UNL     1      99.474 -67.572   4.706  1.00  0.00     0.000 C 
BRANCH   4   5
ATOM      5  C   UNL     1      99.271 -67.093   3.261  1.00  0.00     0.006 C 
BRANCH   5   6
ATOM      6  C   UNL     1     100.399 -67.543   2.324  1.00  0.00     0.053 C 
BRANCH   6   7
ATOM      7  C   UNL     1      99.845 -68.333   1.180  1.00  0.00     0.041 C 
ATOM      8  O   UNL     1     100.436 -68.338   0.068  1.00  0.00    -0.550 OA
ATOM      9  O   UNL     1      98.703 -69.103   1.356  1.00  0.00    -0.550 OA
ENDBRANCH   6   7
ENDBRANCH   5   6
ENDBRANCH   4   5
ENDBRANCH   3   4
ENDBRANCH   2   3
ENDBRANCH   1   2
BRANCH   1  10
ATOM     10  C   UNL     1     101.866 -68.160   7.427  1.00  0.00     0.000 C 
BRANCH  10  11
ATOM     11  C   UNL     1     101.601 -66.653   7.601  1.00  0.00    -0.000 C 
BRANCH  11  12
ATOM     12  C   UNL     1     101.650 -66.204   9.069  1.00  0.00    -0.000 C 
BRANCH  12  13
ATOM     13  C   UNL     1     100.261 -66.299   9.717  1.00  0.00    -0.000 C 
BRANCH  13  14
ATOM     14  C   UNL     1     100.258 -67.143  11.006  1.00  0.00    -0.000 C 
BRANCH  14  15
ATOM     15  C   UNL     1     100.252 -68.665  10.784  1.00  0.00    -0.003 C 
ATOM     16  C   UNL     1     101.586 -69.326  11.131  1.00  0.00     0.004 C 
ENDBRANCH  14  15
ENDBRANCH  13  14
ENDBRANCH  12  13
ENDBRANCH  11  12
ENDBRANCH  10  11
ENDBRANCH   1  10
TORSDOF 12
ENDMDL
MODEL 6
REMARK VINA RESULT:    -3.895      1.216      1.864
REMARK INTER + INTRA:          -7.473
REMARK INTER:                  -6.931
REMARK INTRA:                  -0.542
REMARK UNBOUND:                -0.846
REMARK SMILES CCCCCCCCCCCCCC(=O)[O-]
REMARK SMILES IDX 8 1 9 2 10 3 11 4 12 5 13 6 14 7 15 8 16 9 7 10 6 11 5 12
REMARK SMILES IDX 4 13 3 14 2 15 1 16
REMARK H PARENT
REMARK Flexibility Score: inf
ROOT
ATOM      1  C   UNL     1      99.310 -68.418   4.374  1.00  0.00     0.000 C 
ENDROOT
BRANCH   1   2
ATOM      2  C   UNL     1     100.188 -68.149   3.138  1.00  0.00     0.000 C 
BRANCH   2   3
ATOM      3  C   UNL     1      99.370 -67.986   1.849  1.00  0.00     0.000 C 
BRANCH   3   4
ATOM      4  C   UNL     1     100.207 -67.315   0.750  1.00  0.00     0.000 C 
BRANCH   4   5
ATOM      5  C   UNL     1     100.224 -68.120  -0.558  1.00  0.00     0.006 C 
BRANCH   5   6
ATOM      6  C   UNL     1      99.428 -67.443  -1.680  1.00  0.00     0.053 C 
BRANCH   6   7
ATOM      7  C   UNL     1      98.136 -68.162  -1.911  1.00  0.00     0.041 C 
ATOM      8  O   UNL     1      98.003 -69.359  -1.545  1.00  0.00    -0.550 OA
ATOM      9  O   UNL     1      97.062 -67.495  -2.486  1.00  0.00    -0.550 OA
ENDBRANCH   6   7
ENDBRANCH   5   6
ENDBRANCH   4   5
ENDBRANCH   3   4
ENDBRANCH   2   3
ENDBRANCH   1   2
BRANCH   1  10
ATOM     10  C   UNL     1      99.877 -69.455   5.365  1.00  0.00     0.000 C 
BRANCH  10  11
ATOM     11  C   UNL     1     101.413 -69.537   5.419  1.00  0.00    -0.000 C 
BRANCH  11  12
ATOM     12  C   UNL     1     101.996 -68.969   6.721  1.00  0.00    -0.000 C 
BRANCH  12  13
ATOM     13  C   UNL     1     100.904 -68.812   7.788  1.00  0.00    -0.000 C 
BRANCH  13  14
ATOM     14  C   UNL     1     101.466 -68.430   9.171  1.00  0.00    -0.000 C 
BRANCH  14  15
ATOM     15  C   UNL     1     100.482 -68.602  10.341  1.00  0.00    -0.003 C 
ATOM     16  C   UNL     1     100.109 -67.280  11.011  1.00  0.00     0.004 C 
ENDBRANCH  14  15
ENDBRANCH  13  14
ENDBRANCH  12  13
ENDBRANCH  11  12
ENDBRANCH  10  11
ENDBRANCH   1  10
TORSDOF 12
ENDMDL
MODEL 7
REMARK VINA RESULT:    -3.857      1.840      3.425
REMARK INTER + INTRA:          -7.408
REMARK INTER:                  -5.992
REMARK INTRA:                  -1.417
REMARK UNBOUND:                -0.846
REMARK SMILES CCCCCCCCCCCCCC(=O)[O-]
REMARK SMILES IDX 8 1 9 2 10 3 11 4 12 5 13 6 14 7 15 8 16 9 7 10 6 11 5 12
REMARK SMILES IDX 4 13 3 14 2 15 1 16
REMARK H PARENT
REMARK Flexibility Score: inf
ROOT
ATOM      1  C   UNL     1      97.702 -66.249   4.168  1.00  0.00     0.000 C 
ENDROOT
BRANCH   1   2
ATOM      2  C   UNL     1      97.908 -65.123   3.138  1.00  0.00     0.000 C 
BRANCH   2   3
ATOM      3  C   UNL     1      97.661 -65.582   1.694  1.00  0.00     0.000 C 
BRANCH   3   4
ATOM      4  C   UNL     1      98.956 -65.519   0.871  1.00  0.00     0.000 C 
BRANCH   4   5
ATOM      5  C   UNL     1      98.999 -66.570  -0.249  1.00  0.00     0.006 C 
BRANCH   5   6
ATOM      6  C   UNL     1      99.697 -67.865   0.181  1.00  0.00     0.053 C 
BRANCH   6   7
ATOM      7  C   UNL     1      98.867 -69.054  -0.190  1.00  0.00     0.041 C 
ATOM      8  O   UNL     1      98.634 -69.954   0.659  1.00  0.00    -0.550 OA
ATOM      9  O   UNL     1      98.310 -69.144  -1.458  1.00  0.00    -0.550 OA
ENDBRANCH   6   7
ENDBRANCH   5   6
ENDBRANCH   4   5
ENDBRANCH   3   4
ENDBRANCH   2   3
ENDBRANCH   1   2
BRANCH   1  10
ATOM     10  C   UNL     1      97.610 -67.670   3.572  1.00  0.00     0.000 C 
BRANCH  10  11
ATOM     11  C   UNL     1      98.708 -68.645   4.033  1.00  0.00    -0.000 C 
BRANCH  11  12
ATOM     12  C   UNL     1     100.125 -68.137   3.726  1.00  0.00    -0.000 C 
BRANCH  12  13
ATOM     13  C   UNL     1     101.122 -68.617   4.790  1.00  0.00    -0.000 C 
BRANCH  13  14
ATOM     14  C   UNL     1     100.434 -69.253   6.013  1.00  0.00    -0.000 C 
BRANCH  14  15
ATOM     15  C   UNL     1     101.056 -68.886   7.371  1.00  0.00    -0.003 C 
ATOM     16  C   UNL     1     101.037 -67.385   7.653  1.00  0.00     0.004 C 
ENDBRANCH  14  15
ENDBRANCH  13  14
ENDBRANCH  12  13
ENDBRANCH  11  12
ENDBRANCH  10  11
ENDBRANCH   1  10
TORSDOF 12
ENDMDL
MODEL 8
REMARK VINA RESULT:    -3.712      2.524      3.732
REMARK INTER + INTRA:          -7.162
REMARK INTER:                  -5.280
REMARK INTRA:                  -1.882
REMARK UNBOUND:                -0.846
REMARK SMILES CCCCCCCCCCCCCC(=O)[O-]
REMARK SMILES IDX 8 1 9 2 10 3 11 4 12 5 13 6 14 7 15 8 16 9 7 10 6 11 5 12
REMARK SMILES IDX 4 13 3 14 2 15 1 16
REMARK H PARENT
REMARK Flexibility Score: inf
ROOT
ATOM      1  C   UNL     1      98.142 -67.904   3.719  1.00  0.00     0.000 C 
ENDROOT
BRANCH   1   2
ATOM      2  C   UNL     1      98.471 -68.339   2.279  1.00  0.00     0.000 C 
BRANCH   2   3
ATOM      3  C   UNL     1      99.953 -68.155   1.924  1.00  0.00     0.000 C 
BRANCH   3   4
ATOM      4  C   UNL     1     100.147 -66.953   0.987  1.00  0.00     0.000 C 
BRANCH   4   5
ATOM      5  C   UNL     1      98.853 -66.553   0.262  1.00  0.00     0.006 C 
BRANCH   5   6
ATOM      6  C   UNL     1      98.968 -66.672  -1.263  1.00  0.00     0.053 C 
BRANCH   6   7
ATOM      7  C   UNL     1      98.092 -67.775  -1.769  1.00  0.00     0.041 C 
ATOM      8  O   UNL     1      97.102 -67.513  -2.501  1.00  0.00    -0.550 OA
ATOM      9  O   UNL     1      98.398 -69.097  -1.473  1.00  0.00    -0.550 OA
ENDBRANCH   6   7
ENDBRANCH   5   6
ENDBRANCH   4   5
ENDBRANCH   3   4
ENDBRANCH   2   3
ENDBRANCH   1   2
BRANCH   1  10
ATOM     10  C   UNL     1      97.834 -66.402   3.893  1.00  0.00     0.000 C 
BRANCH  10  11
ATOM     11  C   UNL     1      99.051 -65.518   4.219  1.00  0.00    -0.000 C 
BRANCH  11  12
ATOM     12  C   UNL     1      99.917 -66.088   5.353  1.00  0.00    -0.000 C 
BRANCH  12  13
ATOM     13  C   UNL     1     101.335 -66.400   4.855  1.00  0.00    -0.000 C 
BRANCH  13  14
ATOM     14  C   UNL     1     101.753 -67.861   5.111  1.00  0.00    -0.000 C 
BRANCH  14  15
ATOM     15  C   UNL     1     100.884 -68.614   6.133  1.00  0.00    -0.003 C 
ATOM     16  C   UNL     1     100.434 -69.988   5.640  1.00  0.00     0.004 C 
ENDBRANCH  14  15
ENDBRANCH  13  14
ENDBRANCH  12  13
ENDBRANCH  11  12
ENDBRANCH  10  11
ENDBRANCH   1  10
TORSDOF 12
ENDMDL
MODEL 9
REMARK VINA RESULT:    -3.672      3.473      7.873
REMARK INTER + INTRA:          -7.094
REMARK INTER:                  -5.493
REMARK INTRA:                  -1.601
REMARK UNBOUND:                -0.846
REMARK SMILES CCCCCCCCCCCCCC(=O)[O-]
REMARK SMILES IDX 8 1 9 2 10 3 11 4 12 5 13 6 14 7 15 8 16 9 7 10 6 11 5 12
REMARK SMILES IDX 4 13 3 14 2 15 1 16
REMARK H PARENT
REMARK Flexibility Score: inf
ROOT
ATOM      1  C   UNL     1      98.401 -65.897   1.369  1.00  0.00     0.000 C 
ENDROOT
BRANCH   1   2
ATOM      2  C   UNL     1      97.894 -65.244   2.668  1.00  0.00     0.000 C 
BRANCH   2   3
ATOM      3  C   UNL     1      98.103 -66.132   3.903  1.00  0.00     0.000 C 
BRANCH   3   4
ATOM      4  C   UNL     1      97.613 -67.563   3.638  1.00  0.00     0.000 C 
BRANCH   4   5
ATOM      5  C   UNL     1      98.679 -68.623   3.956  1.00  0.00     0.006 C 
BRANCH   5   6
ATOM      6  C   UNL     1      99.842 -68.062   4.783  1.00  0.00     0.053 C 
BRANCH   6   7
ATOM      7  C   UNL     1     100.360 -69.100   5.728  1.00  0.00     0.041 C 
ATOM      8  O   UNL     1     100.772 -68.768   6.871  1.00  0.00    -0.550 OA
ATOM      9  O   UNL     1     100.341 -70.440   5.366  1.00  0.00    -0.550 OA
ENDBRANCH   6   7
ENDBRANCH   5   6
ENDBRANCH   4   5
ENDBRANCH   3   4
ENDBRANCH   2   3
ENDBRANCH   1   2
BRANCH   1  10
ATOM     10  C   UNL     1      99.936 -65.963   1.227  1.00  0.00     0.000 C 
BRANCH  10  11
ATOM     11  C   UNL     1     100.510 -67.370   0.979  1.00  0.00    -0.000 C 
BRANCH  11  12
ATOM     12  C   UNL     1      99.486 -68.330   0.355  1.00  0.00    -0.000 C 
BRANCH  12  13
ATOM     13  C   UNL     1      99.612 -68.346  -1.176  1.00  0.00    -0.000 C 
BRANCH  13  14
ATOM     14  C   UNL     1      98.285 -68.684  -1.883  1.00  0.00    -0.000 C 
BRANCH  14  15
ATOM     15  C   UNL     1      97.749 -67.582  -2.814  1.00  0.00    -0.003 C 
ATOM     16  C   UNL     1      98.167 -66.177  -2.383  1.00  0.00     0.004 C 
ENDBRANCH  14  15
ENDBRANCH  13  14
ENDBRANCH  12  13
ENDBRANCH  11  12
ENDBRANCH  10  11
ENDBRANCH   1  10
TORSDOF 12
ENDMDL
