MODEL 1
REMARK VINA RESULT:    -4.876      0.000      0.000
REMARK INTER + INTRA:          -8.710
REMARK INTER:                  -7.727
REMARK INTRA:                  -0.983
REMARK UNBOUND:                -0.983
REMARK SMILES CCCCCCCCCCCC(=O)[O-]
REMARK SMILES IDX 7 1 8 2 9 3 10 4 11 5 12 6 13 7 14 8 6 9 5 10 4 11 3 12 2 13
REMARK SMILES IDX 1 14
REMARK H PARENT
REMARK Flexibility Score: inf
ROOT
ATOM      1  C   UNL     1       0.883  46.315   9.520  1.00  0.00     0.000 C 
ENDROOT
BRANCH   1   2
ATOM      2  C   UNL     1       2.244  47.029   9.522  1.00  0.00     0.000 C 
BRANCH   2   3
ATOM      3  C   UNL     1       2.569  47.677   8.165  1.00  0.00     0.000 C 
BRANCH   3   4
ATOM      4  C   UNL     1       4.069  47.963   7.992  1.00  0.00     0.006 C 
BRANCH   4   5
ATOM      5  C   UNL     1       4.916  47.393   9.137  1.00  0.00     0.053 C 
BRANCH   5   6
ATOM      6  C   UNL     1       6.247  48.074   9.190  1.00  0.00     0.041 C 
ATOM      7  O   UNL     1       6.338  49.307   8.951  1.00  0.00    -0.550 OA
ATOM      8  O   UNL     1       7.381  47.358   9.552  1.00  0.00    -0.550 OA
ENDBRANCH   5   6
ENDBRANCH   4   5
ENDBRANCH   3   4
ENDBRANCH   2   3
ENDBRANCH   1   2
BRANCH   1   9
ATOM      9  C   UNL     1       0.969  44.874  10.053  1.00  0.00     0.000 C 
BRANCH   9  10
ATOM     10  C   UNL     1       1.547  43.895   9.008  1.00  0.00    -0.000 C 
BRANCH  10  11
ATOM     11  C   UNL     1       2.598  42.925   9.582  1.00  0.00    -0.000 C 
BRANCH  11  12
ATOM     12  C   UNL     1       2.593  42.793  11.117  1.00  0.00    -0.000 C 
BRANCH  12  13
ATOM     13  C   UNL     1       3.930  43.136  11.798  1.00  0.00    -0.003 C 
ATOM     14  C   UNL     1       4.280  44.621  11.712  1.00  0.00     0.004 C 
ENDBRANCH  12  13
ENDBRANCH  11  12
ENDBRANCH  10  11
ENDBRANCH   9  10
ENDBRANCH   1   9
TORSDOF 10
ENDMDL
MODEL 2
REMARK VINA RESULT:    -4.876      0.964      1.429
REMARK INTER + INTRA:          -8.710
REMARK INTER:                  -7.594
REMARK INTRA:                  -1.116
REMARK UNBOUND:                -0.983
REMARK SMILES CCCCCCCCCCCC(=O)[O-]
REMARK SMILES IDX 7 1 8 2 9 3 10 4 11 5 12 6 13 7 14 8 6 9 5 10 4 11 3 12 2 13
REMARK SMILES IDX 1 14
REMARK H PARENT
REMARK Flexibility Score: inf
ROOT
ATOM      1  C   UNL     1       1.149  46.014   9.460  1.00  0.00     0.000 C 
ENDROOT
BRANCH   1   2
ATOM      2  C   UNL     1       2.471  46.702   9.832  1.00  0.00     0.000 C 
BRANCH   2   3
ATOM      3  C   UNL     1       3.700  45.864   9.439  1.00  0.00     0.000 C 
BRANCH   3   4
ATOM      4  C   UNL     1       5.024  46.598   9.706  1.00  0.00     0.006 C 
BRANCH   4   5
ATOM      5  C   UNL     1       5.152  47.899   8.903  1.00  0.00     0.053 C 
BRANCH   5   6
ATOM      6  C   UNL     1       6.502  48.510   9.113  1.00  0.00     0.041 C 
ATOM      7  O   UNL     1       6.703  49.718   8.821  1.00  0.00    -0.550 OA
ATOM      8  O   UNL     1       7.526  47.759   9.677  1.00  0.00    -0.550 OA
ENDBRANCH   5   6
ENDBRANCH   4   5
ENDBRANCH   3   4
ENDBRANCH   2   3
ENDBRANCH   1   2
BRANCH   1   9
ATOM      9  C   UNL     1       1.126  44.525   9.847  1.00  0.00     0.000 C 
BRANCH   9  10
ATOM     10  C   UNL     1       0.731  44.308  11.324  1.00  0.00    -0.000 C 
BRANCH  10  11
ATOM     11  C   UNL     1       1.750  43.471  12.122  1.00  0.00    -0.000 C 
BRANCH  11  12
ATOM     12  C   UNL     1       2.653  42.559  11.270  1.00  0.00    -0.000 C 
BRANCH  12  13
ATOM     13  C   UNL     1       4.162  42.821  11.424  1.00  0.00    -0.003 C 
ATOM     14  C   UNL     1       4.473  43.981  12.369  1.00  0.00     0.004 C 
ENDBRANCH  12  13
ENDBRANCH  11  12
ENDBRANCH  10  11
ENDBRANCH   9  10
ENDBRANCH   1   9
TORSDOF 10
ENDMDL
MODEL 3
REMARK VINA RESULT:    -4.851      1.248      1.829
REMARK INTER + INTRA:          -8.671
REMARK INTER:                  -7.943
REMARK INTRA:                  -0.728
REMARK UNBOUND:                -0.983
REMARK SMILES CCCCCCCCCCCC(=O)[O-]
REMARK SMILES IDX 7 1 8 2 9 3 10 4 11 5 12 6 13 7 14 8 6 9 5 10 4 11 3 12 2 13
REMARK SMILES IDX 1 14
REMARK H PARENT
REMARK Flexibility Score: inf
ROOT
ATOM      1  C   UNL     1       1.046  45.826   9.966  1.00  0.00     0.000 C 
ENDROOT
BRANCH   1   2
ATOM      2  C   UNL     1       2.370  46.549   9.675  1.00  0.00     0.000 C 
BRANCH   2   3
ATOM      3  C   UNL     1       3.449  46.246  10.730  1.00  0.00     0.000 C 
BRANCH   3   4
ATOM      4  C   UNL     1       4.871  46.292  10.150  1.00  0.00     0.006 C 
BRANCH   4   5
ATOM      5  C   UNL     1       5.040  47.384   9.084  1.00  0.00     0.053 C 
BRANCH   5   6
ATOM      6  C   UNL     1       6.367  48.059   9.236  1.00  0.00     0.041 C 
ATOM      7  O   UNL     1       6.472  49.299   9.043  1.00  0.00    -0.550 OA
ATOM      8  O   UNL     1       7.477  47.329   9.641  1.00  0.00    -0.550 OA
ENDBRANCH   5   6
ENDBRANCH   4   5
ENDBRANCH   3   4
ENDBRANCH   2   3
ENDBRANCH   1   2
BRANCH   1   9
ATOM      9  C   UNL     1       1.255  44.392  10.483  1.00  0.00     0.000 C 
BRANCH   9  10
ATOM     10  C   UNL     1       1.883  43.469   9.416  1.00  0.00    -0.000 C 
BRANCH  10  11
ATOM     11  C   UNL     1       2.925  42.485   9.984  1.00  0.00    -0.000 C 
BRANCH  11  12
ATOM     12  C   UNL     1       2.964  42.393  11.521  1.00  0.00    -0.000 C 
BRANCH  12  13
ATOM     13  C   UNL     1       3.852  41.265  12.077  1.00  0.00    -0.003 C 
ATOM     14  C   UNL     1       3.048  40.057  12.558  1.00  0.00     0.004 C 
ENDBRANCH  12  13
ENDBRANCH  11  12
ENDBRANCH  10  11
ENDBRANCH   9  10
ENDBRANCH   1   9
TORSDOF 10
ENDMDL
MODEL 4
REMARK VINA RESULT:    -4.820      0.921      3.334
REMARK INTER + INTRA:          -8.621
REMARK INTER:                  -7.420
REMARK INTRA:                  -1.201
REMARK UNBOUND:                -0.983
REMARK SMILES CCCCCCCCCCCC(=O)[O-]
REMARK SMILES IDX 7 1 8 2 9 3 10 4 11 5 12 6 13 7 14 8 6 9 5 10 4 11 3 12 2 13
REMARK SMILES IDX 1 14
REMARK H PARENT
REMARK Flexibility Score: inf
ROOT
ATOM      1  C   UNL     1       3.111  43.766  11.766  1.00  0.00     0.000 C 
ENDROOT
BRANCH   1   2
ATOM      2  C   UNL     1       4.365  44.652  11.707  1.00  0.00     0.000 C 
BRANCH   2   3
ATOM      3  C   UNL     1       4.112  45.983  10.978  1.00  0.00     0.000 C 
BRANCH   3   4
ATOM      4  C   UNL     1       4.789  46.038   9.600  1.00  0.00     0.006 C 
BRANCH   4   5
ATOM      5  C   UNL     1       4.812  47.455   9.009  1.00  0.00     0.053 C 
BRANCH   5   6
ATOM      6  C   UNL     1       6.181  48.046   9.127  1.00  0.00     0.041 C 
ATOM      7  O   UNL     1       7.153  47.329   9.483  1.00  0.00    -0.550 OA
ATOM      8  O   UNL     1       6.395  49.378   8.794  1.00  0.00    -0.550 OA
ENDBRANCH   5   6
ENDBRANCH   4   5
ENDBRANCH   3   4
ENDBRANCH   2   3
ENDBRANCH   1   2
BRANCH   1   9
ATOM      9  C   UNL     1       3.056  42.741  10.620  1.00  0.00     0.000 C 
BRANCH   9  10
ATOM     10  C   UNL     1       2.171  43.217   9.447  1.00  0.00    -0.000 C 
BRANCH  10  11
ATOM     11  C   UNL     1       1.185  44.338   9.830  1.00  0.00    -0.000 C 
BRANCH  11  12
ATOM     12  C   UNL     1       0.952  45.401   8.740  1.00  0.00    -0.000 C 
BRANCH  12  13
ATOM     13  C   UNL     1       1.088  46.858   9.219  1.00  0.00    -0.003 C 
ATOM     14  C   UNL     1       0.802  47.877   8.117  1.00  0.00     0.004 C 
ENDBRANCH  12  13
ENDBRANCH  11  12
ENDBRANCH  10  11
ENDBRANCH   9  10
ENDBRANCH   1   9
TORSDOF 10
ENDMDL
MODEL 5
REMARK VINA RESULT:    -4.756      2.362      4.781
REMARK INTER + INTRA:          -8.520
REMARK INTER:                  -7.494
REMARK INTRA:                  -1.026
REMARK UNBOUND:                -0.983
REMARK SMILES CCCCCCCCCCCC(=O)[O-]
REMARK SMILES IDX 7 1 8 2 9 3 10 4 11 5 12 6 13 7 14 8 6 9 5 10 4 11 3 12 2 13
REMARK SMILES IDX 1 14
REMARK H PARENT
REMARK Flexibility Score: inf
ROOT
ATOM      1  C   UNL     1       0.484  46.518   8.975  1.00  0.00     0.000 C 
ENDROOT
BRANCH   1   2
ATOM      2  C   UNL     1       0.234  45.484  10.084  1.00  0.00     0.000 C 
BRANCH   2   3
ATOM      3  C   UNL     1       1.525  44.771  10.524  1.00  0.00     0.000 C 
BRANCH   3   4
ATOM      4  C   UNL     1       1.993  43.718   9.507  1.00  0.00     0.006 C 
BRANCH   4   5
ATOM      5  C   UNL     1       3.500  43.441   9.594  1.00  0.00     0.053 C 
BRANCH   5   6
ATOM      6  C   UNL     1       3.883  43.072  10.992  1.00  0.00     0.041 C 
ATOM      7  O   UNL     1       3.576  41.942  11.455  1.00  0.00    -0.550 OA
ATOM      8  O   UNL     1       4.622  43.956  11.768  1.00  0.00    -0.550 OA
ENDBRANCH   5   6
ENDBRANCH   4   5
ENDBRANCH   3   4
ENDBRANCH   2   3
ENDBRANCH   1   2
BRANCH   1   9
ATOM      9  C   UNL     1       1.702  47.412   9.262  1.00  0.00     0.000 C 
BRANCH   9  10
ATOM     10  C   UNL     1       2.414  47.868   7.970  1.00  0.00    -0.000 C 
BRANCH  10  11
ATOM     11  C   UNL     1       3.949  47.750   8.033  1.00  0.00    -0.000 C 
BRANCH  11  12
ATOM     12  C   UNL     1       4.490  46.905   9.202  1.00  0.00    -0.000 C 
BRANCH  12  13
ATOM     13  C   UNL     1       5.938  47.225   9.614  1.00  0.00    -0.003 C 
ATOM     14  C   UNL     1       6.373  48.635   9.216  1.00  0.00     0.004 C 
ENDBRANCH  12  13
ENDBRANCH  11  12
ENDBRANCH  10  11
ENDBRANCH   9  10
ENDBRANCH   1   9
TORSDOF 10
ENDMDL
MODEL 6
REMARK VINA RESULT:    -4.754      2.700      5.331
REMARK INTER + INTRA:          -8.517
REMARK INTER:                  -7.489
REMARK INTRA:                  -1.028
REMARK UNBOUND:                -0.983
REMARK SMILES CCCCCCCCCCCC(=O)[O-]
REMARK SMILES IDX 7 1 8 2 9 3 10 4 11 5 12 6 13 7 14 8 6 9 5 10 4 11 3 12 2 13
REMARK SMILES IDX 1 14
REMARK H PARENT
REMARK Flexibility Score: inf
ROOT
ATOM      1  C   UNL     1       3.822  42.829  12.026  1.00  0.00     0.000 C 
ENDROOT
BRANCH   1   2
ATOM      2  C   UNL     1       2.568  42.693  11.148  1.00  0.00     0.000 C 
BRANCH   2   3
ATOM      3  C   UNL     1       1.342  43.391  11.761  1.00  0.00     0.000 C 
BRANCH   3   4
ATOM      4  C   UNL     1       0.889  44.613  10.946  1.00  0.00     0.006 C 
BRANCH   4   5
ATOM      5  C   UNL     1       1.189  44.469   9.447  1.00  0.00     0.053 C 
BRANCH   5   6
ATOM      6  C   UNL     1       0.700  45.669   8.700  1.00  0.00     0.041 C 
ATOM      7  O   UNL     1      -0.026  45.528   7.681  1.00  0.00    -0.550 OA
ATOM      8  O   UNL     1       1.003  46.945   9.158  1.00  0.00    -0.550 OA
ENDBRANCH   5   6
ENDBRANCH   4   5
ENDBRANCH   3   4
ENDBRANCH   2   3
ENDBRANCH   1   2
BRANCH   1   9
ATOM      9  C   UNL     1       4.305  44.285  12.146  1.00  0.00     0.000 C 
BRANCH   9  10
ATOM     10  C   UNL     1       4.673  44.896  10.776  1.00  0.00    -0.000 C 
BRANCH  10  11
ATOM     11  C   UNL     1       4.232  46.364  10.614  1.00  0.00    -0.000 C 
BRANCH  11  12
ATOM     12  C   UNL     1       4.711  47.049   9.321  1.00  0.00    -0.000 C 
BRANCH  12  13
ATOM     13  C   UNL     1       6.212  47.391   9.289  1.00  0.00    -0.003 C 
ATOM     14  C   UNL     1       6.481  48.895   9.311  1.00  0.00     0.004 C 
ENDBRANCH  12  13
ENDBRANCH  11  12
ENDBRANCH  10  11
ENDBRANCH   9  10
ENDBRANCH   1   9
TORSDOF 10
ENDMDL
MODEL 7
REMARK VINA RESULT:    -4.742      0.984      1.457
REMARK INTER + INTRA:          -8.498
REMARK INTER:                  -7.297
REMARK INTRA:                  -1.200
REMARK UNBOUND:                -0.983
REMARK SMILES CCCCCCCCCCCC(=O)[O-]
REMARK SMILES IDX 7 1 8 2 9 3 10 4 11 5 12 6 13 7 14 8 6 9 5 10 4 11 3 12 2 13
REMARK SMILES IDX 1 14
REMARK H PARENT
REMARK Flexibility Score: inf
ROOT
ATOM      1  C   UNL     1       0.346  46.436   9.190  1.00  0.00     0.000 C 
ENDROOT
BRANCH   1   2
ATOM      2  C   UNL     1       1.423  47.431   8.732  1.00  0.00     0.000 C 
BRANCH   2   3
ATOM      3  C   UNL     1       2.708  47.334   9.573  1.00  0.00     0.000 C 
BRANCH   3   4
ATOM      4  C   UNL     1       3.960  47.099   8.714  1.00  0.00     0.006 C 
BRANCH   4   5
ATOM      5  C   UNL     1       5.199  46.758   9.554  1.00  0.00     0.053 C 
BRANCH   5   6
ATOM      6  C   UNL     1       6.296  47.739   9.287  1.00  0.00     0.041 C 
ATOM      7  O   UNL     1       6.024  48.895   8.867  1.00  0.00    -0.550 OA
ATOM      8  O   UNL     1       7.616  47.396   9.550  1.00  0.00    -0.550 OA
ENDBRANCH   5   6
ENDBRANCH   4   5
ENDBRANCH   3   4
ENDBRANCH   2   3
ENDBRANCH   1   2
BRANCH   1   9
ATOM      9  C   UNL     1       0.930  45.067   9.579  1.00  0.00     0.000 C 
BRANCH   9  10
ATOM     10  C   UNL     1       0.560  44.658  11.021  1.00  0.00    -0.000 C 
BRANCH  10  11
ATOM     11  C   UNL     1       1.650  43.831  11.730  1.00  0.00    -0.000 C 
BRANCH  11  12
ATOM     12  C   UNL     1       3.083  44.373  11.575  1.00  0.00    -0.000 C 
BRANCH  12  13
ATOM     13  C   UNL     1       4.078  43.390  10.930  1.00  0.00    -0.003 C 
ATOM     14  C   UNL     1       3.864  43.227   9.426  1.00  0.00     0.004 C 
ENDBRANCH  12  13
ENDBRANCH  11  12
ENDBRANCH  10  11
ENDBRANCH   9  10
ENDBRANCH   1   9
TORSDOF 10
ENDMDL
MODEL 8
REMARK VINA RESULT:    -4.731      1.213      3.688
REMARK INTER + INTRA:          -8.480
REMARK INTER:                  -7.277
REMARK INTRA:                  -1.203
REMARK UNBOUND:                -0.983
REMARK SMILES CCCCCCCCCCCC(=O)[O-]
REMARK SMILES IDX 7 1 8 2 9 3 10 4 11 5 12 6 13 7 14 8 6 9 5 10 4 11 3 12 2 13
REMARK SMILES IDX 1 14
REMARK H PARENT
REMARK Flexibility Score: inf
ROOT
ATOM      1  C   UNL     1       2.605  42.696  10.534  1.00  0.00     0.000 C 
ENDROOT
BRANCH   1   2
ATOM      2  C   UNL     1       4.011  43.308  10.421  1.00  0.00     0.000 C 
BRANCH   2   3
ATOM      3  C   UNL     1       4.297  44.331  11.534  1.00  0.00     0.000 C 
BRANCH   3   4
ATOM      4  C   UNL     1       4.311  45.778  11.016  1.00  0.00     0.006 C 
BRANCH   4   5
ATOM      5  C   UNL     1       4.479  45.860   9.493  1.00  0.00     0.053 C 
BRANCH   5   6
ATOM      6  C   UNL     1       5.198  47.116   9.114  1.00  0.00     0.041 C 
ATOM      7  O   UNL     1       4.611  48.004   8.441  1.00  0.00    -0.550 OA
ATOM      8  O   UNL     1       6.500  47.331   9.548  1.00  0.00    -0.550 OA
ENDBRANCH   5   6
ENDBRANCH   4   5
ENDBRANCH   3   4
ENDBRANCH   2   3
ENDBRANCH   1   2
BRANCH   1   9
ATOM      9  C   UNL     1       1.826  43.223  11.752  1.00  0.00     0.000 C 
BRANCH   9  10
ATOM     10  C   UNL     1       0.742  44.248  11.357  1.00  0.00    -0.000 C 
BRANCH  10  11
ATOM     11  C   UNL     1       0.841  44.723   9.894  1.00  0.00    -0.000 C 
BRANCH  11  12
ATOM     12  C   UNL     1       0.837  46.251   9.704  1.00  0.00    -0.000 C 
BRANCH  12  13
ATOM     13  C   UNL     1       1.044  46.721   8.252  1.00  0.00    -0.003 C 
ATOM     14  C   UNL     1       1.141  48.241   8.126  1.00  0.00     0.004 C 
ENDBRANCH  12  13
ENDBRANCH  11  12
ENDBRANCH  10  11
ENDBRANCH   9  10
ENDBRANCH   1   9
TORSDOF 10
ENDMDL
MODEL 9
REMARK VINA RESULT:    -4.690      3.599      6.042
REMARK INTER + INTRA:          -8.416
REMARK INTER:                  -7.787
REMARK INTRA:                  -0.629
REMARK UNBOUND:                -0.983
REMARK SMILES CCCCCCCCCCCC(=O)[O-]
REMARK SMILES IDX 7 1 8 2 9 3 10 4 11 5 12 6 13 7 14 8 6 9 5 10 4 11 3 12 2 13
REMARK SMILES IDX 1 14
REMARK H PARENT
REMARK Flexibility Score: inf
ROOT
ATOM      1  C   UNL     1       1.960  44.417  10.032  1.00  0.00     0.000 C 
ENDROOT
BRANCH   1   2
ATOM      2  C   UNL     1       2.034  44.374  11.566  1.00  0.00     0.000 C 
BRANCH   2   3
ATOM      3  C   UNL     1       3.456  44.089  12.078  1.00  0.00     0.000 C 
BRANCH   3   4
ATOM      4  C   UNL     1       3.998  42.734  11.595  1.00  0.00     0.006 C 
BRANCH   4   5
ATOM      5  C   UNL     1       2.955  41.612  11.695  1.00  0.00     0.053 C 
BRANCH   5   6
ATOM      6  C   UNL     1       3.532  40.427  12.403  1.00  0.00     0.041 C 
ATOM      7  O   UNL     1       4.745  40.418  12.739  1.00  0.00    -0.550 OA
ATOM      8  O   UNL     1       2.717  39.353  12.738  1.00  0.00    -0.550 OA
ENDBRANCH   5   6
ENDBRANCH   4   5
ENDBRANCH   3   4
ENDBRANCH   2   3
ENDBRANCH   1   2
BRANCH   1   9
ATOM      9  C   UNL     1       1.622  45.818   9.494  1.00  0.00     0.000 C 
BRANCH   9  10
ATOM     10  C   UNL     1       2.666  46.876   9.915  1.00  0.00    -0.000 C 
BRANCH  10  11
ATOM     11  C   UNL     1       3.968  46.822   9.093  1.00  0.00    -0.000 C 
BRANCH  11  12
ATOM     12  C   UNL     1       5.260  46.714   9.925  1.00  0.00    -0.000 C 
BRANCH  12  13
ATOM     13  C   UNL     1       6.496  47.373   9.286  1.00  0.00    -0.003 C 
ATOM     14  C   UNL     1       6.374  48.892   9.181  1.00  0.00     0.004 C 
ENDBRANCH  12  13
ENDBRANCH  11  12
ENDBRANCH  10  11
ENDBRANCH   9  10
ENDBRANCH   1   9
TORSDOF 10
ENDMDL
