MODEL 1
REMARK VINA RESULT:    -4.427      0.000      0.000
REMARK INTER + INTRA:          -5.549
REMARK INTER:                  -5.333
REMARK INTRA:                  -0.216
REMARK UNBOUND:                -0.216
REMARK SMILES O=c1c(O)c(-c2ccc(O)c(O)c2)oc2cc(O)cc(O)c12
REMARK SMILES IDX 5 1 3 2 2 3 1 4 22 5 20 6 19 7 17 8 16 9 15 10 14 11 6 12
REMARK SMILES IDX 7 13 8 14 9 15 13 16 11 17 10 18 12 20 4 22 21 24 18 26
REMARK H PARENT 10 19 12 21 4 23 21 25 18 27
REMARK Flexibility Score: inf
ROOT
ATOM      1  C   UNL     1      11.947   8.070  28.503  1.00  0.00     0.180 A 
ATOM      2  C   UNL     1      10.650   8.214  27.981  1.00  0.00     0.208 A 
ATOM      3  C   UNL     1       9.851   9.278  28.429  1.00  0.00     0.238 A 
ATOM      4  O   UNL     1       8.710   9.433  27.918  1.00  0.00    -0.285 OA
ATOM      5  C   UNL     1      10.351  10.173  29.404  1.00  0.00     0.111 A 
ATOM      6  C   UNL     1       9.613  11.262  29.959  1.00  0.00     0.134 A 
ATOM      7  C   UNL     1      10.253  12.161  30.822  1.00  0.00     0.093 A 
ATOM      8  C   UNL     1      11.585  11.975  31.199  1.00  0.00     0.123 A 
ATOM      9  C   UNL     1      12.295  10.881  30.709  1.00  0.00     0.094 A 
ATOM     10  C   UNL     1      11.696   9.987  29.819  1.00  0.00     0.146 A 
ATOM     11  O   UNL     1      12.412   8.964  29.368  1.00  0.00    -0.452 OA
ENDROOT
BRANCH   1  12
ATOM     12  C   UNL     1      12.841   6.960  28.099  1.00  0.00     0.025 A 
ATOM     13  C   UNL     1      13.409   6.963  26.815  1.00  0.00     0.016 A 
ATOM     14  C   UNL     1      14.271   5.937  26.421  1.00  0.00     0.051 A 
ATOM     15  C   UNL     1      14.589   4.902  27.308  1.00  0.00     0.157 A 
ATOM     16  C   UNL     1      13.179   5.929  28.994  1.00  0.00     0.062 A 
ATOM     17  C   UNL     1      14.045   4.900  28.599  1.00  0.00     0.158 A 
BRANCH  15  18
ATOM     18  O   UNL     1      15.447   3.875  26.917  1.00  0.00    -0.504 OA
ATOM     19  H   UNL     1      15.974   3.924  26.053  1.00  0.00     0.293 HD
ENDBRANCH  15  18
BRANCH  17  20
ATOM     20  O   UNL     1      14.374   3.875  29.485  1.00  0.00    -0.504 OA
ATOM     21  H   UNL     1      14.643   4.067  30.442  1.00  0.00     0.293 HD
ENDBRANCH  17  20
ENDBRANCH   1  12
BRANCH   2  22
ATOM     22  O   UNL     1      10.185   7.331  27.003  1.00  0.00    -0.502 OA
ATOM     23  H   UNL     1       9.604   6.531  27.225  1.00  0.00     0.293 HD
ENDBRANCH   2  22
BRANCH   6  24
ATOM     24  O   UNL     1       8.254  11.485  29.721  1.00  0.00    -0.507 OA
ATOM     25  H   UNL     1       7.579  10.764  29.519  1.00  0.00     0.293 HD
ENDBRANCH   6  24
BRANCH   8  26
ATOM     26  O   UNL     1      12.208  12.865  32.069  1.00  0.00    -0.508 OA
ATOM     27  H   UNL     1      12.932  12.560  32.710  1.00  0.00     0.293 HD
ENDBRANCH   8  26
TORSDOF 6
ENDMDL
MODEL 2
REMARK VINA RESULT:    -3.388      1.119      2.844
REMARK INTER + INTRA:          -4.298
REMARK INTER:                  -4.177
REMARK INTRA:                  -0.120
REMARK UNBOUND:                -0.216
REMARK SMILES O=c1c(O)c(-c2ccc(O)c(O)c2)oc2cc(O)cc(O)c12
REMARK SMILES IDX 5 1 3 2 2 3 1 4 22 5 20 6 19 7 17 8 16 9 15 10 14 11 6 12
REMARK SMILES IDX 7 13 8 14 9 15 13 16 11 17 10 18 12 20 4 22 21 24 18 26
REMARK H PARENT 10 19 12 21 4 23 21 25 18 27
REMARK Flexibility Score: inf
ROOT
ATOM      1  C   UNL     1      12.595   8.315  29.033  1.00  0.00     0.180 A 
ATOM      2  C   UNL     1      13.297   9.119  29.948  1.00  0.00     0.208 A 
ATOM      3  C   UNL     1      12.650  10.227  30.517  1.00  0.00     0.238 A 
ATOM      4  O   UNL     1      13.265  10.912  31.376  1.00  0.00    -0.285 OA
ATOM      5  C   UNL     1      11.316  10.528  30.152  1.00  0.00     0.111 A 
ATOM      6  C   UNL     1      10.576  11.649  30.636  1.00  0.00     0.134 A 
ATOM      7  C   UNL     1       9.220  11.775  30.308  1.00  0.00     0.093 A 
ATOM      8  C   UNL     1       8.594  10.856  29.463  1.00  0.00     0.123 A 
ATOM      9  C   UNL     1       9.324   9.792  28.939  1.00  0.00     0.094 A 
ATOM     10  C   UNL     1      10.668   9.619  29.275  1.00  0.00     0.146 A 
ATOM     11  O   UNL     1      11.323   8.585  28.761  1.00  0.00    -0.452 OA
ENDROOT
BRANCH   1  12
ATOM     12  C   UNL     1      13.218   7.145  28.373  1.00  0.00     0.025 A 
ATOM     13  C   UNL     1      13.392   7.149  26.980  1.00  0.00     0.016 A 
ATOM     14  C   UNL     1      13.996   6.065  26.340  1.00  0.00     0.051 A 
ATOM     15  C   UNL     1      14.448   4.968  27.083  1.00  0.00     0.157 A 
ATOM     16  C   UNL     1      13.692   6.051  29.119  1.00  0.00     0.062 A 
ATOM     17  C   UNL     1      14.300   4.963  28.476  1.00  0.00     0.158 A 
BRANCH  15  18
ATOM     18  O   UNL     1      15.050   3.883  26.447  1.00  0.00    -0.504 OA
ATOM     19  H   UNL     1      14.693   2.941  26.553  1.00  0.00     0.293 HD
ENDBRANCH  15  18
BRANCH  17  20
ATOM     20  O   UNL     1      14.764   3.876  29.215  1.00  0.00    -0.504 OA
ATOM     21  H   UNL     1      15.582   3.351  28.931  1.00  0.00     0.293 HD
ENDBRANCH  17  20
ENDBRANCH   1  12
BRANCH   2  22
ATOM     22  O   UNL     1      14.606   8.791  30.311  1.00  0.00    -0.502 OA
ATOM     23  H   UNL     1      15.408   9.323  29.992  1.00  0.00     0.293 HD
ENDBRANCH   2  22
BRANCH   6  24
ATOM     24  O   UNL     1      11.129  12.673  31.411  1.00  0.00    -0.507 OA
ATOM     25  H   UNL     1      11.851  13.304  31.099  1.00  0.00     0.293 HD
ENDBRANCH   6  24
BRANCH   8  26
ATOM     26  O   UNL     1       7.250  10.997  29.130  1.00  0.00    -0.508 OA
ATOM     27  H   UNL     1       6.950  11.103  28.167  1.00  0.00     0.293 HD
ENDBRANCH   8  26
TORSDOF 6
ENDMDL
