MODEL 1
REMARK VINA RESULT:    -6.661      0.000      0.000
REMARK INTER + INTRA:          -6.861
REMARK INTER:                  -7.245
REMARK INTRA:                   0.384
REMARK UNBOUND:                 0.384
REMARK SMILES C[C@@H]1[C@H](C)CC[C@]2(C(=O)[O-])CC[C@]3(C)C(=CC[C@H]4[C@@]5(C)CC[C@H](O)C(C)(C)[C@H]5CC[C@@]43C)[C@@H]12
REMARK SMILES IDX 7 1 6 2 11 3 33 4 5 5 12 6 15 7 2 8 3 9 13 10 16 11 1 12
REMARK SMILES IDX 4 13 14 14 31 15 17 16 18 17 30 18 32 19 19 20 29 21 28 22
REMARK SMILES IDX 21 23 20 24 25 25 22 26 23 27 26 28 27 29 8 30 9 31 10 32
REMARK SMILES IDX 24 33
REMARK H PARENT 24 34
REMARK Flexibility Score: inf
ROOT
ATOM      1  C   UNL     1      72.273  40.119   7.858  1.00  0.00     0.017 C 
ATOM      2  C   UNL     1      72.188  38.744   8.581  1.00  0.00     0.014 C 
ATOM      3  C   UNL     1      73.366  41.049   8.510  1.00  0.00     0.014 C 
ATOM      4  C   UNL     1      70.855  40.757   7.991  1.00  0.00     0.030 C 
ATOM      5  C   UNL     1      71.119  37.833   7.931  1.00  0.00     0.004 C 
ATOM      6  C   UNL     1      72.877  42.227   9.403  1.00  0.00     0.013 C 
ATOM      7  C   UNL     1      70.948  42.251   7.748  1.00  0.00    -0.063 C 
ATOM      8  C   UNL     1      69.740  39.928   7.294  1.00  0.00    -0.003 C 
ATOM      9  C   UNL     1      69.706  38.472   7.880  1.00  0.00    -0.011 C 
ATOM     10  C   UNL     1      71.596  43.041   8.920  1.00  0.00    -0.006 C 
ATOM     11  C   UNL     1      70.857  42.743   6.475  1.00  0.00    -0.027 C 
ATOM     12  C   UNL     1      68.365  40.619   7.393  1.00  0.00     0.008 C 
ATOM     13  C   UNL     1      69.018  38.355   9.258  1.00  0.00     0.008 C 
ATOM     14  C   UNL     1      70.589  43.055  10.122  1.00  0.00     0.017 C 
ATOM     15  C   UNL     1      71.889  44.549   8.439  1.00  0.00    -0.020 C 
ATOM     16  C   UNL     1      71.573  43.999   5.992  1.00  0.00     0.032 C 
ATOM     17  C   UNL     1      72.619  44.437   7.043  1.00  0.00     0.006 C 
ATOM     18  C   UNL     1      72.734  45.425   9.412  1.00  0.00     0.008 C 
ATOM     19  C   UNL     1      70.498  45.276   8.334  1.00  0.00     0.012 C 
ATOM     20  C   UNL     1      73.749  45.516   6.675  1.00  0.00    -0.025 C 
ATOM     21  C   UNL     1      73.004  46.844   8.853  1.00  0.00     0.005 C 
ATOM     22  C   UNL     1      73.533  46.929   7.376  1.00  0.00     0.003 C 
ATOM     23  C   UNL     1      74.013  45.635   5.130  1.00  0.00     0.010 C 
ATOM     24  C   UNL     1      75.125  44.940   7.195  1.00  0.00     0.012 C 
ATOM     25  C   UNL     1      72.917  48.129   6.510  1.00  0.00    -0.006 C 
ATOM     26  C   UNL     1      73.202  46.693   4.403  1.00  0.00     0.033 C 
ATOM     27  C   UNL     1      73.417  48.078   5.027  1.00  0.00     0.120 C 
ATOM     28  C   UNL     1      71.366  48.179   6.457  1.00  0.00     0.014 C 
ATOM     29  C   UNL     1      73.358  49.484   7.131  1.00  0.00     0.014 C 
ENDROOT
BRANCH   1  30
ATOM     30  C   UNL     1      72.729  39.859   6.417  1.00  0.00     0.048 C 
ATOM     31  O   UNL     1      73.862  39.348   6.204  1.00  0.00    -0.550 OA
ATOM     32  O   UNL     1      71.975  40.247   5.320  1.00  0.00    -0.550 OA
ENDBRANCH   1  30
BRANCH  27  33
ATOM     33  O   UNL     1      74.753  48.502   4.870  1.00  0.00    -0.393 OA
ATOM     34  H   UNL     1      75.308  47.726   4.605  1.00  0.00     0.210 HD
ENDBRANCH  27  33
TORSDOF 2
ENDMDL
MODEL 2
REMARK VINA RESULT:    -6.634      2.203      4.057
REMARK INTER + INTRA:          -6.831
REMARK INTER:                  -7.118
REMARK INTRA:                   0.286
REMARK UNBOUND:                 0.384
REMARK SMILES C[C@@H]1[C@H](C)CC[C@]2(C(=O)[O-])CC[C@]3(C)C(=CC[C@H]4[C@@]5(C)CC[C@H](O)C(C)(C)[C@H]5CC[C@@]43C)[C@@H]12
REMARK SMILES IDX 7 1 6 2 11 3 33 4 5 5 12 6 15 7 2 8 3 9 13 10 16 11 1 12
REMARK SMILES IDX 4 13 14 14 31 15 17 16 18 17 30 18 32 19 19 20 29 21 28 22
REMARK SMILES IDX 21 23 20 24 25 25 22 26 23 27 26 28 27 29 8 30 9 31 10 32
REMARK SMILES IDX 24 33
REMARK H PARENT 24 34
REMARK Flexibility Score: inf
ROOT
ATOM      1  C   UNL     1      70.299  41.683   7.376  1.00  0.00     0.017 C 
ATOM      2  C   UNL     1      70.033  40.277   6.766  1.00  0.00     0.014 C 
ATOM      3  C   UNL     1      69.902  42.834   6.375  1.00  0.00     0.014 C 
ATOM      4  C   UNL     1      71.828  41.728   7.690  1.00  0.00     0.030 C 
ATOM      5  C   UNL     1      70.418  39.153   7.757  1.00  0.00     0.004 C 
ATOM      6  C   UNL     1      71.053  43.594   5.650  1.00  0.00     0.013 C 
ATOM      7  C   UNL     1      72.271  43.171   7.841  1.00  0.00    -0.063 C 
ATOM      8  C   UNL     1      72.272  40.670   8.738  1.00  0.00    -0.003 C 
ATOM      9  C   UNL     1      71.890  39.230   8.243  1.00  0.00    -0.011 C 
ATOM     10  C   UNL     1      72.354  43.947   6.496  1.00  0.00    -0.006 C 
ATOM     11  C   UNL     1      72.183  43.789   9.057  1.00  0.00    -0.027 C 
ATOM     12  C   UNL     1      73.773  40.784   9.067  1.00  0.00     0.008 C 
ATOM     13  C   UNL     1      72.837  38.653   7.167  1.00  0.00     0.008 C 
ATOM     14  C   UNL     1      73.581  43.403   5.685  1.00  0.00     0.017 C 
ATOM     15  C   UNL     1      72.561  45.514   6.806  1.00  0.00    -0.020 C 
ATOM     16  C   UNL     1      71.919  45.279   9.240  1.00  0.00     0.032 C 
ATOM     17  C   UNL     1      71.481  45.898   7.892  1.00  0.00     0.006 C 
ATOM     18  C   UNL     1      72.450  46.473   5.583  1.00  0.00     0.008 C 
ATOM     19  C   UNL     1      74.033  45.688   7.333  1.00  0.00     0.012 C 
ATOM     20  C   UNL     1      70.819  47.360   7.838  1.00  0.00    -0.025 C 
ATOM     21  C   UNL     1      72.618  47.961   5.977  1.00  0.00     0.005 C 
ATOM     22  C   UNL     1      71.770  48.466   7.199  1.00  0.00     0.003 C 
ATOM     23  C   UNL     1      70.196  47.809   9.208  1.00  0.00     0.010 C 
ATOM     24  C   UNL     1      69.539  47.254   6.919  1.00  0.00     0.012 C 
ATOM     25  C   UNL     1      72.536  49.478   8.178  1.00  0.00    -0.006 C 
ATOM     26  C   UNL     1      71.116  48.597  10.125  1.00  0.00     0.033 C 
ATOM     27  C   UNL     1      71.657  49.848   9.419  1.00  0.00     0.120 C 
ATOM     28  C   UNL     1      73.894  48.964   8.729  1.00  0.00     0.014 C 
ATOM     29  C   UNL     1      72.867  50.784   7.403  1.00  0.00     0.014 C 
ENDROOT
BRANCH   1  30
ATOM     30  C   UNL     1      69.387  41.839   8.600  1.00  0.00     0.048 C 
ATOM     31  O   UNL     1      68.177  42.154   8.438  1.00  0.00    -0.550 OA
ATOM     32  O   UNL     1      69.863  41.733   9.898  1.00  0.00    -0.550 OA
ENDBRANCH   1  30
BRANCH  27  33
ATOM     33  O   UNL     1      70.615  50.751   9.120  1.00  0.00    -0.393 OA
ATOM     34  H   UNL     1      69.853  50.576   9.727  1.00  0.00     0.210 HD
ENDBRANCH  27  33
TORSDOF 2
ENDMDL
MODEL 3
REMARK VINA RESULT:    -6.578      2.446      7.813
REMARK INTER + INTRA:          -6.771
REMARK INTER:                  -7.328
REMARK INTRA:                   0.556
REMARK UNBOUND:                 0.384
REMARK SMILES C[C@@H]1[C@H](C)CC[C@]2(C(=O)[O-])CC[C@]3(C)C(=CC[C@H]4[C@@]5(C)CC[C@H](O)C(C)(C)[C@H]5CC[C@@]43C)[C@@H]12
REMARK SMILES IDX 7 1 6 2 11 3 33 4 5 5 12 6 15 7 2 8 3 9 13 10 16 11 1 12
REMARK SMILES IDX 4 13 14 14 31 15 17 16 18 17 30 18 32 19 19 20 29 21 28 22
REMARK SMILES IDX 21 23 20 24 25 25 22 26 23 27 26 28 27 29 8 30 9 31 10 32
REMARK SMILES IDX 24 33
REMARK H PARENT 24 34
REMARK Flexibility Score: inf
ROOT
ATOM      1  C   UNL     1      70.226  47.332   8.512  1.00  0.00     0.017 C 
ATOM      2  C   UNL     1      70.533  48.792   8.953  1.00  0.00     0.014 C 
ATOM      3  C   UNL     1      70.003  46.386   9.752  1.00  0.00     0.014 C 
ATOM      4  C   UNL     1      71.464  46.870   7.680  1.00  0.00     0.030 C 
ATOM      5  C   UNL     1      70.743  49.716   7.730  1.00  0.00     0.004 C 
ATOM      6  C   UNL     1      71.145  45.394  10.123  1.00  0.00     0.013 C 
ATOM      7  C   UNL     1      71.484  45.355   7.604  1.00  0.00    -0.063 C 
ATOM      8  C   UNL     1      71.691  47.712   6.395  1.00  0.00    -0.003 C 
ATOM      9  C   UNL     1      71.857  49.228   6.767  1.00  0.00    -0.011 C 
ATOM     10  C   UNL     1      71.907  44.663   8.932  1.00  0.00    -0.006 C 
ATOM     11  C   UNL     1      70.799  44.712   6.611  1.00  0.00    -0.027 C 
ATOM     12  C   UNL     1      72.883  47.189   5.569  1.00  0.00     0.008 C 
ATOM     13  C   UNL     1      73.248  49.597   7.328  1.00  0.00     0.008 C 
ATOM     14  C   UNL     1      73.439  44.913   9.153  1.00  0.00     0.017 C 
ATOM     15  C   UNL     1      71.627  43.082   8.812  1.00  0.00    -0.020 C 
ATOM     16  C   UNL     1      70.164  43.335   6.765  1.00  0.00     0.032 C 
ATOM     17  C   UNL     1      70.155  42.932   8.258  1.00  0.00     0.006 C 
ATOM     18  C   UNL     1      71.788  42.258  10.125  1.00  0.00     0.008 C 
ATOM     19  C   UNL     1      72.703  42.498   7.825  1.00  0.00     0.012 C 
ATOM     20  C   UNL     1      69.261  41.701   8.770  1.00  0.00    -0.025 C 
ATOM     21  C   UNL     1      71.458  40.758   9.929  1.00  0.00     0.005 C 
ATOM     22  C   UNL     1      70.115  40.423   9.187  1.00  0.00     0.003 C 
ATOM     23  C   UNL     1      68.074  41.352   7.801  1.00  0.00     0.010 C 
ATOM     24  C   UNL     1      68.492  42.192  10.059  1.00  0.00     0.012 C 
ATOM     25  C   UNL     1      70.200  39.191   8.165  1.00  0.00    -0.006 C 
ATOM     26  C   UNL     1      68.371  40.299   6.748  1.00  0.00     0.033 C 
ATOM     27  C   UNL     1      68.852  38.992   7.396  1.00  0.00     0.120 C 
ATOM     28  C   UNL     1      71.317  39.298   7.092  1.00  0.00     0.014 C 
ATOM     29  C   UNL     1      70.508  37.891   8.961  1.00  0.00     0.014 C 
ENDROOT
BRANCH   1  30
ATOM     30  C   UNL     1      68.902  47.350   7.737  1.00  0.00     0.048 C 
ATOM     31  O   UNL     1      68.226  46.290   7.634  1.00  0.00    -0.550 OA
ATOM     32  O   UNL     1      68.453  48.475   7.062  1.00  0.00    -0.550 OA
ENDBRANCH   1  30
BRANCH  27  33
ATOM     33  O   UNL     1      67.835  38.414   8.183  1.00  0.00    -0.393 OA
ATOM     34  H   UNL     1      66.963  38.799   7.918  1.00  0.00     0.210 HD
ENDBRANCH  27  33
TORSDOF 2
ENDMDL
MODEL 4
REMARK VINA RESULT:    -6.291      1.590      7.459
REMARK INTER + INTRA:          -6.459
REMARK INTER:                  -6.796
REMARK INTRA:                   0.337
REMARK UNBOUND:                 0.384
REMARK SMILES C[C@@H]1[C@H](C)CC[C@]2(C(=O)[O-])CC[C@]3(C)C(=CC[C@H]4[C@@]5(C)CC[C@H](O)C(C)(C)[C@H]5CC[C@@]43C)[C@@H]12
REMARK SMILES IDX 7 1 6 2 11 3 33 4 5 5 12 6 15 7 2 8 3 9 13 10 16 11 1 12
REMARK SMILES IDX 4 13 14 14 31 15 17 16 18 17 30 18 32 19 19 20 29 21 28 22
REMARK SMILES IDX 21 23 20 24 25 25 22 26 23 27 26 28 27 29 8 30 9 31 10 32
REMARK SMILES IDX 24 33
REMARK H PARENT 24 34
REMARK Flexibility Score: inf
ROOT
ATOM      1  C   UNL     1      72.804  46.309   6.326  1.00  0.00     0.017 C 
ATOM      2  C   UNL     1      72.498  47.821   6.128  1.00  0.00     0.014 C 
ATOM      3  C   UNL     1      71.532  45.419   6.053  1.00  0.00     0.014 C 
ATOM      4  C   UNL     1      73.274  46.161   7.807  1.00  0.00     0.030 C 
ATOM      5  C   UNL     1      73.753  48.687   6.390  1.00  0.00     0.004 C 
ATOM      6  C   UNL     1      70.793  44.814   7.284  1.00  0.00     0.013 C 
ATOM      7  C   UNL     1      73.148  44.711   8.236  1.00  0.00    -0.063 C 
ATOM      8  C   UNL     1      74.576  46.949   8.122  1.00  0.00    -0.003 C 
ATOM      9  C   UNL     1      74.375  48.471   7.795  1.00  0.00    -0.011 C 
ATOM     10  C   UNL     1      71.682  44.252   8.479  1.00  0.00    -0.006 C 
ATOM     11  C   UNL     1      74.176  43.839   8.007  1.00  0.00    -0.027 C 
ATOM     12  C   UNL     1      75.042  46.730   9.575  1.00  0.00     0.008 C 
ATOM     13  C   UNL     1      73.572  49.251   8.859  1.00  0.00     0.008 C 
ATOM     14  C   UNL     1      71.161  44.936   9.790  1.00  0.00     0.017 C 
ATOM     15  C   UNL     1      71.655  42.651   8.654  1.00  0.00    -0.020 C 
ATOM     16  C   UNL     1      73.990  42.352   7.729  1.00  0.00     0.032 C 
ATOM     17  C   UNL     1      72.496  42.059   7.455  1.00  0.00     0.006 C 
ATOM     18  C   UNL     1      70.244  41.991   8.691  1.00  0.00     0.008 C 
ATOM     19  C   UNL     1      72.296  42.331  10.054  1.00  0.00     0.012 C 
ATOM     20  C   UNL     1      72.040  40.662   6.810  1.00  0.00    -0.025 C 
ATOM     21  C   UNL     1      70.312  40.449   8.817  1.00  0.00     0.005 C 
ATOM     22  C   UNL     1      71.283  39.705   7.832  1.00  0.00     0.003 C 
ATOM     23  C   UNL     1      73.194  39.933   6.031  1.00  0.00     0.010 C 
ATOM     24  C   UNL     1      71.027  40.999   5.646  1.00  0.00     0.012 C 
ATOM     25  C   UNL     1      72.093  38.483   8.483  1.00  0.00    -0.006 C 
ATOM     26  C   UNL     1      74.010  38.940   6.841  1.00  0.00     0.033 C 
ATOM     27  C   UNL     1      73.109  37.866   7.465  1.00  0.00     0.120 C 
ATOM     28  C   UNL     1      72.898  38.831   9.764  1.00  0.00     0.014 C 
ATOM     29  C   UNL     1      71.088  37.376   8.907  1.00  0.00     0.014 C 
ENDROOT
BRANCH   1  30
ATOM     30  C   UNL     1      73.848  45.905   5.277  1.00  0.00     0.048 C 
ATOM     31  O   UNL     1      73.526  45.871   4.059  1.00  0.00    -0.550 OA
ATOM     32  O   UNL     1      75.124  45.486   5.624  1.00  0.00    -0.550 OA
ENDBRANCH   1  30
BRANCH  27  33
ATOM     33  O   UNL     1      72.498  37.076   6.469  1.00  0.00    -0.393 OA
ATOM     34  H   UNL     1      72.601  37.526   5.594  1.00  0.00     0.210 HD
ENDBRANCH  27  33
TORSDOF 2
ENDMDL
MODEL 5
REMARK VINA RESULT:    -6.165      2.311      7.472
REMARK INTER + INTRA:          -6.322
REMARK INTER:                  -6.642
REMARK INTRA:                   0.320
REMARK UNBOUND:                 0.384
REMARK SMILES C[C@@H]1[C@H](C)CC[C@]2(C(=O)[O-])CC[C@]3(C)C(=CC[C@H]4[C@@]5(C)CC[C@H](O)C(C)(C)[C@H]5CC[C@@]43C)[C@@H]12
REMARK SMILES IDX 7 1 6 2 11 3 33 4 5 5 12 6 15 7 2 8 3 9 13 10 16 11 1 12
REMARK SMILES IDX 4 13 14 14 31 15 17 16 18 17 30 18 32 19 19 20 29 21 28 22
REMARK SMILES IDX 21 23 20 24 25 25 22 26 23 27 26 28 27 29 8 30 9 31 10 32
REMARK SMILES IDX 24 33
REMARK H PARENT 24 34
REMARK Flexibility Score: inf
ROOT
ATOM      1  C   UNL     1      71.167  47.434   9.063  1.00  0.00     0.017 C 
ATOM      2  C   UNL     1      71.056  48.841   9.716  1.00  0.00     0.014 C 
ATOM      3  C   UNL     1      71.545  46.331  10.124  1.00  0.00     0.014 C 
ATOM      4  C   UNL     1      72.278  47.556   7.974  1.00  0.00     0.030 C 
ATOM      5  C   UNL     1      70.677  49.917   8.669  1.00  0.00     0.004 C 
ATOM      6  C   UNL     1      73.004  45.786  10.117  1.00  0.00     0.013 C 
ATOM      7  C   UNL     1      72.787  46.172   7.613  1.00  0.00    -0.063 C 
ATOM      8  C   UNL     1      71.929  48.568   6.849  1.00  0.00    -0.003 C 
ATOM      9  C   UNL     1      71.656  49.985   7.467  1.00  0.00    -0.011 C 
ATOM     10  C   UNL     1      73.691  45.530   8.704  1.00  0.00    -0.006 C 
ATOM     11  C   UNL     1      72.159  45.447   6.639  1.00  0.00    -0.027 C 
ATOM     12  C   UNL     1      73.020  48.617   5.762  1.00  0.00     0.008 C 
ATOM     13  C   UNL     1      72.929  50.766   7.859  1.00  0.00     0.008 C 
ATOM     14  C   UNL     1      75.061  46.292   8.722  1.00  0.00     0.017 C 
ATOM     15  C   UNL     1      73.936  43.981   8.336  1.00  0.00    -0.020 C 
ATOM     16  C   UNL     1      72.069  43.925   6.632  1.00  0.00     0.032 C 
ATOM     17  C   UNL     1      72.517  43.373   8.006  1.00  0.00     0.006 C 
ATOM     18  C   UNL     1      74.642  43.123   9.429  1.00  0.00     0.008 C 
ATOM     19  C   UNL     1      74.907  43.951   7.099  1.00  0.00     0.012 C 
ATOM     20  C   UNL     1      72.217  41.850   8.414  1.00  0.00    -0.025 C 
ATOM     21  C   UNL     1      74.798  41.640   9.011  1.00  0.00     0.005 C 
ATOM     22  C   UNL     1      73.517  40.930   8.443  1.00  0.00     0.003 C 
ATOM     23  C   UNL     1      71.036  41.210   7.598  1.00  0.00     0.010 C 
ATOM     24  C   UNL     1      71.625  41.871   9.878  1.00  0.00     0.012 C 
ATOM     25  C   UNL     1      73.787  39.944   7.208  1.00  0.00    -0.006 C 
ATOM     26  C   UNL     1      71.434  40.470   6.333  1.00  0.00     0.033 C 
ATOM     27  C   UNL     1      72.451  39.362   6.640  1.00  0.00     0.120 C 
ATOM     28  C   UNL     1      74.545  40.577   6.010  1.00  0.00     0.014 C 
ATOM     29  C   UNL     1      74.675  38.761   7.687  1.00  0.00     0.014 C 
ENDROOT
BRANCH   1  30
ATOM     30  C   UNL     1      69.779  47.060   8.526  1.00  0.00     0.048 C 
ATOM     31  O   UNL     1      68.993  46.387   9.247  1.00  0.00    -0.550 OA
ATOM     32  O   UNL     1      69.380  47.360   7.232  1.00  0.00    -0.550 OA
ENDBRANCH   1  30
BRANCH  27  33
ATOM     33  O   UNL     1      71.880  38.363   7.457  1.00  0.00    -0.393 OA
ATOM     34  H   UNL     1      72.507  38.152   8.192  1.00  0.00     0.210 HD
ENDBRANCH  27  33
TORSDOF 2
ENDMDL
MODEL 6
REMARK VINA RESULT:    -6.134      1.602      7.467
REMARK INTER + INTRA:          -6.288
REMARK INTER:                  -6.603
REMARK INTRA:                   0.315
REMARK UNBOUND:                 0.384
REMARK SMILES C[C@@H]1[C@H](C)CC[C@]2(C(=O)[O-])CC[C@]3(C)C(=CC[C@H]4[C@@]5(C)CC[C@H](O)C(C)(C)[C@H]5CC[C@@]43C)[C@@H]12
REMARK SMILES IDX 7 1 6 2 11 3 33 4 5 5 12 6 15 7 2 8 3 9 13 10 16 11 1 12
REMARK SMILES IDX 4 13 14 14 31 15 17 16 18 17 30 18 32 19 19 20 29 21 28 22
REMARK SMILES IDX 21 23 20 24 25 25 22 26 23 27 26 28 27 29 8 30 9 31 10 32
REMARK SMILES IDX 24 33
REMARK H PARENT 24 34
REMARK Flexibility Score: inf
ROOT
ATOM      1  C   UNL     1      73.025  46.121   6.553  1.00  0.00     0.017 C 
ATOM      2  C   UNL     1      73.092  47.537   5.913  1.00  0.00     0.014 C 
ATOM      3  C   UNL     1      72.470  45.051   5.537  1.00  0.00     0.014 C 
ATOM      4  C   UNL     1      72.077  46.256   7.786  1.00  0.00     0.030 C 
ATOM      5  C   UNL     1      73.646  48.580   6.914  1.00  0.00     0.004 C 
ATOM      6  C   UNL     1      71.008  44.552   5.736  1.00  0.00     0.013 C 
ATOM      7  C   UNL     1      71.577  44.882   8.192  1.00  0.00    -0.063 C 
ATOM      8  C   UNL     1      72.610  47.235   8.868  1.00  0.00    -0.003 C 
ATOM      9  C   UNL     1      72.843  48.655   8.240  1.00  0.00    -0.011 C 
ATOM     10  C   UNL     1      70.512  44.289   7.226  1.00  0.00    -0.006 C 
ATOM     11  C   UNL     1      72.307  44.118   9.060  1.00  0.00    -0.027 C 
ATOM     12  C   UNL     1      71.679  47.296  10.095  1.00  0.00     0.008 C 
ATOM     13  C   UNL     1      71.555  49.482   8.038  1.00  0.00     0.008 C 
ATOM     14  C   UNL     1      69.178  45.094   7.407  1.00  0.00     0.017 C 
ATOM     15  C   UNL     1      70.268  42.742   7.600  1.00  0.00    -0.020 C 
ATOM     16  C   UNL     1      72.347  42.595   9.031  1.00  0.00     0.032 C 
ATOM     17  C   UNL     1      71.698  42.084   7.724  1.00  0.00     0.006 C 
ATOM     18  C   UNL     1      69.392  41.928   6.600  1.00  0.00     0.008 C 
ATOM     19  C   UNL     1      69.474  42.717   8.958  1.00  0.00     0.012 C 
ATOM     20  C   UNL     1      71.888  40.560   7.255  1.00  0.00    -0.025 C 
ATOM     21  C   UNL     1      69.245  40.442   7.013  1.00  0.00     0.005 C 
ATOM     22  C   UNL     1      70.567  39.682   7.390  1.00  0.00     0.003 C 
ATOM     23  C   UNL     1      73.148  39.869   7.892  1.00  0.00     0.010 C 
ATOM     24  C   UNL     1      72.276  40.592   5.724  1.00  0.00     0.012 C 
ATOM     25  C   UNL     1      70.435  38.681   8.635  1.00  0.00    -0.006 C 
ATOM     26  C   UNL     1      72.902  39.116   9.188  1.00  0.00     0.033 C 
ATOM     27  C   UNL     1      71.816  38.046   9.006  1.00  0.00     0.120 C 
ATOM     28  C   UNL     1      69.869  39.313   9.935  1.00  0.00     0.014 C 
ATOM     29  C   UNL     1      69.451  37.535   8.264  1.00  0.00     0.014 C 
ENDROOT
BRANCH   1  30
ATOM     30  C   UNL     1      74.460  45.694   6.890  1.00  0.00     0.048 C 
ATOM     31  O   UNL     1      75.125  45.028   6.050  1.00  0.00    -0.550 OA
ATOM     32  O   UNL     1      75.034  45.938   8.128  1.00  0.00    -0.550 OA
ENDBRANCH   1  30
BRANCH  27  33
ATOM     33  O   UNL     1      72.237  37.047   8.104  1.00  0.00    -0.393 OA
ATOM     34  H   UNL     1      71.983  37.315   7.186  1.00  0.00     0.210 HD
ENDBRANCH  27  33
TORSDOF 2
ENDMDL
MODEL 7
REMARK VINA RESULT:    -5.737      1.708      2.407
REMARK INTER + INTRA:          -5.856
REMARK INTER:                  -6.168
REMARK INTRA:                   0.312
REMARK UNBOUND:                 0.384
REMARK SMILES C[C@@H]1[C@H](C)CC[C@]2(C(=O)[O-])CC[C@]3(C)C(=CC[C@H]4[C@@]5(C)CC[C@H](O)C(C)(C)[C@H]5CC[C@@]43C)[C@@H]12
REMARK SMILES IDX 7 1 6 2 11 3 33 4 5 5 12 6 15 7 2 8 3 9 13 10 16 11 1 12
REMARK SMILES IDX 4 13 14 14 31 15 17 16 18 17 30 18 32 19 19 20 29 21 28 22
REMARK SMILES IDX 21 23 20 24 25 25 22 26 23 27 26 28 27 29 8 30 9 31 10 32
REMARK SMILES IDX 24 33
REMARK H PARENT 24 34
REMARK Flexibility Score: inf
ROOT
ATOM      1  C   UNL     1      71.252  41.139   8.922  1.00  0.00     0.017 C 
ATOM      2  C   UNL     1      70.866  39.737   9.475  1.00  0.00     0.014 C 
ATOM      3  C   UNL     1      71.276  42.226  10.064  1.00  0.00     0.014 C 
ATOM      4  C   UNL     1      70.171  41.487   7.851  1.00  0.00     0.030 C 
ATOM      5  C   UNL     1      70.852  38.675   8.349  1.00  0.00     0.004 C 
ATOM      6  C   UNL     1      70.096  43.240  10.125  1.00  0.00     0.013 C 
ATOM      7  C   UNL     1      70.174  42.983   7.597  1.00  0.00    -0.063 C 
ATOM      8  C   UNL     1      70.151  40.499   6.653  1.00  0.00    -0.003 C 
ATOM      9  C   UNL     1      69.915  39.035   7.166  1.00  0.00    -0.011 C 
ATOM     10  C   UNL     1      69.545  43.819   8.748  1.00  0.00    -0.006 C 
ATOM     11  C   UNL     1      71.018  43.514   6.661  1.00  0.00    -0.027 C 
ATOM     12  C   UNL     1      69.114  40.908   5.588  1.00  0.00     0.008 C 
ATOM     13  C   UNL     1      68.448  38.717   7.532  1.00  0.00     0.008 C 
ATOM     14  C   UNL     1      67.996  43.578   8.743  1.00  0.00     0.017 C 
ATOM     15  C   UNL     1      69.853  45.378   8.492  1.00  0.00    -0.020 C 
ATOM     16  C   UNL     1      71.630  44.907   6.756  1.00  0.00     0.032 C 
ATOM     17  C   UNL     1      71.396  45.481   8.173  1.00  0.00     0.006 C 
ATOM     18  C   UNL     1      69.485  46.347   9.656  1.00  0.00     0.008 C 
ATOM     19  C   UNL     1      68.957  45.831   7.281  1.00  0.00     0.012 C 
ATOM     20  C   UNL     1      72.204  46.773   8.678  1.00  0.00    -0.025 C 
ATOM     21  C   UNL     1      69.854  47.818   9.344  1.00  0.00     0.005 C 
ATOM     22  C   UNL     1      71.303  48.080   8.798  1.00  0.00     0.003 C 
ATOM     23  C   UNL     1      73.536  47.021   7.882  1.00  0.00     0.010 C 
ATOM     24  C   UNL     1      72.747  46.444  10.124  1.00  0.00     0.012 C 
ATOM     25  C   UNL     1      71.396  49.185   7.639  1.00  0.00    -0.006 C 
ATOM     26  C   UNL     1      73.424  47.942   6.679  1.00  0.00     0.033 C 
ATOM     27  C   UNL     1      72.853  49.308   7.083  1.00  0.00     0.120 C 
ATOM     28  C   UNL     1      70.469  48.941   6.417  1.00  0.00     0.014 C 
ATOM     29  C   UNL     1      70.971  50.564   8.217  1.00  0.00     0.014 C 
ENDROOT
BRANCH   1  30
ATOM     30  C   UNL     1      72.685  41.047   8.382  1.00  0.00     0.048 C 
ATOM     31  O   UNL     1      73.650  40.957   9.188  1.00  0.00    -0.550 OA
ATOM     32  O   UNL     1      72.975  41.147   7.029  1.00  0.00    -0.550 OA
ENDBRANCH   1  30
BRANCH  27  33
ATOM     33  O   UNL     1      73.731  49.986   7.954  1.00  0.00    -0.393 OA
ATOM     34  H   UNL     1      73.608  50.962   7.841  1.00  0.00     0.210 HD
ENDBRANCH  27  33
TORSDOF 2
ENDMDL
MODEL 8
REMARK VINA RESULT:    -5.733      2.241      7.646
REMARK INTER + INTRA:          -5.852
REMARK INTER:                  -6.423
REMARK INTRA:                   0.572
REMARK UNBOUND:                 0.384
REMARK SMILES C[C@@H]1[C@H](C)CC[C@]2(C(=O)[O-])CC[C@]3(C)C(=CC[C@H]4[C@@]5(C)CC[C@H](O)C(C)(C)[C@H]5CC[C@@]43C)[C@@H]12
REMARK SMILES IDX 7 1 6 2 11 3 33 4 5 5 12 6 15 7 2 8 3 9 13 10 16 11 1 12
REMARK SMILES IDX 4 13 14 14 31 15 17 16 18 17 30 18 32 19 19 20 29 21 28 22
REMARK SMILES IDX 21 23 20 24 25 25 22 26 23 27 26 28 27 29 8 30 9 31 10 32
REMARK SMILES IDX 24 33
REMARK H PARENT 24 34
REMARK Flexibility Score: inf
ROOT
ATOM      1  C   UNL     1      73.650  46.367   8.340  1.00  0.00     0.017 C 
ATOM      2  C   UNL     1      74.836  47.367   8.223  1.00  0.00     0.014 C 
ATOM      3  C   UNL     1      74.137  44.941   8.803  1.00  0.00     0.014 C 
ATOM      4  C   UNL     1      73.010  46.297   6.918  1.00  0.00     0.030 C 
ATOM      5  C   UNL     1      74.348  48.766   7.775  1.00  0.00     0.004 C 
ATOM      6  C   UNL     1      74.197  43.812   7.733  1.00  0.00     0.013 C 
ATOM      7  C   UNL     1      72.173  45.037   6.801  1.00  0.00    -0.063 C 
ATOM      8  C   UNL     1      72.433  47.656   6.435  1.00  0.00    -0.003 C 
ATOM      9  C   UNL     1      73.558  48.751   6.440  1.00  0.00    -0.011 C 
ATOM     10  C   UNL     1      73.012  43.733   6.672  1.00  0.00    -0.006 C 
ATOM     11  C   UNL     1      70.864  45.048   7.196  1.00  0.00    -0.027 C 
ATOM     12  C   UNL     1      71.757  47.534   5.055  1.00  0.00     0.008 C 
ATOM     13  C   UNL     1      74.532  48.669   5.244  1.00  0.00     0.008 C 
ATOM     14  C   UNL     1      73.677  43.712   5.252  1.00  0.00     0.017 C 
ATOM     15  C   UNL     1      72.036  42.463   6.834  1.00  0.00    -0.020 C 
ATOM     16  C   UNL     1      70.138  43.841   7.778  1.00  0.00     0.032 C 
ATOM     17  C   UNL     1      71.163  42.734   8.121  1.00  0.00     0.006 C 
ATOM     18  C   UNL     1      72.735  41.075   6.948  1.00  0.00     0.008 C 
ATOM     19  C   UNL     1      71.168  42.381   5.524  1.00  0.00     0.012 C 
ATOM     20  C   UNL     1      70.747  41.490   9.047  1.00  0.00    -0.025 C 
ATOM     21  C   UNL     1      71.726  39.916   7.144  1.00  0.00     0.005 C 
ATOM     22  C   UNL     1      70.632  40.115   8.252  1.00  0.00     0.003 C 
ATOM     23  C   UNL     1      69.494  41.781   9.949  1.00  0.00     0.010 C 
ATOM     24  C   UNL     1      71.888  41.314  10.125  1.00  0.00     0.012 C 
ATOM     25  C   UNL     1      69.174  39.575   7.863  1.00  0.00    -0.006 C 
ATOM     26  C   UNL     1      68.151  41.392   9.356  1.00  0.00     0.033 C 
ATOM     27  C   UNL     1      68.125  39.905   8.976  1.00  0.00     0.120 C 
ATOM     28  C   UNL     1      68.599  40.125   6.529  1.00  0.00     0.014 C 
ATOM     29  C   UNL     1      69.234  38.031   7.686  1.00  0.00     0.014 C 
ENDROOT
BRANCH   1  30
ATOM     30  C   UNL     1      72.714  46.883   9.441  1.00  0.00     0.048 C 
ATOM     31  O   UNL     1      72.878  48.045   9.903  1.00  0.00    -0.550 OA
ATOM     32  O   UNL     1      71.736  46.086  10.017  1.00  0.00    -0.550 OA
ENDBRANCH   1  30
BRANCH  27  33
ATOM     33  O   UNL     1      68.245  39.089  10.120  1.00  0.00    -0.393 OA
ATOM     34  H   UNL     1      68.359  39.665  10.917  1.00  0.00     0.210 HD
ENDBRANCH  27  33
TORSDOF 2
ENDMDL
MODEL 9
REMARK VINA RESULT:    -5.489      1.994      7.365
REMARK INTER + INTRA:          -5.587
REMARK INTER:                  -5.924
REMARK INTRA:                   0.337
REMARK UNBOUND:                 0.384
REMARK SMILES C[C@@H]1[C@H](C)CC[C@]2(C(=O)[O-])CC[C@]3(C)C(=CC[C@H]4[C@@]5(C)CC[C@H](O)C(C)(C)[C@H]5CC[C@@]43C)[C@@H]12
REMARK SMILES IDX 7 1 6 2 11 3 33 4 5 5 12 6 15 7 2 8 3 9 13 10 16 11 1 12
REMARK SMILES IDX 4 13 14 14 31 15 17 16 18 17 30 18 32 19 19 20 29 21 28 22
REMARK SMILES IDX 21 23 20 24 25 25 22 26 23 27 26 28 27 29 8 30 9 31 10 32
REMARK SMILES IDX 24 33
REMARK H PARENT 24 34
REMARK Flexibility Score: inf
ROOT
ATOM      1  C   UNL     1      72.470  47.157   7.680  1.00  0.00     0.017 C 
ATOM      2  C   UNL     1      72.186  48.578   7.115  1.00  0.00     0.014 C 
ATOM      3  C   UNL     1      72.944  46.167   6.549  1.00  0.00     0.014 C 
ATOM      4  C   UNL     1      71.126  46.673   8.310  1.00  0.00     0.030 C 
ATOM      5  C   UNL     1      71.729  49.546   8.233  1.00  0.00     0.004 C 
ATOM      6  C   UNL     1      71.924  45.105   6.041  1.00  0.00     0.013 C 
ATOM      7  C   UNL     1      71.153  45.164   8.462  1.00  0.00    -0.063 C 
ATOM      8  C   UNL     1      70.645  47.561   9.491  1.00  0.00    -0.003 C 
ATOM      9  C   UNL     1      70.484  49.048   9.015  1.00  0.00    -0.011 C 
ATOM     10  C   UNL     1      70.996  44.393   7.120  1.00  0.00    -0.006 C 
ATOM     11  C   UNL     1      71.680  44.601   9.592  1.00  0.00    -0.027 C 
ATOM     12  C   UNL     1      69.348  47.019  10.125  1.00  0.00     0.008 C 
ATOM     13  C   UNL     1      69.200  49.323   8.204  1.00  0.00     0.008 C 
ATOM     14  C   UNL     1      69.518  44.558   6.625  1.00  0.00     0.017 C 
ATOM     15  C   UNL     1      71.314  42.834   7.371  1.00  0.00    -0.020 C 
ATOM     16  C   UNL     1      72.387  43.252   9.622  1.00  0.00     0.032 C 
ATOM     17  C   UNL     1      72.671  42.781   8.176  1.00  0.00     0.006 C 
ATOM     18  C   UNL     1      71.418  41.945   6.095  1.00  0.00     0.008 C 
ATOM     19  C   UNL     1      70.106  42.244   8.188  1.00  0.00     0.012 C 
ATOM     20  C   UNL     1      73.690  41.574   7.893  1.00  0.00    -0.025 C 
ATOM     21  C   UNL     1      71.769  40.473   6.425  1.00  0.00     0.005 C 
ATOM     22  C   UNL     1      72.974  40.238   7.404  1.00  0.00     0.003 C 
ATOM     23  C   UNL     1      74.703  41.327   9.069  1.00  0.00     0.010 C 
ATOM     24  C   UNL     1      74.652  42.042   6.730  1.00  0.00     0.012 C 
ATOM     25  C   UNL     1      72.762  39.051   8.460  1.00  0.00    -0.006 C 
ATOM     26  C   UNL     1      74.270  40.310  10.110  1.00  0.00     0.033 C 
ATOM     27  C   UNL     1      73.962  38.954   9.460  1.00  0.00     0.120 C 
ATOM     28  C   UNL     1      71.472  39.152   9.318  1.00  0.00     0.014 C 
ATOM     29  C   UNL     1      72.649  37.703   7.694  1.00  0.00     0.014 C 
ENDROOT
BRANCH   1  30
ATOM     30  C   UNL     1      73.637  47.275   8.670  1.00  0.00     0.048 C 
ATOM     31  O   UNL     1      74.794  47.532   8.240  1.00  0.00    -0.550 OA
ATOM     32  O   UNL     1      73.488  47.021  10.025  1.00  0.00    -0.550 OA
ENDBRANCH   1  30
BRANCH  27  33
ATOM     33  O   UNL     1      75.123  38.390   8.891  1.00  0.00    -0.393 OA
ATOM     34  H   UNL     1      75.909  38.922   9.171  1.00  0.00     0.210 HD
ENDBRANCH  27  33
TORSDOF 2
ENDMDL
