MODEL 1
REMARK VINA RESULT:    -3.541      0.000      0.000
REMARK INTER + INTRA:          -6.885
REMARK INTER:                  -5.612
REMARK INTRA:                  -1.273
REMARK UNBOUND:                -1.273
REMARK SMILES CCCCCCCCCCCC(=O)[O-]
REMARK SMILES IDX 7 1 8 2 9 3 10 4 11 5 12 6 13 7 14 8 6 9 5 10 4 11 3 12 2 13
REMARK SMILES IDX 1 14
REMARK H PARENT
REMARK Flexibility Score: inf
ROOT
ATOM      1  C   UNL     1      29.479  34.569  20.150  1.00  0.00     0.000 C 
ENDROOT
BRANCH   1   2
ATOM      2  C   UNL     1      30.900  34.531  19.579  1.00  0.00     0.000 C 
BRANCH   2   3
ATOM      3  C   UNL     1      31.214  33.158  18.973  1.00  0.00     0.000 C 
BRANCH   3   4
ATOM      4  C   UNL     1      32.583  33.160  18.282  1.00  0.00     0.006 C 
BRANCH   4   5
ATOM      5  C   UNL     1      33.449  31.998  18.775  1.00  0.00     0.053 C 
BRANCH   5   6
ATOM      6  C   UNL     1      34.738  32.507  19.336  1.00  0.00     0.041 C 
ATOM      7  O   UNL     1      35.013  33.734  19.279  1.00  0.00    -0.550 OA
ATOM      8  O   UNL     1      35.659  31.620  19.878  1.00  0.00    -0.550 OA
ENDBRANCH   5   6
ENDBRANCH   4   5
ENDBRANCH   3   4
ENDBRANCH   2   3
ENDBRANCH   1   2
BRANCH   1   9
ATOM      9  C   UNL     1      28.960  33.154  20.436  1.00  0.00     0.000 C 
BRANCH   9  10
ATOM     10  C   UNL     1      28.138  33.121  21.733  1.00  0.00    -0.000 C 
BRANCH  10  11
ATOM     11  C   UNL     1      28.978  33.448  22.981  1.00  0.00    -0.000 C 
BRANCH  11  12
ATOM     12  C   UNL     1      30.321  32.697  23.081  1.00  0.00    -0.000 C 
BRANCH  12  13
ATOM     13  C   UNL     1      31.567  33.597  23.110  1.00  0.00    -0.003 C 
ATOM     14  C   UNL     1      32.770  32.974  22.403  1.00  0.00     0.004 C 
ENDBRANCH  12  13
ENDBRANCH  11  12
ENDBRANCH  10  11
ENDBRANCH   9  10
ENDBRANCH   1   9
TORSDOF 10
ENDMDL
MODEL 2
REMARK VINA RESULT:    -3.525      1.701      3.747
REMARK INTER + INTRA:          -6.859
REMARK INTER:                  -6.396
REMARK INTRA:                  -0.463
REMARK UNBOUND:                -1.273
REMARK SMILES CCCCCCCCCCCC(=O)[O-]
REMARK SMILES IDX 7 1 8 2 9 3 10 4 11 5 12 6 13 7 14 8 6 9 5 10 4 11 3 12 2 13
REMARK SMILES IDX 1 14
REMARK H PARENT
REMARK Flexibility Score: inf
ROOT
ATOM      1  C   UNL     1      30.758  33.793  23.204  1.00  0.00     0.000 C 
ENDROOT
BRANCH   1   2
ATOM      2  C   UNL     1      31.739  33.905  22.032  1.00  0.00     0.000 C 
BRANCH   2   3
ATOM      3  C   UNL     1      32.974  33.027  22.261  1.00  0.00     0.000 C 
BRANCH   3   4
ATOM      4  C   UNL     1      34.130  33.451  21.345  1.00  0.00     0.006 C 
BRANCH   4   5
ATOM      5  C   UNL     1      33.737  33.327  19.871  1.00  0.00     0.053 C 
BRANCH   5   6
ATOM      6  C   UNL     1      34.256  32.048  19.296  1.00  0.00     0.041 C 
ATOM      7  O   UNL     1      35.390  31.616  19.633  1.00  0.00    -0.550 OA
ATOM      8  O   UNL     1      33.510  31.358  18.350  1.00  0.00    -0.550 OA
ENDBRANCH   5   6
ENDBRANCH   4   5
ENDBRANCH   3   4
ENDBRANCH   2   3
ENDBRANCH   1   2
BRANCH   1   9
ATOM      9  C   UNL     1      29.775  32.635  22.992  1.00  0.00     0.000 C 
BRANCH   9  10
ATOM     10  C   UNL     1      28.323  33.134  23.019  1.00  0.00    -0.000 C 
BRANCH  10  11
ATOM     11  C   UNL     1      27.941  33.927  21.756  1.00  0.00    -0.000 C 
BRANCH  11  12
ATOM     12  C   UNL     1      27.272  33.098  20.641  1.00  0.00    -0.000 C 
BRANCH  12  13
ATOM     13  C   UNL     1      26.014  33.735  20.026  1.00  0.00    -0.003 C 
ATOM     14  C   UNL     1      24.876  32.735  19.824  1.00  0.00     0.004 C 
ENDBRANCH  12  13
ENDBRANCH  11  12
ENDBRANCH  10  11
ENDBRANCH   9  10
ENDBRANCH   1   9
TORSDOF 10
ENDMDL
MODEL 3
REMARK VINA RESULT:    -3.502      1.893      4.184
REMARK INTER + INTRA:          -6.822
REMARK INTER:                  -6.072
REMARK INTRA:                  -0.750
REMARK UNBOUND:                -1.273
REMARK SMILES CCCCCCCCCCCC(=O)[O-]
REMARK SMILES IDX 7 1 8 2 9 3 10 4 11 5 12 6 13 7 14 8 6 9 5 10 4 11 3 12 2 13
REMARK SMILES IDX 1 14
REMARK H PARENT
REMARK Flexibility Score: inf
ROOT
ATOM      1  C   UNL     1      28.582  33.105  22.796  1.00  0.00     0.000 C 
ENDROOT
BRANCH   1   2
ATOM      2  C   UNL     1      29.968  32.520  23.093  1.00  0.00     0.000 C 
BRANCH   2   3
ATOM      3  C   UNL     1      31.044  33.612  23.065  1.00  0.00     0.000 C 
BRANCH   3   4
ATOM      4  C   UNL     1      32.385  33.051  22.575  1.00  0.00     0.006 C 
BRANCH   4   5
ATOM      5  C   UNL     1      32.586  33.331  21.083  1.00  0.00     0.053 C 
BRANCH   5   6
ATOM      6  C   UNL     1      34.038  33.273  20.731  1.00  0.00     0.041 C 
ATOM      7  O   UNL     1      34.528  32.228  20.229  1.00  0.00    -0.550 OA
ATOM      8  O   UNL     1      34.863  34.357  21.003  1.00  0.00    -0.550 OA
ENDBRANCH   5   6
ENDBRANCH   4   5
ENDBRANCH   3   4
ENDBRANCH   2   3
ENDBRANCH   1   2
BRANCH   1   9
ATOM      9  C   UNL     1      28.450  34.525  23.360  1.00  0.00     0.000 C 
BRANCH   9  10
ATOM     10  C   UNL     1      27.919  35.493  22.293  1.00  0.00    -0.000 C 
BRANCH  10  11
ATOM     11  C   UNL     1      28.007  34.918  20.867  1.00  0.00    -0.000 C 
BRANCH  11  12
ATOM     12  C   UNL     1      26.664  34.827  20.115  1.00  0.00    -0.000 C 
BRANCH  12  13
ATOM     13  C   UNL     1      26.286  33.416  19.632  1.00  0.00    -0.003 C 
ATOM     14  C   UNL     1      24.879  32.997  20.056  1.00  0.00     0.004 C 
ENDBRANCH  12  13
ENDBRANCH  11  12
ENDBRANCH  10  11
ENDBRANCH   9  10
ENDBRANCH   1   9
TORSDOF 10
ENDMDL
MODEL 4
REMARK VINA RESULT:    -3.459      3.661      5.960
REMARK INTER + INTRA:          -6.755
REMARK INTER:                  -5.761
REMARK INTRA:                  -0.994
REMARK UNBOUND:                -1.273
REMARK SMILES CCCCCCCCCCCC(=O)[O-]
REMARK SMILES IDX 7 1 8 2 9 3 10 4 11 5 12 6 13 7 14 8 6 9 5 10 4 11 3 12 2 13
REMARK SMILES IDX 1 14
REMARK H PARENT
REMARK Flexibility Score: inf
ROOT
ATOM      1  C   UNL     1      30.997  33.603  23.006  1.00  0.00     0.000 C 
ENDROOT
BRANCH   1   2
ATOM      2  C   UNL     1      29.922  32.511  23.043  1.00  0.00     0.000 C 
BRANCH   2   3
ATOM      3  C   UNL     1      28.519  33.122  23.122  1.00  0.00     0.000 C 
BRANCH   3   4
ATOM      4  C   UNL     1      28.239  34.022  21.912  1.00  0.00     0.006 C 
BRANCH   4   5
ATOM      5  C   UNL     1      27.824  33.191  20.694  1.00  0.00     0.053 C 
BRANCH   5   6
ATOM      6  C   UNL     1      26.514  33.671  20.156  1.00  0.00     0.041 C 
ATOM      7  O   UNL     1      26.362  34.881  19.843  1.00  0.00    -0.550 OA
ATOM      8  O   UNL     1      25.444  32.792  20.045  1.00  0.00    -0.550 OA
ENDBRANCH   5   6
ENDBRANCH   4   5
ENDBRANCH   3   4
ENDBRANCH   2   3
ENDBRANCH   1   2
BRANCH   1   9
ATOM      9  C   UNL     1      32.359  33.023  22.603  1.00  0.00     0.000 C 
BRANCH   9  10
ATOM     10  C   UNL     1      33.311  34.131  22.130  1.00  0.00    -0.000 C 
BRANCH  10  11
ATOM     11  C   UNL     1      33.701  33.993  20.648  1.00  0.00    -0.000 C 
BRANCH  11  12
ATOM     12  C   UNL     1      33.049  32.807  19.908  1.00  0.00    -0.000 C 
BRANCH  12  13
ATOM     13  C   UNL     1      32.033  33.200  18.822  1.00  0.00    -0.003 C 
ATOM     14  C   UNL     1      31.061  34.287  19.279  1.00  0.00     0.004 C 
ENDBRANCH  12  13
ENDBRANCH  11  12
ENDBRANCH  10  11
ENDBRANCH   9  10
ENDBRANCH   1   9
TORSDOF 10
ENDMDL
MODEL 5
REMARK VINA RESULT:    -3.438      3.952      5.994
REMARK INTER + INTRA:          -6.722
REMARK INTER:                  -5.809
REMARK INTRA:                  -0.913
REMARK UNBOUND:                -1.273
REMARK SMILES CCCCCCCCCCCC(=O)[O-]
REMARK SMILES IDX 7 1 8 2 9 3 10 4 11 5 12 6 13 7 14 8 6 9 5 10 4 11 3 12 2 13
REMARK SMILES IDX 1 14
REMARK H PARENT
REMARK Flexibility Score: inf
ROOT
ATOM      1  C   UNL     1      29.852  33.887  22.919  1.00  0.00     0.000 C 
ENDROOT
BRANCH   1   2
ATOM      2  C   UNL     1      28.564  33.131  22.573  1.00  0.00     0.000 C 
BRANCH   2   3
ATOM      3  C   UNL     1      28.481  32.843  21.069  1.00  0.00     0.000 C 
BRANCH   3   4
ATOM      4  C   UNL     1      28.175  34.122  20.279  1.00  0.00     0.006 C 
BRANCH   4   5
ATOM      5  C   UNL     1      26.746  34.603  20.544  1.00  0.00     0.053 C 
BRANCH   5   6
ATOM      6  C   UNL     1      25.767  33.800  19.749  1.00  0.00     0.041 C 
ATOM      7  O   UNL     1      25.552  34.079  18.540  1.00  0.00    -0.550 OA
ATOM      8  O   UNL     1      25.055  32.773  20.355  1.00  0.00    -0.550 OA
ENDBRANCH   5   6
ENDBRANCH   4   5
ENDBRANCH   3   4
ENDBRANCH   2   3
ENDBRANCH   1   2
BRANCH   1   9
ATOM      9  C   UNL     1      31.043  32.927  23.025  1.00  0.00     0.000 C 
BRANCH   9  10
ATOM     10  C   UNL     1      32.370  33.672  22.813  1.00  0.00    -0.000 C 
BRANCH  10  11
ATOM     11  C   UNL     1      33.260  33.013  21.744  1.00  0.00    -0.000 C 
BRANCH  11  12
ATOM     12  C   UNL     1      33.234  33.692  20.361  1.00  0.00    -0.000 C 
BRANCH  12  13
ATOM     13  C   UNL     1      32.576  32.864  19.243  1.00  0.00    -0.003 C 
ATOM     14  C   UNL     1      31.391  33.575  18.592  1.00  0.00     0.004 C 
ENDBRANCH  12  13
ENDBRANCH  11  12
ENDBRANCH  10  11
ENDBRANCH   9  10
ENDBRANCH   1   9
TORSDOF 10
ENDMDL
MODEL 6
REMARK VINA RESULT:    -3.417      1.385      3.119
REMARK INTER + INTRA:          -6.689
REMARK INTER:                  -5.574
REMARK INTRA:                  -1.115
REMARK UNBOUND:                -1.273
REMARK SMILES CCCCCCCCCCCC(=O)[O-]
REMARK SMILES IDX 7 1 8 2 9 3 10 4 11 5 12 6 13 7 14 8 6 9 5 10 4 11 3 12 2 13
REMARK SMILES IDX 1 14
REMARK H PARENT
REMARK Flexibility Score: inf
ROOT
ATOM      1  C   UNL     1      31.094  34.186  23.387  1.00  0.00     0.000 C 
ENDROOT
BRANCH   1   2
ATOM      2  C   UNL     1      32.392  34.971  23.171  1.00  0.00     0.000 C 
BRANCH   2   3
ATOM      3  C   UNL     1      33.462  34.094  22.511  1.00  0.00     0.000 C 
BRANCH   3   4
ATOM      4  C   UNL     1      32.846  33.182  21.443  1.00  0.00     0.006 C 
BRANCH   4   5
ATOM      5  C   UNL     1      33.928  32.380  20.715  1.00  0.00     0.053 C 
BRANCH   5   6
ATOM      6  C   UNL     1      33.598  32.254  19.262  1.00  0.00     0.041 C 
ATOM      7  O   UNL     1      32.478  32.633  18.831  1.00  0.00    -0.550 OA
ATOM      8  O   UNL     1      34.509  31.672  18.390  1.00  0.00    -0.550 OA
ENDBRANCH   5   6
ENDBRANCH   4   5
ENDBRANCH   3   4
ENDBRANCH   2   3
ENDBRANCH   1   2
BRANCH   1   9
ATOM      9  C   UNL     1      29.973  35.103  23.893  1.00  0.00     0.000 C 
BRANCH   9  10
ATOM     10  C   UNL     1      28.610  34.398  23.820  1.00  0.00    -0.000 C 
BRANCH  10  11
ATOM     11  C   UNL     1      28.650  33.107  22.983  1.00  0.00    -0.000 C 
BRANCH  11  12
ATOM     12  C   UNL     1      28.033  33.221  21.575  1.00  0.00    -0.000 C 
BRANCH  12  13
ATOM     13  C   UNL     1      29.036  33.101  20.415  1.00  0.00    -0.003 C 
ATOM     14  C   UNL     1      29.677  34.437  20.040  1.00  0.00     0.004 C 
ENDBRANCH  12  13
ENDBRANCH  11  12
ENDBRANCH  10  11
ENDBRANCH   9  10
ENDBRANCH   1   9
TORSDOF 10
ENDMDL
MODEL 7
REMARK VINA RESULT:    -3.402      1.859      3.893
REMARK INTER + INTRA:          -6.664
REMARK INTER:                  -5.738
REMARK INTRA:                  -0.926
REMARK UNBOUND:                -1.273
REMARK SMILES CCCCCCCCCCCC(=O)[O-]
REMARK SMILES IDX 7 1 8 2 9 3 10 4 11 5 12 6 13 7 14 8 6 9 5 10 4 11 3 12 2 13
REMARK SMILES IDX 1 14
REMARK H PARENT
REMARK Flexibility Score: inf
ROOT
ATOM      1  C   UNL     1      30.725  33.707  23.079  1.00  0.00     0.000 C 
ENDROOT
BRANCH   1   2
ATOM      2  C   UNL     1      32.058  33.224  22.495  1.00  0.00     0.000 C 
BRANCH   2   3
ATOM      3  C   UNL     1      32.434  34.026  21.244  1.00  0.00     0.000 C 
BRANCH   3   4
ATOM      4  C   UNL     1      31.614  33.571  20.029  1.00  0.00     0.006 C 
BRANCH   4   5
ATOM      5  C   UNL     1      31.628  34.633  18.927  1.00  0.00     0.053 C 
BRANCH   5   6
ATOM      6  C   UNL     1      32.566  34.237  17.832  1.00  0.00     0.041 C 
ATOM      7  O   UNL     1      33.806  34.182  18.048  1.00  0.00    -0.550 OA
ATOM      8  O   UNL     1      32.078  33.978  16.557  1.00  0.00    -0.550 OA
ENDBRANCH   5   6
ENDBRANCH   4   5
ENDBRANCH   3   4
ENDBRANCH   2   3
ENDBRANCH   1   2
BRANCH   1   9
ATOM      9  C   UNL     1      29.698  32.569  23.126  1.00  0.00     0.000 C 
BRANCH   9  10
ATOM     10  C   UNL     1      28.288  33.087  22.809  1.00  0.00    -0.000 C 
BRANCH  10  11
ATOM     11  C   UNL     1      28.270  34.106  21.656  1.00  0.00    -0.000 C 
BRANCH  11  12
ATOM     12  C   UNL     1      27.773  33.556  20.304  1.00  0.00    -0.000 C 
BRANCH  12  13
ATOM     13  C   UNL     1      26.351  33.993  19.910  1.00  0.00    -0.003 C 
ATOM     14  C   UNL     1      25.306  32.903  20.144  1.00  0.00     0.004 C 
ENDBRANCH  12  13
ENDBRANCH  11  12
ENDBRANCH  10  11
ENDBRANCH   9  10
ENDBRANCH   1   9
TORSDOF 10
ENDMDL
MODEL 8
REMARK VINA RESULT:    -3.393      1.407      2.946
REMARK INTER + INTRA:          -6.650
REMARK INTER:                  -5.671
REMARK INTRA:                  -0.979
REMARK UNBOUND:                -1.273
REMARK SMILES CCCCCCCCCCCC(=O)[O-]
REMARK SMILES IDX 7 1 8 2 9 3 10 4 11 5 12 6 13 7 14 8 6 9 5 10 4 11 3 12 2 13
REMARK SMILES IDX 1 14
REMARK H PARENT
REMARK Flexibility Score: inf
ROOT
ATOM      1  C   UNL     1      32.768  33.248  22.347  1.00  0.00     0.000 C 
ENDROOT
BRANCH   1   2
ATOM      2  C   UNL     1      33.439  33.580  21.009  1.00  0.00     0.000 C 
BRANCH   2   3
ATOM      3  C   UNL     1      32.395  33.906  19.935  1.00  0.00     0.000 C 
BRANCH   3   4
ATOM      4  C   UNL     1      32.437  32.879  18.796  1.00  0.00     0.006 C 
BRANCH   4   5
ATOM      5  C   UNL     1      33.616  31.918  18.965  1.00  0.00     0.053 C 
BRANCH   5   6
ATOM      6  C   UNL     1      34.476  31.924  17.742  1.00  0.00     0.041 C 
ATOM      7  O   UNL     1      34.154  31.236  16.737  1.00  0.00    -0.550 OA
ATOM      8  O   UNL     1      35.660  32.650  17.727  1.00  0.00    -0.550 OA
ENDBRANCH   5   6
ENDBRANCH   4   5
ENDBRANCH   3   4
ENDBRANCH   2   3
ENDBRANCH   1   2
BRANCH   1   9
ATOM      9  C   UNL     1      32.271  34.520  23.045  1.00  0.00     0.000 C 
BRANCH   9  10
ATOM     10  C   UNL     1      30.799  34.381  23.460  1.00  0.00    -0.000 C 
BRANCH  10  11
ATOM     11  C   UNL     1      30.203  33.009  23.095  1.00  0.00    -0.000 C 
BRANCH  11  12
ATOM     12  C   UNL     1      28.664  32.967  23.007  1.00  0.00    -0.000 C 
BRANCH  12  13
ATOM     13  C   UNL     1      28.075  33.506  21.692  1.00  0.00    -0.003 C 
ATOM     14  C   UNL     1      28.837  33.030  20.457  1.00  0.00     0.004 C 
ENDBRANCH  12  13
ENDBRANCH  11  12
ENDBRANCH  10  11
ENDBRANCH   9  10
ENDBRANCH   1   9
TORSDOF 10
ENDMDL
MODEL 9
REMARK VINA RESULT:    -3.369      1.826      2.925
REMARK INTER + INTRA:          -6.612
REMARK INTER:                  -4.971
REMARK INTRA:                  -1.641
REMARK UNBOUND:                -1.273
REMARK SMILES CCCCCCCCCCCC(=O)[O-]
REMARK SMILES IDX 7 1 8 2 9 3 10 4 11 5 12 6 13 7 14 8 6 9 5 10 4 11 3 12 2 13
REMARK SMILES IDX 1 14
REMARK H PARENT
REMARK Flexibility Score: inf
ROOT
ATOM      1  C   UNL     1      29.812  34.614  20.042  1.00  0.00     0.000 C 
ENDROOT
BRANCH   1   2
ATOM      2  C   UNL     1      31.112  33.998  20.570  1.00  0.00     0.000 C 
BRANCH   2   3
ATOM      3  C   UNL     1      31.857  34.979  21.481  1.00  0.00     0.000 C 
BRANCH   3   4
ATOM      4  C   UNL     1      32.324  34.289  22.770  1.00  0.00     0.006 C 
BRANCH   4   5
ATOM      5  C   UNL     1      33.035  32.969  22.460  1.00  0.00     0.053 C 
BRANCH   5   6
ATOM      6  C   UNL     1      34.397  33.227  21.900  1.00  0.00     0.041 C 
ATOM      7  O   UNL     1      34.700  32.811  20.751  1.00  0.00    -0.550 OA
ATOM      8  O   UNL     1      35.351  33.883  22.668  1.00  0.00    -0.550 OA
ENDBRANCH   5   6
ENDBRANCH   4   5
ENDBRANCH   3   4
ENDBRANCH   2   3
ENDBRANCH   1   2
BRANCH   1   9
ATOM      9  C   UNL     1      29.408  35.842  20.868  1.00  0.00     0.000 C 
BRANCH   9  10
ATOM     10  C   UNL     1      28.104  35.583  21.636  1.00  0.00    -0.000 C 
BRANCH  10  11
ATOM     11  C   UNL     1      28.279  35.681  23.162  1.00  0.00    -0.000 C 
BRANCH  11  12
ATOM     12  C   UNL     1      28.766  34.389  23.849  1.00  0.00    -0.000 C 
BRANCH  12  13
ATOM     13  C   UNL     1      28.319  33.084  23.168  1.00  0.00    -0.003 C 
ATOM     14  C   UNL     1      29.396  32.000  23.190  1.00  0.00     0.004 C 
ENDBRANCH  12  13
ENDBRANCH  11  12
ENDBRANCH  10  11
ENDBRANCH   9  10
ENDBRANCH   1   9
TORSDOF 10
ENDMDL
