MODEL 1
REMARK VINA RESULT:    -3.024      0.000      0.000
REMARK INTER + INTRA:         -14.400
REMARK INTER:                  -7.973
REMARK INTRA:                  -6.427
REMARK UNBOUND:                -6.427
REMARK SMILES CCCCCCCCCCCCCCCCCCCCCCCCCCCCCC(=O)[O-]
REMARK SMILES IDX 16 1 17 2 18 3 19 4 20 5 21 6 22 7 23 8 24 9 25 10 26 11
REMARK SMILES IDX 27 12 28 13 29 14 30 15 31 16 32 17 15 18 14 19 13 20 12 21
REMARK SMILES IDX 11 22 10 23 9 24 8 25 7 26 6 27 5 28 4 29 3 30 2 31 1 32
REMARK H PARENT
REMARK Flexibility Score: inf
ROOT
ATOM      1  C   UNL     1      -8.387  29.694  45.737  1.00  0.00     0.000 C 
ENDROOT
BRANCH   1   2
ATOM      2  C   UNL     1      -7.271  28.743  45.258  1.00  0.00     0.000 C 
BRANCH   2   3
ATOM      3  C   UNL     1      -7.483  27.263  45.626  1.00  0.00     0.000 C 
BRANCH   3   4
ATOM      4  C   UNL     1      -6.189  26.583  46.103  1.00  0.00     0.000 C 
BRANCH   4   5
ATOM      5  C   UNL     1      -4.987  27.544  46.126  1.00  0.00     0.000 C 
BRANCH   5   6
ATOM      6  C   UNL     1      -4.000  27.384  44.949  1.00  0.00     0.000 C 
BRANCH   6   7
ATOM      7  C   UNL     1      -4.206  26.125  44.087  1.00  0.00     0.000 C 
BRANCH   7   8
ATOM      8  C   UNL     1      -4.517  26.448  42.619  1.00  0.00     0.000 C 
BRANCH   8   9
ATOM      9  C   UNL     1      -5.221  27.806  42.496  1.00  0.00     0.000 C 
BRANCH   9  10
ATOM     10  C   UNL     1      -6.124  27.907  41.254  1.00  0.00     0.000 C 
BRANCH  10  11
ATOM     11  C   UNL     1      -7.504  28.548  41.499  1.00  0.00     0.000 C 
BRANCH  11  12
ATOM     12  C   UNL     1      -8.542  27.548  42.039  1.00  0.00     0.000 C 
BRANCH  12  13
ATOM     13  C   UNL     1      -9.851  28.235  42.460  1.00  0.00     0.006 C 
BRANCH  13  14
ATOM     14  C   UNL     1     -10.714  27.353  43.371  1.00  0.00     0.053 C 
BRANCH  14  15
ATOM     15  C   UNL     1     -11.875  26.789  42.614  1.00  0.00     0.041 C 
ATOM     16  O   UNL     1     -11.942  25.554  42.380  1.00  0.00    -0.550 OA
ATOM     17  O   UNL     1     -12.898  27.627  42.186  1.00  0.00    -0.550 OA
ENDBRANCH  14  15
ENDBRANCH  13  14
ENDBRANCH  12  13
ENDBRANCH  11  12
ENDBRANCH  10  11
ENDBRANCH   9  10
ENDBRANCH   8   9
ENDBRANCH   7   8
ENDBRANCH   6   7
ENDBRANCH   5   6
ENDBRANCH   4   5
ENDBRANCH   3   4
ENDBRANCH   2   3
ENDBRANCH   1   2
BRANCH   1  18
ATOM     18  C   UNL     1      -8.001  30.630  46.902  1.00  0.00     0.000 C 
BRANCH  18  19
ATOM     19  C   UNL     1      -6.502  30.643  47.253  1.00  0.00     0.000 C 
BRANCH  19  20
ATOM     20  C   UNL     1      -5.993  32.046  47.623  1.00  0.00     0.000 C 
BRANCH  20  21
ATOM     21  C   UNL     1      -4.534  32.277  47.199  1.00  0.00     0.000 C 
BRANCH  21  22
ATOM     22  C   UNL     1      -4.016  31.182  46.253  1.00  0.00     0.000 C 
BRANCH  22  23
ATOM     23  C   UNL     1      -3.914  31.703  44.812  1.00  0.00     0.000 C 
BRANCH  23  24
ATOM     24  C   UNL     1      -4.822  30.937  43.835  1.00  0.00    -0.000 C 
BRANCH  24  25
ATOM     25  C   UNL     1      -6.109  31.677  43.417  1.00  0.00    -0.000 C 
BRANCH  25  26
ATOM     26  C   UNL     1      -6.052  33.205  43.627  1.00  0.00    -0.000 C 
BRANCH  26  27
ATOM     27  C   UNL     1      -7.231  33.725  44.469  1.00  0.00    -0.000 C 
BRANCH  27  28
ATOM     28  C   UNL     1      -8.530  32.947  44.216  1.00  0.00    -0.000 C 
BRANCH  28  29
ATOM     29  C   UNL     1      -9.525  33.725  43.340  1.00  0.00    -0.000 C 
BRANCH  29  30
ATOM     30  C   UNL     1     -10.241  32.791  42.357  1.00  0.00    -0.000 C 
BRANCH  30  31
ATOM     31  C   UNL     1      -9.250  31.831  41.689  1.00  0.00    -0.003 C 
ATOM     32  C   UNL     1      -9.458  31.790  40.178  1.00  0.00     0.004 C 
ENDBRANCH  30  31
ENDBRANCH  29  30
ENDBRANCH  28  29
ENDBRANCH  27  28
ENDBRANCH  26  27
ENDBRANCH  25  26
ENDBRANCH  24  25
ENDBRANCH  23  24
ENDBRANCH  22  23
ENDBRANCH  21  22
ENDBRANCH  20  21
ENDBRANCH  19  20
ENDBRANCH  18  19
ENDBRANCH   1  18
TORSDOF 28
ENDMDL
MODEL 2
REMARK VINA RESULT:    -2.999      3.483      6.085
REMARK INTER + INTRA:         -14.334
REMARK INTER:                  -8.573
REMARK INTRA:                  -5.762
REMARK UNBOUND:                -6.427
REMARK SMILES CCCCCCCCCCCCCCCCCCCCCCCCCCCCCC(=O)[O-]
REMARK SMILES IDX 16 1 17 2 18 3 19 4 20 5 21 6 22 7 23 8 24 9 25 10 26 11
REMARK SMILES IDX 27 12 28 13 29 14 30 15 31 16 32 17 15 18 14 19 13 20 12 21
REMARK SMILES IDX 11 22 10 23 9 24 8 25 7 26 6 27 5 28 4 29 3 30 2 31 1 32
REMARK H PARENT
REMARK Flexibility Score: inf
ROOT
ATOM      1  C   UNL     1      -6.044  29.216  46.880  1.00  0.00     0.000 C 
ENDROOT
BRANCH   1   2
ATOM      2  C   UNL     1      -5.444  27.861  46.449  1.00  0.00     0.000 C 
BRANCH   2   3
ATOM      3  C   UNL     1      -6.438  26.903  45.768  1.00  0.00     0.000 C 
BRANCH   3   4
ATOM      4  C   UNL     1      -6.067  26.611  44.304  1.00  0.00     0.000 C 
BRANCH   4   5
ATOM      5  C   UNL     1      -6.708  27.605  43.320  1.00  0.00     0.000 C 
BRANCH   5   6
ATOM      6  C   UNL     1      -5.716  28.332  42.387  1.00  0.00     0.000 C 
BRANCH   6   7
ATOM      7  C   UNL     1      -4.718  29.268  43.092  1.00  0.00     0.000 C 
BRANCH   7   8
ATOM      8  C   UNL     1      -5.318  30.639  43.432  1.00  0.00     0.000 C 
BRANCH   8   9
ATOM      9  C   UNL     1      -4.480  31.351  44.503  1.00  0.00     0.000 C 
BRANCH   9  10
ATOM     10  C   UNL     1      -4.543  32.885  44.397  1.00  0.00     0.000 C 
BRANCH  10  11
ATOM     11  C   UNL     1      -4.560  33.633  45.744  1.00  0.00     0.000 C 
BRANCH  11  12
ATOM     12  C   UNL     1      -4.786  32.700  46.946  1.00  0.00     0.000 C 
BRANCH  12  13
ATOM     13  C   UNL     1      -4.900  33.470  48.272  1.00  0.00     0.006 C 
BRANCH  13  14
ATOM     14  C   UNL     1      -6.352  33.624  48.742  1.00  0.00     0.053 C 
BRANCH  14  15
ATOM     15  C   UNL     1      -6.399  34.029  50.182  1.00  0.00     0.041 C 
ATOM     16  O   UNL     1      -5.567  33.558  51.002  1.00  0.00    -0.550 OA
ATOM     17  O   UNL     1      -7.348  34.946  50.615  1.00  0.00    -0.550 OA
ENDBRANCH  14  15
ENDBRANCH  13  14
ENDBRANCH  12  13
ENDBRANCH  11  12
ENDBRANCH  10  11
ENDBRANCH   9  10
ENDBRANCH   8   9
ENDBRANCH   7   8
ENDBRANCH   6   7
ENDBRANCH   5   6
ENDBRANCH   4   5
ENDBRANCH   3   4
ENDBRANCH   2   3
ENDBRANCH   1   2
BRANCH   1  18
ATOM     18  C   UNL     1      -7.432  29.540  46.288  1.00  0.00     0.000 C 
BRANCH  18  19
ATOM     19  C   UNL     1      -7.955  30.954  46.600  1.00  0.00     0.000 C 
BRANCH  19  20
ATOM     20  C   UNL     1      -8.343  31.735  45.334  1.00  0.00     0.000 C 
BRANCH  20  21
ATOM     21  C   UNL     1      -8.246  33.256  45.523  1.00  0.00     0.000 C 
BRANCH  21  22
ATOM     22  C   UNL     1      -8.684  34.033  44.271  1.00  0.00     0.000 C 
BRANCH  22  23
ATOM     23  C   UNL     1      -7.707  33.800  43.108  1.00  0.00     0.000 C 
BRANCH  23  24
ATOM     24  C   UNL     1      -8.215  34.379  41.777  1.00  0.00    -0.000 C 
BRANCH  24  25
ATOM     25  C   UNL     1      -9.622  33.912  41.353  1.00  0.00    -0.000 C 
BRANCH  25  26
ATOM     26  C   UNL     1      -9.652  32.511  40.705  1.00  0.00    -0.000 C 
BRANCH  26  27
ATOM     27  C   UNL     1     -10.318  31.460  41.611  1.00  0.00    -0.000 C 
BRANCH  27  28
ATOM     28  C   UNL     1      -9.330  30.397  42.112  1.00  0.00    -0.000 C 
BRANCH  28  29
ATOM     29  C   UNL     1      -9.508  29.044  41.405  1.00  0.00    -0.000 C 
BRANCH  29  30
ATOM     30  C   UNL     1     -10.765  28.322  41.904  1.00  0.00    -0.000 C 
BRANCH  30  31
ATOM     31  C   UNL     1     -10.402  27.202  42.886  1.00  0.00    -0.003 C 
ATOM     32  C   UNL     1     -10.183  27.752  44.292  1.00  0.00     0.004 C 
ENDBRANCH  30  31
ENDBRANCH  29  30
ENDBRANCH  28  29
ENDBRANCH  27  28
ENDBRANCH  26  27
ENDBRANCH  25  26
ENDBRANCH  24  25
ENDBRANCH  23  24
ENDBRANCH  22  23
ENDBRANCH  21  22
ENDBRANCH  20  21
ENDBRANCH  19  20
ENDBRANCH  18  19
ENDBRANCH   1  18
TORSDOF 28
ENDMDL
MODEL 3
REMARK VINA RESULT:    -2.922      2.286      5.390
REMARK INTER + INTRA:         -14.131
REMARK INTER:                  -8.782
REMARK INTRA:                  -5.349
REMARK UNBOUND:                -6.427
REMARK SMILES CCCCCCCCCCCCCCCCCCCCCCCCCCCCCC(=O)[O-]
REMARK SMILES IDX 16 1 17 2 18 3 19 4 20 5 21 6 22 7 23 8 24 9 25 10 26 11
REMARK SMILES IDX 27 12 28 13 29 14 30 15 31 16 32 17 15 18 14 19 13 20 12 21
REMARK SMILES IDX 11 22 10 23 9 24 8 25 7 26 6 27 5 28 4 29 3 30 2 31 1 32
REMARK H PARENT
REMARK Flexibility Score: inf
ROOT
ATOM      1  C   UNL     1      -8.972  29.748  44.063  1.00  0.00     0.000 C 
ENDROOT
BRANCH   1   2
ATOM      2  C   UNL     1      -9.049  28.212  43.936  1.00  0.00     0.000 C 
BRANCH   2   3
ATOM      3  C   UNL     1     -10.432  27.608  44.242  1.00  0.00     0.000 C 
BRANCH   3   4
ATOM      4  C   UNL     1     -11.195  27.207  42.969  1.00  0.00     0.000 C 
BRANCH   4   5
ATOM      5  C   UNL     1     -10.471  27.641  41.681  1.00  0.00     0.000 C 
BRANCH   5   6
ATOM      6  C   UNL     1     -10.198  26.505  40.672  1.00  0.00     0.000 C 
BRANCH   6   7
ATOM      7  C   UNL     1      -9.692  25.188  41.286  1.00  0.00     0.000 C 
BRANCH   7   8
ATOM      8  C   UNL     1     -10.381  23.948  40.699  1.00  0.00     0.000 C 
BRANCH   8   9
ATOM      9  C   UNL     1     -11.148  23.184  41.787  1.00  0.00     0.000 C 
BRANCH   9  10
ATOM     10  C   UNL     1     -12.517  23.807  42.111  1.00  0.00     0.000 C 
BRANCH  10  11
ATOM     11  C   UNL     1     -13.536  23.783  40.955  1.00  0.00     0.000 C 
BRANCH  11  12
ATOM     12  C   UNL     1     -14.294  25.113  40.796  1.00  0.00     0.000 C 
BRANCH  12  13
ATOM     13  C   UNL     1     -13.627  26.048  39.774  1.00  0.00     0.006 C 
BRANCH  13  14
ATOM     14  C   UNL     1     -14.420  27.341  39.551  1.00  0.00     0.053 C 
BRANCH  14  15
ATOM     15  C   UNL     1     -13.624  28.530  39.991  1.00  0.00     0.041 C 
ATOM     16  O   UNL     1     -12.716  28.995  39.253  1.00  0.00    -0.550 OA
ATOM     17  O   UNL     1     -13.901  29.140  41.208  1.00  0.00    -0.550 OA
ENDBRANCH  14  15
ENDBRANCH  13  14
ENDBRANCH  12  13
ENDBRANCH  11  12
ENDBRANCH  10  11
ENDBRANCH   9  10
ENDBRANCH   8   9
ENDBRANCH   7   8
ENDBRANCH   6   7
ENDBRANCH   5   6
ENDBRANCH   4   5
ENDBRANCH   3   4
ENDBRANCH   2   3
ENDBRANCH   1   2
BRANCH   1  18
ATOM     18  C   UNL     1      -7.650  30.383  43.582  1.00  0.00     0.000 C 
BRANCH  18  19
ATOM     19  C   UNL     1      -6.589  29.381  43.094  1.00  0.00     0.000 C 
BRANCH  19  20
ATOM     20  C   UNL     1      -5.169  29.970  43.105  1.00  0.00     0.000 C 
BRANCH  20  21
ATOM     21  C   UNL     1      -5.140  31.440  43.549  1.00  0.00     0.000 C 
BRANCH  21  22
ATOM     22  C   UNL     1      -3.892  31.780  44.379  1.00  0.00     0.000 C 
BRANCH  22  23
ATOM     23  C   UNL     1      -4.137  33.013  45.262  1.00  0.00     0.000 C 
BRANCH  23  24
ATOM     24  C   UNL     1      -5.630  33.354  45.410  1.00  0.00    -0.000 C 
BRANCH  24  25
ATOM     25  C   UNL     1      -6.089  33.681  46.846  1.00  0.00    -0.000 C 
BRANCH  25  26
ATOM     26  C   UNL     1      -6.386  32.438  47.710  1.00  0.00    -0.000 C 
BRANCH  26  27
ATOM     27  C   UNL     1      -7.317  31.439  47.000  1.00  0.00    -0.000 C 
BRANCH  27  28
ATOM     28  C   UNL     1      -6.867  29.981  47.172  1.00  0.00    -0.000 C 
BRANCH  28  29
ATOM     29  C   UNL     1      -5.355  29.801  46.964  1.00  0.00    -0.000 C 
BRANCH  29  30
ATOM     30  C   UNL     1      -5.029  28.379  46.493  1.00  0.00    -0.000 C 
BRANCH  30  31
ATOM     31  C   UNL     1      -6.307  27.549  46.325  1.00  0.00    -0.003 C 
ATOM     32  C   UNL     1      -6.086  26.387  45.362  1.00  0.00     0.004 C 
ENDBRANCH  30  31
ENDBRANCH  29  30
ENDBRANCH  28  29
ENDBRANCH  27  28
ENDBRANCH  26  27
ENDBRANCH  25  26
ENDBRANCH  24  25
ENDBRANCH  23  24
ENDBRANCH  22  23
ENDBRANCH  21  22
ENDBRANCH  20  21
ENDBRANCH  19  20
ENDBRANCH  18  19
ENDBRANCH   1  18
TORSDOF 28
ENDMDL
MODEL 4
REMARK VINA RESULT:    -2.901      1.522      3.427
REMARK INTER + INTRA:         -14.077
REMARK INTER:                  -8.039
REMARK INTRA:                  -6.038
REMARK UNBOUND:                -6.427
REMARK SMILES CCCCCCCCCCCCCCCCCCCCCCCCCCCCCC(=O)[O-]
REMARK SMILES IDX 16 1 17 2 18 3 19 4 20 5 21 6 22 7 23 8 24 9 25 10 26 11
REMARK SMILES IDX 27 12 28 13 29 14 30 15 31 16 32 17 15 18 14 19 13 20 12 21
REMARK SMILES IDX 11 22 10 23 9 24 8 25 7 26 6 27 5 28 4 29 3 30 2 31 1 32
REMARK H PARENT
REMARK Flexibility Score: inf
ROOT
ATOM      1  C   UNL     1      -7.250  32.779  46.999  1.00  0.00     0.000 C 
ENDROOT
BRANCH   1   2
ATOM      2  C   UNL     1      -5.923  32.182  47.512  1.00  0.00     0.000 C 
BRANCH   2   3
ATOM      3  C   UNL     1      -5.767  30.667  47.285  1.00  0.00     0.000 C 
BRANCH   3   4
ATOM      4  C   UNL     1      -4.359  30.287  46.795  1.00  0.00     0.000 C 
BRANCH   4   5
ATOM      5  C   UNL     1      -4.226  28.786  46.480  1.00  0.00     0.000 C 
BRANCH   5   6
ATOM      6  C   UNL     1      -5.532  27.973  46.609  1.00  0.00     0.000 C 
BRANCH   6   7
ATOM      7  C   UNL     1      -5.912  27.140  45.371  1.00  0.00     0.000 C 
BRANCH   7   8
ATOM      8  C   UNL     1      -7.421  27.130  45.095  1.00  0.00     0.000 C 
BRANCH   8   9
ATOM      9  C   UNL     1      -8.043  28.497  45.408  1.00  0.00     0.000 C 
BRANCH   9  10
ATOM     10  C   UNL     1      -9.227  28.846  44.490  1.00  0.00     0.000 C 
BRANCH  10  11
ATOM     11  C   UNL     1     -10.200  27.685  44.207  1.00  0.00     0.000 C 
BRANCH  11  12
ATOM     12  C   UNL     1     -10.425  27.443  42.704  1.00  0.00     0.000 C 
BRANCH  12  13
ATOM     13  C   UNL     1     -11.854  26.969  42.395  1.00  0.00     0.006 C 
BRANCH  13  14
ATOM     14  C   UNL     1     -12.425  27.607  41.122  1.00  0.00     0.053 C 
BRANCH  14  15
ATOM     15  C   UNL     1     -13.843  28.034  41.338  1.00  0.00     0.041 C 
ATOM     16  O   UNL     1     -14.360  28.916  40.602  1.00  0.00    -0.550 OA
ATOM     17  O   UNL     1     -14.603  27.441  42.339  1.00  0.00    -0.550 OA
ENDBRANCH  14  15
ENDBRANCH  13  14
ENDBRANCH  12  13
ENDBRANCH  11  12
ENDBRANCH  10  11
ENDBRANCH   9  10
ENDBRANCH   8   9
ENDBRANCH   7   8
ENDBRANCH   6   7
ENDBRANCH   5   6
ENDBRANCH   4   5
ENDBRANCH   3   4
ENDBRANCH   2   3
ENDBRANCH   1   2
BRANCH   1  18
ATOM     18  C   UNL     1      -7.968  31.953  45.911  1.00  0.00     0.000 C 
BRANCH  18  19
ATOM     19  C   UNL     1      -8.764  32.782  44.887  1.00  0.00     0.000 C 
BRANCH  19  20
ATOM     20  C   UNL     1      -8.069  34.105  44.527  1.00  0.00     0.000 C 
BRANCH  20  21
ATOM     21  C   UNL     1      -7.019  33.939  43.418  1.00  0.00     0.000 C 
BRANCH  21  22
ATOM     22  C   UNL     1      -5.585  34.154  43.930  1.00  0.00     0.000 C 
BRANCH  22  23
ATOM     23  C   UNL     1      -4.798  32.835  43.931  1.00  0.00     0.000 C 
BRANCH  23  24
ATOM     24  C   UNL     1      -5.312  31.832  42.884  1.00  0.00    -0.000 C 
BRANCH  24  25
ATOM     25  C   UNL     1      -5.435  30.376  43.376  1.00  0.00    -0.000 C 
BRANCH  25  26
ATOM     26  C   UNL     1      -6.288  29.473  42.460  1.00  0.00    -0.000 C 
BRANCH  26  27
ATOM     27  C   UNL     1      -6.805  30.220  41.217  1.00  0.00    -0.000 C 
BRANCH  27  28
ATOM     28  C   UNL     1      -7.926  29.461  40.492  1.00  0.00    -0.000 C 
BRANCH  28  29
ATOM     29  C   UNL     1      -9.261  30.223  40.506  1.00  0.00    -0.000 C 
BRANCH  29  30
ATOM     30  C   UNL     1      -9.266  31.306  41.591  1.00  0.00    -0.000 C 
BRANCH  30  31
ATOM     31  C   UNL     1     -10.554  32.135  41.534  1.00  0.00    -0.003 C 
ATOM     32  C   UNL     1     -11.755  31.263  41.181  1.00  0.00     0.004 C 
ENDBRANCH  30  31
ENDBRANCH  29  30
ENDBRANCH  28  29
ENDBRANCH  27  28
ENDBRANCH  26  27
ENDBRANCH  25  26
ENDBRANCH  24  25
ENDBRANCH  23  24
ENDBRANCH  22  23
ENDBRANCH  21  22
ENDBRANCH  20  21
ENDBRANCH  19  20
ENDBRANCH  18  19
ENDBRANCH   1  18
TORSDOF 28
ENDMDL
MODEL 5
REMARK VINA RESULT:    -2.895     13.677     16.466
REMARK INTER + INTRA:         -14.060
REMARK INTER:                 -10.433
REMARK INTRA:                  -3.627
REMARK UNBOUND:                -6.427
REMARK SMILES CCCCCCCCCCCCCCCCCCCCCCCCCCCCCC(=O)[O-]
REMARK SMILES IDX 16 1 17 2 18 3 19 4 20 5 21 6 22 7 23 8 24 9 25 10 26 11
REMARK SMILES IDX 27 12 28 13 29 14 30 15 31 16 32 17 15 18 14 19 13 20 12 21
REMARK SMILES IDX 11 22 10 23 9 24 8 25 7 26 6 27 5 28 4 29 3 30 2 31 1 32
REMARK H PARENT
REMARK Flexibility Score: inf
ROOT
ATOM      1  C   UNL     1     -20.380  25.433  33.246  1.00  0.00     0.000 C 
ENDROOT
BRANCH   1   2
ATOM      2  C   UNL     1     -19.675  24.283  32.497  1.00  0.00     0.000 C 
BRANCH   2   3
ATOM      3  C   UNL     1     -18.427  23.722  33.202  1.00  0.00     0.000 C 
BRANCH   3   4
ATOM      4  C   UNL     1     -18.778  22.842  34.413  1.00  0.00     0.000 C 
BRANCH   4   5
ATOM      5  C   UNL     1     -20.175  22.207  34.299  1.00  0.00     0.000 C 
BRANCH   5   6
ATOM      6  C   UNL     1     -21.067  22.363  35.550  1.00  0.00     0.000 C 
BRANCH   6   7
ATOM      7  C   UNL     1     -22.405  21.603  35.500  1.00  0.00     0.000 C 
BRANCH   7   8
ATOM      8  C   UNL     1     -22.841  21.066  36.871  1.00  0.00     0.000 C 
BRANCH   8   9
ATOM      9  C   UNL     1     -21.958  21.639  37.987  1.00  0.00     0.000 C 
BRANCH   9  10
ATOM     10  C   UNL     1     -22.647  21.634  39.363  1.00  0.00     0.000 C 
BRANCH  10  11
ATOM     11  C   UNL     1     -21.905  22.410  40.469  1.00  0.00     0.000 C 
BRANCH  11  12
ATOM     12  C   UNL     1     -21.445  21.510  41.628  1.00  0.00     0.000 C 
BRANCH  12  13
ATOM     13  C   UNL     1     -20.115  20.800  41.326  1.00  0.00     0.006 C 
BRANCH  13  14
ATOM     14  C   UNL     1     -19.081  20.982  42.444  1.00  0.00     0.053 C 
BRANCH  14  15
ATOM     15  C   UNL     1     -18.155  19.808  42.501  1.00  0.00     0.041 C 
ATOM     16  O   UNL     1     -17.953  19.107  41.474  1.00  0.00    -0.550 OA
ATOM     17  O   UNL     1     -17.495  19.501  43.684  1.00  0.00    -0.550 OA
ENDBRANCH  14  15
ENDBRANCH  13  14
ENDBRANCH  12  13
ENDBRANCH  11  12
ENDBRANCH  10  11
ENDBRANCH   9  10
ENDBRANCH   8   9
ENDBRANCH   7   8
ENDBRANCH   6   7
ENDBRANCH   5   6
ENDBRANCH   4   5
ENDBRANCH   3   4
ENDBRANCH   2   3
ENDBRANCH   1   2
BRANCH   1  18
ATOM     18  C   UNL     1     -20.715  26.671  32.388  1.00  0.00     0.000 C 
BRANCH  18  19
ATOM     19  C   UNL     1     -19.509  27.560  32.033  1.00  0.00     0.000 C 
BRANCH  19  20
ATOM     20  C   UNL     1     -18.426  27.551  33.124  1.00  0.00     0.000 C 
BRANCH  20  21
ATOM     21  C   UNL     1     -18.511  28.770  34.054  1.00  0.00     0.000 C 
BRANCH  21  22
ATOM     22  C   UNL     1     -17.987  28.469  35.467  1.00  0.00     0.000 C 
BRANCH  22  23
ATOM     23  C   UNL     1     -19.145  28.352  36.471  1.00  0.00     0.000 C 
BRANCH  23  24
ATOM     24  C   UNL     1     -19.649  26.908  36.634  1.00  0.00    -0.000 C 
BRANCH  24  25
ATOM     25  C   UNL     1     -18.590  25.813  36.397  1.00  0.00    -0.000 C 
BRANCH  25  26
ATOM     26  C   UNL     1     -18.089  25.132  37.688  1.00  0.00    -0.000 C 
BRANCH  26  27
ATOM     27  C   UNL     1     -19.238  24.529  38.517  1.00  0.00    -0.000 C 
BRANCH  27  28
ATOM     28  C   UNL     1     -19.189  24.950  39.993  1.00  0.00    -0.000 C 
BRANCH  28  29
ATOM     29  C   UNL     1     -20.553  25.426  40.517  1.00  0.00    -0.000 C 
BRANCH  29  30
ATOM     30  C   UNL     1     -20.540  25.560  42.044  1.00  0.00    -0.000 C 
BRANCH  30  31
ATOM     31  C   UNL     1     -21.926  25.945  42.574  1.00  0.00    -0.003 C 
ATOM     32  C   UNL     1     -21.879  27.271  43.326  1.00  0.00     0.004 C 
ENDBRANCH  30  31
ENDBRANCH  29  30
ENDBRANCH  28  29
ENDBRANCH  27  28
ENDBRANCH  26  27
ENDBRANCH  25  26
ENDBRANCH  24  25
ENDBRANCH  23  24
ENDBRANCH  22  23
ENDBRANCH  21  22
ENDBRANCH  20  21
ENDBRANCH  19  20
ENDBRANCH  18  19
ENDBRANCH   1  18
TORSDOF 28
ENDMDL
MODEL 6
REMARK VINA RESULT:    -2.892     13.594     16.299
REMARK INTER + INTRA:         -14.054
REMARK INTER:                  -9.749
REMARK INTRA:                  -4.305
REMARK UNBOUND:                -6.427
REMARK SMILES CCCCCCCCCCCCCCCCCCCCCCCCCCCCCC(=O)[O-]
REMARK SMILES IDX 16 1 17 2 18 3 19 4 20 5 21 6 22 7 23 8 24 9 25 10 26 11
REMARK SMILES IDX 27 12 28 13 29 14 30 15 31 16 32 17 15 18 14 19 13 20 12 21
REMARK SMILES IDX 11 22 10 23 9 24 8 25 7 26 6 27 5 28 4 29 3 30 2 31 1 32
REMARK H PARENT
REMARK Flexibility Score: inf
ROOT
ATOM      1  C   UNL     1     -17.063  23.747  33.005  1.00  0.00     0.000 C 
ENDROOT
BRANCH   1   2
ATOM      2  C   UNL     1     -18.379  22.993  33.289  1.00  0.00     0.000 C 
BRANCH   2   3
ATOM      3  C   UNL     1     -19.659  23.772  32.937  1.00  0.00     0.000 C 
BRANCH   3   4
ATOM      4  C   UNL     1     -20.609  23.920  34.137  1.00  0.00     0.000 C 
BRANCH   4   5
ATOM      5  C   UNL     1     -20.144  23.116  35.364  1.00  0.00     0.000 C 
BRANCH   5   6
ATOM      6  C   UNL     1     -21.072  21.951  35.771  1.00  0.00     0.000 C 
BRANCH   6   7
ATOM      7  C   UNL     1     -22.527  22.069  35.280  1.00  0.00     0.000 C 
BRANCH   7   8
ATOM      8  C   UNL     1     -23.525  21.330  36.182  1.00  0.00     0.000 C 
BRANCH   8   9
ATOM      9  C   UNL     1     -22.835  20.810  37.449  1.00  0.00     0.000 C 
BRANCH   9  10
ATOM     10  C   UNL     1     -23.513  21.289  38.745  1.00  0.00     0.000 C 
BRANCH  10  11
ATOM     11  C   UNL     1     -22.714  22.327  39.557  1.00  0.00     0.000 C 
BRANCH  11  12
ATOM     12  C   UNL     1     -21.217  21.986  39.658  1.00  0.00     0.000 C 
BRANCH  12  13
ATOM     13  C   UNL     1     -20.867  21.270  40.972  1.00  0.00     0.006 C 
BRANCH  13  14
ATOM     14  C   UNL     1     -19.600  21.831  41.631  1.00  0.00     0.053 C 
BRANCH  14  15
ATOM     15  C   UNL     1     -18.537  20.780  41.708  1.00  0.00     0.041 C 
ATOM     16  O   UNL     1     -18.803  19.641  42.175  1.00  0.00    -0.550 OA
ATOM     17  O   UNL     1     -17.257  21.051  41.241  1.00  0.00    -0.550 OA
ENDBRANCH  14  15
ENDBRANCH  13  14
ENDBRANCH  12  13
ENDBRANCH  11  12
ENDBRANCH  10  11
ENDBRANCH   9  10
ENDBRANCH   8   9
ENDBRANCH   7   8
ENDBRANCH   6   7
ENDBRANCH   5   6
ENDBRANCH   4   5
ENDBRANCH   3   4
ENDBRANCH   2   3
ENDBRANCH   1   2
BRANCH   1  18
ATOM     18  C   UNL     1     -17.230  25.182  32.462  1.00  0.00     0.000 C 
BRANCH  18  19
ATOM     19  C   UNL     1     -16.729  26.293  33.403  1.00  0.00     0.000 C 
BRANCH  19  20
ATOM     20  C   UNL     1     -16.898  25.932  34.888  1.00  0.00     0.000 C 
BRANCH  20  21
ATOM     21  C   UNL     1     -18.215  26.457  35.480  1.00  0.00     0.000 C 
BRANCH  21  22
ATOM     22  C   UNL     1     -18.220  26.431  37.017  1.00  0.00     0.000 C 
BRANCH  22  23
ATOM     23  C   UNL     1     -19.646  26.244  37.559  1.00  0.00     0.000 C 
BRANCH  23  24
ATOM     24  C   UNL     1     -19.788  24.995  38.446  1.00  0.00    -0.000 C 
BRANCH  24  25
ATOM     25  C   UNL     1     -19.017  25.048  39.780  1.00  0.00    -0.000 C 
BRANCH  25  26
ATOM     26  C   UNL     1     -19.640  25.992  40.830  1.00  0.00    -0.000 C 
BRANCH  26  27
ATOM     27  C   UNL     1     -20.176  25.233  42.057  1.00  0.00    -0.000 C 
BRANCH  27  28
ATOM     28  C   UNL     1     -21.707  25.288  42.167  1.00  0.00    -0.000 C 
BRANCH  28  29
ATOM     29  C   UNL     1     -22.280  26.653  41.753  1.00  0.00    -0.000 C 
BRANCH  29  30
ATOM     30  C   UNL     1     -22.049  27.703  42.845  1.00  0.00    -0.000 C 
BRANCH  30  31
ATOM     31  C   UNL     1     -22.209  29.122  42.287  1.00  0.00    -0.003 C 
ATOM     32  C   UNL     1     -21.453  29.284  40.972  1.00  0.00     0.004 C 
ENDBRANCH  30  31
ENDBRANCH  29  30
ENDBRANCH  28  29
ENDBRANCH  27  28
ENDBRANCH  26  27
ENDBRANCH  25  26
ENDBRANCH  24  25
ENDBRANCH  23  24
ENDBRANCH  22  23
ENDBRANCH  21  22
ENDBRANCH  20  21
ENDBRANCH  19  20
ENDBRANCH  18  19
ENDBRANCH   1  18
TORSDOF 28
ENDMDL
MODEL 7
REMARK VINA RESULT:    -2.873      2.841      7.503
REMARK INTER + INTRA:         -14.003
REMARK INTER:                  -9.248
REMARK INTRA:                  -4.755
REMARK UNBOUND:                -6.427
REMARK SMILES CCCCCCCCCCCCCCCCCCCCCCCCCCCCCC(=O)[O-]
REMARK SMILES IDX 16 1 17 2 18 3 19 4 20 5 21 6 22 7 23 8 24 9 25 10 26 11
REMARK SMILES IDX 27 12 28 13 29 14 30 15 31 16 32 17 15 18 14 19 13 20 12 21
REMARK SMILES IDX 11 22 10 23 9 24 8 25 7 26 6 27 5 28 4 29 3 30 2 31 1 32
REMARK H PARENT
REMARK Flexibility Score: inf
ROOT
ATOM      1  C   UNL     1      -6.651  26.660  45.710  1.00  0.00     0.000 C 
ENDROOT
BRANCH   1   2
ATOM      2  C   UNL     1      -5.350  27.270  46.272  1.00  0.00     0.000 C 
BRANCH   2   3
ATOM      3  C   UNL     1      -5.495  28.698  46.828  1.00  0.00     0.000 C 
BRANCH   3   4
ATOM      4  C   UNL     1      -4.230  29.545  46.613  1.00  0.00     0.000 C 
BRANCH   4   5
ATOM      5  C   UNL     1      -4.485  31.051  46.802  1.00  0.00     0.000 C 
BRANCH   5   6
ATOM      6  C   UNL     1      -5.716  31.402  47.665  1.00  0.00     0.000 C 
BRANCH   6   7
ATOM      7  C   UNL     1      -6.848  32.137  46.925  1.00  0.00     0.000 C 
BRANCH   7   8
ATOM      8  C   UNL     1      -7.995  31.207  46.506  1.00  0.00     0.000 C 
BRANCH   8   9
ATOM      9  C   UNL     1      -8.369  31.430  45.035  1.00  0.00     0.000 C 
BRANCH   9  10
ATOM     10  C   UNL     1      -7.228  32.051  44.210  1.00  0.00     0.000 C 
BRANCH  10  11
ATOM     11  C   UNL     1      -6.734  31.194  43.028  1.00  0.00     0.000 C 
BRANCH  11  12
ATOM     12  C   UNL     1      -5.369  30.536  43.293  1.00  0.00     0.000 C 
BRANCH  12  13
ATOM     13  C   UNL     1      -5.080  29.377  42.326  1.00  0.00     0.006 C 
BRANCH  13  14
ATOM     14  C   UNL     1      -4.252  28.260  42.973  1.00  0.00     0.053 C 
BRANCH  14  15
ATOM     15  C   UNL     1      -4.683  26.921  42.462  1.00  0.00     0.041 C 
ATOM     16  O   UNL     1      -4.171  25.869  42.927  1.00  0.00    -0.550 OA
ATOM     17  O   UNL     1      -5.668  26.834  41.487  1.00  0.00    -0.550 OA
ENDBRANCH  14  15
ENDBRANCH  13  14
ENDBRANCH  12  13
ENDBRANCH  11  12
ENDBRANCH  10  11
ENDBRANCH   9  10
ENDBRANCH   8   9
ENDBRANCH   7   8
ENDBRANCH   6   7
ENDBRANCH   5   6
ENDBRANCH   4   5
ENDBRANCH   3   4
ENDBRANCH   2   3
ENDBRANCH   1   2
BRANCH   1  18
ATOM     18  C   UNL     1      -7.767  27.674  45.383  1.00  0.00     0.000 C 
BRANCH  18  19
ATOM     19  C   UNL     1      -8.073  27.840  43.883  1.00  0.00     0.000 C 
BRANCH  19  20
ATOM     20  C   UNL     1      -9.441  28.492  43.626  1.00  0.00     0.000 C 
BRANCH  20  21
ATOM     21  C   UNL     1     -10.614  27.584  44.027  1.00  0.00     0.000 C 
BRANCH  21  22
ATOM     22  C   UNL     1     -11.127  26.733  42.854  1.00  0.00     0.000 C 
BRANCH  22  23
ATOM     23  C   UNL     1     -12.653  26.851  42.715  1.00  0.00     0.000 C 
BRANCH  23  24
ATOM     24  C   UNL     1     -13.077  27.717  41.516  1.00  0.00    -0.000 C 
BRANCH  24  25
ATOM     25  C   UNL     1     -13.356  26.940  40.213  1.00  0.00    -0.000 C 
BRANCH  25  26
ATOM     26  C   UNL     1     -14.845  26.600  39.990  1.00  0.00    -0.000 C 
BRANCH  26  27
ATOM     27  C   UNL     1     -15.092  25.083  39.899  1.00  0.00    -0.000 C 
BRANCH  27  28
ATOM     28  C   UNL     1     -13.790  24.270  39.875  1.00  0.00    -0.000 C 
BRANCH  28  29
ATOM     29  C   UNL     1     -13.782  23.135  40.911  1.00  0.00    -0.000 C 
BRANCH  29  30
ATOM     30  C   UNL     1     -12.844  23.461  42.078  1.00  0.00    -0.000 C 
BRANCH  30  31
ATOM     31  C   UNL     1     -11.539  22.662  41.975  1.00  0.00    -0.003 C 
ATOM     32  C   UNL     1     -10.441  23.486  41.310  1.00  0.00     0.004 C 
ENDBRANCH  30  31
ENDBRANCH  29  30
ENDBRANCH  28  29
ENDBRANCH  27  28
ENDBRANCH  26  27
ENDBRANCH  25  26
ENDBRANCH  24  25
ENDBRANCH  23  24
ENDBRANCH  22  23
ENDBRANCH  21  22
ENDBRANCH  20  21
ENDBRANCH  19  20
ENDBRANCH  18  19
ENDBRANCH   1  18
TORSDOF 28
ENDMDL
MODEL 8
REMARK VINA RESULT:    -2.868      2.839      6.683
REMARK INTER + INTRA:         -13.989
REMARK INTER:                  -8.200
REMARK INTRA:                  -5.789
REMARK UNBOUND:                -6.427
REMARK SMILES CCCCCCCCCCCCCCCCCCCCCCCCCCCCCC(=O)[O-]
REMARK SMILES IDX 16 1 17 2 18 3 19 4 20 5 21 6 22 7 23 8 24 9 25 10 26 11
REMARK SMILES IDX 27 12 28 13 29 14 30 15 31 16 32 17 15 18 14 19 13 20 12 21
REMARK SMILES IDX 11 22 10 23 9 24 8 25 7 26 6 27 5 28 4 29 3 30 2 31 1 32
REMARK H PARENT
REMARK Flexibility Score: inf
ROOT
ATOM      1  C   UNL     1      -7.874  27.678  45.418  1.00  0.00     0.000 C 
ENDROOT
BRANCH   1   2
ATOM      2  C   UNL     1      -7.713  29.154  45.836  1.00  0.00     0.000 C 
BRANCH   2   3
ATOM      3  C   UNL     1      -8.860  30.080  45.392  1.00  0.00     0.000 C 
BRANCH   3   4
ATOM      4  C   UNL     1      -8.671  30.608  43.961  1.00  0.00     0.000 C 
BRANCH   4   5
ATOM      5  C   UNL     1      -8.736  32.144  43.881  1.00  0.00     0.000 C 
BRANCH   5   6
ATOM      6  C   UNL     1      -8.795  32.866  45.244  1.00  0.00     0.000 C 
BRANCH   6   7
ATOM      7  C   UNL     1      -7.969  34.162  45.336  1.00  0.00     0.000 C 
BRANCH   7   8
ATOM      8  C   UNL     1      -6.974  34.157  46.505  1.00  0.00     0.000 C 
BRANCH   8   9
ATOM      9  C   UNL     1      -7.065  32.844  47.294  1.00  0.00     0.000 C 
BRANCH   9  10
ATOM     10  C   UNL     1      -5.703  32.364  47.825  1.00  0.00     0.000 C 
BRANCH  10  11
ATOM     11  C   UNL     1      -5.126  31.123  47.115  1.00  0.00     0.000 C 
BRANCH  11  12
ATOM     12  C   UNL     1      -4.312  31.476  45.858  1.00  0.00     0.000 C 
BRANCH  12  13
ATOM     13  C   UNL     1      -5.161  31.424  44.578  1.00  0.00     0.006 C 
BRANCH  13  14
ATOM     14  C   UNL     1      -4.489  32.132  43.395  1.00  0.00     0.053 C 
BRANCH  14  15
ATOM     15  C   UNL     1      -4.980  33.541  43.275  1.00  0.00     0.041 C 
ATOM     16  O   UNL     1      -4.474  34.453  43.982  1.00  0.00    -0.550 OA
ATOM     17  O   UNL     1      -5.983  33.852  42.365  1.00  0.00    -0.550 OA
ENDBRANCH  14  15
ENDBRANCH  13  14
ENDBRANCH  12  13
ENDBRANCH  11  12
ENDBRANCH  10  11
ENDBRANCH   9  10
ENDBRANCH   8   9
ENDBRANCH   7   8
ENDBRANCH   6   7
ENDBRANCH   5   6
ENDBRANCH   4   5
ENDBRANCH   3   4
ENDBRANCH   2   3
ENDBRANCH   1   2
BRANCH   1  18
ATOM     18  C   UNL     1      -6.636  26.787  45.653  1.00  0.00     0.000 C 
BRANCH  18  19
ATOM     19  C   UNL     1      -5.405  27.522  46.211  1.00  0.00     0.000 C 
BRANCH  19  20
ATOM     20  C   UNL     1      -4.336  27.787  45.138  1.00  0.00     0.000 C 
BRANCH  20  21
ATOM     21  C   UNL     1      -4.695  27.168  43.778  1.00  0.00     0.000 C 
BRANCH  21  22
ATOM     22  C   UNL     1      -4.732  28.210  42.649  1.00  0.00     0.000 C 
BRANCH  22  23
ATOM     23  C   UNL     1      -6.176  28.628  42.332  1.00  0.00     0.000 C 
BRANCH  23  24
ATOM     24  C   UNL     1      -6.908  27.615  41.436  1.00  0.00    -0.000 C 
BRANCH  24  25
ATOM     25  C   UNL     1      -8.017  26.802  42.136  1.00  0.00    -0.000 C 
BRANCH  25  26
ATOM     26  C   UNL     1      -9.438  27.095  41.609  1.00  0.00    -0.000 C 
BRANCH  26  27
ATOM     27  C   UNL     1     -10.244  27.993  42.565  1.00  0.00    -0.000 C 
BRANCH  27  28
ATOM     28  C   UNL     1     -11.277  27.209  43.387  1.00  0.00    -0.000 C 
BRANCH  28  29
ATOM     29  C   UNL     1     -12.242  26.399  42.506  1.00  0.00    -0.000 C 
BRANCH  29  30
ATOM     30  C   UNL     1     -13.625  27.057  42.453  1.00  0.00    -0.000 C 
BRANCH  30  31
ATOM     31  C   UNL     1     -13.766  27.943  41.210  1.00  0.00    -0.003 C 
ATOM     32  C   UNL     1     -13.768  27.104  39.935  1.00  0.00     0.004 C 
ENDBRANCH  30  31
ENDBRANCH  29  30
ENDBRANCH  28  29
ENDBRANCH  27  28
ENDBRANCH  26  27
ENDBRANCH  25  26
ENDBRANCH  24  25
ENDBRANCH  23  24
ENDBRANCH  22  23
ENDBRANCH  21  22
ENDBRANCH  20  21
ENDBRANCH  19  20
ENDBRANCH  18  19
ENDBRANCH   1  18
TORSDOF 28
ENDMDL
MODEL 9
REMARK VINA RESULT:    -2.839      1.438      4.765
REMARK INTER + INTRA:         -13.914
REMARK INTER:                  -7.667
REMARK INTRA:                  -6.247
REMARK UNBOUND:                -6.427
REMARK SMILES CCCCCCCCCCCCCCCCCCCCCCCCCCCCCC(=O)[O-]
REMARK SMILES IDX 16 1 17 2 18 3 19 4 20 5 21 6 22 7 23 8 24 9 25 10 26 11
REMARK SMILES IDX 27 12 28 13 29 14 30 15 31 16 32 17 15 18 14 19 13 20 12 21
REMARK SMILES IDX 11 22 10 23 9 24 8 25 7 26 6 27 5 28 4 29 3 30 2 31 1 32
REMARK H PARENT
REMARK Flexibility Score: inf
ROOT
ATOM      1  C   UNL     1      -7.807  30.107  44.160  1.00  0.00     0.000 C 
ENDROOT
BRANCH   1   2
ATOM      2  C   UNL     1      -8.653  31.391  44.037  1.00  0.00     0.000 C 
BRANCH   2   3
ATOM      3  C   UNL     1      -7.854  32.660  43.692  1.00  0.00     0.000 C 
BRANCH   3   4
ATOM      4  C   UNL     1      -6.341  32.398  43.603  1.00  0.00     0.000 C 
BRANCH   4   5
ATOM      5  C   UNL     1      -5.733  32.879  42.274  1.00  0.00     0.000 C 
BRANCH   5   6
ATOM      6  C   UNL     1      -5.455  31.765  41.242  1.00  0.00     0.000 C 
BRANCH   6   7
ATOM      7  C   UNL     1      -6.656  31.367  40.365  1.00  0.00     0.000 C 
BRANCH   7   8
ATOM      8  C   UNL     1      -6.646  29.884  39.970  1.00  0.00     0.000 C 
BRANCH   8   9
ATOM      9  C   UNL     1      -6.759  28.988  41.210  1.00  0.00     0.000 C 
BRANCH   9  10
ATOM     10  C   UNL     1      -7.586  27.714  40.960  1.00  0.00     0.000 C 
BRANCH  10  11
ATOM     11  C   UNL     1      -9.062  27.955  40.590  1.00  0.00     0.000 C 
BRANCH  11  12
ATOM     12  C   UNL     1      -9.857  28.648  41.711  1.00  0.00     0.000 C 
BRANCH  12  13
ATOM     13  C   UNL     1     -11.334  28.221  41.732  1.00  0.00     0.006 C 
BRANCH  13  14
ATOM     14  C   UNL     1     -11.638  27.199  42.835  1.00  0.00     0.053 C 
BRANCH  14  15
ATOM     15  C   UNL     1     -12.661  26.211  42.369  1.00  0.00     0.041 C 
ATOM     16  O   UNL     1     -13.828  26.590  42.085  1.00  0.00    -0.550 OA
ATOM     17  O   UNL     1     -12.319  24.872  42.227  1.00  0.00    -0.550 OA
ENDBRANCH  14  15
ENDBRANCH  13  14
ENDBRANCH  12  13
ENDBRANCH  11  12
ENDBRANCH  10  11
ENDBRANCH   9  10
ENDBRANCH   8   9
ENDBRANCH   7   8
ENDBRANCH   6   7
ENDBRANCH   5   6
ENDBRANCH   4   5
ENDBRANCH   3   4
ENDBRANCH   2   3
ENDBRANCH   1   2
BRANCH   1  18
ATOM     18  C   UNL     1      -8.374  29.033  45.112  1.00  0.00     0.000 C 
BRANCH  18  19
ATOM     19  C   UNL     1      -8.008  27.583  44.745  1.00  0.00     0.000 C 
BRANCH  19  20
ATOM     20  C   UNL     1      -7.256  26.858  45.873  1.00  0.00     0.000 C 
BRANCH  20  21
ATOM     21  C   UNL     1      -5.943  26.221  45.394  1.00  0.00     0.000 C 
BRANCH  21  22
ATOM     22  C   UNL     1      -5.948  25.926  43.886  1.00  0.00     0.000 C 
BRANCH  22  23
ATOM     23  C   UNL     1      -4.723  26.550  43.199  1.00  0.00     0.000 C 
BRANCH  23  24
ATOM     24  C   UNL     1      -3.993  27.568  44.091  1.00  0.00    -0.000 C 
BRANCH  24  25
ATOM     25  C   UNL     1      -4.089  29.035  43.627  1.00  0.00    -0.000 C 
BRANCH  25  26
ATOM     26  C   UNL     1      -4.018  30.064  44.775  1.00  0.00    -0.000 C 
BRANCH  26  27
ATOM     27  C   UNL     1      -4.077  29.399  46.163  1.00  0.00    -0.000 C 
BRANCH  27  28
ATOM     28  C   UNL     1      -5.367  29.729  46.926  1.00  0.00    -0.000 C 
BRANCH  28  29
ATOM     29  C   UNL     1      -5.466  31.216  47.303  1.00  0.00    -0.000 C 
BRANCH  29  30
ATOM     30  C   UNL     1      -6.925  31.686  47.311  1.00  0.00    -0.000 C 
BRANCH  30  31
ATOM     31  C   UNL     1      -7.010  33.217  47.319  1.00  0.00    -0.003 C 
ATOM     32  C   UNL     1      -6.124  33.811  48.410  1.00  0.00     0.004 C 
ENDBRANCH  30  31
ENDBRANCH  29  30
ENDBRANCH  28  29
ENDBRANCH  27  28
ENDBRANCH  26  27
ENDBRANCH  25  26
ENDBRANCH  24  25
ENDBRANCH  23  24
ENDBRANCH  22  23
ENDBRANCH  21  22
ENDBRANCH  20  21
ENDBRANCH  19  20
ENDBRANCH  18  19
ENDBRANCH   1  18
TORSDOF 28
ENDMDL
