MODEL 1
REMARK VINA RESULT:    -4.101      0.000      0.000
REMARK INTER + INTRA:         -10.059
REMARK INTER:                  -7.458
REMARK INTRA:                  -2.601
REMARK UNBOUND:                -2.601
REMARK SMILES CCCCCCCCCCCCCCCC(=O)[O-]
REMARK SMILES IDX 9 1 10 2 11 3 12 4 13 5 14 6 15 7 16 8 17 9 18 10 8 11 7 12
REMARK SMILES IDX 6 13 5 14 4 15 3 16 2 17 1 18
REMARK H PARENT
REMARK Flexibility Score: inf
ROOT
ATOM      1  C   UNL     1      19.821  48.615  47.524  1.00  0.00     0.000 C 
ENDROOT
BRANCH   1   2
ATOM      2  C   UNL     1      19.518  47.106  47.465  1.00  0.00     0.000 C 
BRANCH   2   3
ATOM      3  C   UNL     1      18.366  46.763  46.506  1.00  0.00     0.000 C 
BRANCH   3   4
ATOM      4  C   UNL     1      17.240  47.810  46.537  1.00  0.00     0.000 C 
BRANCH   4   5
ATOM      5  C   UNL     1      16.676  48.116  45.141  1.00  0.00     0.000 C 
BRANCH   5   6
ATOM      6  C   UNL     1      15.837  49.400  45.158  1.00  0.00     0.006 C 
BRANCH   6   7
ATOM      7  C   UNL     1      16.286  50.364  44.057  1.00  0.00     0.053 C 
BRANCH   7   8
ATOM      8  C   UNL     1      16.083  49.751  42.708  1.00  0.00     0.041 C 
ATOM      9  O   UNL     1      14.926  49.441  42.319  1.00  0.00    -0.550 OA
ATOM     10  O   UNL     1      17.166  49.569  41.856  1.00  0.00    -0.550 OA
ENDBRANCH   7   8
ENDBRANCH   6   7
ENDBRANCH   5   6
ENDBRANCH   4   5
ENDBRANCH   3   4
ENDBRANCH   2   3
ENDBRANCH   1   2
BRANCH   1  11
ATOM     11  C   UNL     1      20.742  49.141  46.408  1.00  0.00     0.000 C 
BRANCH  11  12
ATOM     12  C   UNL     1      20.059  50.178  45.506  1.00  0.00    -0.000 C 
BRANCH  12  13
ATOM     13  C   UNL     1      19.895  49.641  44.079  1.00  0.00    -0.000 C 
BRANCH  13  14
ATOM     14  C   UNL     1      20.656  48.319  43.895  1.00  0.00    -0.000 C 
BRANCH  14  15
ATOM     15  C   UNL     1      19.824  47.265  43.132  1.00  0.00    -0.000 C 
BRANCH  15  16
ATOM     16  C   UNL     1      20.306  45.819  43.352  1.00  0.00    -0.000 C 
BRANCH  16  17
ATOM     17  C   UNL     1      21.369  45.656  44.450  1.00  0.00    -0.003 C 
ATOM     18  C   UNL     1      22.139  44.339  44.339  1.00  0.00     0.004 C 
ENDBRANCH  16  17
ENDBRANCH  15  16
ENDBRANCH  14  15
ENDBRANCH  13  14
ENDBRANCH  12  13
ENDBRANCH  11  12
ENDBRANCH   1  11
TORSDOF 14
ENDMDL
MODEL 2
REMARK VINA RESULT:    -4.088      1.238      2.507
REMARK INTER + INTRA:         -10.035
REMARK INTER:                  -7.970
REMARK INTRA:                  -2.065
REMARK UNBOUND:                -2.601
REMARK SMILES CCCCCCCCCCCCCCCC(=O)[O-]
REMARK SMILES IDX 9 1 10 2 11 3 12 4 13 5 14 6 15 7 16 8 17 9 18 10 8 11 7 12
REMARK SMILES IDX 6 13 5 14 4 15 3 16 2 17 1 18
REMARK H PARENT
REMARK Flexibility Score: inf
ROOT
ATOM      1  C   UNL     1      17.040  46.744  46.370  1.00  0.00     0.000 C 
ENDROOT
BRANCH   1   2
ATOM      2  C   UNL     1      16.623  47.852  47.355  1.00  0.00     0.000 C 
BRANCH   2   3
ATOM      3  C   UNL     1      15.915  49.031  46.666  1.00  0.00     0.000 C 
BRANCH   3   4
ATOM      4  C   UNL     1      16.902  50.082  46.133  1.00  0.00     0.000 C 
BRANCH   4   5
ATOM      5  C   UNL     1      16.476  50.662  44.775  1.00  0.00     0.000 C 
BRANCH   5   6
ATOM      6  C   UNL     1      16.770  49.673  43.641  1.00  0.00     0.006 C 
BRANCH   6   7
ATOM      7  C   UNL     1      17.597  50.334  42.535  1.00  0.00     0.053 C 
BRANCH   7   8
ATOM      8  C   UNL     1      16.851  50.315  41.239  1.00  0.00     0.041 C 
ATOM      9  O   UNL     1      17.278  50.972  40.252  1.00  0.00    -0.550 OA
ATOM     10  O   UNL     1      15.713  49.531  41.103  1.00  0.00    -0.550 OA
ENDBRANCH   7   8
ENDBRANCH   6   7
ENDBRANCH   5   6
ENDBRANCH   4   5
ENDBRANCH   3   4
ENDBRANCH   2   3
ENDBRANCH   1   2
BRANCH   1  11
ATOM     11  C   UNL     1      18.535  46.722  46.003  1.00  0.00     0.000 C 
BRANCH  11  12
ATOM     12  C   UNL     1      19.433  47.290  47.111  1.00  0.00    -0.000 C 
BRANCH  12  13
ATOM     13  C   UNL     1      20.175  48.543  46.629  1.00  0.00    -0.000 C 
BRANCH  13  14
ATOM     14  C   UNL     1      20.160  48.639  45.096  1.00  0.00    -0.000 C 
BRANCH  14  15
ATOM     15  C   UNL     1      21.479  48.142  44.465  1.00  0.00    -0.000 C 
BRANCH  15  16
ATOM     16  C   UNL     1      21.283  47.390  43.135  1.00  0.00    -0.000 C 
BRANCH  16  17
ATOM     17  C   UNL     1      20.826  45.930  43.283  1.00  0.00    -0.003 C 
ATOM     18  C   UNL     1      21.620  45.164  44.341  1.00  0.00     0.004 C 
ENDBRANCH  16  17
ENDBRANCH  15  16
ENDBRANCH  14  15
ENDBRANCH  13  14
ENDBRANCH  12  13
ENDBRANCH  11  12
ENDBRANCH   1  11
TORSDOF 14
ENDMDL
MODEL 3
REMARK VINA RESULT:    -3.999      2.464      5.453
REMARK INTER + INTRA:          -9.873
REMARK INTER:                  -7.660
REMARK INTRA:                  -2.213
REMARK UNBOUND:                -2.601
REMARK SMILES CCCCCCCCCCCCCCCC(=O)[O-]
REMARK SMILES IDX 9 1 10 2 11 3 12 4 13 5 14 6 15 7 16 8 17 9 18 10 8 11 7 12
REMARK SMILES IDX 6 13 5 14 4 15 3 16 2 17 1 18
REMARK H PARENT
REMARK Flexibility Score: inf
ROOT
ATOM      1  C   UNL     1      19.371  49.023  47.287  1.00  0.00     0.000 C 
ENDROOT
BRANCH   1   2
ATOM      2  C   UNL     1      20.144  49.951  46.331  1.00  0.00     0.000 C 
BRANCH   2   3
ATOM      3  C   UNL     1      21.670  49.804  46.458  1.00  0.00     0.000 C 
BRANCH   3   4
ATOM      4  C   UNL     1      22.334  49.379  45.137  1.00  0.00     0.000 C 
BRANCH   4   5
ATOM      5  C   UNL     1      21.329  49.259  43.980  1.00  0.00     0.000 C 
BRANCH   5   6
ATOM      6  C   UNL     1      21.369  47.857  43.363  1.00  0.00     0.006 C 
BRANCH   6   7
ATOM      7  C   UNL     1      21.572  46.787  44.440  1.00  0.00     0.053 C 
BRANCH   7   8
ATOM      8  C   UNL     1      21.199  45.437  43.916  1.00  0.00     0.041 C 
ATOM      9  O   UNL     1      20.186  45.300  43.180  1.00  0.00    -0.550 OA
ATOM     10  O   UNL     1      21.998  44.336  44.197  1.00  0.00    -0.550 OA
ENDBRANCH   7   8
ENDBRANCH   6   7
ENDBRANCH   5   6
ENDBRANCH   4   5
ENDBRANCH   3   4
ENDBRANCH   2   3
ENDBRANCH   1   2
BRANCH   1  11
ATOM     11  C   UNL     1      18.959  47.665  46.691  1.00  0.00     0.000 C 
BRANCH  11  12
ATOM     12  C   UNL     1      18.168  47.799  45.382  1.00  0.00    -0.000 C 
BRANCH  12  13
ATOM     13  C   UNL     1      16.658  47.802  45.652  1.00  0.00    -0.000 C 
BRANCH  13  14
ATOM     14  C   UNL     1      16.158  49.217  45.978  1.00  0.00    -0.000 C 
BRANCH  14  15
ATOM     15  C   UNL     1      15.957  50.075  44.710  1.00  0.00    -0.000 C 
BRANCH  15  16
ATOM     16  C   UNL     1      16.986  51.212  44.563  1.00  0.00    -0.000 C 
BRANCH  16  17
ATOM     17  C   UNL     1      18.084  50.954  43.518  1.00  0.00    -0.003 C 
ATOM     18  C   UNL     1      17.538  50.366  42.216  1.00  0.00     0.004 C 
ENDBRANCH  16  17
ENDBRANCH  15  16
ENDBRANCH  14  15
ENDBRANCH  13  14
ENDBRANCH  12  13
ENDBRANCH  11  12
ENDBRANCH   1  11
TORSDOF 14
ENDMDL
MODEL 4
REMARK VINA RESULT:    -3.950      1.669      3.505
REMARK INTER + INTRA:          -9.785
REMARK INTER:                  -7.212
REMARK INTRA:                  -2.572
REMARK UNBOUND:                -2.601
REMARK SMILES CCCCCCCCCCCCCCCC(=O)[O-]
REMARK SMILES IDX 9 1 10 2 11 3 12 4 13 5 14 6 15 7 16 8 17 9 18 10 8 11 7 12
REMARK SMILES IDX 6 13 5 14 4 15 3 16 2 17 1 18
REMARK H PARENT
REMARK Flexibility Score: inf
ROOT
ATOM      1  C   UNL     1      17.715  47.180  45.192  1.00  0.00     0.000 C 
ENDROOT
BRANCH   1   2
ATOM      2  C   UNL     1      17.712  47.900  46.554  1.00  0.00     0.000 C 
BRANCH   2   3
ATOM      3  C   UNL     1      16.943  49.232  46.525  1.00  0.00     0.000 C 
BRANCH   3   4
ATOM      4  C   UNL     1      16.569  49.666  45.098  1.00  0.00     0.000 C 
BRANCH   4   5
ATOM      5  C   UNL     1      17.034  51.094  44.771  1.00  0.00     0.000 C 
BRANCH   5   6
ATOM      6  C   UNL     1      17.810  51.128  43.449  1.00  0.00     0.006 C 
BRANCH   6   7
ATOM      7  C   UNL     1      17.541  49.869  42.621  1.00  0.00     0.053 C 
BRANCH   7   8
ATOM      8  C   UNL     1      16.742  50.203  41.402  1.00  0.00     0.041 C 
ATOM      9  O   UNL     1      15.547  49.820  41.302  1.00  0.00    -0.550 OA
ATOM     10  O   UNL     1      17.301  50.982  40.396  1.00  0.00    -0.550 OA
ENDBRANCH   7   8
ENDBRANCH   6   7
ENDBRANCH   5   6
ENDBRANCH   4   5
ENDBRANCH   3   4
ENDBRANCH   2   3
ENDBRANCH   1   2
BRANCH   1  11
ATOM     11  C   UNL     1      19.105  46.775  44.669  1.00  0.00     0.000 C 
BRANCH  11  12
ATOM     12  C   UNL     1      20.245  47.198  45.605  1.00  0.00    -0.000 C 
BRANCH  12  13
ATOM     13  C   UNL     1      21.412  47.801  44.812  1.00  0.00    -0.000 C 
BRANCH  13  14
ATOM     14  C   UNL     1      21.769  49.201  45.332  1.00  0.00    -0.000 C 
BRANCH  14  15
ATOM     15  C   UNL     1      20.536  50.128  45.414  1.00  0.00    -0.000 C 
BRANCH  15  16
ATOM     16  C   UNL     1      20.302  50.724  46.815  1.00  0.00    -0.000 C 
BRANCH  16  17
ATOM     17  C   UNL     1      21.116  50.063  47.939  1.00  0.00    -0.003 C 
ATOM     18  C   UNL     1      20.261  49.184  48.852  1.00  0.00     0.004 C 
ENDBRANCH  16  17
ENDBRANCH  15  16
ENDBRANCH  14  15
ENDBRANCH  13  14
ENDBRANCH  12  13
ENDBRANCH  11  12
ENDBRANCH   1  11
TORSDOF 14
ENDMDL
MODEL 5
REMARK VINA RESULT:    -3.927      1.604      3.255
REMARK INTER + INTRA:          -9.742
REMARK INTER:                  -7.397
REMARK INTRA:                  -2.346
REMARK UNBOUND:                -2.601
REMARK SMILES CCCCCCCCCCCCCCCC(=O)[O-]
REMARK SMILES IDX 9 1 10 2 11 3 12 4 13 5 14 6 15 7 16 8 17 9 18 10 8 11 7 12
REMARK SMILES IDX 6 13 5 14 4 15 3 16 2 17 1 18
REMARK H PARENT
REMARK Flexibility Score: inf
ROOT
ATOM      1  C   UNL     1      18.090  47.082  46.405  1.00  0.00     0.000 C 
ENDROOT
BRANCH   1   2
ATOM      2  C   UNL     1      17.756  48.085  47.526  1.00  0.00     0.000 C 
BRANCH   2   3
ATOM      3  C   UNL     1      17.803  49.548  47.055  1.00  0.00     0.000 C 
BRANCH   3   4
ATOM      4  C   UNL     1      17.439  49.701  45.568  1.00  0.00     0.000 C 
BRANCH   4   5
ATOM      5  C   UNL     1      18.355  50.691  44.832  1.00  0.00     0.000 C 
BRANCH   5   6
ATOM      6  C   UNL     1      18.330  50.441  43.320  1.00  0.00     0.006 C 
BRANCH   6   7
ATOM      7  C   UNL     1      17.825  49.031  43.004  1.00  0.00     0.053 C 
BRANCH   7   8
ATOM      8  C   UNL     1      16.868  49.061  41.855  1.00  0.00     0.041 C 
ATOM      9  O   UNL     1      16.305  50.138  41.526  1.00  0.00    -0.550 OA
ATOM     10  O   UNL     1      16.637  47.909  41.112  1.00  0.00    -0.550 OA
ENDBRANCH   7   8
ENDBRANCH   6   7
ENDBRANCH   5   6
ENDBRANCH   4   5
ENDBRANCH   3   4
ENDBRANCH   2   3
ENDBRANCH   1   2
BRANCH   1  11
ATOM     11  C   UNL     1      19.582  46.727  46.269  1.00  0.00     0.000 C 
BRANCH  11  12
ATOM     12  C   UNL     1      19.988  46.388  44.828  1.00  0.00    -0.000 C 
BRANCH  12  13
ATOM     13  C   UNL     1      21.405  46.891  44.524  1.00  0.00    -0.000 C 
BRANCH  13  14
ATOM     14  C   UNL     1      21.390  47.943  43.405  1.00  0.00    -0.000 C 
BRANCH  14  15
ATOM     15  C   UNL     1      21.873  49.326  43.895  1.00  0.00    -0.000 C 
BRANCH  15  16
ATOM     16  C   UNL     1      22.383  49.323  45.349  1.00  0.00    -0.000 C 
BRANCH  16  17
ATOM     17  C   UNL     1      21.419  49.950  46.370  1.00  0.00    -0.003 C 
ATOM     18  C   UNL     1      22.136  50.488  47.609  1.00  0.00     0.004 C 
ENDBRANCH  16  17
ENDBRANCH  15  16
ENDBRANCH  14  15
ENDBRANCH  13  14
ENDBRANCH  12  13
ENDBRANCH  11  12
ENDBRANCH   1  11
TORSDOF 14
ENDMDL
MODEL 6
REMARK VINA RESULT:    -3.880      1.715      3.045
REMARK INTER + INTRA:          -9.656
REMARK INTER:                  -7.173
REMARK INTRA:                  -2.483
REMARK UNBOUND:                -2.601
REMARK SMILES CCCCCCCCCCCCCCCC(=O)[O-]
REMARK SMILES IDX 9 1 10 2 11 3 12 4 13 5 14 6 15 7 16 8 17 9 18 10 8 11 7 12
REMARK SMILES IDX 6 13 5 14 4 15 3 16 2 17 1 18
REMARK H PARENT
REMARK Flexibility Score: inf
ROOT
ATOM      1  C   UNL     1      20.801  49.888  46.560  1.00  0.00     0.000 C 
ENDROOT
BRANCH   1   2
ATOM      2  C   UNL     1      19.852  51.013  46.104  1.00  0.00     0.000 C 
BRANCH   2   3
ATOM      3  C   UNL     1      18.516  50.484  45.557  1.00  0.00     0.000 C 
BRANCH   3   4
ATOM      4  C   UNL     1      17.898  51.419  44.504  1.00  0.00     0.000 C 
BRANCH   4   5
ATOM      5  C   UNL     1      18.006  50.859  43.077  1.00  0.00     0.000 C 
BRANCH   5   6
ATOM      6  C   UNL     1      17.499  49.414  43.016  1.00  0.00     0.006 C 
BRANCH   6   7
ATOM      7  C   UNL     1      15.969  49.365  43.063  1.00  0.00     0.053 C 
BRANCH   7   8
ATOM      8  C   UNL     1      15.507  48.378  44.087  1.00  0.00     0.041 C 
ATOM      9  O   UNL     1      15.074  48.775  45.201  1.00  0.00    -0.550 OA
ATOM     10  O   UNL     1      15.504  47.020  43.793  1.00  0.00    -0.550 OA
ENDBRANCH   7   8
ENDBRANCH   6   7
ENDBRANCH   5   6
ENDBRANCH   4   5
ENDBRANCH   3   4
ENDBRANCH   2   3
ENDBRANCH   1   2
BRANCH   1  11
ATOM     11  C   UNL     1      21.935  49.549  45.577  1.00  0.00     0.000 C 
BRANCH  11  12
ATOM     12  C   UNL     1      21.493  49.605  44.108  1.00  0.00    -0.000 C 
BRANCH  12  13
ATOM     13  C   UNL     1      20.949  48.247  43.646  1.00  0.00    -0.000 C 
BRANCH  13  14
ATOM     14  C   UNL     1      21.547  47.101  44.477  1.00  0.00    -0.000 C 
BRANCH  14  15
ATOM     15  C   UNL     1      20.459  46.240  45.154  1.00  0.00    -0.000 C 
BRANCH  15  16
ATOM     16  C   UNL     1      19.033  46.797  44.984  1.00  0.00    -0.000 C 
BRANCH  16  17
ATOM     17  C   UNL     1      18.207  46.857  46.279  1.00  0.00    -0.003 C 
ATOM     18  C   UNL     1      19.072  47.032  47.527  1.00  0.00     0.004 C 
ENDBRANCH  16  17
ENDBRANCH  15  16
ENDBRANCH  14  15
ENDBRANCH  13  14
ENDBRANCH  12  13
ENDBRANCH  11  12
ENDBRANCH   1  11
TORSDOF 14
ENDMDL
MODEL 7
REMARK VINA RESULT:    -3.872      1.895      3.518
REMARK INTER + INTRA:          -9.643
REMARK INTER:                  -7.026
REMARK INTRA:                  -2.617
REMARK UNBOUND:                -2.601
REMARK SMILES CCCCCCCCCCCCCCCC(=O)[O-]
REMARK SMILES IDX 9 1 10 2 11 3 12 4 13 5 14 6 15 7 16 8 17 9 18 10 8 11 7 12
REMARK SMILES IDX 6 13 5 14 4 15 3 16 2 17 1 18
REMARK H PARENT
REMARK Flexibility Score: inf
ROOT
ATOM      1  C   UNL     1      18.062  48.475  45.618  1.00  0.00     0.000 C 
ENDROOT
BRANCH   1   2
ATOM      2  C   UNL     1      18.089  50.013  45.536  1.00  0.00     0.000 C 
BRANCH   2   3
ATOM      3  C   UNL     1      18.357  50.532  44.113  1.00  0.00     0.000 C 
BRANCH   3   4
ATOM      4  C   UNL     1      17.990  49.502  43.031  1.00  0.00     0.000 C 
BRANCH   4   5
ATOM      5  C   UNL     1      17.082  50.088  41.938  1.00  0.00     0.000 C 
BRANCH   5   6
ATOM      6  C   UNL     1      15.625  49.661  42.150  1.00  0.00     0.006 C 
BRANCH   6   7
ATOM      7  C   UNL     1      15.546  48.334  42.910  1.00  0.00     0.053 C 
BRANCH   7   8
ATOM      8  C   UNL     1      14.524  48.413  44.000  1.00  0.00     0.041 C 
ATOM      9  O   UNL     1      14.713  49.163  44.993  1.00  0.00    -0.550 OA
ATOM     10  O   UNL     1      13.337  47.698  43.894  1.00  0.00    -0.550 OA
ENDBRANCH   7   8
ENDBRANCH   6   7
ENDBRANCH   5   6
ENDBRANCH   4   5
ENDBRANCH   3   4
ENDBRANCH   2   3
ENDBRANCH   1   2
BRANCH   1  11
ATOM     11  C   UNL     1      18.800  47.871  46.827  1.00  0.00     0.000 C 
BRANCH  11  12
ATOM     12  C   UNL     1      19.687  46.676  46.452  1.00  0.00    -0.000 C 
BRANCH  12  13
ATOM     13  C   UNL     1      19.820  46.546  44.930  1.00  0.00    -0.000 C 
BRANCH  13  14
ATOM     14  C   UNL     1      21.264  46.809  44.477  1.00  0.00    -0.000 C 
BRANCH  14  15
ATOM     15  C   UNL     1      21.347  47.898  43.385  1.00  0.00    -0.000 C 
BRANCH  15  16
ATOM     16  C   UNL     1      21.718  49.291  43.927  1.00  0.00    -0.000 C 
BRANCH  16  17
ATOM     17  C   UNL     1      22.442  49.281  45.283  1.00  0.00    -0.003 C 
ATOM     18  C   UNL     1      21.686  50.052  46.365  1.00  0.00     0.004 C 
ENDBRANCH  16  17
ENDBRANCH  15  16
ENDBRANCH  14  15
ENDBRANCH  13  14
ENDBRANCH  12  13
ENDBRANCH  11  12
ENDBRANCH   1  11
TORSDOF 14
ENDMDL
MODEL 8
REMARK VINA RESULT:    -3.858      2.426      4.516
REMARK INTER + INTRA:          -9.616
REMARK INTER:                  -7.019
REMARK INTRA:                  -2.597
REMARK UNBOUND:                -2.601
REMARK SMILES CCCCCCCCCCCCCCCC(=O)[O-]
REMARK SMILES IDX 9 1 10 2 11 3 12 4 13 5 14 6 15 7 16 8 17 9 18 10 8 11 7 12
REMARK SMILES IDX 6 13 5 14 4 15 3 16 2 17 1 18
REMARK H PARENT
REMARK Flexibility Score: inf
ROOT
ATOM      1  C   UNL     1      17.419  49.726  47.014  1.00  0.00     0.000 C 
ENDROOT
BRANCH   1   2
ATOM      2  C   UNL     1      17.514  48.358  47.717  1.00  0.00     0.000 C 
BRANCH   2   3
ATOM      3  C   UNL     1      18.951  47.815  47.776  1.00  0.00     0.000 C 
BRANCH   3   4
ATOM      4  C   UNL     1      19.863  48.439  46.707  1.00  0.00     0.000 C 
BRANCH   4   5
ATOM      5  C   UNL     1      19.995  47.559  45.454  1.00  0.00     0.000 C 
BRANCH   5   6
ATOM      6  C   UNL     1      21.288  47.877  44.695  1.00  0.00     0.006 C 
BRANCH   6   7
ATOM      7  C   UNL     1      21.198  47.417  43.237  1.00  0.00     0.053 C 
BRANCH   7   8
ATOM      8  C   UNL     1      20.907  45.952  43.166  1.00  0.00     0.041 C 
ATOM      9  O   UNL     1      19.876  45.537  42.574  1.00  0.00    -0.550 OA
ATOM     10  O   UNL     1      21.803  45.038  43.708  1.00  0.00    -0.550 OA
ENDBRANCH   7   8
ENDBRANCH   6   7
ENDBRANCH   5   6
ENDBRANCH   4   5
ENDBRANCH   3   4
ENDBRANCH   2   3
ENDBRANCH   1   2
BRANCH   1  11
ATOM     11  C   UNL     1      16.223  49.890  46.059  1.00  0.00     0.000 C 
BRANCH  11  12
ATOM     12  C   UNL     1      16.514  50.844  44.892  1.00  0.00    -0.000 C 
BRANCH  12  13
ATOM     13  C   UNL     1      18.016  51.131  44.778  1.00  0.00    -0.000 C 
BRANCH  13  14
ATOM     14  C   UNL     1      18.617  50.449  43.540  1.00  0.00    -0.000 C 
BRANCH  14  15
ATOM     15  C   UNL     1      17.536  49.806  42.643  1.00  0.00    -0.000 C 
BRANCH  15  16
ATOM     16  C   UNL     1      17.605  48.268  42.597  1.00  0.00    -0.000 C 
BRANCH  16  17
ATOM     17  C   UNL     1      16.338  47.552  43.091  1.00  0.00    -0.003 C 
ATOM     18  C   UNL     1      16.553  46.808  44.410  1.00  0.00     0.004 C 
ENDBRANCH  16  17
ENDBRANCH  15  16
ENDBRANCH  14  15
ENDBRANCH  13  14
ENDBRANCH  12  13
ENDBRANCH  11  12
ENDBRANCH   1  11
TORSDOF 14
ENDMDL
MODEL 9
REMARK VINA RESULT:    -3.844      1.926      3.335
REMARK INTER + INTRA:          -9.591
REMARK INTER:                  -7.291
REMARK INTRA:                  -2.299
REMARK UNBOUND:                -2.601
REMARK SMILES CCCCCCCCCCCCCCCC(=O)[O-]
REMARK SMILES IDX 9 1 10 2 11 3 12 4 13 5 14 6 15 7 16 8 17 9 18 10 8 11 7 12
REMARK SMILES IDX 6 13 5 14 4 15 3 16 2 17 1 18
REMARK H PARENT
REMARK Flexibility Score: inf
ROOT
ATOM      1  C   UNL     1      16.478  49.831  46.007  1.00  0.00     0.000 C 
ENDROOT
BRANCH   1   2
ATOM      2  C   UNL     1      16.504  50.860  44.860  1.00  0.00     0.000 C 
BRANCH   2   3
ATOM      3  C   UNL     1      17.930  51.267  44.453  1.00  0.00     0.000 C 
BRANCH   3   4
ATOM      4  C   UNL     1      18.382  50.602  43.142  1.00  0.00     0.000 C 
BRANCH   4   5
ATOM      5  C   UNL     1      17.291  49.716  42.520  1.00  0.00     0.000 C 
BRANCH   5   6
ATOM      6  C   UNL     1      17.662  48.232  42.631  1.00  0.00     0.006 C 
BRANCH   6   7
ATOM      7  C   UNL     1      16.481  47.408  43.151  1.00  0.00     0.053 C 
BRANCH   7   8
ATOM      8  C   UNL     1      15.898  46.576  42.053  1.00  0.00     0.041 C 
ATOM      9  O   UNL     1      15.501  45.404  42.288  1.00  0.00    -0.550 OA
ATOM     10  O   UNL     1      15.744  47.112  40.780  1.00  0.00    -0.550 OA
ENDBRANCH   7   8
ENDBRANCH   6   7
ENDBRANCH   5   6
ENDBRANCH   4   5
ENDBRANCH   3   4
ENDBRANCH   2   3
ENDBRANCH   1   2
BRANCH   1  11
ATOM     11  C   UNL     1      17.860  49.397  46.528  1.00  0.00     0.000 C 
BRANCH  11  12
ATOM     12  C   UNL     1      18.008  47.873  46.638  1.00  0.00    -0.000 C 
BRANCH  12  13
ATOM     13  C   UNL     1      19.451  47.439  46.354  1.00  0.00    -0.000 C 
BRANCH  13  14
ATOM     14  C   UNL     1      20.181  48.478  45.489  1.00  0.00    -0.000 C 
BRANCH  14  15
ATOM     15  C   UNL     1      21.436  47.894  44.806  1.00  0.00    -0.000 C 
BRANCH  15  16
ATOM     16  C   UNL     1      21.165  47.314  43.405  1.00  0.00    -0.000 C 
BRANCH  16  17
ATOM     17  C   UNL     1      20.726  45.840  43.394  1.00  0.00    -0.003 C 
ATOM     18  C   UNL     1      21.745  44.912  44.055  1.00  0.00     0.004 C 
ENDBRANCH  16  17
ENDBRANCH  15  16
ENDBRANCH  14  15
ENDBRANCH  13  14
ENDBRANCH  12  13
ENDBRANCH  11  12
ENDBRANCH   1  11
TORSDOF 14
ENDMDL
