MODEL 1
REMARK VINA RESULT:    -5.828      0.000      0.000
REMARK INTER + INTRA:          -9.495
REMARK INTER:                  -8.042
REMARK INTRA:                  -1.453
REMARK UNBOUND:                -1.453
REMARK SMILES CC[C@@H](CC[C@@H](C)[C@H]1CC[C@@H]2[C@@H]3CC=C4C[C@@H](O)CC[C@]4(C)[C@@H]3CC[C@@]21C)C(C)C
REMARK SMILES IDX 5 1 4 2 3 3 2 4 1 5 28 6 29 7 30 8 6 9 7 10 8 11 9 12 26 13
REMARK SMILES IDX 10 14 11 15 25 16 27 17 12 18 24 19 23 20 13 21 21 22 14 23
REMARK SMILES IDX 15 24 20 25 22 26 16 27 19 28 17 29 18 30
REMARK H PARENT 18 31
REMARK Flexibility Score: inf
ROOT
ATOM      1  C   UNL     1      -4.358  37.997  41.242  1.00  0.00     0.004 C 
ENDROOT
BRANCH   1   2
ATOM      2  C   UNL     1      -4.557  38.589  42.661  1.00  0.00     0.004 C 
BRANCH   2   3
ATOM      3  C   UNL     1      -5.997  38.410  43.243  1.00  0.00    -0.009 C 
BRANCH   3   4
ATOM      4  C   UNL     1      -6.686  39.777  43.528  1.00  0.00     0.000 C 
ATOM      5  C   UNL     1      -7.407  39.831  44.876  1.00  0.00     0.004 C 
ENDBRANCH   3   4
BRANCH   3   6
ATOM      6  C   UNL     1      -6.013  37.431  44.477  1.00  0.00    -0.014 C 
ATOM      7  C   UNL     1      -4.585  37.035  44.900  1.00  0.00     0.007 C 
ATOM      8  C   UNL     1      -6.821  36.143  44.227  1.00  0.00     0.007 C 
ENDBRANCH   3   6
ENDBRANCH   2   3
ENDBRANCH   1   2
BRANCH   1   9
ATOM      9  C   UNL     1      -3.125  37.063  41.075  1.00  0.00    -0.011 C 
ATOM     10  C   UNL     1      -1.827  37.834  41.402  1.00  0.00     0.008 C 
BRANCH   9  11
ATOM     11  C   UNL     1      -3.224  35.716  41.882  1.00  0.00    -0.002 C 
ATOM     12  C   UNL     1      -4.543  34.966  41.667  1.00  0.00     0.005 C 
ATOM     13  C   UNL     1      -2.109  34.620  41.638  1.00  0.00    -0.026 C 
ATOM     14  C   UNL     1      -4.289  33.588  42.235  1.00  0.00     0.005 C 
ATOM     15  C   UNL     1      -2.868  33.254  41.788  1.00  0.00    -0.001 C 
ATOM     16  C   UNL     1      -0.978  34.751  42.694  1.00  0.00     0.007 C 
ATOM     17  C   UNL     1      -1.502  34.704  40.205  1.00  0.00     0.012 C 
ATOM     18  C   UNL     1      -2.150  32.129  42.607  1.00  0.00     0.000 C 
ATOM     19  C   UNL     1      -0.027  33.534  42.788  1.00  0.00     0.005 C 
ATOM     20  C   UNL     1      -0.627  32.163  42.346  1.00  0.00     0.003 C 
ATOM     21  C   UNL     1      -2.430  32.098  44.126  1.00  0.00     0.031 C 
ATOM     22  C   UNL     1       0.093  30.898  42.966  1.00  0.00    -0.008 C 
ATOM     23  C   UNL     1      -1.564  31.106  44.862  1.00  0.00    -0.027 C 
ATOM     24  C   UNL     1      -0.393  30.622  44.391  1.00  0.00    -0.065 C 
ATOM     25  C   UNL     1       1.650  31.089  42.987  1.00  0.00     0.014 C 
ATOM     26  C   UNL     1      -0.228  29.659  42.085  1.00  0.00     0.016 C 
ATOM     27  C   UNL     1       0.351  29.594  45.218  1.00  0.00     0.063 C 
ATOM     28  C   UNL     1       2.400  29.994  43.765  1.00  0.00     0.033 C 
ATOM     29  C   UNL     1       1.865  29.861  45.201  1.00  0.00     0.118 C 
BRANCH  29  30
ATOM     30  O   UNL     1       2.559  28.849  45.891  1.00  0.00    -0.393 OA
ATOM     31  H   UNL     1       3.530  29.006  45.742  1.00  0.00     0.210 HD
ENDBRANCH  29  30
ENDBRANCH   9  11
ENDBRANCH   1   9
TORSDOF 7
ENDMDL
MODEL 2
REMARK VINA RESULT:    -5.706     12.473     16.180
REMARK INTER + INTRA:          -9.328
REMARK INTER:                  -7.847
REMARK INTRA:                  -1.480
REMARK UNBOUND:                -1.453
REMARK SMILES CC[C@@H](CC[C@@H](C)[C@H]1CC[C@@H]2[C@@H]3CC=C4C[C@@H](O)CC[C@]4(C)[C@@H]3CC[C@@]21C)C(C)C
REMARK SMILES IDX 5 1 4 2 3 3 2 4 1 5 28 6 29 7 30 8 6 9 7 10 8 11 9 12 26 13
REMARK SMILES IDX 10 14 11 15 25 16 27 17 12 18 24 19 23 20 13 21 21 22 14 23
REMARK SMILES IDX 15 24 20 25 22 26 16 27 19 28 17 29 18 30
REMARK H PARENT 18 31
REMARK Flexibility Score: inf
ROOT
ATOM      1  C   UNL     1      -8.663  27.573  56.147  1.00  0.00     0.004 C 
ENDROOT
BRANCH   1   2
ATOM      2  C   UNL     1      -7.724  26.386  55.811  1.00  0.00     0.004 C 
BRANCH   2   3
ATOM      3  C   UNL     1      -8.025  25.685  54.447  1.00  0.00    -0.009 C 
BRANCH   3   4
ATOM      4  C   UNL     1      -7.996  24.132  54.569  1.00  0.00     0.000 C 
ATOM      5  C   UNL     1      -7.281  23.629  55.825  1.00  0.00     0.004 C 
ENDBRANCH   3   4
BRANCH   3   6
ATOM      6  C   UNL     1      -7.113  26.239  53.289  1.00  0.00    -0.014 C 
ATOM      7  C   UNL     1      -6.614  25.104  52.372  1.00  0.00     0.007 C 
ATOM      8  C   UNL     1      -5.890  27.027  53.795  1.00  0.00     0.007 C 
ENDBRANCH   3   6
ENDBRANCH   2   3
ENDBRANCH   1   2
BRANCH   1   9
ATOM      9  C   UNL     1      -7.977  28.802  56.809  1.00  0.00    -0.011 C 
ATOM     10  C   UNL     1      -6.672  28.366  57.511  1.00  0.00     0.008 C 
BRANCH   9  11
ATOM     11  C   UNL     1      -7.738  30.010  55.829  1.00  0.00    -0.002 C 
ATOM     12  C   UNL     1      -8.292  29.777  54.419  1.00  0.00     0.005 C 
ATOM     13  C   UNL     1      -8.311  31.426  56.243  1.00  0.00    -0.026 C 
ATOM     14  C   UNL     1      -8.266  31.144  53.774  1.00  0.00     0.005 C 
ATOM     15  C   UNL     1      -8.725  32.090  54.882  1.00  0.00    -0.001 C 
ATOM     16  C   UNL     1      -7.219  32.263  56.965  1.00  0.00     0.007 C 
ATOM     17  C   UNL     1      -9.571  31.310  57.151  1.00  0.00     0.012 C 
ATOM     18  C   UNL     1      -8.345  33.596  54.682  1.00  0.00     0.000 C 
ATOM     19  C   UNL     1      -7.533  33.773  57.095  1.00  0.00     0.005 C 
ATOM     20  C   UNL     1      -8.488  34.367  56.015  1.00  0.00     0.003 C 
ATOM     21  C   UNL     1      -6.967  33.881  54.046  1.00  0.00     0.031 C 
ATOM     22  C   UNL     1      -8.346  35.927  55.796  1.00  0.00    -0.008 C 
ATOM     23  C   UNL     1      -6.607  35.346  54.058  1.00  0.00    -0.027 C 
ATOM     24  C   UNL     1      -7.157  36.258  54.889  1.00  0.00    -0.065 C 
ATOM     25  C   UNL     1      -8.167  36.675  57.164  1.00  0.00     0.014 C 
ATOM     26  C   UNL     1      -9.643  36.458  55.123  1.00  0.00     0.016 C 
ATOM     27  C   UNL     1      -6.734  37.707  54.759  1.00  0.00     0.063 C 
ATOM     28  C   UNL     1      -7.814  38.165  57.016  1.00  0.00     0.033 C 
ATOM     29  C   UNL     1      -6.565  38.360  56.141  1.00  0.00     0.118 C 
BRANCH  29  30
ATOM     30  O   UNL     1      -6.264  39.729  56.013  1.00  0.00    -0.393 OA
ATOM     31  H   UNL     1      -5.369  39.794  55.582  1.00  0.00     0.210 HD
ENDBRANCH  29  30
ENDBRANCH   9  11
ENDBRANCH   1   9
TORSDOF 7
ENDMDL
MODEL 3
REMARK VINA RESULT:    -5.607      1.730      3.739
REMARK INTER + INTRA:          -9.191
REMARK INTER:                  -7.420
REMARK INTRA:                  -1.770
REMARK UNBOUND:                -1.453
REMARK SMILES CC[C@@H](CC[C@@H](C)[C@H]1CC[C@@H]2[C@@H]3CC=C4C[C@@H](O)CC[C@]4(C)[C@@H]3CC[C@@]21C)C(C)C
REMARK SMILES IDX 5 1 4 2 3 3 2 4 1 5 28 6 29 7 30 8 6 9 7 10 8 11 9 12 26 13
REMARK SMILES IDX 10 14 11 15 25 16 27 17 12 18 24 19 23 20 13 21 21 22 14 23
REMARK SMILES IDX 15 24 20 25 22 26 16 27 19 28 17 29 18 30
REMARK H PARENT 18 31
REMARK Flexibility Score: inf
ROOT
ATOM      1  C   UNL     1      -7.727  34.491  44.139  1.00  0.00     0.004 C 
ENDROOT
BRANCH   1   2
ATOM      2  C   UNL     1      -7.357  35.779  44.918  1.00  0.00     0.004 C 
BRANCH   2   3
ATOM      3  C   UNL     1      -6.936  36.986  44.017  1.00  0.00    -0.009 C 
BRANCH   3   4
ATOM      4  C   UNL     1      -5.410  37.280  44.109  1.00  0.00     0.000 C 
ATOM      5  C   UNL     1      -4.681  37.167  42.769  1.00  0.00     0.004 C 
ENDBRANCH   3   4
BRANCH   3   6
ATOM      6  C   UNL     1      -7.836  38.252  44.276  1.00  0.00    -0.014 C 
ATOM      7  C   UNL     1      -7.015  39.554  44.188  1.00  0.00     0.007 C 
ATOM      8  C   UNL     1      -8.558  38.224  45.637  1.00  0.00     0.007 C 
ENDBRANCH   3   6
ENDBRANCH   2   3
ENDBRANCH   1   2
BRANCH   1   9
ATOM      9  C   UNL     1      -6.989  33.199  44.595  1.00  0.00    -0.011 C 
ATOM     10  C   UNL     1      -7.969  32.006  44.611  1.00  0.00     0.008 C 
BRANCH   9  11
ATOM     11  C   UNL     1      -5.689  32.876  43.770  1.00  0.00    -0.002 C 
ATOM     12  C   UNL     1      -5.551  33.706  42.488  1.00  0.00     0.005 C 
ATOM     13  C   UNL     1      -4.290  33.041  44.492  1.00  0.00    -0.026 C 
ATOM     14  C   UNL     1      -4.119  33.494  42.054  1.00  0.00     0.005 C 
ATOM     15  C   UNL     1      -3.322  33.531  43.357  1.00  0.00    -0.001 C 
ATOM     16  C   UNL     1      -3.820  31.683  45.081  1.00  0.00     0.007 C 
ATOM     17  C   UNL     1      -4.331  34.116  45.618  1.00  0.00     0.012 C 
ATOM     18  C   UNL     1      -1.904  32.871  43.299  1.00  0.00     0.000 C 
ATOM     19  C   UNL     1      -2.328  31.629  45.488  1.00  0.00     0.005 C 
ATOM     20  C   UNL     1      -1.377  32.604  44.728  1.00  0.00     0.003 C 
ATOM     21  C   UNL     1      -1.772  31.597  42.435  1.00  0.00     0.031 C 
ATOM     22  C   UNL     1       0.142  32.163  44.709  1.00  0.00    -0.008 C 
ATOM     23  C   UNL     1      -0.428  30.927  42.581  1.00  0.00    -0.027 C 
ATOM     24  C   UNL     1       0.403  31.108  43.630  1.00  0.00    -0.065 C 
ATOM     25  C   UNL     1       0.579  31.586  46.101  1.00  0.00     0.014 C 
ATOM     26  C   UNL     1       1.020  33.408  44.406  1.00  0.00     0.016 C 
ATOM     27  C   UNL     1       1.746  30.406  43.622  1.00  0.00     0.063 C 
ATOM     28  C   UNL     1       1.977  30.945  46.097  1.00  0.00     0.033 C 
ATOM     29  C   UNL     1       2.091  29.857  45.016  1.00  0.00     0.118 C 
BRANCH  29  30
ATOM     30  O   UNL     1       3.379  29.289  45.025  1.00  0.00    -0.393 OA
ATOM     31  H   UNL     1       4.030  30.040  44.969  1.00  0.00     0.210 HD
ENDBRANCH  29  30
ENDBRANCH   9  11
ENDBRANCH   1   9
TORSDOF 7
ENDMDL
MODEL 4
REMARK VINA RESULT:    -5.575      4.127      7.274
REMARK INTER + INTRA:          -9.146
REMARK INTER:                  -6.785
REMARK INTRA:                  -2.362
REMARK UNBOUND:                -1.453
REMARK SMILES CC[C@@H](CC[C@@H](C)[C@H]1CC[C@@H]2[C@@H]3CC=C4C[C@@H](O)CC[C@]4(C)[C@@H]3CC[C@@]21C)C(C)C
REMARK SMILES IDX 5 1 4 2 3 3 2 4 1 5 28 6 29 7 30 8 6 9 7 10 8 11 9 12 26 13
REMARK SMILES IDX 10 14 11 15 25 16 27 17 12 18 24 19 23 20 13 21 21 22 14 23
REMARK SMILES IDX 15 24 20 25 22 26 16 27 19 28 17 29 18 30
REMARK H PARENT 18 31
REMARK Flexibility Score: inf
ROOT
ATOM      1  C   UNL     1      -2.827  38.296  41.910  1.00  0.00     0.004 C 
ENDROOT
BRANCH   1   2
ATOM      2  C   UNL     1      -1.358  37.995  42.302  1.00  0.00     0.004 C 
BRANCH   2   3
ATOM      3  C   UNL     1      -1.190  36.897  43.402  1.00  0.00    -0.009 C 
BRANCH   3   4
ATOM      4  C   UNL     1      -0.531  37.461  44.695  1.00  0.00     0.000 C 
ATOM      5  C   UNL     1      -1.536  37.803  45.798  1.00  0.00     0.004 C 
ENDBRANCH   3   4
BRANCH   3   6
ATOM      6  C   UNL     1      -0.473  35.611  42.843  1.00  0.00    -0.014 C 
ATOM      7  C   UNL     1      -0.309  35.678  41.312  1.00  0.00     0.007 C 
ATOM      8  C   UNL     1      -1.202  34.300  43.197  1.00  0.00     0.007 C 
ENDBRANCH   3   6
ENDBRANCH   2   3
ENDBRANCH   1   2
BRANCH   1   9
ATOM      9  C   UNL     1      -3.902  37.824  42.931  1.00  0.00    -0.011 C 
ATOM     10  C   UNL     1      -4.781  39.017  43.364  1.00  0.00     0.008 C 
BRANCH   9  11
ATOM     11  C   UNL     1      -4.768  36.608  42.436  1.00  0.00    -0.002 C 
ATOM     12  C   UNL     1      -4.059  35.727  41.401  1.00  0.00     0.005 C 
ATOM     13  C   UNL     1      -5.298  35.583  43.520  1.00  0.00    -0.026 C 
ATOM     14  C   UNL     1      -4.902  34.474  41.332  1.00  0.00     0.005 C 
ATOM     15  C   UNL     1      -5.281  34.196  42.785  1.00  0.00    -0.001 C 
ATOM     16  C   UNL     1      -6.736  35.962  43.969  1.00  0.00     0.007 C 
ATOM     17  C   UNL     1      -4.363  35.504  44.764  1.00  0.00     0.012 C 
ATOM     18  C   UNL     1      -6.525  33.268  42.991  1.00  0.00     0.000 C 
ATOM     19  C   UNL     1      -7.493  34.854  44.741  1.00  0.00     0.005 C 
ATOM     20  C   UNL     1      -7.051  33.389  44.440  1.00  0.00     0.003 C 
ATOM     21  C   UNL     1      -7.685  33.438  41.986  1.00  0.00     0.031 C 
ATOM     22  C   UNL     1      -8.149  32.293  44.748  1.00  0.00    -0.008 C 
ATOM     23  C   UNL     1      -8.910  32.641  42.364  1.00  0.00    -0.027 C 
ATOM     24  C   UNL     1      -9.170  32.191  43.611  1.00  0.00    -0.065 C 
ATOM     25  C   UNL     1      -8.906  32.613  46.084  1.00  0.00     0.014 C 
ATOM     26  C   UNL     1      -7.449  30.915  44.908  1.00  0.00     0.016 C 
ATOM     27  C   UNL     1     -10.417  31.361  43.837  1.00  0.00     0.063 C 
ATOM     28  C   UNL     1     -10.125  31.710  46.339  1.00  0.00     0.033 C 
ATOM     29  C   UNL     1     -11.106  31.747  45.156  1.00  0.00     0.118 C 
BRANCH  29  30
ATOM     30  O   UNL     1     -12.210  30.909  45.407  1.00  0.00    -0.393 OA
ATOM     31  H   UNL     1     -12.989  31.498  45.591  1.00  0.00     0.210 HD
ENDBRANCH  29  30
ENDBRANCH   9  11
ENDBRANCH   1   9
TORSDOF 7
ENDMDL
MODEL 5
REMARK VINA RESULT:    -5.550      1.694      2.750
REMARK INTER + INTRA:          -9.113
REMARK INTER:                  -7.598
REMARK INTRA:                  -1.515
REMARK UNBOUND:                -1.453
REMARK SMILES CC[C@@H](CC[C@@H](C)[C@H]1CC[C@@H]2[C@@H]3CC=C4C[C@@H](O)CC[C@]4(C)[C@@H]3CC[C@@]21C)C(C)C
REMARK SMILES IDX 5 1 4 2 3 3 2 4 1 5 28 6 29 7 30 8 6 9 7 10 8 11 9 12 26 13
REMARK SMILES IDX 10 14 11 15 25 16 27 17 12 18 24 19 23 20 13 21 21 22 14 23
REMARK SMILES IDX 15 24 20 25 22 26 16 27 19 28 17 29 18 30
REMARK H PARENT 18 31
REMARK Flexibility Score: inf
ROOT
ATOM      1  C   UNL     1      -5.240  37.513  43.964  1.00  0.00     0.004 C 
ENDROOT
BRANCH   1   2
ATOM      2  C   UNL     1      -6.740  37.796  43.694  1.00  0.00     0.004 C 
BRANCH   2   3
ATOM      3  C   UNL     1      -7.722  37.127  44.710  1.00  0.00    -0.009 C 
BRANCH   3   4
ATOM      4  C   UNL     1      -8.120  38.096  45.863  1.00  0.00     0.000 C 
ATOM      5  C   UNL     1      -7.897  39.572  45.528  1.00  0.00     0.004 C 
ENDBRANCH   3   4
BRANCH   3   6
ATOM      6  C   UNL     1      -7.183  35.737  45.217  1.00  0.00    -0.014 C 
ATOM      7  C   UNL     1      -7.732  34.575  44.367  1.00  0.00     0.007 C 
ATOM      8  C   UNL     1      -7.512  35.455  46.696  1.00  0.00     0.007 C 
ENDBRANCH   3   6
ENDBRANCH   2   3
ENDBRANCH   1   2
BRANCH   1   9
ATOM      9  C   UNL     1      -4.565  36.501  42.994  1.00  0.00    -0.011 C 
ATOM     10  C   UNL     1      -4.132  37.219  41.697  1.00  0.00     0.008 C 
BRANCH   9  11
ATOM     11  C   UNL     1      -3.381  35.688  43.635  1.00  0.00    -0.002 C 
ATOM     12  C   UNL     1      -3.453  35.598  45.164  1.00  0.00     0.005 C 
ATOM     13  C   UNL     1      -3.170  34.190  43.167  1.00  0.00    -0.026 C 
ATOM     14  C   UNL     1      -2.456  34.521  45.525  1.00  0.00     0.005 C 
ATOM     15  C   UNL     1      -2.654  33.451  44.453  1.00  0.00    -0.001 C 
ATOM     16  C   UNL     1      -2.121  34.122  42.023  1.00  0.00     0.007 C 
ATOM     17  C   UNL     1      -4.499  33.525  42.703  1.00  0.00     0.012 C 
ATOM     18  C   UNL     1      -1.462  32.453  44.268  1.00  0.00     0.000 C 
ATOM     19  C   UNL     1      -1.565  32.708  41.730  1.00  0.00     0.005 C 
ATOM     20  C   UNL     1      -1.594  31.703  42.923  1.00  0.00     0.003 C 
ATOM     21  C   UNL     1      -0.042  33.042  44.413  1.00  0.00     0.031 C 
ATOM     22  C   UNL     1      -0.546  30.523  42.815  1.00  0.00    -0.008 C 
ATOM     23  C   UNL     1       1.041  32.059  44.042  1.00  0.00    -0.027 C 
ATOM     24  C   UNL     1       0.848  30.972  43.262  1.00  0.00    -0.065 C 
ATOM     25  C   UNL     1      -0.458  29.978  41.347  1.00  0.00     0.014 C 
ATOM     26  C   UNL     1      -1.008  29.358  43.735  1.00  0.00     0.016 C 
ATOM     27  C   UNL     1       2.018  30.044  43.009  1.00  0.00     0.063 C 
ATOM     28  C   UNL     1       0.687  28.976  41.123  1.00  0.00     0.033 C 
ATOM     29  C   UNL     1       2.041  29.570  41.547  1.00  0.00     0.118 C 
BRANCH  29  30
ATOM     30  O   UNL     1       3.073  28.635  41.341  1.00  0.00    -0.393 OA
ATOM     31  H   UNL     1       3.366  28.724  40.394  1.00  0.00     0.210 HD
ENDBRANCH  29  30
ENDBRANCH   9  11
ENDBRANCH   1   9
TORSDOF 7
ENDMDL
MODEL 6
REMARK VINA RESULT:    -5.544      5.036      7.087
REMARK INTER + INTRA:          -9.103
REMARK INTER:                  -8.016
REMARK INTRA:                  -1.087
REMARK UNBOUND:                -1.453
REMARK SMILES CC[C@@H](CC[C@@H](C)[C@H]1CC[C@@H]2[C@@H]3CC=C4C[C@@H](O)CC[C@]4(C)[C@@H]3CC[C@@]21C)C(C)C
REMARK SMILES IDX 5 1 4 2 3 3 2 4 1 5 28 6 29 7 30 8 6 9 7 10 8 11 9 12 26 13
REMARK SMILES IDX 10 14 11 15 25 16 27 17 12 18 24 19 23 20 13 21 21 22 14 23
REMARK SMILES IDX 15 24 20 25 22 26 16 27 19 28 17 29 18 30
REMARK H PARENT 18 31
REMARK Flexibility Score: inf
ROOT
ATOM      1  C   UNL     1      -4.267  37.945  45.143  1.00  0.00     0.004 C 
ENDROOT
BRANCH   1   2
ATOM      2  C   UNL     1      -4.970  39.305  45.383  1.00  0.00     0.004 C 
BRANCH   2   3
ATOM      3  C   UNL     1      -6.222  39.234  46.315  1.00  0.00    -0.009 C 
BRANCH   3   4
ATOM      4  C   UNL     1      -6.206  37.968  47.222  1.00  0.00     0.000 C 
ATOM      5  C   UNL     1      -5.678  38.232  48.634  1.00  0.00     0.004 C 
ENDBRANCH   3   4
BRANCH   3   6
ATOM      6  C   UNL     1      -7.564  39.410  45.509  1.00  0.00    -0.014 C 
ATOM      7  C   UNL     1      -8.573  38.295  45.845  1.00  0.00     0.007 C 
ATOM      8  C   UNL     1      -7.362  39.439  43.982  1.00  0.00     0.007 C 
ENDBRANCH   3   6
ENDBRANCH   2   3
ENDBRANCH   1   2
BRANCH   1   9
ATOM      9  C   UNL     1      -3.908  37.629  43.663  1.00  0.00    -0.011 C 
ATOM     10  C   UNL     1      -2.395  37.348  43.532  1.00  0.00     0.008 C 
BRANCH   9  11
ATOM     11  C   UNL     1      -4.773  36.482  43.022  1.00  0.00    -0.002 C 
ATOM     12  C   UNL     1      -4.034  35.684  41.942  1.00  0.00     0.005 C 
ATOM     13  C   UNL     1      -5.369  35.376  43.984  1.00  0.00    -0.026 C 
ATOM     14  C   UNL     1      -4.895  34.461  41.722  1.00  0.00     0.005 C 
ATOM     15  C   UNL     1      -5.344  34.061  43.126  1.00  0.00    -0.001 C 
ATOM     16  C   UNL     1      -6.819  35.744  44.402  1.00  0.00     0.007 C 
ATOM     17  C   UNL     1      -4.493  35.165  45.254  1.00  0.00     0.012 C 
ATOM     18  C   UNL     1      -6.613  33.145  43.192  1.00  0.00     0.000 C 
ATOM     19  C   UNL     1      -7.630  34.588  45.035  1.00  0.00     0.005 C 
ATOM     20  C   UNL     1      -7.202  33.147  44.621  1.00  0.00     0.003 C 
ATOM     21  C   UNL     1      -7.724  33.432  42.157  1.00  0.00     0.031 C 
ATOM     22  C   UNL     1      -8.332  32.052  44.780  1.00  0.00    -0.008 C 
ATOM     23  C   UNL     1      -8.978  32.630  42.407  1.00  0.00    -0.027 C 
ATOM     24  C   UNL     1      -9.302  32.075  43.595  1.00  0.00    -0.065 C 
ATOM     25  C   UNL     1      -9.143  32.266  46.106  1.00  0.00     0.014 C 
ATOM     26  C   UNL     1      -7.665  30.650  44.844  1.00  0.00     0.016 C 
ATOM     27  C   UNL     1     -10.573  31.256  43.691  1.00  0.00     0.063 C 
ATOM     28  C   UNL     1     -10.389  31.371  46.225  1.00  0.00     0.033 C 
ATOM     29  C   UNL     1     -11.314  31.536  45.008  1.00  0.00     0.118 C 
BRANCH  29  30
ATOM     30  O   UNL     1     -12.443  30.703  45.133  1.00  0.00    -0.393 OA
ATOM     31  H   UNL     1     -12.711  30.433  44.214  1.00  0.00     0.210 HD
ENDBRANCH  29  30
ENDBRANCH   9  11
ENDBRANCH   1   9
TORSDOF 7
ENDMDL
MODEL 7
REMARK VINA RESULT:    -5.540      4.294      7.632
REMARK INTER + INTRA:          -9.099
REMARK INTER:                  -7.200
REMARK INTRA:                  -1.899
REMARK UNBOUND:                -1.453
REMARK SMILES CC[C@@H](CC[C@@H](C)[C@H]1CC[C@@H]2[C@@H]3CC=C4C[C@@H](O)CC[C@]4(C)[C@@H]3CC[C@@]21C)C(C)C
REMARK SMILES IDX 5 1 4 2 3 3 2 4 1 5 28 6 29 7 30 8 6 9 7 10 8 11 9 12 26 13
REMARK SMILES IDX 10 14 11 15 25 16 27 17 12 18 24 19 23 20 13 21 21 22 14 23
REMARK SMILES IDX 15 24 20 25 22 26 16 27 19 28 17 29 18 30
REMARK H PARENT 18 31
REMARK Flexibility Score: inf
ROOT
ATOM      1  C   UNL     1      -2.658  37.593  42.683  1.00  0.00     0.004 C 
ENDROOT
BRANCH   1   2
ATOM      2  C   UNL     1      -1.501  36.803  43.346  1.00  0.00     0.004 C 
BRANCH   2   3
ATOM      3  C   UNL     1      -0.507  36.137  42.340  1.00  0.00    -0.009 C 
BRANCH   3   4
ATOM      4  C   UNL     1      -0.676  36.697  40.896  1.00  0.00     0.000 C 
ATOM      5  C   UNL     1       0.640  37.140  40.252  1.00  0.00     0.004 C 
ENDBRANCH   3   4
BRANCH   3   6
ATOM      6  C   UNL     1      -0.563  34.565  42.413  1.00  0.00    -0.014 C 
ATOM      7  C   UNL     1      -1.086  33.958  41.096  1.00  0.00     0.007 C 
ATOM      8  C   UNL     1      -1.432  34.036  43.571  1.00  0.00     0.007 C 
ENDBRANCH   3   6
ENDBRANCH   2   3
ENDBRANCH   1   2
BRANCH   1   9
ATOM      9  C   UNL     1      -4.041  37.468  43.383  1.00  0.00    -0.011 C 
ATOM     10  C   UNL     1      -4.778  38.825  43.348  1.00  0.00     0.008 C 
BRANCH   9  11
ATOM     11  C   UNL     1      -4.939  36.301  42.830  1.00  0.00    -0.002 C 
ATOM     12  C   UNL     1      -4.250  35.451  41.756  1.00  0.00     0.005 C 
ATOM     13  C   UNL     1      -5.502  35.242  43.863  1.00  0.00    -0.026 C 
ATOM     14  C   UNL     1      -5.127  34.226  41.626  1.00  0.00     0.005 C 
ATOM     15  C   UNL     1      -5.520  33.891  43.063  1.00  0.00    -0.001 C 
ATOM     16  C   UNL     1      -6.931  35.639  44.324  1.00  0.00     0.007 C 
ATOM     17  C   UNL     1      -4.575  35.080  45.104  1.00  0.00     0.012 C 
ATOM     18  C   UNL     1      -6.790  32.989  43.222  1.00  0.00     0.000 C 
ATOM     19  C   UNL     1      -7.722  34.518  45.041  1.00  0.00     0.005 C 
ATOM     20  C   UNL     1      -7.319  33.057  44.673  1.00  0.00     0.003 C 
ATOM     21  C   UNL     1      -7.941  33.239  42.222  1.00  0.00     0.031 C 
ATOM     22  C   UNL     1      -8.449  31.979  44.926  1.00  0.00    -0.008 C 
ATOM     23  C   UNL     1      -9.189  32.459  42.559  1.00  0.00    -0.027 C 
ATOM     24  C   UNL     1      -9.467  31.959  43.782  1.00  0.00    -0.065 C 
ATOM     25  C   UNL     1      -9.202  32.257  46.273  1.00  0.00     0.014 C 
ATOM     26  C   UNL     1      -7.788  30.576  45.024  1.00  0.00     0.016 C 
ATOM     27  C   UNL     1     -10.737  31.154  43.966  1.00  0.00     0.063 C 
ATOM     28  C   UNL     1     -10.447  31.378  46.483  1.00  0.00     0.033 C 
ATOM     29  C   UNL     1     -11.422  31.497  45.299  1.00  0.00     0.118 C 
BRANCH  29  30
ATOM     30  O   UNL     1     -12.549  30.680  45.507  1.00  0.00    -0.393 OA
ATOM     31  H   UNL     1     -13.311  31.281  45.725  1.00  0.00     0.210 HD
ENDBRANCH  29  30
ENDBRANCH   9  11
ENDBRANCH   1   9
TORSDOF 7
ENDMDL
MODEL 8
REMARK VINA RESULT:    -5.533      3.129      8.584
REMARK INTER + INTRA:          -9.089
REMARK INTER:                  -7.100
REMARK INTRA:                  -1.989
REMARK UNBOUND:                -1.453
REMARK SMILES CC[C@@H](CC[C@@H](C)[C@H]1CC[C@@H]2[C@@H]3CC=C4C[C@@H](O)CC[C@]4(C)[C@@H]3CC[C@@]21C)C(C)C
REMARK SMILES IDX 5 1 4 2 3 3 2 4 1 5 28 6 29 7 30 8 6 9 7 10 8 11 9 12 26 13
REMARK SMILES IDX 10 14 11 15 25 16 27 17 12 18 24 19 23 20 13 21 21 22 14 23
REMARK SMILES IDX 15 24 20 25 22 26 16 27 19 28 17 29 18 30
REMARK H PARENT 18 31
REMARK Flexibility Score: inf
ROOT
ATOM      1  C   UNL     1       1.035  31.451  42.992  1.00  0.00     0.004 C 
ENDROOT
BRANCH   1   2
ATOM      2  C   UNL     1       0.992  30.005  43.547  1.00  0.00     0.004 C 
BRANCH   2   3
ATOM      3  C   UNL     1       0.135  29.008  42.701  1.00  0.00    -0.009 C 
BRANCH   3   4
ATOM      4  C   UNL     1       0.045  29.438  41.207  1.00  0.00     0.000 C 
ATOM      5  C   UNL     1       0.070  28.262  40.228  1.00  0.00     0.004 C 
ENDBRANCH   3   4
BRANCH   3   6
ATOM      6  C   UNL     1      -1.269  28.735  43.360  1.00  0.00    -0.014 C 
ATOM      7  C   UNL     1      -2.376  29.580  42.699  1.00  0.00     0.007 C 
ATOM      8  C   UNL     1      -1.295  29.001  44.878  1.00  0.00     0.007 C 
ENDBRANCH   3   6
ENDBRANCH   2   3
ENDBRANCH   1   2
BRANCH   1   9
ATOM      9  C   UNL     1       0.395  32.537  43.903  1.00  0.00    -0.011 C 
ATOM     10  C   UNL     1       1.499  33.383  44.575  1.00  0.00     0.008 C 
BRANCH   9  11
ATOM     11  C   UNL     1      -0.672  33.437  43.179  1.00  0.00    -0.002 C 
ATOM     12  C   UNL     1      -1.087  32.911  41.800  1.00  0.00     0.005 C 
ATOM     13  C   UNL     1      -2.043  33.707  43.922  1.00  0.00    -0.026 C 
ATOM     14  C   UNL     1      -2.327  33.703  41.452  1.00  0.00     0.005 C 
ATOM     15  C   UNL     1      -3.103  33.782  42.766  1.00  0.00    -0.001 C 
ATOM     16  C   UNL     1      -1.980  35.044  44.710  1.00  0.00     0.007 C 
ATOM     17  C   UNL     1      -2.431  32.546  44.885  1.00  0.00     0.012 C 
ATOM     18  C   UNL     1      -4.168  34.927  42.851  1.00  0.00     0.000 C 
ATOM     19  C   UNL     1      -3.350  35.594  45.175  1.00  0.00     0.005 C 
ATOM     20  C   UNL     1      -4.583  35.165  44.322  1.00  0.00     0.003 C 
ATOM     21  C   UNL     1      -3.795  36.266  42.178  1.00  0.00     0.031 C 
ATOM     22  C   UNL     1      -5.824  36.141  44.420  1.00  0.00    -0.008 C 
ATOM     23  C   UNL     1      -4.792  37.363  42.464  1.00  0.00    -0.027 C 
ATOM     24  C   UNL     1      -5.650  37.359  43.508  1.00  0.00    -0.065 C 
ATOM     25  C   UNL     1      -6.038  36.635  45.893  1.00  0.00     0.014 C 
ATOM     26  C   UNL     1      -7.100  35.372  43.979  1.00  0.00     0.016 C 
ATOM     27  C   UNL     1      -6.629  38.506  43.646  1.00  0.00     0.063 C 
ATOM     28  C   UNL     1      -7.092  37.747  46.029  1.00  0.00     0.033 C 
ATOM     29  C   UNL     1      -6.769  38.940  45.115  1.00  0.00     0.118 C 
BRANCH  29  30
ATOM     30  O   UNL     1      -7.750  39.941  45.249  1.00  0.00    -0.393 OA
ATOM     31  H   UNL     1      -7.439  40.727  44.723  1.00  0.00     0.210 HD
ENDBRANCH  29  30
ENDBRANCH   9  11
ENDBRANCH   1   9
TORSDOF 7
ENDMDL
MODEL 9
REMARK VINA RESULT:    -5.428     13.541     15.461
REMARK INTER + INTRA:          -8.944
REMARK INTER:                  -7.201
REMARK INTRA:                  -1.743
REMARK UNBOUND:                -1.453
REMARK SMILES CC[C@@H](CC[C@@H](C)[C@H]1CC[C@@H]2[C@@H]3CC=C4C[C@@H](O)CC[C@]4(C)[C@@H]3CC[C@@]21C)C(C)C
REMARK SMILES IDX 5 1 4 2 3 3 2 4 1 5 28 6 29 7 30 8 6 9 7 10 8 11 9 12 26 13
REMARK SMILES IDX 10 14 11 15 25 16 27 17 12 18 24 19 23 20 13 21 21 22 14 23
REMARK SMILES IDX 15 24 20 25 22 26 16 27 19 28 17 29 18 30
REMARK H PARENT 18 31
REMARK Flexibility Score: inf
ROOT
ATOM      1  C   UNL     1      -8.040  32.222  58.624  1.00  0.00     0.004 C 
ENDROOT
BRANCH   1   2
ATOM      2  C   UNL     1      -9.433  32.107  59.294  1.00  0.00     0.004 C 
BRANCH   2   3
ATOM      3  C   UNL     1     -10.614  32.671  58.438  1.00  0.00    -0.009 C 
BRANCH   3   4
ATOM      4  C   UNL     1     -10.763  34.213  58.592  1.00  0.00     0.000 C 
ATOM      5  C   UNL     1     -10.658  34.975  57.269  1.00  0.00     0.004 C 
ENDBRANCH   3   4
BRANCH   3   6
ATOM      6  C   UNL     1     -11.953  31.882  58.696  1.00  0.00    -0.014 C 
ATOM      7  C   UNL     1     -12.749  31.682  57.392  1.00  0.00     0.007 C 
ATOM      8  C   UNL     1     -12.874  32.560  59.730  1.00  0.00     0.007 C 
ENDBRANCH   3   6
ENDBRANCH   2   3
ENDBRANCH   1   2
BRANCH   1   9
ATOM      9  C   UNL     1      -8.021  32.019  57.081  1.00  0.00    -0.011 C 
ATOM     10  C   UNL     1      -7.357  33.233  56.395  1.00  0.00     0.008 C 
BRANCH   9  11
ATOM     11  C   UNL     1      -7.374  30.661  56.620  1.00  0.00    -0.002 C 
ATOM     12  C   UNL     1      -6.709  29.878  57.757  1.00  0.00     0.005 C 
ATOM     13  C   UNL     1      -8.308  29.597  55.910  1.00  0.00    -0.026 C 
ATOM     14  C   UNL     1      -6.473  28.501  57.179  1.00  0.00     0.005 C 
ATOM     15  C   UNL     1      -7.740  28.210  56.376  1.00  0.00    -0.001 C 
ATOM     16  C   UNL     1      -8.224  29.747  54.366  1.00  0.00     0.007 C 
ATOM     17  C   UNL     1      -9.791  29.714  56.370  1.00  0.00     0.012 C 
ATOM     18  C   UNL     1      -7.604  27.096  55.284  1.00  0.00     0.000 C 
ATOM     19  C   UNL     1      -8.796  28.554  53.562  1.00  0.00     0.005 C 
ATOM     20  C   UNL     1      -8.783  27.174  54.288  1.00  0.00     0.003 C 
ATOM     21  C   UNL     1      -6.263  27.040  54.520  1.00  0.00     0.031 C 
ATOM     22  C   UNL     1      -8.806  25.921  53.322  1.00  0.00    -0.008 C 
ATOM     23  C   UNL     1      -6.284  26.063  53.370  1.00  0.00    -0.027 C 
ATOM     24  C   UNL     1      -7.410  25.616  52.772  1.00  0.00    -0.065 C 
ATOM     25  C   UNL     1      -9.787  26.153  52.120  1.00  0.00     0.014 C 
ATOM     26  C   UNL     1      -9.304  24.684  54.119  1.00  0.00     0.016 C 
ATOM     27  C   UNL     1      -7.284  24.598  51.657  1.00  0.00     0.063 C 
ATOM     28  C   UNL     1      -9.704  25.070  51.031  1.00  0.00     0.033 C 
ATOM     29  C   UNL     1      -8.265  24.906  50.514  1.00  0.00     0.118 C 
BRANCH  29  30
ATOM     30  O   UNL     1      -8.210  23.905  49.525  1.00  0.00    -0.393 OA
ATOM     31  H   UNL     1      -7.251  23.779  49.289  1.00  0.00     0.210 HD
ENDBRANCH  29  30
ENDBRANCH   9  11
ENDBRANCH   1   9
TORSDOF 7
ENDMDL
