MODEL 1
REMARK VINA RESULT:    23.674      0.000      0.000
REMARK INTER + INTRA:          61.274
REMARK INTER:                  62.425
REMARK INTRA:                  -1.151
REMARK UNBOUND:                -1.151
REMARK SMILES CCCCCCCCCCCCCCCCCCCCCCCCCCCCCC(=O)[O-]
REMARK SMILES IDX 16 1 17 2 18 3 19 4 20 5 21 6 22 7 23 8 24 9 25 10 26 11
REMARK SMILES IDX 27 12 28 13 29 14 30 15 31 16 32 17 15 18 14 19 13 20 12 21
REMARK SMILES IDX 11 22 10 23 9 24 8 25 7 26 6 27 5 28 4 29 3 30 2 31 1 32
REMARK H PARENT
REMARK Flexibility Score: inf
ROOT
ATOM      1  C   UNL     1       7.822  17.590  26.675  1.00  0.00     0.000 C 
ENDROOT
BRANCH   1   2
ATOM      2  C   UNL     1       8.721  17.721  27.918  1.00  0.00     0.000 C 
BRANCH   2   3
ATOM      3  C   UNL     1       9.886  16.722  27.924  1.00  0.00     0.000 C 
BRANCH   3   4
ATOM      4  C   UNL     1       9.557  15.487  27.072  1.00  0.00     0.000 C 
BRANCH   4   5
ATOM      5  C   UNL     1      10.799  14.883  26.390  1.00  0.00     0.000 C 
BRANCH   5   6
ATOM      6  C   UNL     1      10.818  13.342  26.318  1.00  0.00     0.000 C 
BRANCH   6   7
ATOM      7  C   UNL     1      11.577  12.645  27.464  1.00  0.00     0.000 C 
BRANCH   7   8
ATOM      8  C   UNL     1      11.032  11.258  27.861  1.00  0.00     0.000 C 
BRANCH   8   9
ATOM      9  C   UNL     1      10.435  10.441  26.700  1.00  0.00     0.000 C 
BRANCH   9  10
ATOM     10  C   UNL     1       9.523   9.303  27.180  1.00  0.00     0.000 C 
BRANCH  10  11
ATOM     11  C   UNL     1       8.046   9.720  27.113  1.00  0.00     0.000 C 
BRANCH  11  12
ATOM     12  C   UNL     1       7.126   8.769  27.895  1.00  0.00     0.000 C 
BRANCH  12  13
ATOM     13  C   UNL     1       5.650   9.207  27.852  1.00  0.00     0.006 C 
BRANCH  13  14
ATOM     14  C   UNL     1       5.488  10.722  28.037  1.00  0.00     0.053 C 
BRANCH  14  15
ATOM     15  C   UNL     1       5.365  11.434  26.725  1.00  0.00     0.041 C 
ATOM     16  O   UNL     1       4.889  12.601  26.679  1.00  0.00    -0.550 OA
ATOM     17  O   UNL     1       5.803  10.823  25.556  1.00  0.00    -0.550 OA
ENDBRANCH  14  15
ENDBRANCH  13  14
ENDBRANCH  12  13
ENDBRANCH  11  12
ENDBRANCH  10  11
ENDBRANCH   9  10
ENDBRANCH   8   9
ENDBRANCH   7   8
ENDBRANCH   6   7
ENDBRANCH   5   6
ENDBRANCH   4   5
ENDBRANCH   3   4
ENDBRANCH   2   3
ENDBRANCH   1   2
BRANCH   1  18
ATOM     18  C   UNL     1       6.336  17.912  26.933  1.00  0.00     0.000 C 
BRANCH  18  19
ATOM     19  C   UNL     1       5.689  18.718  25.793  1.00  0.00     0.000 C 
BRANCH  19  20
ATOM     20  C   UNL     1       6.199  18.304  24.402  1.00  0.00     0.000 C 
BRANCH  20  21
ATOM     21  C   UNL     1       5.266  18.722  23.244  1.00  0.00     0.000 C 
BRANCH  21  22
ATOM     22  C   UNL     1       4.330  19.876  23.638  1.00  0.00     0.000 C 
BRANCH  22  23
ATOM     23  C   UNL     1       4.049  20.797  22.440  1.00  0.00     0.000 C 
BRANCH  23  24
ATOM     24  C   UNL     1       2.591  20.718  21.956  1.00  0.00    -0.000 C 
BRANCH  24  25
ATOM     25  C   UNL     1       1.599  21.334  22.957  1.00  0.00    -0.000 C 
BRANCH  25  26
ATOM     26  C   UNL     1       1.356  20.439  24.187  1.00  0.00    -0.000 C 
BRANCH  26  27
ATOM     27  C   UNL     1       0.080  19.579  24.120  1.00  0.00    -0.000 C 
BRANCH  27  28
ATOM     28  C   UNL     1       0.182  18.439  23.092  1.00  0.00    -0.000 C 
BRANCH  28  29
ATOM     29  C   UNL     1       0.036  17.051  23.733  1.00  0.00    -0.000 C 
BRANCH  29  30
ATOM     30  C   UNL     1       0.444  17.040  25.216  1.00  0.00    -0.000 C 
BRANCH  30  31
ATOM     31  C   UNL     1       1.962  17.184  25.410  1.00  0.00    -0.003 C 
ATOM     32  C   UNL     1       2.326  17.917  26.703  1.00  0.00     0.004 C 
ENDBRANCH  30  31
ENDBRANCH  29  30
ENDBRANCH  28  29
ENDBRANCH  27  28
ENDBRANCH  26  27
ENDBRANCH  25  26
ENDBRANCH  24  25
ENDBRANCH  23  24
ENDBRANCH  22  23
ENDBRANCH  21  22
ENDBRANCH  20  21
ENDBRANCH  19  20
ENDBRANCH  18  19
ENDBRANCH   1  18
TORSDOF 28
ENDMDL
MODEL 2
REMARK VINA RESULT:    23.802      0.742      1.798
REMARK INTER + INTRA:          61.612
REMARK INTER:                  61.802
REMARK INTRA:                  -0.190
REMARK UNBOUND:                -1.151
REMARK SMILES CCCCCCCCCCCCCCCCCCCCCCCCCCCCCC(=O)[O-]
REMARK SMILES IDX 16 1 17 2 18 3 19 4 20 5 21 6 22 7 23 8 24 9 25 10 26 11
REMARK SMILES IDX 27 12 28 13 29 14 30 15 31 16 32 17 15 18 14 19 13 20 12 21
REMARK SMILES IDX 11 22 10 23 9 24 8 25 7 26 6 27 5 28 4 29 3 30 2 31 1 32
REMARK H PARENT
REMARK Flexibility Score: inf
ROOT
ATOM      1  C   UNL     1       5.475  18.236  26.772  1.00  0.00     0.000 C 
ENDROOT
BRANCH   1   2
ATOM      2  C   UNL     1       6.538  17.500  27.608  1.00  0.00     0.000 C 
BRANCH   2   3
ATOM      3  C   UNL     1       7.792  17.138  26.800  1.00  0.00     0.000 C 
BRANCH   3   4
ATOM      4  C   UNL     1       9.068  17.545  27.552  1.00  0.00     0.000 C 
BRANCH   4   5
ATOM      5  C   UNL     1       9.963  16.344  27.907  1.00  0.00     0.000 C 
BRANCH   5   6
ATOM      6  C   UNL     1      10.568  15.600  26.699  1.00  0.00     0.000 C 
BRANCH   6   7
ATOM      7  C   UNL     1      10.206  14.104  26.607  1.00  0.00     0.000 C 
BRANCH   7   8
ATOM      8  C   UNL     1      11.387  13.133  26.802  1.00  0.00     0.000 C 
BRANCH   8   9
ATOM      9  C   UNL     1      11.030  11.814  27.512  1.00  0.00     0.000 C 
BRANCH   9  10
ATOM     10  C   UNL     1      10.016  10.970  26.727  1.00  0.00     0.000 C 
BRANCH  10  11
ATOM     11  C   UNL     1       9.931   9.547  27.297  1.00  0.00     0.000 C 
BRANCH  11  12
ATOM     12  C   UNL     1       8.535   9.211  27.847  1.00  0.00     0.000 C 
BRANCH  12  13
ATOM     13  C   UNL     1       7.434   9.334  26.778  1.00  0.00     0.006 C 
BRANCH  13  14
ATOM     14  C   UNL     1       6.128   9.902  27.353  1.00  0.00     0.053 C 
BRANCH  14  15
ATOM     15  C   UNL     1       5.628  11.066  26.555  1.00  0.00     0.041 C 
ATOM     16  O   UNL     1       5.336  10.922  25.337  1.00  0.00    -0.550 OA
ATOM     17  O   UNL     1       5.453  12.303  27.163  1.00  0.00    -0.550 OA
ENDBRANCH  14  15
ENDBRANCH  13  14
ENDBRANCH  12  13
ENDBRANCH  11  12
ENDBRANCH  10  11
ENDBRANCH   9  10
ENDBRANCH   8   9
ENDBRANCH   7   8
ENDBRANCH   6   7
ENDBRANCH   5   6
ENDBRANCH   4   5
ENDBRANCH   3   4
ENDBRANCH   2   3
ENDBRANCH   1   2
BRANCH   1  18
ATOM     18  C   UNL     1       6.034  18.941  25.518  1.00  0.00     0.000 C 
BRANCH  18  19
ATOM     19  C   UNL     1       5.882  18.099  24.239  1.00  0.00     0.000 C 
BRANCH  19  20
ATOM     20  C   UNL     1       5.341  18.909  23.048  1.00  0.00     0.000 C 
BRANCH  20  21
ATOM     21  C   UNL     1       4.590  20.196  23.457  1.00  0.00     0.000 C 
BRANCH  21  22
ATOM     22  C   UNL     1       4.099  20.995  22.239  1.00  0.00     0.000 C 
BRANCH  22  23
ATOM     23  C   UNL     1       2.568  20.934  22.115  1.00  0.00     0.000 C 
BRANCH  23  24
ATOM     24  C   UNL     1       1.847  21.563  23.319  1.00  0.00    -0.000 C 
BRANCH  24  25
ATOM     25  C   UNL     1       0.853  20.596  23.988  1.00  0.00    -0.000 C 
BRANCH  25  26
ATOM     26  C   UNL     1       0.891  19.183  23.377  1.00  0.00    -0.000 C 
BRANCH  26  27
ATOM     27  C   UNL     1      -0.394  18.358  23.572  1.00  0.00    -0.000 C 
BRANCH  27  28
ATOM     28  C   UNL     1      -0.138  16.841  23.543  1.00  0.00    -0.000 C 
BRANCH  28  29
ATOM     29  C   UNL     1       0.755  16.370  24.701  1.00  0.00    -0.000 C 
BRANCH  29  30
ATOM     30  C   UNL     1       0.714  17.327  25.905  1.00  0.00    -0.000 C 
BRANCH  30  31
ATOM     31  C   UNL     1       1.982  18.187  26.019  1.00  0.00    -0.003 C 
ATOM     32  C   UNL     1       2.932  17.698  27.114  1.00  0.00     0.004 C 
ENDBRANCH  30  31
ENDBRANCH  29  30
ENDBRANCH  28  29
ENDBRANCH  27  28
ENDBRANCH  26  27
ENDBRANCH  25  26
ENDBRANCH  24  25
ENDBRANCH  23  24
ENDBRANCH  22  23
ENDBRANCH  21  22
ENDBRANCH  20  21
ENDBRANCH  19  20
ENDBRANCH  18  19
ENDBRANCH   1  18
TORSDOF 28
ENDMDL
MODEL 3
REMARK VINA RESULT:    23.815      2.503     10.115
REMARK INTER + INTRA:          61.647
REMARK INTER:                  63.157
REMARK INTRA:                  -1.510
REMARK UNBOUND:                -1.151
REMARK SMILES CCCCCCCCCCCCCCCCCCCCCCCCCCCCCC(=O)[O-]
REMARK SMILES IDX 16 1 17 2 18 3 19 4 20 5 21 6 22 7 23 8 24 9 25 10 26 11
REMARK SMILES IDX 27 12 28 13 29 14 30 15 31 16 32 17 15 18 14 19 13 20 12 21
REMARK SMILES IDX 11 22 10 23 9 24 8 25 7 26 6 27 5 28 4 29 3 30 2 31 1 32
REMARK H PARENT
REMARK Flexibility Score: inf
ROOT
ATOM      1  C   UNL     1       7.474  17.089  27.540  1.00  0.00     0.000 C 
ENDROOT
BRANCH   1   2
ATOM      2  C   UNL     1       7.537  17.467  26.049  1.00  0.00     0.000 C 
BRANCH   2   3
ATOM      3  C   UNL     1       6.266  18.169  25.553  1.00  0.00     0.000 C 
BRANCH   3   4
ATOM      4  C   UNL     1       5.438  18.705  26.730  1.00  0.00     0.000 C 
BRANCH   4   5
ATOM      5  C   UNL     1       4.406  17.687  27.250  1.00  0.00     0.000 C 
BRANCH   5   6
ATOM      6  C   UNL     1       2.934  18.040  26.953  1.00  0.00     0.000 C 
BRANCH   6   7
ATOM      7  C   UNL     1       2.357  17.406  25.672  1.00  0.00     0.000 C 
BRANCH   7   8
ATOM      8  C   UNL     1       0.825  17.227  25.665  1.00  0.00     0.000 C 
BRANCH   8   9
ATOM      9  C   UNL     1       0.251  16.617  24.373  1.00  0.00     0.000 C 
BRANCH   9  10
ATOM     10  C   UNL     1       0.158  17.633  23.225  1.00  0.00     0.000 C 
BRANCH  10  11
ATOM     11  C   UNL     1      -0.322  18.998  23.739  1.00  0.00     0.000 C 
BRANCH  11  12
ATOM     12  C   UNL     1       0.835  19.980  23.984  1.00  0.00     0.000 C 
BRANCH  12  13
ATOM     13  C   UNL     1       1.694  20.206  22.726  1.00  0.00     0.006 C 
BRANCH  13  14
ATOM     14  C   UNL     1       2.682  21.368  22.899  1.00  0.00     0.053 C 
BRANCH  14  15
ATOM     15  C   UNL     1       4.076  20.976  22.516  1.00  0.00     0.041 C 
ATOM     16  O   UNL     1       4.557  19.878  22.909  1.00  0.00    -0.550 OA
ATOM     17  O   UNL     1       4.834  21.807  21.701  1.00  0.00    -0.550 OA
ENDBRANCH  14  15
ENDBRANCH  13  14
ENDBRANCH  12  13
ENDBRANCH  11  12
ENDBRANCH  10  11
ENDBRANCH   9  10
ENDBRANCH   8   9
ENDBRANCH   7   8
ENDBRANCH   6   7
ENDBRANCH   5   6
ENDBRANCH   4   5
ENDBRANCH   3   4
ENDBRANCH   2   3
ENDBRANCH   1   2
BRANCH   1  18
ATOM     18  C   UNL     1       8.759  17.415  28.329  1.00  0.00     0.000 C 
BRANCH  18  19
ATOM     19  C   UNL     1      10.040  17.208  27.502  1.00  0.00     0.000 C 
BRANCH  19  20
ATOM     20  C   UNL     1      10.599  15.779  27.611  1.00  0.00     0.000 C 
BRANCH  20  21
ATOM     21  C   UNL     1       9.801  14.732  26.802  1.00  0.00     0.000 C 
BRANCH  21  22
ATOM     22  C   UNL     1      10.717  13.713  26.105  1.00  0.00     0.000 C 
BRANCH  22  23
ATOM     23  C   UNL     1      11.789  13.178  27.069  1.00  0.00     0.000 C 
BRANCH  23  24
ATOM     24  C   UNL     1      11.424  11.807  27.664  1.00  0.00    -0.000 C 
BRANCH  24  25
ATOM     25  C   UNL     1      10.223  11.155  26.958  1.00  0.00    -0.000 C 
BRANCH  25  26
ATOM     26  C   UNL     1       9.798   9.825  27.607  1.00  0.00    -0.000 C 
BRANCH  26  27
ATOM     27  C   UNL     1       8.586   9.140  26.949  1.00  0.00    -0.000 C 
BRANCH  27  28
ATOM     28  C   UNL     1       7.350   9.105  27.866  1.00  0.00    -0.000 C 
BRANCH  28  29
ATOM     29  C   UNL     1       6.053   9.451  27.120  1.00  0.00    -0.000 C 
BRANCH  29  30
ATOM     30  C   UNL     1       6.224  10.637  26.155  1.00  0.00    -0.000 C 
BRANCH  30  31
ATOM     31  C   UNL     1       5.167  11.731  26.372  1.00  0.00    -0.003 C 
ATOM     32  C   UNL     1       4.740  11.859  27.835  1.00  0.00     0.004 C 
ENDBRANCH  30  31
ENDBRANCH  29  30
ENDBRANCH  28  29
ENDBRANCH  27  28
ENDBRANCH  26  27
ENDBRANCH  25  26
ENDBRANCH  24  25
ENDBRANCH  23  24
ENDBRANCH  22  23
ENDBRANCH  21  22
ENDBRANCH  20  21
ENDBRANCH  19  20
ENDBRANCH  18  19
ENDBRANCH   1  18
TORSDOF 28
ENDMDL
MODEL 4
REMARK VINA RESULT:    23.847      0.808      2.828
REMARK INTER + INTRA:          61.732
REMARK INTER:                  63.515
REMARK INTRA:                  -1.783
REMARK UNBOUND:                -1.151
REMARK SMILES CCCCCCCCCCCCCCCCCCCCCCCCCCCCCC(=O)[O-]
REMARK SMILES IDX 16 1 17 2 18 3 19 4 20 5 21 6 22 7 23 8 24 9 25 10 26 11
REMARK SMILES IDX 27 12 28 13 29 14 30 15 31 16 32 17 15 18 14 19 13 20 12 21
REMARK SMILES IDX 11 22 10 23 9 24 8 25 7 26 6 27 5 28 4 29 3 30 2 31 1 32
REMARK H PARENT
REMARK Flexibility Score: inf
ROOT
ATOM      1  C   UNL     1       7.584  17.153  27.118  1.00  0.00     0.000 C 
ENDROOT
BRANCH   1   2
ATOM      2  C   UNL     1       8.878  17.756  27.695  1.00  0.00     0.000 C 
BRANCH   2   3
ATOM      3  C   UNL     1       9.912  16.694  28.090  1.00  0.00     0.000 C 
BRANCH   3   4
ATOM      4  C   UNL     1      10.482  15.991  26.849  1.00  0.00     0.000 C 
BRANCH   4   5
ATOM      5  C   UNL     1      10.071  14.510  26.756  1.00  0.00     0.000 C 
BRANCH   5   6
ATOM      6  C   UNL     1      11.208  13.540  26.377  1.00  0.00     0.000 C 
BRANCH   6   7
ATOM      7  C   UNL     1      11.248  12.232  27.192  1.00  0.00     0.000 C 
BRANCH   7   8
ATOM      8  C   UNL     1      10.032  11.304  26.999  1.00  0.00     0.000 C 
BRANCH   8   9
ATOM      9  C   UNL     1      10.361   9.800  26.981  1.00  0.00     0.000 C 
BRANCH   9  10
ATOM     10  C   UNL     1       9.347   8.958  27.768  1.00  0.00     0.000 C 
BRANCH  10  11
ATOM     11  C   UNL     1       7.932   9.127  27.193  1.00  0.00     0.000 C 
BRANCH  11  12
ATOM     12  C   UNL     1       6.844   9.104  28.278  1.00  0.00     0.000 C 
BRANCH  12  13
ATOM     13  C   UNL     1       5.443   9.404  27.717  1.00  0.00     0.006 C 
BRANCH  13  14
ATOM     14  C   UNL     1       5.065  10.884  27.857  1.00  0.00     0.053 C 
BRANCH  14  15
ATOM     15  C   UNL     1       5.364  11.657  26.609  1.00  0.00     0.041 C 
ATOM     16  O   UNL     1       5.562  11.052  25.521  1.00  0.00    -0.550 OA
ATOM     17  O   UNL     1       5.395  13.046  26.641  1.00  0.00    -0.550 OA
ENDBRANCH  14  15
ENDBRANCH  13  14
ENDBRANCH  12  13
ENDBRANCH  11  12
ENDBRANCH  10  11
ENDBRANCH   9  10
ENDBRANCH   8   9
ENDBRANCH   7   8
ENDBRANCH   6   7
ENDBRANCH   5   6
ENDBRANCH   4   5
ENDBRANCH   3   4
ENDBRANCH   2   3
ENDBRANCH   1   2
BRANCH   1  18
ATOM     18  C   UNL     1       7.204  17.690  25.722  1.00  0.00     0.000 C 
BRANCH  18  19
ATOM     19  C   UNL     1       6.306  18.938  25.784  1.00  0.00     0.000 C 
BRANCH  19  20
ATOM     20  C   UNL     1       4.809  18.596  25.874  1.00  0.00     0.000 C 
BRANCH  20  21
ATOM     21  C   UNL     1       4.412  17.862  27.173  1.00  0.00     0.000 C 
BRANCH  21  22
ATOM     22  C   UNL     1       2.895  17.897  27.421  1.00  0.00     0.000 C 
BRANCH  22  23
ATOM     23  C   UNL     1       2.119  18.017  26.100  1.00  0.00     0.000 C 
BRANCH  23  24
ATOM     24  C   UNL     1       1.022  16.948  25.954  1.00  0.00    -0.000 C 
BRANCH  24  25
ATOM     25  C   UNL     1       0.851  16.469  24.502  1.00  0.00    -0.000 C 
BRANCH  25  26
ATOM     26  C   UNL     1      -0.290  17.193  23.764  1.00  0.00    -0.000 C 
BRANCH  26  27
ATOM     27  C   UNL     1       0.160  18.347  22.849  1.00  0.00    -0.000 C 
BRANCH  27  28
ATOM     28  C   UNL     1       0.235  19.697  23.586  1.00  0.00    -0.000 C 
BRANCH  28  29
ATOM     29  C   UNL     1       1.670  20.239  23.679  1.00  0.00    -0.000 C 
BRANCH  29  30
ATOM     30  C   UNL     1       2.011  21.203  22.529  1.00  0.00    -0.000 C 
BRANCH  30  31
ATOM     31  C   UNL     1       3.510  21.210  22.192  1.00  0.00    -0.003 C 
ATOM     32  C   UNL     1       4.281  20.092  22.896  1.00  0.00     0.004 C 
ENDBRANCH  30  31
ENDBRANCH  29  30
ENDBRANCH  28  29
ENDBRANCH  27  28
ENDBRANCH  26  27
ENDBRANCH  25  26
ENDBRANCH  24  25
ENDBRANCH  23  24
ENDBRANCH  22  23
ENDBRANCH  21  22
ENDBRANCH  20  21
ENDBRANCH  19  20
ENDBRANCH  18  19
ENDBRANCH   1  18
TORSDOF 28
ENDMDL
MODEL 5
REMARK VINA RESULT:    23.848      0.904      3.021
REMARK INTER + INTRA:          61.734
REMARK INTER:                  62.253
REMARK INTRA:                  -0.518
REMARK UNBOUND:                -1.151
REMARK SMILES CCCCCCCCCCCCCCCCCCCCCCCCCCCCCC(=O)[O-]
REMARK SMILES IDX 16 1 17 2 18 3 19 4 20 5 21 6 22 7 23 8 24 9 25 10 26 11
REMARK SMILES IDX 27 12 28 13 29 14 30 15 31 16 32 17 15 18 14 19 13 20 12 21
REMARK SMILES IDX 11 22 10 23 9 24 8 25 7 26 6 27 5 28 4 29 3 30 2 31 1 32
REMARK H PARENT
REMARK Flexibility Score: inf
ROOT
ATOM      1  C   UNL     1       7.171  18.164  25.954  1.00  0.00     0.000 C 
ENDROOT
BRANCH   1   2
ATOM      2  C   UNL     1       7.842  17.033  26.753  1.00  0.00     0.000 C 
BRANCH   2   3
ATOM      3  C   UNL     1       8.671  17.545  27.938  1.00  0.00     0.000 C 
BRANCH   3   4
ATOM      4  C   UNL     1       9.975  16.747  28.084  1.00  0.00     0.000 C 
BRANCH   4   5
ATOM      5  C   UNL     1      10.364  15.994  26.799  1.00  0.00     0.000 C 
BRANCH   5   6
ATOM      6  C   UNL     1      10.011  14.492  26.790  1.00  0.00     0.000 C 
BRANCH   6   7
ATOM      7  C   UNL     1      11.185  13.548  26.463  1.00  0.00     0.000 C 
BRANCH   7   8
ATOM      8  C   UNL     1      11.239  12.257  27.305  1.00  0.00     0.000 C 
BRANCH   8   9
ATOM      9  C   UNL     1      10.024  11.325  27.140  1.00  0.00     0.000 C 
BRANCH   9  10
ATOM     10  C   UNL     1      10.417   9.903  26.718  1.00  0.00     0.000 C 
BRANCH  10  11
ATOM     11  C   UNL     1       9.210   8.956  26.793  1.00  0.00     0.000 C 
BRANCH  11  12
ATOM     12  C   UNL     1       8.491   9.017  28.150  1.00  0.00     0.000 C 
BRANCH  12  13
ATOM     13  C   UNL     1       6.973   9.229  28.006  1.00  0.00     0.006 C 
BRANCH  13  14
ATOM     14  C   UNL     1       6.592   9.784  26.627  1.00  0.00     0.053 C 
BRANCH  14  15
ATOM     15  C   UNL     1       5.569  10.873  26.727  1.00  0.00     0.041 C 
ATOM     16  O   UNL     1       5.568  11.820  25.894  1.00  0.00    -0.550 OA
ATOM     17  O   UNL     1       4.598  10.828  27.720  1.00  0.00    -0.550 OA
ENDBRANCH  14  15
ENDBRANCH  13  14
ENDBRANCH  12  13
ENDBRANCH  11  12
ENDBRANCH  10  11
ENDBRANCH   9  10
ENDBRANCH   8   9
ENDBRANCH   7   8
ENDBRANCH   6   7
ENDBRANCH   5   6
ENDBRANCH   4   5
ENDBRANCH   3   4
ENDBRANCH   2   3
ENDBRANCH   1   2
BRANCH   1  18
ATOM     18  C   UNL     1       5.653  18.296  26.197  1.00  0.00     0.000 C 
BRANCH  18  19
ATOM     19  C   UNL     1       5.231  17.850  27.609  1.00  0.00     0.000 C 
BRANCH  19  20
ATOM     20  C   UNL     1       3.706  17.869  27.813  1.00  0.00     0.000 C 
BRANCH  20  21
ATOM     21  C   UNL     1       2.906  18.158  26.524  1.00  0.00     0.000 C 
BRANCH  21  22
ATOM     22  C   UNL     1       1.999  16.983  26.125  1.00  0.00     0.000 C 
BRANCH  22  23
ATOM     23  C   UNL     1       0.736  17.476  25.402  1.00  0.00     0.000 C 
BRANCH  23  24
ATOM     24  C   UNL     1       0.336  16.576  24.220  1.00  0.00    -0.000 C 
BRANCH  24  25
ATOM     25  C   UNL     1      -0.613  17.278  23.234  1.00  0.00    -0.000 C 
BRANCH  25  26
ATOM     26  C   UNL     1      -0.117  18.675  22.818  1.00  0.00    -0.000 C 
BRANCH  26  27
ATOM     27  C   UNL     1       1.094  19.197  23.614  1.00  0.00    -0.000 C 
BRANCH  27  28
ATOM     28  C   UNL     1       0.945  20.671  24.027  1.00  0.00    -0.000 C 
BRANCH  28  29
ATOM     29  C   UNL     1       1.861  21.605  23.222  1.00  0.00    -0.000 C 
BRANCH  29  30
ATOM     30  C   UNL     1       2.626  20.867  22.110  1.00  0.00    -0.000 C 
BRANCH  30  31
ATOM     31  C   UNL     1       4.144  20.853  22.349  1.00  0.00    -0.003 C 
ATOM     32  C   UNL     1       4.577  19.778  23.347  1.00  0.00     0.004 C 
ENDBRANCH  30  31
ENDBRANCH  29  30
ENDBRANCH  28  29
ENDBRANCH  27  28
ENDBRANCH  26  27
ENDBRANCH  25  26
ENDBRANCH  24  25
ENDBRANCH  23  24
ENDBRANCH  22  23
ENDBRANCH  21  22
ENDBRANCH  20  21
ENDBRANCH  19  20
ENDBRANCH  18  19
ENDBRANCH   1  18
TORSDOF 28
ENDMDL
MODEL 6
REMARK VINA RESULT:    24.043      0.881      1.695
REMARK INTER + INTRA:          62.248
REMARK INTER:                  63.398
REMARK INTRA:                  -1.150
REMARK UNBOUND:                -1.151
REMARK SMILES CCCCCCCCCCCCCCCCCCCCCCCCCCCCCC(=O)[O-]
REMARK SMILES IDX 16 1 17 2 18 3 19 4 20 5 21 6 22 7 23 8 24 9 25 10 26 11
REMARK SMILES IDX 27 12 28 13 29 14 30 15 31 16 32 17 15 18 14 19 13 20 12 21
REMARK SMILES IDX 11 22 10 23 9 24 8 25 7 26 6 27 5 28 4 29 3 30 2 31 1 32
REMARK H PARENT
REMARK Flexibility Score: inf
ROOT
ATOM      1  C   UNL     1       8.156  18.016  26.362  1.00  0.00     0.000 C 
ENDROOT
BRANCH   1   2
ATOM      2  C   UNL     1       9.149  18.664  27.344  1.00  0.00     0.000 C 
BRANCH   2   3
ATOM      3  C   UNL     1       9.418  17.801  28.584  1.00  0.00     0.000 C 
BRANCH   3   4
ATOM      4  C   UNL     1      10.321  16.608  28.238  1.00  0.00     0.000 C 
BRANCH   4   5
ATOM      5  C   UNL     1       9.687  15.655  27.208  1.00  0.00     0.000 C 
BRANCH   5   6
ATOM      6  C   UNL     1      10.682  14.988  26.237  1.00  0.00     0.000 C 
BRANCH   6   7
ATOM      7  C   UNL     1      10.692  13.446  26.269  1.00  0.00     0.000 C 
BRANCH   7   8
ATOM      8  C   UNL     1      11.576  12.822  27.367  1.00  0.00     0.000 C 
BRANCH   8   9
ATOM      9  C   UNL     1      11.172  11.398  27.793  1.00  0.00     0.000 C 
BRANCH   9  10
ATOM     10  C   UNL     1      10.156  10.757  26.837  1.00  0.00     0.000 C 
BRANCH  10  11
ATOM     11  C   UNL     1       9.999   9.258  27.131  1.00  0.00     0.000 C 
BRANCH  11  12
ATOM     12  C   UNL     1       8.625   8.911  27.727  1.00  0.00     0.000 C 
BRANCH  12  13
ATOM     13  C   UNL     1       7.460   9.471  26.890  1.00  0.00     0.006 C 
BRANCH  13  14
ATOM     14  C   UNL     1       6.179   9.639  27.719  1.00  0.00     0.053 C 
BRANCH  14  15
ATOM     15  C   UNL     1       5.347  10.786  27.232  1.00  0.00     0.041 C 
ATOM     16  O   UNL     1       4.408  11.235  27.944  1.00  0.00    -0.550 OA
ATOM     17  O   UNL     1       5.627  11.379  26.008  1.00  0.00    -0.550 OA
ENDBRANCH  14  15
ENDBRANCH  13  14
ENDBRANCH  12  13
ENDBRANCH  11  12
ENDBRANCH  10  11
ENDBRANCH   9  10
ENDBRANCH   8   9
ENDBRANCH   7   8
ENDBRANCH   6   7
ENDBRANCH   5   6
ENDBRANCH   4   5
ENDBRANCH   3   4
ENDBRANCH   2   3
ENDBRANCH   1   2
BRANCH   1  18
ATOM     18  C   UNL     1       6.881  17.459  27.029  1.00  0.00     0.000 C 
BRANCH  18  19
ATOM     19  C   UNL     1       5.610  18.232  26.633  1.00  0.00     0.000 C 
BRANCH  19  20
ATOM     20  C   UNL     1       5.802  19.098  25.377  1.00  0.00     0.000 C 
BRANCH  20  21
ATOM     21  C   UNL     1       5.422  18.384  24.061  1.00  0.00     0.000 C 
BRANCH  21  22
ATOM     22  C   UNL     1       4.887  19.361  23.001  1.00  0.00     0.000 C 
BRANCH  22  23
ATOM     23  C   UNL     1       4.858  20.801  23.538  1.00  0.00     0.000 C 
BRANCH  23  24
ATOM     24  C   UNL     1       3.858  21.697  22.787  1.00  0.00    -0.000 C 
BRANCH  24  25
ATOM     25  C   UNL     1       3.049  20.926  21.729  1.00  0.00    -0.000 C 
BRANCH  25  26
ATOM     26  C   UNL     1       1.790  20.257  22.309  1.00  0.00    -0.000 C 
BRANCH  26  27
ATOM     27  C   UNL     1       1.576  20.476  23.818  1.00  0.00    -0.000 C 
BRANCH  27  28
ATOM     28  C   UNL     1       0.279  19.830  24.336  1.00  0.00    -0.000 C 
BRANCH  28  29
ATOM     29  C   UNL     1       0.432  19.252  25.751  1.00  0.00    -0.000 C 
BRANCH  29  30
ATOM     30  C   UNL     1       1.073  17.853  25.750  1.00  0.00    -0.000 C 
BRANCH  30  31
ATOM     31  C   UNL     1       0.889  17.121  24.412  1.00  0.00    -0.003 C 
ATOM     32  C   UNL     1      -0.138  15.991  24.492  1.00  0.00     0.004 C 
ENDBRANCH  30  31
ENDBRANCH  29  30
ENDBRANCH  28  29
ENDBRANCH  27  28
ENDBRANCH  26  27
ENDBRANCH  25  26
ENDBRANCH  24  25
ENDBRANCH  23  24
ENDBRANCH  22  23
ENDBRANCH  21  22
ENDBRANCH  20  21
ENDBRANCH  19  20
ENDBRANCH  18  19
ENDBRANCH   1  18
TORSDOF 28
ENDMDL
MODEL 7
REMARK VINA RESULT:    24.108      1.996     10.097
REMARK INTER + INTRA:          62.419
REMARK INTER:                  63.933
REMARK INTRA:                  -1.514
REMARK UNBOUND:                -1.151
REMARK SMILES CCCCCCCCCCCCCCCCCCCCCCCCCCCCCC(=O)[O-]
REMARK SMILES IDX 16 1 17 2 18 3 19 4 20 5 21 6 22 7 23 8 24 9 25 10 26 11
REMARK SMILES IDX 27 12 28 13 29 14 30 15 31 16 32 17 15 18 14 19 13 20 12 21
REMARK SMILES IDX 11 22 10 23 9 24 8 25 7 26 6 27 5 28 4 29 3 30 2 31 1 32
REMARK H PARENT
REMARK Flexibility Score: inf
ROOT
ATOM      1  C   UNL     1       8.763  17.735  27.754  1.00  0.00     0.000 C 
ENDROOT
BRANCH   1   2
ATOM      2  C   UNL     1       7.692  17.217  26.778  1.00  0.00     0.000 C 
BRANCH   2   3
ATOM      3  C   UNL     1       6.260  17.527  27.236  1.00  0.00     0.000 C 
BRANCH   3   4
ATOM      4  C   UNL     1       5.610  18.585  26.332  1.00  0.00     0.000 C 
BRANCH   4   5
ATOM      5  C   UNL     1       6.188  18.591  24.905  1.00  0.00     0.000 C 
BRANCH   5   6
ATOM      6  C   UNL     1       5.150  18.786  23.781  1.00  0.00     0.000 C 
BRANCH   6   7
ATOM      7  C   UNL     1       4.601  20.221  23.641  1.00  0.00     0.000 C 
BRANCH   7   8
ATOM      8  C   UNL     1       4.032  20.569  22.251  1.00  0.00     0.000 C 
BRANCH   8   9
ATOM      9  C   UNL     1       2.497  20.500  22.144  1.00  0.00     0.000 C 
BRANCH   9  10
ATOM     10  C   UNL     1       1.803  21.730  22.746  1.00  0.00     0.000 C 
BRANCH  10  11
ATOM     11  C   UNL     1       1.189  21.397  24.114  1.00  0.00     0.000 C 
BRANCH  11  12
ATOM     12  C   UNL     1       0.339  20.116  24.086  1.00  0.00     0.000 C 
BRANCH  12  13
ATOM     13  C   UNL     1       0.605  19.204  25.298  1.00  0.00     0.006 C 
BRANCH  13  14
ATOM     14  C   UNL     1       1.138  17.826  24.881  1.00  0.00     0.053 C 
BRANCH  14  15
ATOM     15  C   UNL     1       0.151  17.078  24.037  1.00  0.00     0.041 C 
ATOM     16  O   UNL     1      -0.206  17.540  22.920  1.00  0.00    -0.550 OA
ATOM     17  O   UNL     1      -0.351  15.857  24.470  1.00  0.00    -0.550 OA
ENDBRANCH  14  15
ENDBRANCH  13  14
ENDBRANCH  12  13
ENDBRANCH  11  12
ENDBRANCH  10  11
ENDBRANCH   9  10
ENDBRANCH   8   9
ENDBRANCH   7   8
ENDBRANCH   6   7
ENDBRANCH   5   6
ENDBRANCH   4   5
ENDBRANCH   3   4
ENDBRANCH   2   3
ENDBRANCH   1   2
BRANCH   1  18
ATOM     18  C   UNL     1       9.906  16.735  28.027  1.00  0.00     0.000 C 
BRANCH  18  19
ATOM     19  C   UNL     1      10.357  15.980  26.764  1.00  0.00     0.000 C 
BRANCH  19  20
ATOM     20  C   UNL     1      10.005  14.483  26.802  1.00  0.00     0.000 C 
BRANCH  20  21
ATOM     21  C   UNL     1      11.013  13.584  26.053  1.00  0.00     0.000 C 
BRANCH  21  22
ATOM     22  C   UNL     1      11.979  12.868  27.011  1.00  0.00     0.000 C 
BRANCH  22  23
ATOM     23  C   UNL     1      11.256  11.777  27.817  1.00  0.00     0.000 C 
BRANCH  23  24
ATOM     24  C   UNL     1      10.045  11.191  27.072  1.00  0.00    -0.000 C 
BRANCH  24  25
ATOM     25  C   UNL     1      10.160   9.672  26.853  1.00  0.00    -0.000 C 
BRANCH  25  26
ATOM     26  C   UNL     1       9.097   8.874  27.630  1.00  0.00    -0.000 C 
BRANCH  26  27
ATOM     27  C   UNL     1       7.641   9.157  27.214  1.00  0.00    -0.000 C 
BRANCH  27  28
ATOM     28  C   UNL     1       6.713   9.396  28.418  1.00  0.00    -0.000 C 
BRANCH  28  29
ATOM     29  C   UNL     1       5.228   9.408  28.024  1.00  0.00    -0.000 C 
BRANCH  29  30
ATOM     30  C   UNL     1       4.699  10.828  27.759  1.00  0.00    -0.000 C 
BRANCH  30  31
ATOM     31  C   UNL     1       5.057  11.337  26.353  1.00  0.00    -0.003 C 
ATOM     32  C   UNL     1       6.224  12.325  26.361  1.00  0.00     0.004 C 
ENDBRANCH  30  31
ENDBRANCH  29  30
ENDBRANCH  28  29
ENDBRANCH  27  28
ENDBRANCH  26  27
ENDBRANCH  25  26
ENDBRANCH  24  25
ENDBRANCH  23  24
ENDBRANCH  22  23
ENDBRANCH  21  22
ENDBRANCH  20  21
ENDBRANCH  19  20
ENDBRANCH  18  19
ENDBRANCH   1  18
TORSDOF 28
ENDMDL
MODEL 8
REMARK VINA RESULT:    24.335      1.812      9.924
REMARK INTER + INTRA:          63.019
REMARK INTER:                  64.457
REMARK INTRA:                  -1.438
REMARK UNBOUND:                -1.151
REMARK SMILES CCCCCCCCCCCCCCCCCCCCCCCCCCCCCC(=O)[O-]
REMARK SMILES IDX 16 1 17 2 18 3 19 4 20 5 21 6 22 7 23 8 24 9 25 10 26 11
REMARK SMILES IDX 27 12 28 13 29 14 30 15 31 16 32 17 15 18 14 19 13 20 12 21
REMARK SMILES IDX 11 22 10 23 9 24 8 25 7 26 6 27 5 28 4 29 3 30 2 31 1 32
REMARK H PARENT
REMARK Flexibility Score: inf
ROOT
ATOM      1  C   UNL     1       7.118  17.235  27.792  1.00  0.00     0.000 C 
ENDROOT
BRANCH   1   2
ATOM      2  C   UNL     1       7.281  17.525  26.289  1.00  0.00     0.000 C 
BRANCH   2   3
ATOM      3  C   UNL     1       6.546  18.794  25.838  1.00  0.00     0.000 C 
BRANCH   3   4
ATOM      4  C   UNL     1       5.708  18.527  24.579  1.00  0.00     0.000 C 
BRANCH   4   5
ATOM      5  C   UNL     1       4.741  19.678  24.247  1.00  0.00     0.000 C 
BRANCH   5   6
ATOM      6  C   UNL     1       4.707  20.096  22.763  1.00  0.00     0.000 C 
BRANCH   6   7
ATOM      7  C   UNL     1       3.493  20.955  22.355  1.00  0.00     0.000 C 
BRANCH   7   8
ATOM      8  C   UNL     1       2.120  20.280  22.548  1.00  0.00     0.000 C 
BRANCH   8   9
ATOM      9  C   UNL     1       1.154  21.032  23.481  1.00  0.00     0.000 C 
BRANCH   9  10
ATOM     10  C   UNL     1       0.395  20.096  24.432  1.00  0.00     0.000 C 
BRANCH  10  11
ATOM     11  C   UNL     1      -0.358  19.012  23.648  1.00  0.00     0.000 C 
BRANCH  11  12
ATOM     12  C   UNL     1       0.461  17.721  23.487  1.00  0.00     0.000 C 
BRANCH  12  13
ATOM     13  C   UNL     1       0.700  17.001  24.827  1.00  0.00     0.006 C 
BRANCH  13  14
ATOM     14  C   UNL     1       2.171  17.057  25.262  1.00  0.00     0.053 C 
BRANCH  14  15
ATOM     15  C   UNL     1       2.350  17.843  26.524  1.00  0.00     0.041 C 
ATOM     16  O   UNL     1       1.428  18.599  26.936  1.00  0.00    -0.550 OA
ATOM     17  O   UNL     1       3.520  17.718  27.263  1.00  0.00    -0.550 OA
ENDBRANCH  14  15
ENDBRANCH  13  14
ENDBRANCH  12  13
ENDBRANCH  11  12
ENDBRANCH  10  11
ENDBRANCH   9  10
ENDBRANCH   8   9
ENDBRANCH   7   8
ENDBRANCH   6   7
ENDBRANCH   5   6
ENDBRANCH   4   5
ENDBRANCH   3   4
ENDBRANCH   2   3
ENDBRANCH   1   2
BRANCH   1  18
ATOM     18  C   UNL     1       8.443  17.231  28.582  1.00  0.00     0.000 C 
BRANCH  18  19
ATOM     19  C   UNL     1       9.678  17.430  27.684  1.00  0.00     0.000 C 
BRANCH  19  20
ATOM     20  C   UNL     1       9.851  16.309  26.645  1.00  0.00     0.000 C 
BRANCH  20  21
ATOM     21  C   UNL     1      10.133  14.922  27.262  1.00  0.00     0.000 C 
BRANCH  21  22
ATOM     22  C   UNL     1      10.721  13.937  26.238  1.00  0.00     0.000 C 
BRANCH  22  23
ATOM     23  C   UNL     1      11.734  12.988  26.899  1.00  0.00     0.000 C 
BRANCH  23  24
ATOM     24  C   UNL     1      11.064  11.783  27.581  1.00  0.00    -0.000 C 
BRANCH  24  25
ATOM     25  C   UNL     1       9.865  11.242  26.785  1.00  0.00    -0.000 C 
BRANCH  25  26
ATOM     26  C   UNL     1       9.774   9.705  26.811  1.00  0.00    -0.000 C 
BRANCH  26  27
ATOM     27  C   UNL     1       9.010   9.121  28.014  1.00  0.00    -0.000 C 
BRANCH  27  28
ATOM     28  C   UNL     1       7.622   8.578  27.632  1.00  0.00    -0.000 C 
BRANCH  28  29
ATOM     29  C   UNL     1       6.536   9.664  27.658  1.00  0.00    -0.000 C 
BRANCH  29  30
ATOM     30  C   UNL     1       6.235  10.231  26.260  1.00  0.00    -0.000 C 
BRANCH  30  31
ATOM     31  C   UNL     1       5.470  11.563  26.316  1.00  0.00    -0.003 C 
ATOM     32  C   UNL     1       4.702  11.750  27.625  1.00  0.00     0.004 C 
ENDBRANCH  30  31
ENDBRANCH  29  30
ENDBRANCH  28  29
ENDBRANCH  27  28
ENDBRANCH  26  27
ENDBRANCH  25  26
ENDBRANCH  24  25
ENDBRANCH  23  24
ENDBRANCH  22  23
ENDBRANCH  21  22
ENDBRANCH  20  21
ENDBRANCH  19  20
ENDBRANCH  18  19
ENDBRANCH   1  18
TORSDOF 28
ENDMDL
MODEL 9
REMARK VINA RESULT:    24.712      3.040     10.753
REMARK INTER + INTRA:          64.011
REMARK INTER:                  65.456
REMARK INTRA:                  -1.445
REMARK UNBOUND:                -1.151
REMARK SMILES CCCCCCCCCCCCCCCCCCCCCCCCCCCCCC(=O)[O-]
REMARK SMILES IDX 16 1 17 2 18 3 19 4 20 5 21 6 22 7 23 8 24 9 25 10 26 11
REMARK SMILES IDX 27 12 28 13 29 14 30 15 31 16 32 17 15 18 14 19 13 20 12 21
REMARK SMILES IDX 11 22 10 23 9 24 8 25 7 26 6 27 5 28 4 29 3 30 2 31 1 32
REMARK H PARENT
REMARK Flexibility Score: inf
ROOT
ATOM      1  C   UNL     1       6.995  17.331  26.912  1.00  0.00     0.000 C 
ENDROOT
BRANCH   1   2
ATOM      2  C   UNL     1       5.762  18.235  26.733  1.00  0.00     0.000 C 
BRANCH   2   3
ATOM      3  C   UNL     1       4.545  17.757  27.535  1.00  0.00     0.000 C 
BRANCH   3   4
ATOM      4  C   UNL     1       3.238  18.267  26.909  1.00  0.00     0.000 C 
BRANCH   4   5
ATOM      5  C   UNL     1       2.323  17.128  26.420  1.00  0.00     0.000 C 
BRANCH   5   6
ATOM      6  C   UNL     1       0.973  17.584  25.831  1.00  0.00     0.000 C 
BRANCH   6   7
ATOM      7  C   UNL     1       0.475  16.758  24.627  1.00  0.00     0.000 C 
BRANCH   7   8
ATOM      8  C   UNL     1      -0.205  17.575  23.511  1.00  0.00     0.000 C 
BRANCH   8   9
ATOM      9  C   UNL     1       0.202  19.059  23.454  1.00  0.00     0.000 C 
BRANCH   9  10
ATOM     10  C   UNL     1       1.242  19.350  22.363  1.00  0.00     0.000 C 
BRANCH  10  11
ATOM     11  C   UNL     1       1.926  20.704  22.605  1.00  0.00     0.000 C 
BRANCH  11  12
ATOM     12  C   UNL     1       3.232  20.859  21.810  1.00  0.00     0.000 C 
BRANCH  12  13
ATOM     13  C   UNL     1       4.398  21.360  22.681  1.00  0.00     0.006 C 
BRANCH  13  14
ATOM     14  C   UNL     1       3.943  22.390  23.724  1.00  0.00     0.053 C 
BRANCH  14  15
ATOM     15  C   UNL     1       5.070  23.273  24.165  1.00  0.00     0.041 C 
ATOM     16  O   UNL     1       5.586  23.121  25.305  1.00  0.00    -0.550 OA
ATOM     17  O   UNL     1       5.572  24.243  23.306  1.00  0.00    -0.550 OA
ENDBRANCH  14  15
ENDBRANCH  13  14
ENDBRANCH  12  13
ENDBRANCH  11  12
ENDBRANCH  10  11
ENDBRANCH   9  10
ENDBRANCH   8   9
ENDBRANCH   7   8
ENDBRANCH   6   7
ENDBRANCH   5   6
ENDBRANCH   4   5
ENDBRANCH   3   4
ENDBRANCH   2   3
ENDBRANCH   1   2
BRANCH   1  18
ATOM     18  C   UNL     1       8.336  18.017  26.578  1.00  0.00     0.000 C 
BRANCH  18  19
ATOM     19  C   UNL     1       9.292  18.083  27.782  1.00  0.00     0.000 C 
BRANCH  19  20
ATOM     20  C   UNL     1       9.953  16.730  28.098  1.00  0.00     0.000 C 
BRANCH  20  21
ATOM     21  C   UNL     1       9.577  15.604  27.111  1.00  0.00     0.000 C 
BRANCH  21  22
ATOM     22  C   UNL     1      10.806  15.027  26.389  1.00  0.00     0.000 C 
BRANCH  22  23
ATOM     23  C   UNL     1      10.731  13.494  26.305  1.00  0.00     0.000 C 
BRANCH  23  24
ATOM     24  C   UNL     1      11.530  12.797  27.420  1.00  0.00    -0.000 C 
BRANCH  24  25
ATOM     25  C   UNL     1      11.033  11.369  27.702  1.00  0.00    -0.000 C 
BRANCH  25  26
ATOM     26  C   UNL     1       9.939  10.911  26.718  1.00  0.00    -0.000 C 
BRANCH  26  27
ATOM     27  C   UNL     1       9.554   9.424  26.824  1.00  0.00    -0.000 C 
BRANCH  27  28
ATOM     28  C   UNL     1       8.460   9.165  27.874  1.00  0.00    -0.000 C 
BRANCH  28  29
ATOM     29  C   UNL     1       7.066   9.004  27.248  1.00  0.00    -0.000 C 
BRANCH  29  30
ATOM     30  C   UNL     1       5.946   9.544  28.154  1.00  0.00    -0.000 C 
BRANCH  30  31
ATOM     31  C   UNL     1       5.141  10.671  27.488  1.00  0.00    -0.003 C 
ATOM     32  C   UNL     1       5.776  11.163  26.187  1.00  0.00     0.004 C 
ENDBRANCH  30  31
ENDBRANCH  29  30
ENDBRANCH  28  29
ENDBRANCH  27  28
ENDBRANCH  26  27
ENDBRANCH  25  26
ENDBRANCH  24  25
ENDBRANCH  23  24
ENDBRANCH  22  23
ENDBRANCH  21  22
ENDBRANCH  20  21
ENDBRANCH  19  20
ENDBRANCH  18  19
ENDBRANCH   1  18
TORSDOF 28
ENDMDL
