MODEL 1
REMARK VINA RESULT:    -4.156      0.000      0.000
REMARK INTER + INTRA:          -8.785
REMARK INTER:                  -7.072
REMARK INTRA:                  -1.713
REMARK UNBOUND:                -1.713
REMARK SMILES CCCCCCCCCCCCCC(=O)[O-]
REMARK SMILES IDX 8 1 9 2 10 3 11 4 12 5 13 6 14 7 15 8 16 9 7 10 6 11 5 12
REMARK SMILES IDX 4 13 3 14 2 15 1 16
REMARK H PARENT
REMARK Flexibility Score: inf
ROOT
ATOM      1  C   UNL     1      -7.143  25.735  22.567  1.00  0.00     0.000 C 
ENDROOT
BRANCH   1   2
ATOM      2  C   UNL     1      -7.325  26.062  24.057  1.00  0.00     0.000 C 
BRANCH   2   3
ATOM      3  C   UNL     1      -8.452  25.247  24.710  1.00  0.00     0.000 C 
BRANCH   3   4
ATOM      4  C   UNL     1      -9.598  26.160  25.164  1.00  0.00     0.000 C 
BRANCH   4   5
ATOM      5  C   UNL     1      -9.142  27.622  25.238  1.00  0.00     0.006 C 
BRANCH   5   6
ATOM      6  C   UNL     1     -10.159  28.549  24.566  1.00  0.00     0.053 C 
BRANCH   6   7
ATOM      7  C   UNL     1      -9.486  29.417  23.551  1.00  0.00     0.041 C 
ATOM      8  O   UNL     1      -9.756  29.288  22.327  1.00  0.00    -0.550 OA
ATOM      9  O   UNL     1      -8.523  30.335  23.949  1.00  0.00    -0.550 OA
ENDBRANCH   6   7
ENDBRANCH   5   6
ENDBRANCH   4   5
ENDBRANCH   3   4
ENDBRANCH   2   3
ENDBRANCH   1   2
BRANCH   1  10
ATOM     10  C   UNL     1      -8.161  26.459  21.673  1.00  0.00     0.000 C 
BRANCH  10  11
ATOM     11  C   UNL     1      -9.066  25.457  20.947  1.00  0.00    -0.000 C 
BRANCH  11  12
ATOM     12  C   UNL     1     -10.471  25.435  21.567  1.00  0.00    -0.000 C 
BRANCH  12  13
ATOM     13  C   UNL     1     -10.791  24.104  22.266  1.00  0.00    -0.000 C 
BRANCH  13  14
ATOM     14  C   UNL     1     -11.062  22.963  21.273  1.00  0.00    -0.000 C 
BRANCH  14  15
ATOM     15  C   UNL     1      -9.928  21.931  21.301  1.00  0.00    -0.003 C 
ATOM     16  C   UNL     1      -8.945  22.221  22.431  1.00  0.00     0.004 C 
ENDBRANCH  14  15
ENDBRANCH  13  14
ENDBRANCH  12  13
ENDBRANCH  11  12
ENDBRANCH  10  11
ENDBRANCH   1  10
TORSDOF 12
ENDMDL
MODEL 2
REMARK VINA RESULT:    -4.020      2.765      5.504
REMARK INTER + INTRA:          -8.554
REMARK INTER:                  -6.889
REMARK INTRA:                  -1.665
REMARK UNBOUND:                -1.713
REMARK SMILES CCCCCCCCCCCCCC(=O)[O-]
REMARK SMILES IDX 8 1 9 2 10 3 11 4 12 5 13 6 14 7 15 8 16 9 7 10 6 11 5 12
REMARK SMILES IDX 4 13 3 14 2 15 1 16
REMARK H PARENT
REMARK Flexibility Score: inf
ROOT
ATOM      1  C   UNL     1     -10.682  29.260  22.297  1.00  0.00     0.000 C 
ENDROOT
BRANCH   1   2
ATOM      2  C   UNL     1     -10.747  28.134  21.255  1.00  0.00     0.000 C 
BRANCH   2   3
ATOM      3  C   UNL     1      -9.894  26.916  21.643  1.00  0.00     0.000 C 
BRANCH   3   4
ATOM      4  C   UNL     1      -8.828  26.630  20.577  1.00  0.00     0.000 C 
BRANCH   4   5
ATOM      5  C   UNL     1      -8.741  25.130  20.274  1.00  0.00     0.006 C 
BRANCH   5   6
ATOM      6  C   UNL     1      -8.247  24.351  21.497  1.00  0.00     0.053 C 
BRANCH   6   7
ATOM      7  C   UNL     1      -9.174  23.219  21.806  1.00  0.00     0.041 C 
ATOM      8  O   UNL     1      -8.759  22.218  22.449  1.00  0.00    -0.550 OA
ATOM      9  O   UNL     1     -10.482  23.245  21.343  1.00  0.00    -0.550 OA
ENDBRANCH   6   7
ENDBRANCH   5   6
ENDBRANCH   4   5
ENDBRANCH   3   4
ENDBRANCH   2   3
ENDBRANCH   1   2
BRANCH   1  10
ATOM     10  C   UNL     1      -9.284  29.416  22.914  1.00  0.00     0.000 C 
BRANCH  10  11
ATOM     11  C   UNL     1      -9.365  29.505  24.443  1.00  0.00    -0.000 C 
BRANCH  11  12
ATOM     12  C   UNL     1     -10.709  28.968  24.956  1.00  0.00    -0.000 C 
BRANCH  12  13
ATOM     13  C   UNL     1     -10.584  27.583  25.612  1.00  0.00    -0.000 C 
BRANCH  13  14
ATOM     14  C   UNL     1      -9.125  27.182  25.875  1.00  0.00    -0.000 C 
BRANCH  14  15
ATOM     15  C   UNL     1      -8.712  26.000  24.990  1.00  0.00    -0.003 C 
ATOM     16  C   UNL     1      -7.300  26.185  24.444  1.00  0.00     0.004 C 
ENDBRANCH  14  15
ENDBRANCH  13  14
ENDBRANCH  12  13
ENDBRANCH  11  12
ENDBRANCH  10  11
ENDBRANCH   1  10
TORSDOF 12
ENDMDL
MODEL 3
REMARK VINA RESULT:    -3.994      1.958      3.182
REMARK INTER + INTRA:          -8.510
REMARK INTER:                  -7.050
REMARK INTRA:                  -1.459
REMARK UNBOUND:                -1.713
REMARK SMILES CCCCCCCCCCCCCC(=O)[O-]
REMARK SMILES IDX 8 1 9 2 10 3 11 4 12 5 13 6 14 7 15 8 16 9 7 10 6 11 5 12
REMARK SMILES IDX 4 13 3 14 2 15 1 16
REMARK H PARENT
REMARK Flexibility Score: inf
ROOT
ATOM      1  C   UNL     1      -8.864  25.446  19.906  1.00  0.00     0.000 C 
ENDROOT
BRANCH   1   2
ATOM      2  C   UNL     1      -9.519  26.344  20.967  1.00  0.00     0.000 C 
BRANCH   2   3
ATOM      3  C   UNL     1      -8.502  26.923  21.963  1.00  0.00     0.000 C 
BRANCH   3   4
ATOM      4  C   UNL     1      -7.562  25.829  22.486  1.00  0.00     0.000 C 
BRANCH   4   5
ATOM      5  C   UNL     1      -7.305  25.997  23.989  1.00  0.00     0.006 C 
BRANCH   5   6
ATOM      6  C   UNL     1      -8.540  25.601  24.804  1.00  0.00     0.053 C 
BRANCH   6   7
ATOM      7  C   UNL     1      -9.049  26.772  25.584  1.00  0.00     0.041 C 
ATOM      8  O   UNL     1      -8.642  27.934  25.321  1.00  0.00    -0.550 OA
ATOM      9  O   UNL     1      -9.936  26.575  26.634  1.00  0.00    -0.550 OA
ENDBRANCH   6   7
ENDBRANCH   5   6
ENDBRANCH   4   5
ENDBRANCH   3   4
ENDBRANCH   2   3
ENDBRANCH   1   2
BRANCH   1  10
ATOM     10  C   UNL     1      -9.737  25.277  18.653  1.00  0.00     0.000 C 
BRANCH  10  11
ATOM     11  C   UNL     1     -10.003  23.794  18.365  1.00  0.00    -0.000 C 
BRANCH  11  12
ATOM     12  C   UNL     1     -11.125  23.251  19.262  1.00  0.00    -0.000 C 
BRANCH  12  13
ATOM     13  C   UNL     1     -10.965  21.754  19.572  1.00  0.00    -0.000 C 
BRANCH  13  14
ATOM     14  C   UNL     1     -10.956  21.458  21.079  1.00  0.00    -0.000 C 
BRANCH  14  15
ATOM     15  C   UNL     1     -10.354  22.629  21.864  1.00  0.00    -0.003 C 
ATOM     16  C   UNL     1      -8.881  22.386  22.176  1.00  0.00     0.004 C 
ENDBRANCH  14  15
ENDBRANCH  13  14
ENDBRANCH  12  13
ENDBRANCH  11  12
ENDBRANCH  10  11
ENDBRANCH   1  10
TORSDOF 12
ENDMDL
MODEL 4
REMARK VINA RESULT:    -3.991      1.671      2.667
REMARK INTER + INTRA:          -8.504
REMARK INTER:                  -7.308
REMARK INTRA:                  -1.195
REMARK UNBOUND:                -1.713
REMARK SMILES CCCCCCCCCCCCCC(=O)[O-]
REMARK SMILES IDX 8 1 9 2 10 3 11 4 12 5 13 6 14 7 15 8 16 9 7 10 6 11 5 12
REMARK SMILES IDX 4 13 3 14 2 15 1 16
REMARK H PARENT
REMARK Flexibility Score: inf
ROOT
ATOM      1  C   UNL     1      -8.104  24.946  21.936  1.00  0.00     0.000 C 
ENDROOT
BRANCH   1   2
ATOM      2  C   UNL     1      -7.393  26.047  22.737  1.00  0.00     0.000 C 
BRANCH   2   3
ATOM      3  C   UNL     1      -7.655  25.945  24.247  1.00  0.00     0.000 C 
BRANCH   3   4
ATOM      4  C   UNL     1      -8.612  27.049  24.716  1.00  0.00     0.000 C 
BRANCH   4   5
ATOM      5  C   UNL     1      -8.876  28.061  23.595  1.00  0.00     0.006 C 
BRANCH   5   6
ATOM      6  C   UNL     1     -10.359  28.082  23.213  1.00  0.00     0.053 C 
BRANCH   6   7
ATOM      7  C   UNL     1     -10.517  28.252  21.735  1.00  0.00     0.041 C 
ATOM      8  O   UNL     1     -10.508  29.404  21.225  1.00  0.00    -0.550 OA
ATOM      9  O   UNL     1     -10.724  27.143  20.926  1.00  0.00    -0.550 OA
ENDBRANCH   6   7
ENDBRANCH   5   6
ENDBRANCH   4   5
ENDBRANCH   3   4
ENDBRANCH   2   3
ENDBRANCH   1   2
BRANCH   1  10
ATOM     10  C   UNL     1      -8.932  24.007  22.825  1.00  0.00     0.000 C 
BRANCH  10  11
ATOM     11  C   UNL     1      -9.021  22.604  22.211  1.00  0.00    -0.000 C 
BRANCH  11  12
ATOM     12  C   UNL     1     -10.443  22.310  21.713  1.00  0.00    -0.000 C 
BRANCH  12  13
ATOM     13  C   UNL     1     -10.475  21.249  20.601  1.00  0.00    -0.000 C 
BRANCH  13  14
ATOM     14  C   UNL     1     -10.759  21.850  19.216  1.00  0.00    -0.000 C 
BRANCH  14  15
ATOM     15  C   UNL     1     -10.980  23.365  19.311  1.00  0.00    -0.003 C 
ATOM     16  C   UNL     1      -9.849  24.131  18.633  1.00  0.00     0.004 C 
ENDBRANCH  14  15
ENDBRANCH  13  14
ENDBRANCH  12  13
ENDBRANCH  11  12
ENDBRANCH  10  11
ENDBRANCH   1  10
TORSDOF 12
ENDMDL
MODEL 5
REMARK VINA RESULT:    -3.970      2.907      5.735
REMARK INTER + INTRA:          -8.468
REMARK INTER:                  -6.608
REMARK INTRA:                  -1.860
REMARK UNBOUND:                -1.713
REMARK SMILES CCCCCCCCCCCCCC(=O)[O-]
REMARK SMILES IDX 8 1 9 2 10 3 11 4 12 5 13 6 14 7 15 8 16 9 7 10 6 11 5 12
REMARK SMILES IDX 4 13 3 14 2 15 1 16
REMARK H PARENT
REMARK Flexibility Score: inf
ROOT
ATOM      1  C   UNL     1      -6.976  26.013  22.884  1.00  0.00     0.000 C 
ENDROOT
BRANCH   1   2
ATOM      2  C   UNL     1      -7.785  25.251  21.824  1.00  0.00     0.000 C 
BRANCH   2   3
ATOM      3  C   UNL     1      -8.522  26.187  20.854  1.00  0.00     0.000 C 
BRANCH   3   4
ATOM      4  C   UNL     1     -10.010  25.826  20.766  1.00  0.00     0.000 C 
BRANCH   4   5
ATOM      5  C   UNL     1     -10.200  24.387  20.273  1.00  0.00     0.006 C 
BRANCH   5   6
ATOM      6  C   UNL     1     -10.941  23.543  21.314  1.00  0.00     0.053 C 
BRANCH   6   7
ATOM      7  C   UNL     1     -10.288  22.206  21.465  1.00  0.00     0.041 C 
ATOM      8  O   UNL     1      -9.189  22.102  22.072  1.00  0.00    -0.550 OA
ATOM      9  O   UNL     1     -10.867  21.081  20.894  1.00  0.00    -0.550 OA
ENDBRANCH   6   7
ENDBRANCH   5   6
ENDBRANCH   4   5
ENDBRANCH   3   4
ENDBRANCH   2   3
ENDBRANCH   1   2
BRANCH   1  10
ATOM     10  C   UNL     1      -7.650  26.003  24.264  1.00  0.00     0.000 C 
BRANCH  10  11
ATOM     11  C   UNL     1      -8.932  25.162  24.243  1.00  0.00    -0.000 C 
BRANCH  11  12
ATOM     12  C   UNL     1     -10.084  25.896  24.946  1.00  0.00    -0.000 C 
BRANCH  12  13
ATOM     13  C   UNL     1     -10.501  27.183  24.214  1.00  0.00    -0.000 C 
BRANCH  13  14
ATOM     14  C   UNL     1     -10.310  28.441  25.074  1.00  0.00    -0.000 C 
BRANCH  14  15
ATOM     15  C   UNL     1      -9.496  29.501  24.320  1.00  0.00    -0.003 C 
ATOM     16  C   UNL     1      -9.322  29.123  22.853  1.00  0.00     0.004 C 
ENDBRANCH  14  15
ENDBRANCH  13  14
ENDBRANCH  12  13
ENDBRANCH  11  12
ENDBRANCH  10  11
ENDBRANCH   1  10
TORSDOF 12
ENDMDL
MODEL 6
REMARK VINA RESULT:    -3.882      3.277      5.541
REMARK INTER + INTRA:          -8.318
REMARK INTER:                  -6.841
REMARK INTRA:                  -1.478
REMARK UNBOUND:                -1.713
REMARK SMILES CCCCCCCCCCCCCC(=O)[O-]
REMARK SMILES IDX 8 1 9 2 10 3 11 4 12 5 13 6 14 7 15 8 16 9 7 10 6 11 5 12
REMARK SMILES IDX 4 13 3 14 2 15 1 16
REMARK H PARENT
REMARK Flexibility Score: inf
ROOT
ATOM      1  C   UNL     1      -9.639  28.883  22.847  1.00  0.00     0.000 C 
ENDROOT
BRANCH   1   2
ATOM      2  C   UNL     1     -10.750  29.328  21.883  1.00  0.00     0.000 C 
BRANCH   2   3
ATOM      3  C   UNL     1     -11.069  28.270  20.816  1.00  0.00     0.000 C 
BRANCH   3   4
ATOM      4  C   UNL     1     -10.262  26.988  21.055  1.00  0.00     0.000 C 
BRANCH   4   5
ATOM      5  C   UNL     1      -9.243  26.761  19.931  1.00  0.00     0.006 C 
BRANCH   5   6
ATOM      6  C   UNL     1      -8.909  25.274  19.785  1.00  0.00     0.053 C 
BRANCH   6   7
ATOM      7  C   UNL     1      -9.716  24.661  18.685  1.00  0.00     0.041 C 
ATOM      8  O   UNL     1     -10.195  23.504  18.819  1.00  0.00    -0.550 OA
ATOM      9  O   UNL     1      -9.900  25.347  17.492  1.00  0.00    -0.550 OA
ENDBRANCH   6   7
ENDBRANCH   5   6
ENDBRANCH   4   5
ENDBRANCH   3   4
ENDBRANCH   2   3
ENDBRANCH   1   2
BRANCH   1  10
ATOM     10  C   UNL     1      -9.639  29.679  24.159  1.00  0.00     0.000 C 
BRANCH  10  11
ATOM     11  C   UNL     1     -10.673  29.118  25.143  1.00  0.00    -0.000 C 
BRANCH  11  12
ATOM     12  C   UNL     1     -10.706  27.583  25.091  1.00  0.00    -0.000 C 
BRANCH  12  13
ATOM     13  C   UNL     1      -9.622  26.936  25.968  1.00  0.00    -0.000 C 
BRANCH  13  14
ATOM     14  C   UNL     1      -8.857  25.821  25.238  1.00  0.00    -0.000 C 
BRANCH  14  15
ATOM     15  C   UNL     1      -7.562  26.359  24.619  1.00  0.00    -0.003 C 
ATOM     16  C   UNL     1      -7.403  25.889  23.176  1.00  0.00     0.004 C 
ENDBRANCH  14  15
ENDBRANCH  13  14
ENDBRANCH  12  13
ENDBRANCH  11  12
ENDBRANCH  10  11
ENDBRANCH   1  10
TORSDOF 12
ENDMDL
MODEL 7
REMARK VINA RESULT:    -3.872      2.913      4.913
REMARK INTER + INTRA:          -8.301
REMARK INTER:                  -6.725
REMARK INTRA:                  -1.577
REMARK UNBOUND:                -1.713
REMARK SMILES CCCCCCCCCCCCCC(=O)[O-]
REMARK SMILES IDX 8 1 9 2 10 3 11 4 12 5 13 6 14 7 15 8 16 9 7 10 6 11 5 12
REMARK SMILES IDX 4 13 3 14 2 15 1 16
REMARK H PARENT
REMARK Flexibility Score: inf
ROOT
ATOM      1  C   UNL     1      -9.778  29.148  24.358  1.00  0.00     0.000 C 
ENDROOT
BRANCH   1   2
ATOM      2  C   UNL     1     -10.724  29.199  23.148  1.00  0.00     0.000 C 
BRANCH   2   3
ATOM      3  C   UNL     1     -10.909  27.828  22.481  1.00  0.00     0.000 C 
BRANCH   3   4
ATOM      4  C   UNL     1     -10.608  27.903  20.978  1.00  0.00     0.000 C 
BRANCH   4   5
ATOM      5  C   UNL     1     -10.814  26.540  20.306  1.00  0.00     0.006 C 
BRANCH   5   6
ATOM      6  C   UNL     1      -9.618  26.179  19.420  1.00  0.00     0.053 C 
BRANCH   6   7
ATOM      7  C   UNL     1      -9.968  25.050  18.503  1.00  0.00     0.041 C 
ATOM      8  O   UNL     1      -9.809  23.858  18.878  1.00  0.00    -0.550 OA
ATOM      9  O   UNL     1     -10.421  25.313  17.218  1.00  0.00    -0.550 OA
ENDBRANCH   6   7
ENDBRANCH   5   6
ENDBRANCH   4   5
ENDBRANCH   3   4
ENDBRANCH   2   3
ENDBRANCH   1   2
BRANCH   1  10
ATOM     10  C   UNL     1      -8.583  28.209  24.135  1.00  0.00     0.000 C 
BRANCH  10  11
ATOM     11  C   UNL     1      -8.586  27.063  25.154  1.00  0.00    -0.000 C 
BRANCH  11  12
ATOM     12  C   UNL     1      -8.050  25.767  24.528  1.00  0.00    -0.000 C 
BRANCH  12  13
ATOM     13  C   UNL     1      -7.462  25.986  23.124  1.00  0.00    -0.000 C 
BRANCH  13  14
ATOM     14  C   UNL     1      -7.893  24.902  22.125  1.00  0.00    -0.000 C 
BRANCH  14  15
ATOM     15  C   UNL     1      -9.099  24.118  22.654  1.00  0.00    -0.003 C 
ATOM     16  C   UNL     1      -9.019  22.647  22.258  1.00  0.00     0.004 C 
ENDBRANCH  14  15
ENDBRANCH  13  14
ENDBRANCH  12  13
ENDBRANCH  11  12
ENDBRANCH  10  11
ENDBRANCH   1  10
TORSDOF 12
ENDMDL
MODEL 8
REMARK VINA RESULT:    -3.842      3.060      5.747
REMARK INTER + INTRA:          -8.251
REMARK INTER:                  -6.595
REMARK INTRA:                  -1.656
REMARK UNBOUND:                -1.713
REMARK SMILES CCCCCCCCCCCCCC(=O)[O-]
REMARK SMILES IDX 8 1 9 2 10 3 11 4 12 5 13 6 14 7 15 8 16 9 7 10 6 11 5 12
REMARK SMILES IDX 4 13 3 14 2 15 1 16
REMARK H PARENT
REMARK Flexibility Score: inf
ROOT
ATOM      1  C   UNL     1     -10.114  26.205  21.445  1.00  0.00     0.000 C 
ENDROOT
BRANCH   1   2
ATOM      2  C   UNL     1      -8.648  26.013  21.026  1.00  0.00     0.000 C 
BRANCH   2   3
ATOM      3  C   UNL     1      -8.023  24.742  21.620  1.00  0.00     0.000 C 
BRANCH   3   4
ATOM      4  C   UNL     1      -8.991  24.056  22.593  1.00  0.00     0.000 C 
BRANCH   4   5
ATOM      5  C   UNL     1      -9.205  22.586  22.213  1.00  0.00     0.006 C 
BRANCH   5   6
ATOM      6  C   UNL     1     -10.634  22.349  21.716  1.00  0.00     0.053 C 
BRANCH   6   7
ATOM      7  C   UNL     1     -10.659  22.239  20.225  1.00  0.00     0.041 C 
ATOM      8  O   UNL     1     -10.582  23.274  19.511  1.00  0.00    -0.550 OA
ATOM      9  O   UNL     1     -10.816  20.998  19.622  1.00  0.00    -0.550 OA
ENDBRANCH   6   7
ENDBRANCH   5   6
ENDBRANCH   4   5
ENDBRANCH   3   4
ENDBRANCH   2   3
ENDBRANCH   1   2
BRANCH   1  10
ATOM     10  C   UNL     1     -10.839  27.259  20.595  1.00  0.00     0.000 C 
BRANCH  10  11
ATOM     11  C   UNL     1     -10.966  28.585  21.354  1.00  0.00    -0.000 C 
BRANCH  11  12
ATOM     12  C   UNL     1     -10.805  28.372  22.866  1.00  0.00    -0.000 C 
BRANCH  12  13
ATOM     13  C   UNL     1      -9.980  29.481  23.537  1.00  0.00    -0.000 C 
BRANCH  13  14
ATOM     14  C   UNL     1      -8.859  28.929  24.430  1.00  0.00    -0.000 C 
BRANCH  14  15
ATOM     15  C   UNL     1      -9.108  27.455  24.773  1.00  0.00    -0.003 C 
ATOM     16  C   UNL     1      -7.801  26.669  24.813  1.00  0.00     0.004 C 
ENDBRANCH  14  15
ENDBRANCH  13  14
ENDBRANCH  12  13
ENDBRANCH  11  12
ENDBRANCH  10  11
ENDBRANCH   1  10
TORSDOF 12
ENDMDL
MODEL 9
REMARK VINA RESULT:    -3.749      2.056      3.055
REMARK INTER + INTRA:          -8.093
REMARK INTER:                  -6.395
REMARK INTRA:                  -1.698
REMARK UNBOUND:                -1.713
REMARK SMILES CCCCCCCCCCCCCC(=O)[O-]
REMARK SMILES IDX 8 1 9 2 10 3 11 4 12 5 13 6 14 7 15 8 16 9 7 10 6 11 5 12
REMARK SMILES IDX 4 13 3 14 2 15 1 16
REMARK H PARENT
REMARK Flexibility Score: inf
ROOT
ATOM      1  C   UNL     1      -8.157  26.364  21.803  1.00  0.00     0.000 C 
ENDROOT
BRANCH   1   2
ATOM      2  C   UNL     1      -9.669  26.633  21.854  1.00  0.00     0.000 C 
BRANCH   2   3
ATOM      3  C   UNL     1     -10.012  28.122  21.702  1.00  0.00     0.000 C 
BRANCH   3   4
ATOM      4  C   UNL     1     -10.086  28.812  23.071  1.00  0.00     0.000 C 
BRANCH   4   5
ATOM      5  C   UNL     1     -10.769  27.910  24.106  1.00  0.00     0.006 C 
BRANCH   5   6
ATOM      6  C   UNL     1     -10.016  27.936  25.439  1.00  0.00     0.053 C 
BRANCH   6   7
ATOM      7  C   UNL     1      -9.062  26.787  25.524  1.00  0.00     0.041 C 
ATOM      8  O   UNL     1      -9.427  25.698  26.041  1.00  0.00    -0.550 OA
ATOM      9  O   UNL     1      -7.755  26.933  25.078  1.00  0.00    -0.550 OA
ENDBRANCH   6   7
ENDBRANCH   5   6
ENDBRANCH   4   5
ENDBRANCH   3   4
ENDBRANCH   2   3
ENDBRANCH   1   2
BRANCH   1  10
ATOM     10  C   UNL     1      -7.810  24.886  22.039  1.00  0.00     0.000 C 
BRANCH  10  11
ATOM     11  C   UNL     1      -9.006  24.128  22.629  1.00  0.00    -0.000 C 
BRANCH  11  12
ATOM     12  C   UNL     1      -8.944  22.637  22.269  1.00  0.00    -0.000 C 
BRANCH  12  13
ATOM     13  C   UNL     1     -10.153  22.176  21.438  1.00  0.00    -0.000 C 
BRANCH  13  14
ATOM     14  C   UNL     1     -10.807  23.326  20.657  1.00  0.00    -0.000 C 
BRANCH  14  15
ATOM     15  C   UNL     1     -10.392  23.291  19.181  1.00  0.00    -0.003 C 
ATOM     16  C   UNL     1      -9.595  24.535  18.802  1.00  0.00     0.004 C 
ENDBRANCH  14  15
ENDBRANCH  13  14
ENDBRANCH  12  13
ENDBRANCH  11  12
ENDBRANCH  10  11
ENDBRANCH   1  10
TORSDOF 12
ENDMDL
