MODEL 1
REMARK VINA RESULT:    -5.375      0.000      0.000
REMARK INTER + INTRA:          -6.584
REMARK INTER:                  -6.475
REMARK INTRA:                  -0.109
REMARK UNBOUND:                -0.109
REMARK SMILES Oc1cc(O)c2cc(O)c(-c3ccc(O)c(O)c3)[o+]c2c1
REMARK SMILES IDX 10 1 19 2 20 3 21 4 2 5 3 6 4 7 6 8 7 9 8 10 11 11 12 12
REMARK SMILES IDX 13 13 14 14 18 15 16 16 15 17 17 19 9 21 1 23 5 25
REMARK H PARENT 15 18 17 20 9 22 1 24 5 26
REMARK Flexibility Score: inf
ROOT
ATOM      1  C   UNL     1      46.295  15.900  -3.814  1.00  0.00     0.402 A 
ATOM      2  O   UNL     1      47.494  16.310  -4.223  1.00  0.00    -0.202 OA
ATOM      3  C   UNL     1      48.572  15.531  -4.213  1.00  0.00     0.368 A 
ATOM      4  C   UNL     1      49.798  16.040  -4.654  1.00  0.00     0.162 A 
ATOM      5  C   UNL     1      50.941  15.231  -4.644  1.00  0.00     0.128 A 
ATOM      6  C   UNL     1      50.856  13.909  -4.193  1.00  0.00     0.093 A 
ATOM      7  C   UNL     1      49.633  13.385  -3.749  1.00  0.00     0.136 A 
ATOM      8  C   UNL     1      48.484  14.198  -3.757  1.00  0.00     0.125 A 
ATOM      9  C   UNL     1      47.237  13.726  -3.333  1.00  0.00     0.078 A 
ATOM     10  C   UNL     1      46.125  14.573  -3.368  1.00  0.00     0.223 A 
ENDROOT
BRANCH   1  11
ATOM     11  C   UNL     1      45.170  16.863  -3.864  1.00  0.00     0.087 A 
ATOM     12  C   UNL     1      44.918  17.566  -5.051  1.00  0.00     0.022 A 
ATOM     13  C   UNL     1      43.875  18.492  -5.113  1.00  0.00     0.051 A 
ATOM     14  C   UNL     1      43.075  18.746  -3.994  1.00  0.00     0.157 A 
ATOM     15  C   UNL     1      44.385  17.130  -2.731  1.00  0.00     0.068 A 
ATOM     16  C   UNL     1      43.338  18.061  -2.784  1.00  0.00     0.158 A 
BRANCH  14  17
ATOM     17  O   UNL     1      42.045  19.679  -4.125  1.00  0.00    -0.504 OA
ATOM     18  H   UNL     1      41.676  19.993  -5.010  1.00  0.00     0.293 HD
ENDBRANCH  14  17
BRANCH  16  19
ATOM     19  O   UNL     1      42.596  18.276  -1.621  1.00  0.00    -0.504 OA
ATOM     20  H   UNL     1      41.994  19.072  -1.474  1.00  0.00     0.293 HD
ENDBRANCH  16  19
ENDBRANCH   1  11
BRANCH  10  21
ATOM     21  O   UNL     1      44.870  14.094  -2.995  1.00  0.00    -0.500 OA
ATOM     22  H   UNL     1      44.553  14.124  -2.033  1.00  0.00     0.294 HD
ENDBRANCH  10  21
BRANCH   5  23
ATOM     23  O   UNL     1      52.166  15.730  -5.082  1.00  0.00    -0.507 OA
ATOM     24  H   UNL     1      52.864  15.127  -5.502  1.00  0.00     0.293 HD
ENDBRANCH   5  23
BRANCH   7  25
ATOM     25  O   UNL     1      49.563  12.065  -3.302  1.00  0.00    -0.507 OA
ATOM     26  H   UNL     1      50.334  11.419  -3.427  1.00  0.00     0.293 HD
ENDBRANCH   7  25
TORSDOF 6
ENDMDL
MODEL 2
REMARK VINA RESULT:    -5.308      1.858      3.036
REMARK INTER + INTRA:          -6.503
REMARK INTER:                  -6.153
REMARK INTRA:                  -0.350
REMARK UNBOUND:                -0.109
REMARK SMILES Oc1cc(O)c2cc(O)c(-c3ccc(O)c(O)c3)[o+]c2c1
REMARK SMILES IDX 10 1 19 2 20 3 21 4 2 5 3 6 4 7 6 8 7 9 8 10 11 11 12 12
REMARK SMILES IDX 13 13 14 14 18 15 16 16 15 17 17 19 9 21 1 23 5 25
REMARK H PARENT 15 18 17 20 9 22 1 24 5 26
REMARK Flexibility Score: inf
ROOT
ATOM      1  C   UNL     1      45.098  16.326  -3.756  1.00  0.00     0.402 A 
ATOM      2  O   UNL     1      45.820  15.298  -3.313  1.00  0.00    -0.202 OA
ATOM      3  C   UNL     1      47.079  15.081  -3.681  1.00  0.00     0.368 A 
ATOM      4  C   UNL     1      47.768  13.974  -3.174  1.00  0.00     0.162 A 
ATOM      5  C   UNL     1      49.093  13.733  -3.557  1.00  0.00     0.128 A 
ATOM      6  C   UNL     1      49.730  14.601  -4.450  1.00  0.00     0.093 A 
ATOM      7  C   UNL     1      49.052  15.715  -4.966  1.00  0.00     0.136 A 
ATOM      8  C   UNL     1      47.720  15.959  -4.581  1.00  0.00     0.125 A 
ATOM      9  C   UNL     1      46.999  17.059  -5.058  1.00  0.00     0.078 A 
ATOM     10  C   UNL     1      45.679  17.258  -4.639  1.00  0.00     0.223 A 
ENDROOT
BRANCH   1  11
ATOM     11  C   UNL     1      43.701  16.458  -3.280  1.00  0.00     0.087 A 
ATOM     12  C   UNL     1      42.662  15.898  -4.037  1.00  0.00     0.022 A 
ATOM     13  C   UNL     1      41.336  16.027  -3.617  1.00  0.00     0.051 A 
ATOM     14  C   UNL     1      41.021  16.726  -2.447  1.00  0.00     0.157 A 
ATOM     15  C   UNL     1      43.388  17.180  -2.117  1.00  0.00     0.068 A 
ATOM     16  C   UNL     1      42.061  17.317  -1.690  1.00  0.00     0.158 A 
BRANCH  14  17
ATOM     17  O   UNL     1      39.676  16.812  -2.079  1.00  0.00    -0.504 OA
ATOM     18  H   UNL     1      38.919  16.413  -2.612  1.00  0.00     0.293 HD
ENDBRANCH  14  17
BRANCH  16  19
ATOM     19  O   UNL     1      41.822  18.046  -0.524  1.00  0.00    -0.504 OA
ATOM     20  H   UNL     1      41.097  17.825   0.142  1.00  0.00     0.293 HD
ENDBRANCH  16  19
ENDBRANCH   1  11
BRANCH  10  21
ATOM     21  O   UNL     1      44.972  18.379  -5.070  1.00  0.00    -0.500 OA
ATOM     22  H   UNL     1      44.573  18.432  -6.001  1.00  0.00     0.294 HD
ENDBRANCH  10  21
BRANCH   5  23
ATOM     23  O   UNL     1      49.786  12.633  -3.056  1.00  0.00    -0.507 OA
ATOM     24  H   UNL     1      50.548  12.208  -3.571  1.00  0.00     0.293 HD
ENDBRANCH   5  23
BRANCH   7  25
ATOM     25  O   UNL     1      49.700  16.574  -5.855  1.00  0.00    -0.507 OA
ATOM     26  H   UNL     1      49.662  16.429  -6.858  1.00  0.00     0.293 HD
ENDBRANCH   7  25
TORSDOF 6
ENDMDL
MODEL 3
REMARK VINA RESULT:    -5.271      1.301      1.640
REMARK INTER + INTRA:          -6.458
REMARK INTER:                  -6.269
REMARK INTRA:                  -0.189
REMARK UNBOUND:                -0.109
REMARK SMILES Oc1cc(O)c2cc(O)c(-c3ccc(O)c(O)c3)[o+]c2c1
REMARK SMILES IDX 10 1 19 2 20 3 21 4 2 5 3 6 4 7 6 8 7 9 8 10 11 11 12 12
REMARK SMILES IDX 13 13 14 14 18 15 16 16 15 17 17 19 9 21 1 23 5 25
REMARK H PARENT 15 18 17 20 9 22 1 24 5 26
REMARK Flexibility Score: inf
ROOT
ATOM      1  C   UNL     1      45.342  15.678  -3.387  1.00  0.00     0.402 A 
ATOM      2  O   UNL     1      46.654  15.695  -3.617  1.00  0.00    -0.202 OA
ATOM      3  C   UNL     1      47.425  14.617  -3.508  1.00  0.00     0.368 A 
ATOM      4  C   UNL     1      48.797  14.718  -3.763  1.00  0.00     0.162 A 
ATOM      5  C   UNL     1      49.620  13.591  -3.647  1.00  0.00     0.128 A 
ATOM      6  C   UNL     1      49.069  12.360  -3.276  1.00  0.00     0.093 A 
ATOM      7  C   UNL     1      47.696  12.243  -3.019  1.00  0.00     0.136 A 
ATOM      8  C   UNL     1      46.868  13.376  -3.134  1.00  0.00     0.125 A 
ATOM      9  C   UNL     1      45.490  13.315  -2.897  1.00  0.00     0.078 A 
ATOM     10  C   UNL     1      44.710  14.469  -3.032  1.00  0.00     0.223 A 
ENDROOT
BRANCH   1  11
ATOM     11  C   UNL     1      44.590  16.946  -3.532  1.00  0.00     0.087 A 
ATOM     12  C   UNL     1      44.616  17.625  -4.758  1.00  0.00     0.022 A 
ATOM     13  C   UNL     1      43.929  18.832  -4.911  1.00  0.00     0.051 A 
ATOM     14  C   UNL     1      43.217  19.389  -3.844  1.00  0.00     0.157 A 
ATOM     15  C   UNL     1      43.895  17.513  -2.451  1.00  0.00     0.068 A 
ATOM     16  C   UNL     1      43.205  18.724  -2.594  1.00  0.00     0.158 A 
BRANCH  14  17
ATOM     17  O   UNL     1      42.546  20.594  -4.065  1.00  0.00    -0.504 OA
ATOM     18  H   UNL     1      42.259  20.922  -4.974  1.00  0.00     0.293 HD
ENDBRANCH  14  17
BRANCH  16  19
ATOM     19  O   UNL     1      42.534  19.229  -1.479  1.00  0.00    -0.504 OA
ATOM     20  H   UNL     1      42.926  19.907  -0.842  1.00  0.00     0.293 HD
ENDBRANCH  16  19
ENDBRANCH   1  11
BRANCH  10  21
ATOM     21  O   UNL     1      43.330  14.405  -2.847  1.00  0.00    -0.500 OA
ATOM     22  H   UNL     1      42.779  15.236  -2.665  1.00  0.00     0.294 HD
ENDBRANCH  10  21
BRANCH   5  23
ATOM     23  O   UNL     1      50.987  13.684  -3.899  1.00  0.00    -0.507 OA
ATOM     24  H   UNL     1      51.536  14.468  -3.566  1.00  0.00     0.293 HD
ENDBRANCH   5  23
BRANCH   7  25
ATOM     25  O   UNL     1      47.159  11.008  -2.650  1.00  0.00    -0.507 OA
ATOM     26  H   UNL     1      47.713  10.160  -2.674  1.00  0.00     0.293 HD
ENDBRANCH   7  25
TORSDOF 6
ENDMDL
MODEL 4
REMARK VINA RESULT:    -5.160      2.412      7.610
REMARK INTER + INTRA:          -6.325
REMARK INTER:                  -5.975
REMARK INTRA:                  -0.350
REMARK UNBOUND:                -0.109
REMARK SMILES Oc1cc(O)c2cc(O)c(-c3ccc(O)c(O)c3)[o+]c2c1
REMARK SMILES IDX 10 1 19 2 20 3 21 4 2 5 3 6 4 7 6 8 7 9 8 10 11 11 12 12
REMARK SMILES IDX 13 13 14 14 18 15 16 16 15 17 17 19 9 21 1 23 5 25
REMARK H PARENT 15 18 17 20 9 22 1 24 5 26
REMARK Flexibility Score: inf
ROOT
ATOM      1  C   UNL     1      43.818  17.491  -3.735  1.00  0.00     0.402 A 
ATOM      2  O   UNL     1      43.661  18.559  -2.954  1.00  0.00    -0.202 OA
ATOM      3  C   UNL     1      42.482  18.939  -2.471  1.00  0.00     0.368 A 
ATOM      4  C   UNL     1      42.400  20.075  -1.660  1.00  0.00     0.162 A 
ATOM      5  C   UNL     1      41.163  20.488  -1.148  1.00  0.00     0.128 A 
ATOM      6  C   UNL     1      40.006  19.761  -1.448  1.00  0.00     0.093 A 
ATOM      7  C   UNL     1      40.074  18.618  -2.258  1.00  0.00     0.136 A 
ATOM      8  C   UNL     1      41.316  18.203  -2.773  1.00  0.00     0.125 A 
ATOM      9  C   UNL     1      41.443  17.067  -3.580  1.00  0.00     0.078 A 
ATOM     10  C   UNL     1      42.702  16.694  -4.062  1.00  0.00     0.223 A 
ENDROOT
BRANCH   1  11
ATOM     11  C   UNL     1      45.181  17.173  -4.221  1.00  0.00     0.087 A 
ATOM     12  C   UNL     1      45.616  17.701  -5.445  1.00  0.00     0.022 A 
ATOM     13  C   UNL     1      46.890  17.399  -5.930  1.00  0.00     0.051 A 
ATOM     14  C   UNL     1      47.747  16.556  -5.214  1.00  0.00     0.157 A 
ATOM     15  C   UNL     1      46.029  16.309  -3.509  1.00  0.00     0.068 A 
ATOM     16  C   UNL     1      47.308  15.997  -3.990  1.00  0.00     0.158 A 
BRANCH  14  17
ATOM     17  O   UNL     1      49.010  16.299  -5.751  1.00  0.00    -0.504 OA
ATOM     18  H   UNL     1      49.180  15.667  -6.518  1.00  0.00     0.293 HD
ENDBRANCH  14  17
BRANCH  16  19
ATOM     19  O   UNL     1      48.098  15.133  -3.230  1.00  0.00    -0.504 OA
ATOM     20  H   UNL     1      48.401  14.223  -3.543  1.00  0.00     0.293 HD
ENDBRANCH  16  19
ENDBRANCH   1  11
BRANCH  10  21
ATOM     21  O   UNL     1      42.844  15.535  -4.824  1.00  0.00    -0.500 OA
ATOM     22  H   UNL     1      42.137  15.248  -5.491  1.00  0.00     0.294 HD
ENDBRANCH  10  21
BRANCH   5  23
ATOM     23  O   UNL     1      41.073  21.620  -0.340  1.00  0.00    -0.507 OA
ATOM     24  H   UNL     1      41.827  22.295  -0.287  1.00  0.00     0.293 HD
ENDBRANCH   5  23
BRANCH   7  25
ATOM     25  O   UNL     1      38.911  17.901  -2.549  1.00  0.00    -0.507 OA
ATOM     26  H   UNL     1      38.134  18.326  -3.041  1.00  0.00     0.293 HD
ENDBRANCH   7  25
TORSDOF 6
ENDMDL
MODEL 5
REMARK VINA RESULT:    -5.060      1.645      6.834
REMARK INTER + INTRA:          -6.204
REMARK INTER:                  -6.489
REMARK INTRA:                   0.284
REMARK UNBOUND:                -0.109
REMARK SMILES Oc1cc(O)c2cc(O)c(-c3ccc(O)c(O)c3)[o+]c2c1
REMARK SMILES IDX 10 1 19 2 20 3 21 4 2 5 3 6 4 7 6 8 7 9 8 10 11 11 12 12
REMARK SMILES IDX 13 13 14 14 18 15 16 16 15 17 17 19 9 21 1 23 5 25
REMARK H PARENT 15 18 17 20 9 22 1 24 5 26
REMARK Flexibility Score: inf
ROOT
ATOM      1  C   UNL     1      45.812  16.307  -3.544  1.00  0.00     0.402 A 
ATOM      2  O   UNL     1      45.182  17.480  -3.584  1.00  0.00    -0.202 OA
ATOM      3  C   UNL     1      43.965  17.669  -3.081  1.00  0.00     0.368 A 
ATOM      4  C   UNL     1      43.370  18.932  -3.166  1.00  0.00     0.162 A 
ATOM      5  C   UNL     1      42.087  19.143  -2.644  1.00  0.00     0.128 A 
ATOM      6  C   UNL     1      41.400  18.087  -2.035  1.00  0.00     0.093 A 
ATOM      7  C   UNL     1      41.985  16.816  -1.941  1.00  0.00     0.136 A 
ATOM      8  C   UNL     1      43.274  16.604  -2.466  1.00  0.00     0.125 A 
ATOM      9  C   UNL     1      43.909  15.359  -2.393  1.00  0.00     0.078 A 
ATOM     10  C   UNL     1      45.193  15.202  -2.925  1.00  0.00     0.223 A 
ENDROOT
BRANCH   1  11
ATOM     11  C   UNL     1      47.162  16.218  -4.147  1.00  0.00     0.087 A 
ATOM     12  C   UNL     1      47.498  17.064  -5.213  1.00  0.00     0.022 A 
ATOM     13  C   UNL     1      48.759  16.983  -5.808  1.00  0.00     0.051 A 
ATOM     14  C   UNL     1      49.701  16.050  -5.362  1.00  0.00     0.157 A 
ATOM     15  C   UNL     1      48.097  15.264  -3.710  1.00  0.00     0.068 A 
ATOM     16  C   UNL     1      49.363  15.173  -4.303  1.00  0.00     0.158 A 
BRANCH  14  17
ATOM     17  O   UNL     1      50.946  16.025  -5.995  1.00  0.00    -0.504 OA
ATOM     18  H   UNL     1      51.087  16.234  -6.972  1.00  0.00     0.293 HD
ENDBRANCH  14  17
BRANCH  16  19
ATOM     19  O   UNL     1      50.244  14.204  -3.819  1.00  0.00    -0.504 OA
ATOM     20  H   UNL     1      50.051  13.214  -3.822  1.00  0.00     0.293 HD
ENDBRANCH  16  19
ENDBRANCH   1  11
BRANCH  10  21
ATOM     21  O   UNL     1      45.853  13.979  -2.811  1.00  0.00    -0.500 OA
ATOM     22  H   UNL     1      46.149  13.457  -3.627  1.00  0.00     0.294 HD
ENDBRANCH  10  21
BRANCH   5  23
ATOM     23  O   UNL     1      41.486  20.397  -2.725  1.00  0.00    -0.507 OA
ATOM     24  H   UNL     1      40.512  20.534  -2.484  1.00  0.00     0.293 HD
ENDBRANCH   5  23
BRANCH   7  25
ATOM     25  O   UNL     1      41.289  15.772  -1.330  1.00  0.00    -0.507 OA
ATOM     26  H   UNL     1      40.726  15.923  -0.500  1.00  0.00     0.293 HD
ENDBRANCH   7  25
TORSDOF 6
ENDMDL
MODEL 6
REMARK VINA RESULT:    -5.046      2.173      7.675
REMARK INTER + INTRA:          -6.188
REMARK INTER:                  -5.902
REMARK INTRA:                  -0.286
REMARK UNBOUND:                -0.109
REMARK SMILES Oc1cc(O)c2cc(O)c(-c3ccc(O)c(O)c3)[o+]c2c1
REMARK SMILES IDX 10 1 19 2 20 3 21 4 2 5 3 6 4 7 6 8 7 9 8 10 11 11 12 12
REMARK SMILES IDX 13 13 14 14 18 15 16 16 15 17 17 19 9 21 1 23 5 25
REMARK H PARENT 15 18 17 20 9 22 1 24 5 26
REMARK Flexibility Score: inf
ROOT
ATOM      1  C   UNL     1      43.929  16.853  -3.357  1.00  0.00     0.402 A 
ATOM      2  O   UNL     1      43.797  17.898  -2.543  1.00  0.00    -0.202 OA
ATOM      3  C   UNL     1      42.657  18.567  -2.396  1.00  0.00     0.368 A 
ATOM      4  C   UNL     1      42.601  19.658  -1.524  1.00  0.00     0.162 A 
ATOM      5  C   UNL     1      41.407  20.373  -1.365  1.00  0.00     0.128 A 
ATOM      6  C   UNL     1      40.266  19.994  -2.080  1.00  0.00     0.093 A 
ATOM      7  C   UNL     1      40.307  18.900  -2.958  1.00  0.00     0.136 A 
ATOM      8  C   UNL     1      41.507  18.182  -3.119  1.00  0.00     0.125 A 
ATOM      9  C   UNL     1      41.602  17.079  -3.974  1.00  0.00     0.078 A 
ATOM     10  C   UNL     1      42.817  16.395  -4.093  1.00  0.00     0.223 A 
ENDROOT
BRANCH   1  11
ATOM     11  C   UNL     1      45.254  16.194  -3.442  1.00  0.00     0.087 A 
ATOM     12  C   UNL     1      45.461  14.977  -2.778  1.00  0.00     0.022 A 
ATOM     13  C   UNL     1      46.707  14.349  -2.829  1.00  0.00     0.051 A 
ATOM     14  C   UNL     1      47.772  14.928  -3.529  1.00  0.00     0.157 A 
ATOM     15  C   UNL     1      46.325  16.790  -4.127  1.00  0.00     0.068 A 
ATOM     16  C   UNL     1      47.580  16.169  -4.181  1.00  0.00     0.158 A 
BRANCH  14  17
ATOM     17  O   UNL     1      48.989  14.245  -3.548  1.00  0.00    -0.504 OA
ATOM     18  H   UNL     1      49.885  14.683  -3.392  1.00  0.00     0.293 HD
ENDBRANCH  14  17
BRANCH  16  19
ATOM     19  O   UNL     1      48.599  16.816  -4.881  1.00  0.00    -0.504 OA
ATOM     20  H   UNL     1      49.352  17.326  -4.442  1.00  0.00     0.293 HD
ENDBRANCH  16  19
ENDBRANCH   1  11
BRANCH  10  21
ATOM     21  O   UNL     1      42.907  15.265  -4.904  1.00  0.00    -0.500 OA
ATOM     22  H   UNL     1      42.081  14.813  -5.280  1.00  0.00     0.294 HD
ENDBRANCH  10  21
BRANCH   5  23
ATOM     23  O   UNL     1      41.343  21.462  -0.498  1.00  0.00    -0.507 OA
ATOM     24  H   UNL     1      40.574  21.577   0.152  1.00  0.00     0.293 HD
ENDBRANCH   5  23
BRANCH   7  25
ATOM     25  O   UNL     1      39.161  18.532  -3.665  1.00  0.00    -0.507 OA
ATOM     26  H   UNL     1      38.253  18.928  -3.449  1.00  0.00     0.293 HD
ENDBRANCH   7  25
TORSDOF 6
ENDMDL
MODEL 7
REMARK VINA RESULT:    -4.902      1.408      6.960
REMARK INTER + INTRA:          -6.014
REMARK INTER:                  -6.167
REMARK INTRA:                   0.152
REMARK UNBOUND:                -0.109
REMARK SMILES Oc1cc(O)c2cc(O)c(-c3ccc(O)c(O)c3)[o+]c2c1
REMARK SMILES IDX 10 1 19 2 20 3 21 4 2 5 3 6 4 7 6 8 7 9 8 10 11 11 12 12
REMARK SMILES IDX 13 13 14 14 18 15 16 16 15 17 17 19 9 21 1 23 5 25
REMARK H PARENT 15 18 17 20 9 22 1 24 5 26
REMARK Flexibility Score: inf
ROOT
ATOM      1  C   UNL     1      48.187  15.246  -4.293  1.00  0.00     0.402 A 
ATOM      2  O   UNL     1      47.597  16.265  -4.915  1.00  0.00    -0.202 OA
ATOM      3  C   UNL     1      46.368  16.682  -4.622  1.00  0.00     0.368 A 
ATOM      4  C   UNL     1      45.816  17.757  -5.325  1.00  0.00     0.162 A 
ATOM      5  C   UNL     1      44.521  18.203  -5.029  1.00  0.00     0.128 A 
ATOM      6  C   UNL     1      43.779  17.571  -4.026  1.00  0.00     0.093 A 
ATOM      7  C   UNL     1      44.320  16.492  -3.312  1.00  0.00     0.136 A 
ATOM      8  C   UNL     1      45.621  16.043  -3.609  1.00  0.00     0.125 A 
ATOM      9  C   UNL     1      46.213  14.977  -2.923  1.00  0.00     0.078 A 
ATOM     10  C   UNL     1      47.511  14.574  -3.254  1.00  0.00     0.223 A 
ENDROOT
BRANCH   1  11
ATOM     11  C   UNL     1      49.556  14.868  -4.714  1.00  0.00     0.087 A 
ATOM     12  C   UNL     1      49.923  13.514  -4.729  1.00  0.00     0.022 A 
ATOM     13  C   UNL     1      51.214  13.137  -5.105  1.00  0.00     0.051 A 
ATOM     14  C   UNL     1      52.166  14.100  -5.457  1.00  0.00     0.157 A 
ATOM     15  C   UNL     1      50.516  15.839  -5.045  1.00  0.00     0.068 A 
ATOM     16  C   UNL     1      51.814  15.470  -5.420  1.00  0.00     0.158 A 
BRANCH  14  17
ATOM     17  O   UNL     1      53.437  13.656  -5.830  1.00  0.00    -0.504 OA
ATOM     18  H   UNL     1      54.194  14.268  -6.092  1.00  0.00     0.293 HD
ENDBRANCH  14  17
BRANCH  16  19
ATOM     19  O   UNL     1      52.716  16.487  -5.739  1.00  0.00    -0.504 OA
ATOM     20  H   UNL     1      52.855  17.315  -5.178  1.00  0.00     0.293 HD
ENDBRANCH  16  19
ENDBRANCH   1  11
BRANCH  10  21
ATOM     21  O   UNL     1      48.127  13.547  -2.542  1.00  0.00    -0.500 OA
ATOM     22  H   UNL     1      49.130  13.526  -2.397  1.00  0.00     0.294 HD
ENDBRANCH  10  21
BRANCH   5  23
ATOM     23  O   UNL     1      43.964  19.273  -5.725  1.00  0.00    -0.507 OA
ATOM     24  H   UNL     1      43.476  19.138  -6.603  1.00  0.00     0.293 HD
ENDBRANCH   5  23
BRANCH   7  25
ATOM     25  O   UNL     1      43.568  15.871  -2.313  1.00  0.00    -0.507 OA
ATOM     26  H   UNL     1      43.774  16.008  -1.330  1.00  0.00     0.293 HD
ENDBRANCH   7  25
TORSDOF 6
ENDMDL
MODEL 8
REMARK VINA RESULT:    -4.814      1.450      6.802
REMARK INTER + INTRA:          -5.908
REMARK INTER:                  -5.562
REMARK INTRA:                  -0.345
REMARK UNBOUND:                -0.109
REMARK SMILES Oc1cc(O)c2cc(O)c(-c3ccc(O)c(O)c3)[o+]c2c1
REMARK SMILES IDX 10 1 19 2 20 3 21 4 2 5 3 6 4 7 6 8 7 9 8 10 11 11 12 12
REMARK SMILES IDX 13 13 14 14 18 15 16 16 15 17 17 19 9 21 1 23 5 25
REMARK H PARENT 15 18 17 20 9 22 1 24 5 26
REMARK Flexibility Score: inf
ROOT
ATOM      1  C   UNL     1      46.478  15.359  -3.953  1.00  0.00     0.402 A 
ATOM      2  O   UNL     1      46.158  16.468  -4.618  1.00  0.00    -0.202 OA
ATOM      3  C   UNL     1      45.160  17.270  -4.257  1.00  0.00     0.368 A 
ATOM      4  C   UNL     1      44.885  18.414  -5.012  1.00  0.00     0.162 A 
ATOM      5  C   UNL     1      43.834  19.265  -4.645  1.00  0.00     0.128 A 
ATOM      6  C   UNL     1      43.058  18.969  -3.520  1.00  0.00     0.093 A 
ATOM      7  C   UNL     1      43.323  17.825  -2.752  1.00  0.00     0.136 A 
ATOM      8  C   UNL     1      44.379  16.970  -3.121  1.00  0.00     0.125 A 
ATOM      9  C   UNL     1      44.693  15.820  -2.388  1.00  0.00     0.078 A 
ATOM     10  C   UNL     1      45.756  15.007  -2.794  1.00  0.00     0.223 A 
ENDROOT
BRANCH   1  11
ATOM     11  C   UNL     1      47.605  14.541  -4.457  1.00  0.00     0.087 A 
ATOM     12  C   UNL     1      47.356  13.534  -5.401  1.00  0.00     0.022 A 
ATOM     13  C   UNL     1      48.401  12.739  -5.876  1.00  0.00     0.051 A 
ATOM     14  C   UNL     1      49.707  12.920  -5.409  1.00  0.00     0.157 A 
ATOM     15  C   UNL     1      48.911  14.712  -3.969  1.00  0.00     0.068 A 
ATOM     16  C   UNL     1      49.965  13.917  -4.437  1.00  0.00     0.158 A 
BRANCH  14  17
ATOM     17  O   UNL     1      50.708  12.097  -5.929  1.00  0.00    -0.504 OA
ATOM     18  H   UNL     1      51.591  11.925  -5.474  1.00  0.00     0.293 HD
ENDBRANCH  14  17
BRANCH  16  19
ATOM     19  O   UNL     1      51.237  14.143  -3.910  1.00  0.00    -0.504 OA
ATOM     20  H   UNL     1      52.096  13.957  -4.407  1.00  0.00     0.293 HD
ENDBRANCH  16  19
ENDBRANCH   1  11
BRANCH  10  21
ATOM     21  O   UNL     1      46.108  13.888  -2.040  1.00  0.00    -0.500 OA
ATOM     22  H   UNL     1      45.523  13.552  -1.283  1.00  0.00     0.294 HD
ENDBRANCH  10  21
BRANCH   5  23
ATOM     23  O   UNL     1      43.553  20.407  -5.392  1.00  0.00    -0.507 OA
ATOM     24  H   UNL     1      42.638  20.843  -5.369  1.00  0.00     0.293 HD
ENDBRANCH   5  23
BRANCH   7  25
ATOM     25  O   UNL     1      42.541  17.542  -1.631  1.00  0.00    -0.507 OA
ATOM     26  H   UNL     1      41.559  17.787  -1.593  1.00  0.00     0.293 HD
ENDBRANCH   7  25
TORSDOF 6
ENDMDL
MODEL 9
REMARK VINA RESULT:    -3.863      2.471      4.779
REMARK INTER + INTRA:          -4.762
REMARK INTER:                  -4.478
REMARK INTRA:                  -0.284
REMARK UNBOUND:                -0.109
REMARK SMILES Oc1cc(O)c2cc(O)c(-c3ccc(O)c(O)c3)[o+]c2c1
REMARK SMILES IDX 10 1 19 2 20 3 21 4 2 5 3 6 4 7 6 8 7 9 8 10 11 11 12 12
REMARK SMILES IDX 13 13 14 14 18 15 16 16 15 17 17 19 9 21 1 23 5 25
REMARK H PARENT 15 18 17 20 9 22 1 24 5 26
REMARK Flexibility Score: inf
ROOT
ATOM      1  C   UNL     1      43.466  18.345  -2.919  1.00  0.00     0.402 A 
ATOM      2  O   UNL     1      43.915  17.207  -2.392  1.00  0.00    -0.202 OA
ATOM      3  C   UNL     1      44.811  16.430  -2.995  1.00  0.00     0.368 A 
ATOM      4  C   UNL     1      45.228  15.247  -2.377  1.00  0.00     0.162 A 
ATOM      5  C   UNL     1      46.168  14.419  -3.003  1.00  0.00     0.128 A 
ATOM      6  C   UNL     1      46.692  14.776  -4.250  1.00  0.00     0.093 A 
ATOM      7  C   UNL     1      46.283  15.961  -4.881  1.00  0.00     0.136 A 
ATOM      8  C   UNL     1      45.338  16.793  -4.252  1.00  0.00     0.125 A 
ATOM      9  C   UNL     1      44.901  17.990  -4.832  1.00  0.00     0.078 A 
ATOM     10  C   UNL     1      43.964  18.784  -4.162  1.00  0.00     0.223 A 
ENDROOT
BRANCH   1  11
ATOM     11  C   UNL     1      42.459  19.120  -2.157  1.00  0.00     0.087 A 
ATOM     12  C   UNL     1      42.858  20.272  -1.465  1.00  0.00     0.022 A 
ATOM     13  C   UNL     1      41.930  21.008  -0.724  1.00  0.00     0.051 A 
ATOM     14  C   UNL     1      40.593  20.601  -0.648  1.00  0.00     0.157 A 
ATOM     15  C   UNL     1      41.124  18.696  -2.065  1.00  0.00     0.068 A 
ATOM     16  C   UNL     1      40.186  19.425  -1.322  1.00  0.00     0.158 A 
BRANCH  14  17
ATOM     17  O   UNL     1      39.714  21.384   0.103  1.00  0.00    -0.504 OA
ATOM     18  H   UNL     1      39.871  21.645   1.064  1.00  0.00     0.293 HD
ENDBRANCH  14  17
BRANCH  16  19
ATOM     19  O   UNL     1      38.875  18.947  -1.276  1.00  0.00    -0.504 OA
ATOM     20  H   UNL     1      38.294  18.971  -0.451  1.00  0.00     0.293 HD
ENDBRANCH  16  19
ENDBRANCH   1  11
BRANCH  10  21
ATOM     21  O   UNL     1      43.562  20.001  -4.709  1.00  0.00    -0.500 OA
ATOM     22  H   UNL     1      42.699  20.452  -4.428  1.00  0.00     0.294 HD
ENDBRANCH  10  21
BRANCH   5  23
ATOM     23  O   UNL     1      46.589  13.239  -2.394  1.00  0.00    -0.507 OA
ATOM     24  H   UNL     1      47.362  12.697  -2.765  1.00  0.00     0.293 HD
ENDBRANCH   5  23
BRANCH   7  25
ATOM     25  O   UNL     1      46.814  16.306  -6.125  1.00  0.00    -0.507 OA
ATOM     26  H   UNL     1      47.766  16.641  -6.222  1.00  0.00     0.293 HD
ENDBRANCH   7  25
TORSDOF 6
ENDMDL
