MODEL 1
REMARK VINA RESULT:    -7.701      0.000      0.000
REMARK INTER + INTRA:          -9.577
REMARK INTER:                  -9.277
REMARK INTRA:                  -0.300
REMARK UNBOUND:                -0.300
REMARK SMILES O=c1c(O)c(-c2ccc(O)c(O)c2)oc2cc(O)cc(O)c12
REMARK SMILES IDX 5 1 3 2 2 3 1 4 22 5 20 6 19 7 17 8 16 9 15 10 14 11 6 12
REMARK SMILES IDX 7 13 8 14 9 15 13 16 11 17 10 18 12 20 4 22 21 24 18 26
REMARK H PARENT 10 19 12 21 4 23 21 25 18 27
REMARK Flexibility Score: inf
ROOT
ATOM      1  C   UNL     1     -32.775  24.999   2.430  1.00  0.00     0.180 A 
ATOM      2  C   UNL     1     -32.277  25.511   3.641  1.00  0.00     0.208 A 
ATOM      3  C   UNL     1     -30.951  25.969   3.692  1.00  0.00     0.238 A 
ATOM      4  O   UNL     1     -30.529  26.475   4.764  1.00  0.00    -0.285 OA
ATOM      5  C   UNL     1     -30.135  25.894   2.539  1.00  0.00     0.111 A 
ATOM      6  C   UNL     1     -28.765  26.291   2.489  1.00  0.00     0.134 A 
ATOM      7  C   UNL     1     -28.091  26.296   1.260  1.00  0.00     0.093 A 
ATOM      8  C   UNL     1     -28.720  25.855   0.094  1.00  0.00     0.123 A 
ATOM      9  C   UNL     1     -30.038  25.409   0.143  1.00  0.00     0.094 A 
ATOM     10  C   UNL     1     -30.747  25.428   1.347  1.00  0.00     0.146 A 
ATOM     11  O   UNL     1     -32.006  25.003   1.348  1.00  0.00    -0.452 OA
ENDROOT
BRANCH   1  12
ATOM     12  C   UNL     1     -34.155  24.475   2.303  1.00  0.00     0.025 A 
ATOM     13  C   UNL     1     -35.249  25.335   2.112  1.00  0.00     0.016 A 
ATOM     14  C   UNL     1     -36.545  24.820   2.019  1.00  0.00     0.051 A 
ATOM     15  C   UNL     1     -36.767  23.440   2.130  1.00  0.00     0.157 A 
ATOM     16  C   UNL     1     -34.385  23.095   2.435  1.00  0.00     0.062 A 
ATOM     17  C   UNL     1     -35.681  22.575   2.342  1.00  0.00     0.158 A 
BRANCH  15  18
ATOM     18  O   UNL     1     -38.060  22.929   2.036  1.00  0.00    -0.504 OA
ATOM     19  H   UNL     1     -38.251  21.941   2.163  1.00  0.00     0.293 HD
ENDBRANCH  15  18
BRANCH  17  20
ATOM     20  O   UNL     1     -35.869  21.199   2.464  1.00  0.00    -0.504 OA
ATOM     21  H   UNL     1     -35.165  20.594   2.870  1.00  0.00     0.293 HD
ENDBRANCH  17  20
ENDBRANCH   1  12
BRANCH   2  22
ATOM     22  O   UNL     1     -33.108  25.595   4.762  1.00  0.00    -0.502 OA
ATOM     23  H   UNL     1     -33.241  24.818   5.399  1.00  0.00     0.293 HD
ENDBRANCH   2  22
BRANCH   6  24
ATOM     24  O   UNL     1     -28.017  26.661   3.611  1.00  0.00    -0.507 OA
ATOM     25  H   UNL     1     -27.029  26.859   3.603  1.00  0.00     0.293 HD
ENDBRANCH   6  24
BRANCH   8  26
ATOM     26  O   UNL     1     -28.037  25.848  -1.121  1.00  0.00    -0.508 OA
ATOM     27  H   UNL     1     -27.475  26.636  -1.418  1.00  0.00     0.293 HD
ENDBRANCH   8  26
TORSDOF 6
ENDMDL
MODEL 2
REMARK VINA RESULT:    -7.495      1.748      7.037
REMARK INTER + INTRA:          -9.329
REMARK INTER:                  -9.595
REMARK INTRA:                   0.266
REMARK UNBOUND:                -0.300
REMARK SMILES O=c1c(O)c(-c2ccc(O)c(O)c2)oc2cc(O)cc(O)c12
REMARK SMILES IDX 5 1 3 2 2 3 1 4 22 5 20 6 19 7 17 8 16 9 15 10 14 11 6 12
REMARK SMILES IDX 7 13 8 14 9 15 13 16 11 17 10 18 12 20 4 22 21 24 18 26
REMARK H PARENT 10 19 12 21 4 23 21 25 18 27
REMARK Flexibility Score: inf
ROOT
ATOM      1  C   UNL     1     -30.109  25.690   1.451  1.00  0.00     0.180 A 
ATOM      2  C   UNL     1     -30.297  25.850   2.835  1.00  0.00     0.208 A 
ATOM      3  C   UNL     1     -31.568  25.611   3.382  1.00  0.00     0.238 A 
ATOM      4  O   UNL     1     -31.716  25.703   4.628  1.00  0.00    -0.285 OA
ATOM      5  C   UNL     1     -32.638  25.231   2.537  1.00  0.00     0.111 A 
ATOM      6  C   UNL     1     -33.976  25.003   2.978  1.00  0.00     0.134 A 
ATOM      7  C   UNL     1     -34.925  24.504   2.077  1.00  0.00     0.093 A 
ATOM      8  C   UNL     1     -34.599  24.288   0.735  1.00  0.00     0.123 A 
ATOM      9  C   UNL     1     -33.312  24.564   0.282  1.00  0.00     0.094 A 
ATOM     10  C   UNL     1     -32.334  25.028   1.166  1.00  0.00     0.146 A 
ATOM     11  O   UNL     1     -31.116  25.269   0.695  1.00  0.00    -0.452 OA
ENDROOT
BRANCH   1  12
ATOM     12  C   UNL     1     -28.805  25.948   0.797  1.00  0.00     0.025 A 
ATOM     13  C   UNL     1     -28.365  25.171  -0.288  1.00  0.00     0.016 A 
ATOM     14  C   UNL     1     -27.121  25.417  -0.874  1.00  0.00     0.051 A 
ATOM     15  C   UNL     1     -26.293  26.432  -0.376  1.00  0.00     0.157 A 
ATOM     16  C   UNL     1     -27.963  26.950   1.306  1.00  0.00     0.062 A 
ATOM     17  C   UNL     1     -26.716  27.200   0.722  1.00  0.00     0.158 A 
BRANCH  15  18
ATOM     18  O   UNL     1     -25.053  26.677  -0.963  1.00  0.00    -0.504 OA
ATOM     19  H   UNL     1     -24.533  25.942  -1.431  1.00  0.00     0.293 HD
ENDBRANCH  15  18
BRANCH  17  20
ATOM     20  O   UNL     1     -25.913  28.212   1.246  1.00  0.00    -0.504 OA
ATOM     21  H   UNL     1     -24.918  28.089   1.391  1.00  0.00     0.293 HD
ENDBRANCH  17  20
ENDBRANCH   1  12
BRANCH   2  22
ATOM     22  O   UNL     1     -29.221  26.205   3.653  1.00  0.00    -0.502 OA
ATOM     23  H   UNL     1     -29.253  27.003   4.277  1.00  0.00     0.293 HD
ENDBRANCH   2  22
BRANCH   6  24
ATOM     24  O   UNL     1     -34.429  25.274   4.273  1.00  0.00    -0.507 OA
ATOM     25  H   UNL     1     -35.398  25.359   4.537  1.00  0.00     0.293 HD
ENDBRANCH   6  24
BRANCH   8  26
ATOM     26  O   UNL     1     -35.554  23.806  -0.158  1.00  0.00    -0.508 OA
ATOM     27  H   UNL     1     -36.104  22.981   0.047  1.00  0.00     0.293 HD
ENDBRANCH   8  26
TORSDOF 6
ENDMDL
MODEL 3
REMARK VINA RESULT:    -7.424      1.657      3.499
REMARK INTER + INTRA:          -9.244
REMARK INTER:                  -8.969
REMARK INTRA:                  -0.275
REMARK UNBOUND:                -0.300
REMARK SMILES O=c1c(O)c(-c2ccc(O)c(O)c2)oc2cc(O)cc(O)c12
REMARK SMILES IDX 5 1 3 2 2 3 1 4 22 5 20 6 19 7 17 8 16 9 15 10 14 11 6 12
REMARK SMILES IDX 7 13 8 14 9 15 13 16 11 17 10 18 12 20 4 22 21 24 18 26
REMARK H PARENT 10 19 12 21 4 23 21 25 18 27
REMARK Flexibility Score: inf
ROOT
ATOM      1  C   UNL     1     -32.212  23.793   0.894  1.00  0.00     0.180 A 
ATOM      2  C   UNL     1     -31.671  23.365  -0.332  1.00  0.00     0.208 A 
ATOM      3  C   UNL     1     -30.447  23.903  -0.760  1.00  0.00     0.238 A 
ATOM      4  O   UNL     1     -29.942  23.476  -1.830  1.00  0.00    -0.285 OA
ATOM      5  C   UNL     1     -29.788  24.872   0.033  1.00  0.00     0.111 A 
ATOM      6  C   UNL     1     -28.564  25.514  -0.324  1.00  0.00     0.134 A 
ATOM      7  C   UNL     1     -27.934  26.361   0.597  1.00  0.00     0.093 A 
ATOM      8  C   UNL     1     -28.519  26.640   1.835  1.00  0.00     0.123 A 
ATOM      9  C   UNL     1     -29.743  26.066   2.168  1.00  0.00     0.094 A 
ATOM     10  C   UNL     1     -30.376  25.188   1.285  1.00  0.00     0.146 A 
ATOM     11  O   UNL     1     -31.537  24.654   1.646  1.00  0.00    -0.452 OA
ENDROOT
BRANCH   1  12
ATOM     12  C   UNL     1     -33.510  23.290   1.400  1.00  0.00     0.025 A 
ATOM     13  C   UNL     1     -33.626  22.014   1.976  1.00  0.00     0.016 A 
ATOM     14  C   UNL     1     -34.865  21.551   2.426  1.00  0.00     0.051 A 
ATOM     15  C   UNL     1     -36.009  22.351   2.294  1.00  0.00     0.157 A 
ATOM     16  C   UNL     1     -34.663  24.079   1.251  1.00  0.00     0.062 A 
ATOM     17  C   UNL     1     -35.906  23.620   1.701  1.00  0.00     0.158 A 
BRANCH  15  18
ATOM     18  O   UNL     1     -37.244  21.888   2.745  1.00  0.00    -0.504 OA
ATOM     19  H   UNL     1     -38.025  21.757   2.111  1.00  0.00     0.293 HD
ENDBRANCH  15  18
BRANCH  17  20
ATOM     20  O   UNL     1     -37.025  24.437   1.548  1.00  0.00    -0.504 OA
ATOM     21  H   UNL     1     -37.718  24.272   0.827  1.00  0.00     0.293 HD
ENDBRANCH  17  20
ENDBRANCH   1  12
BRANCH   2  22
ATOM     22  O   UNL     1     -32.329  22.391  -1.088  1.00  0.00    -0.502 OA
ATOM     23  H   UNL     1     -31.854  21.572  -1.450  1.00  0.00     0.293 HD
ENDBRANCH   2  22
BRANCH   6  24
ATOM     24  O   UNL     1     -27.943  25.376  -1.569  1.00  0.00    -0.507 OA
ATOM     25  H   UNL     1     -27.911  26.093  -2.277  1.00  0.00     0.293 HD
ENDBRANCH   6  24
BRANCH   8  26
ATOM     26  O   UNL     1     -27.893  27.497   2.738  1.00  0.00    -0.508 OA
ATOM     27  H   UNL     1     -28.362  27.818   3.577  1.00  0.00     0.293 HD
ENDBRANCH   8  26
TORSDOF 6
ENDMDL
MODEL 4
REMARK VINA RESULT:    -7.260      1.840      7.258
REMARK INTER + INTRA:          -9.046
REMARK INTER:                  -9.093
REMARK INTRA:                   0.048
REMARK UNBOUND:                -0.300
REMARK SMILES O=c1c(O)c(-c2ccc(O)c(O)c2)oc2cc(O)cc(O)c12
REMARK SMILES IDX 5 1 3 2 2 3 1 4 22 5 20 6 19 7 17 8 16 9 15 10 14 11 6 12
REMARK SMILES IDX 7 13 8 14 9 15 13 16 11 17 10 18 12 20 4 22 21 24 18 26
REMARK H PARENT 10 19 12 21 4 23 21 25 18 27
REMARK Flexibility Score: inf
ROOT
ATOM      1  C   UNL     1     -30.910  24.739   1.023  1.00  0.00     0.180 A 
ATOM      2  C   UNL     1     -31.051  23.376   0.708  1.00  0.00     0.208 A 
ATOM      3  C   UNL     1     -32.297  22.758   0.900  1.00  0.00     0.238 A 
ATOM      4  O   UNL     1     -32.430  21.552   0.565  1.00  0.00    -0.285 OA
ATOM      5  C   UNL     1     -33.380  23.505   1.420  1.00  0.00     0.111 A 
ATOM      6  C   UNL     1     -34.675  22.969   1.694  1.00  0.00     0.134 A 
ATOM      7  C   UNL     1     -35.710  23.829   2.084  1.00  0.00     0.093 A 
ATOM      8  C   UNL     1     -35.478  25.194   2.274  1.00  0.00     0.123 A 
ATOM      9  C   UNL     1     -34.204  25.715   2.067  1.00  0.00     0.094 A 
ATOM     10  C   UNL     1     -33.161  24.888   1.642  1.00  0.00     0.146 A 
ATOM     11  O   UNL     1     -31.963  25.428   1.447  1.00  0.00    -0.452 OA
ENDROOT
BRANCH   1  12
ATOM     12  C   UNL     1     -29.622  25.454   0.871  1.00  0.00     0.025 A 
ATOM     13  C   UNL     1     -28.863  25.352  -0.307  1.00  0.00     0.016 A 
ATOM     14  C   UNL     1     -27.640  26.017  -0.419  1.00  0.00     0.051 A 
ATOM     15  C   UNL     1     -27.150  26.782   0.648  1.00  0.00     0.157 A 
ATOM     16  C   UNL     1     -29.117  26.205   1.946  1.00  0.00     0.062 A 
ATOM     17  C   UNL     1     -27.892  26.873   1.837  1.00  0.00     0.158 A 
BRANCH  15  18
ATOM     18  O   UNL     1     -25.930  27.445   0.533  1.00  0.00    -0.504 OA
ATOM     19  H   UNL     1     -25.080  26.953   0.279  1.00  0.00     0.293 HD
ENDBRANCH  15  18
BRANCH  17  20
ATOM     20  O   UNL     1     -27.430  27.620   2.920  1.00  0.00    -0.504 OA
ATOM     21  H   UNL     1     -26.545  28.113   2.895  1.00  0.00     0.293 HD
ENDBRANCH  17  20
ENDBRANCH   1  12
BRANCH   2  22
ATOM     22  O   UNL     1     -29.973  22.664   0.175  1.00  0.00    -0.502 OA
ATOM     23  H   UNL     1     -29.283  22.205   0.759  1.00  0.00     0.293 HD
ENDBRANCH   2  22
BRANCH   6  24
ATOM     24  O   UNL     1     -34.988  21.608   1.624  1.00  0.00    -0.507 OA
ATOM     25  H   UNL     1     -35.924  21.237   1.567  1.00  0.00     0.293 HD
ENDBRANCH   6  24
BRANCH   8  26
ATOM     26  O   UNL     1     -36.510  26.040   2.678  1.00  0.00    -0.508 OA
ATOM     27  H   UNL     1     -36.338  27.009   2.916  1.00  0.00     0.293 HD
ENDBRANCH   8  26
TORSDOF 6
ENDMDL
MODEL 5
REMARK VINA RESULT:    -7.222      1.631      6.958
REMARK INTER + INTRA:          -9.000
REMARK INTER:                  -8.978
REMARK INTRA:                  -0.022
REMARK UNBOUND:                -0.300
REMARK SMILES O=c1c(O)c(-c2ccc(O)c(O)c2)oc2cc(O)cc(O)c12
REMARK SMILES IDX 5 1 3 2 2 3 1 4 22 5 20 6 19 7 17 8 16 9 15 10 14 11 6 12
REMARK SMILES IDX 7 13 8 14 9 15 13 16 11 17 10 18 12 20 4 22 21 24 18 26
REMARK H PARENT 10 19 12 21 4 23 21 25 18 27
REMARK Flexibility Score: inf
ROOT
ATOM      1  C   UNL     1     -31.733  24.863   1.510  1.00  0.00     0.180 A 
ATOM      2  C   UNL     1     -32.776  25.773   1.760  1.00  0.00     0.208 A 
ATOM      3  C   UNL     1     -34.061  25.277   2.033  1.00  0.00     0.238 A 
ATOM      4  O   UNL     1     -34.977  26.095   2.309  1.00  0.00    -0.285 OA
ATOM      5  C   UNL     1     -34.291  23.881   2.035  1.00  0.00     0.111 A 
ATOM      6  C   UNL     1     -35.562  23.271   2.258  1.00  0.00     0.134 A 
ATOM      7  C   UNL     1     -35.649  21.877   2.368  1.00  0.00     0.093 A 
ATOM      8  C   UNL     1     -34.522  21.070   2.197  1.00  0.00     0.123 A 
ATOM      9  C   UNL     1     -33.288  21.653   1.920  1.00  0.00     0.094 A 
ATOM     10  C   UNL     1     -33.164  23.043   1.841  1.00  0.00     0.146 A 
ATOM     11  O   UNL     1     -31.967  23.559   1.585  1.00  0.00    -0.452 OA
ENDROOT
BRANCH   1  12
ATOM     12  C   UNL     1     -30.358  25.309   1.191  1.00  0.00     0.025 A 
ATOM     13  C   UNL     1     -29.687  24.848   0.045  1.00  0.00     0.016 A 
ATOM     14  C   UNL     1     -28.380  25.264  -0.223  1.00  0.00     0.051 A 
ATOM     15  C   UNL     1     -27.720  26.135   0.656  1.00  0.00     0.157 A 
ATOM     16  C   UNL     1     -29.685  26.165   2.079  1.00  0.00     0.062 A 
ATOM     17  C   UNL     1     -28.376  26.584   1.813  1.00  0.00     0.158 A 
BRANCH  15  18
ATOM     18  O   UNL     1     -26.417  26.549   0.384  1.00  0.00    -0.504 OA
ATOM     19  H   UNL     1     -25.614  26.005   0.681  1.00  0.00     0.293 HD
ENDBRANCH  15  18
BRANCH  17  20
ATOM     20  O   UNL     1     -27.746  27.445   2.711  1.00  0.00    -0.504 OA
ATOM     21  H   UNL     1     -26.825  27.828   2.532  1.00  0.00     0.293 HD
ENDBRANCH  17  20
ENDBRANCH   1  12
BRANCH   2  22
ATOM     22  O   UNL     1     -32.520  27.147   1.774  1.00  0.00    -0.502 OA
ATOM     23  H   UNL     1     -32.008  27.597   2.523  1.00  0.00     0.293 HD
ENDBRANCH   2  22
BRANCH   6  24
ATOM     24  O   UNL     1     -36.764  23.980   2.351  1.00  0.00    -0.507 OA
ATOM     25  H   UNL     1     -37.176  24.301   3.214  1.00  0.00     0.293 HD
ENDBRANCH   6  24
BRANCH   8  26
ATOM     26  O   UNL     1     -34.621  19.683   2.293  1.00  0.00    -0.508 OA
ATOM     27  H   UNL     1     -34.362  19.190   3.138  1.00  0.00     0.293 HD
ENDBRANCH   8  26
TORSDOF 6
ENDMDL
MODEL 6
REMARK VINA RESULT:    -7.144      2.226      3.923
REMARK INTER + INTRA:          -8.907
REMARK INTER:                  -8.739
REMARK INTRA:                  -0.167
REMARK UNBOUND:                -0.300
REMARK SMILES O=c1c(O)c(-c2ccc(O)c(O)c2)oc2cc(O)cc(O)c12
REMARK SMILES IDX 5 1 3 2 2 3 1 4 22 5 20 6 19 7 17 8 16 9 15 10 14 11 6 12
REMARK SMILES IDX 7 13 8 14 9 15 13 16 11 17 10 18 12 20 4 22 21 24 18 26
REMARK H PARENT 10 19 12 21 4 23 21 25 18 27
REMARK Flexibility Score: inf
ROOT
ATOM      1  C   UNL     1     -30.473  24.985   0.734  1.00  0.00     0.180 A 
ATOM      2  C   UNL     1     -30.040  24.090  -0.260  1.00  0.00     0.208 A 
ATOM      3  C   UNL     1     -28.751  24.240  -0.796  1.00  0.00     0.238 A 
ATOM      4  O   UNL     1     -28.349  23.403  -1.645  1.00  0.00    -0.285 OA
ATOM      5  C   UNL     1     -27.919  25.292  -0.346  1.00  0.00     0.111 A 
ATOM      6  C   UNL     1     -26.611  25.562  -0.850  1.00  0.00     0.134 A 
ATOM      7  C   UNL     1     -25.825  26.549  -0.239  1.00  0.00     0.093 A 
ATOM      8  C   UNL     1     -26.327  27.318   0.814  1.00  0.00     0.123 A 
ATOM      9  C   UNL     1     -27.624  27.102   1.273  1.00  0.00     0.094 A 
ATOM     10  C   UNL     1     -28.417  26.101   0.708  1.00  0.00     0.146 A 
ATOM     11  O   UNL     1     -29.644  25.921   1.182  1.00  0.00    -0.452 OA
ENDROOT
BRANCH   1  12
ATOM     12  C   UNL     1     -31.826  24.907   1.330  1.00  0.00     0.025 A 
ATOM     13  C   UNL     1     -32.762  25.941   1.159  1.00  0.00     0.016 A 
ATOM     14  C   UNL     1     -34.025  25.856   1.751  1.00  0.00     0.051 A 
ATOM     15  C   UNL     1     -34.366  24.744   2.533  1.00  0.00     0.157 A 
ATOM     16  C   UNL     1     -32.166  23.804   2.132  1.00  0.00     0.062 A 
ATOM     17  C   UNL     1     -33.430  23.715   2.726  1.00  0.00     0.158 A 
BRANCH  15  18
ATOM     18  O   UNL     1     -35.627  24.661   3.120  1.00  0.00    -0.504 OA
ATOM     19  H   UNL     1     -36.239  25.468   3.180  1.00  0.00     0.293 HD
ENDBRANCH  15  18
BRANCH  17  20
ATOM     20  O   UNL     1     -33.735  22.599   3.503  1.00  0.00    -0.504 OA
ATOM     21  H   UNL     1     -33.918  21.691   3.093  1.00  0.00     0.293 HD
ENDBRANCH  17  20
ENDBRANCH   1  12
BRANCH   2  22
ATOM     22  O   UNL     1     -30.871  23.045  -0.674  1.00  0.00    -0.502 OA
ATOM     23  H   UNL     1     -30.552  22.085  -0.723  1.00  0.00     0.293 HD
ENDBRANCH   2  22
BRANCH   6  24
ATOM     24  O   UNL     1     -26.050  24.915  -1.955  1.00  0.00    -0.507 OA
ATOM     25  H   UNL     1     -25.263  25.258  -2.483  1.00  0.00     0.293 HD
ENDBRANCH   6  24
BRANCH   8  26
ATOM     26  O   UNL     1     -25.544  28.308   1.405  1.00  0.00    -0.508 OA
ATOM     27  H   UNL     1     -24.772  28.740   0.911  1.00  0.00     0.293 HD
ENDBRANCH   8  26
TORSDOF 6
ENDMDL
MODEL 7
REMARK VINA RESULT:    -7.108      1.883      6.775
REMARK INTER + INTRA:          -8.863
REMARK INTER:                  -8.831
REMARK INTRA:                  -0.032
REMARK UNBOUND:                -0.300
REMARK SMILES O=c1c(O)c(-c2ccc(O)c(O)c2)oc2cc(O)cc(O)c12
REMARK SMILES IDX 5 1 3 2 2 3 1 4 22 5 20 6 19 7 17 8 16 9 15 10 14 11 6 12
REMARK SMILES IDX 7 13 8 14 9 15 13 16 11 17 10 18 12 20 4 22 21 24 18 26
REMARK H PARENT 10 19 12 21 4 23 21 25 18 27
REMARK Flexibility Score: inf
ROOT
ATOM      1  C   UNL     1     -30.712  25.733   2.081  1.00  0.00     0.180 A 
ATOM      2  C   UNL     1     -31.594  25.999   3.142  1.00  0.00     0.208 A 
ATOM      3  C   UNL     1     -32.894  25.470   3.096  1.00  0.00     0.238 A 
ATOM      4  O   UNL     1     -33.661  25.667   4.074  1.00  0.00    -0.285 OA
ATOM      5  C   UNL     1     -33.301  24.697   1.982  1.00  0.00     0.111 A 
ATOM      6  C   UNL     1     -34.607  24.148   1.812  1.00  0.00     0.134 A 
ATOM      7  C   UNL     1     -34.859  23.289   0.734  1.00  0.00     0.093 A 
ATOM      8  C   UNL     1     -33.871  23.015  -0.215  1.00  0.00     0.123 A 
ATOM      9  C   UNL     1     -32.611  23.595  -0.089  1.00  0.00     0.094 A 
ATOM     10  C   UNL     1     -32.319  24.425   0.995  1.00  0.00     0.146 A 
ATOM     11  O   UNL     1     -31.102  24.950   1.082  1.00  0.00    -0.452 OA
ENDROOT
BRANCH   1  12
ATOM     12  C   UNL     1     -29.334  26.275   2.046  1.00  0.00     0.025 A 
ATOM     13  C   UNL     1     -28.866  27.012   0.945  1.00  0.00     0.016 A 
ATOM     14  C   UNL     1     -27.555  27.494   0.924  1.00  0.00     0.051 A 
ATOM     15  C   UNL     1     -26.688  27.235   1.995  1.00  0.00     0.157 A 
ATOM     16  C   UNL     1     -28.456  26.000   3.107  1.00  0.00     0.062 A 
ATOM     17  C   UNL     1     -27.142  26.482   3.090  1.00  0.00     0.158 A 
BRANCH  15  18
ATOM     18  O   UNL     1     -25.381  27.718   1.972  1.00  0.00    -0.504 OA
ATOM     19  H   UNL     1     -25.155  28.617   1.559  1.00  0.00     0.293 HD
ENDBRANCH  15  18
BRANCH  17  20
ATOM     20  O   UNL     1     -26.303  26.201   4.168  1.00  0.00    -0.504 OA
ATOM     21  H   UNL     1     -26.079  25.251   4.442  1.00  0.00     0.293 HD
ENDBRANCH  17  20
ENDBRANCH   1  12
BRANCH   2  22
ATOM     22  O   UNL     1     -31.164  26.747   4.242  1.00  0.00    -0.502 OA
ATOM     23  H   UNL     1     -31.521  26.592   5.177  1.00  0.00     0.293 HD
ENDBRANCH   2  22
BRANCH   6  24
ATOM     24  O   UNL     1     -35.689  24.431   2.650  1.00  0.00    -0.507 OA
ATOM     25  H   UNL     1     -35.665  25.083   3.419  1.00  0.00     0.293 HD
ENDBRANCH   6  24
BRANCH   8  26
ATOM     26  O   UNL     1     -34.136  22.173  -1.293  1.00  0.00    -0.508 OA
ATOM     27  H   UNL     1     -33.407  21.620  -1.727  1.00  0.00     0.293 HD
ENDBRANCH   8  26
TORSDOF 6
ENDMDL
MODEL 8
REMARK VINA RESULT:    -6.917      2.001      3.027
REMARK INTER + INTRA:          -8.633
REMARK INTER:                  -8.347
REMARK INTRA:                  -0.286
REMARK UNBOUND:                -0.300
REMARK SMILES O=c1c(O)c(-c2ccc(O)c(O)c2)oc2cc(O)cc(O)c12
REMARK SMILES IDX 5 1 3 2 2 3 1 4 22 5 20 6 19 7 17 8 16 9 15 10 14 11 6 12
REMARK SMILES IDX 7 13 8 14 9 15 13 16 11 17 10 18 12 20 4 22 21 24 18 26
REMARK H PARENT 10 19 12 21 4 23 21 25 18 27
REMARK Flexibility Score: inf
ROOT
ATOM      1  C   UNL     1     -29.959  25.584   1.503  1.00  0.00     0.180 A 
ATOM      2  C   UNL     1     -29.402  25.989   2.728  1.00  0.00     0.208 A 
ATOM      3  C   UNL     1     -28.050  26.367   2.769  1.00  0.00     0.238 A 
ATOM      4  O   UNL     1     -27.572  26.780   3.858  1.00  0.00    -0.285 OA
ATOM      5  C   UNL     1     -27.270  26.320   1.590  1.00  0.00     0.111 A 
ATOM      6  C   UNL     1     -25.880  26.641   1.526  1.00  0.00     0.134 A 
ATOM      7  C   UNL     1     -25.239  26.686   0.281  1.00  0.00     0.093 A 
ATOM      8  C   UNL     1     -25.922  26.356  -0.893  1.00  0.00     0.123 A 
ATOM      9  C   UNL     1     -27.262  25.983  -0.833  1.00  0.00     0.094 A 
ATOM     10  C   UNL     1     -27.938  25.965   0.390  1.00  0.00     0.146 A 
ATOM     11  O   UNL     1     -29.218  25.613   0.401  1.00  0.00    -0.452 OA
ENDROOT
BRANCH   1  12
ATOM     12  C   UNL     1     -31.370  25.147   1.384  1.00  0.00     0.025 A 
ATOM     13  C   UNL     1     -32.422  26.078   1.343  1.00  0.00     0.016 A 
ATOM     14  C   UNL     1     -33.747  25.642   1.255  1.00  0.00     0.051 A 
ATOM     15  C   UNL     1     -34.040  24.272   1.221  1.00  0.00     0.157 A 
ATOM     16  C   UNL     1     -31.670  23.775   1.371  1.00  0.00     0.062 A 
ATOM     17  C   UNL     1     -32.996  23.335   1.283  1.00  0.00     0.158 A 
BRANCH  15  18
ATOM     18  O   UNL     1     -35.362  23.840   1.131  1.00  0.00    -0.504 OA
ATOM     19  H   UNL     1     -36.139  24.464   1.324  1.00  0.00     0.293 HD
ENDBRANCH  15  18
BRANCH  17  20
ATOM     20  O   UNL     1     -33.254  21.965   1.258  1.00  0.00    -0.504 OA
ATOM     21  H   UNL     1     -32.967  21.350   2.011  1.00  0.00     0.293 HD
ENDBRANCH  17  20
ENDBRANCH   1  12
BRANCH   2  22
ATOM     22  O   UNL     1     -30.198  26.049   3.876  1.00  0.00    -0.502 OA
ATOM     23  H   UNL     1     -29.850  25.790   4.792  1.00  0.00     0.293 HD
ENDBRANCH   2  22
BRANCH   6  24
ATOM     24  O   UNL     1     -25.084  26.896   2.646  1.00  0.00    -0.507 OA
ATOM     25  H   UNL     1     -24.358  27.594   2.688  1.00  0.00     0.293 HD
ENDBRANCH   6  24
BRANCH   8  26
ATOM     26  O   UNL     1     -25.271  26.387  -2.125  1.00  0.00    -0.508 OA
ATOM     27  H   UNL     1     -25.777  26.547  -2.988  1.00  0.00     0.293 HD
ENDBRANCH   8  26
TORSDOF 6
ENDMDL
MODEL 9
REMARK VINA RESULT:    -6.874      2.435      7.132
REMARK INTER + INTRA:          -8.580
REMARK INTER:                  -8.852
REMARK INTRA:                   0.271
REMARK UNBOUND:                -0.300
REMARK SMILES O=c1c(O)c(-c2ccc(O)c(O)c2)oc2cc(O)cc(O)c12
REMARK SMILES IDX 5 1 3 2 2 3 1 4 22 5 20 6 19 7 17 8 16 9 15 10 14 11 6 12
REMARK SMILES IDX 7 13 8 14 9 15 13 16 11 17 10 18 12 20 4 22 21 24 18 26
REMARK H PARENT 10 19 12 21 4 23 21 25 18 27
REMARK Flexibility Score: inf
ROOT
ATOM      1  C   UNL     1     -30.023  25.470   1.116  1.00  0.00     0.180 A 
ATOM      2  C   UNL     1     -31.111  26.024   1.814  1.00  0.00     0.208 A 
ATOM      3  C   UNL     1     -32.377  25.430   1.682  1.00  0.00     0.238 A 
ATOM      4  O   UNL     1     -33.335  25.898   2.351  1.00  0.00    -0.285 OA
ATOM      5  C   UNL     1     -32.543  24.303   0.843  1.00  0.00     0.111 A 
ATOM      6  C   UNL     1     -33.788  23.648   0.604  1.00  0.00     0.134 A 
ATOM      7  C   UNL     1     -33.812  22.462  -0.142  1.00  0.00     0.093 A 
ATOM      8  C   UNL     1     -32.646  21.946  -0.712  1.00  0.00     0.123 A 
ATOM      9  C   UNL     1     -31.435  22.611  -0.533  1.00  0.00     0.094 A 
ATOM     10  C   UNL     1     -31.374  23.776   0.236  1.00  0.00     0.146 A 
ATOM     11  O   UNL     1     -30.198  24.373   0.389  1.00  0.00    -0.452 OA
ENDROOT
BRANCH   1  12
ATOM     12  C   UNL     1     -28.664  26.054   1.185  1.00  0.00     0.025 A 
ATOM     13  C   UNL     1     -28.210  26.717   2.338  1.00  0.00     0.016 A 
ATOM     14  C   UNL     1     -26.932  27.280   2.372  1.00  0.00     0.051 A 
ATOM     15  C   UNL     1     -26.094  27.202   1.250  1.00  0.00     0.157 A 
ATOM     16  C   UNL     1     -27.829  25.996   0.057  1.00  0.00     0.062 A 
ATOM     17  C   UNL     1     -26.547  26.559   0.087  1.00  0.00     0.158 A 
BRANCH  15  18
ATOM     18  O   UNL     1     -24.819  27.764   1.287  1.00  0.00    -0.504 OA
ATOM     19  H   UNL     1     -24.262  27.872   0.447  1.00  0.00     0.293 HD
ENDBRANCH  15  18
BRANCH  17  20
ATOM     20  O   UNL     1     -25.742  26.470  -1.048  1.00  0.00    -0.504 OA
ATOM     21  H   UNL     1     -25.642  27.240  -1.698  1.00  0.00     0.293 HD
ENDBRANCH  17  20
ENDBRANCH   1  12
BRANCH   2  22
ATOM     22  O   UNL     1     -30.920  27.124   2.654  1.00  0.00    -0.502 OA
ATOM     23  H   UNL     1     -31.009  27.060   3.661  1.00  0.00     0.293 HD
ENDBRANCH   2  22
BRANCH   6  24
ATOM     24  O   UNL     1     -35.023  24.130   1.049  1.00  0.00    -0.507 OA
ATOM     25  H   UNL     1     -35.435  23.913   1.943  1.00  0.00     0.293 HD
ENDBRANCH   6  24
BRANCH   8  26
ATOM     26  O   UNL     1     -32.682  20.775  -1.465  1.00  0.00    -0.508 OA
ATOM     27  H   UNL     1     -32.253  19.918  -1.136  1.00  0.00     0.293 HD
ENDBRANCH   8  26
TORSDOF 6
ENDMDL
