MODEL 1
REMARK VINA RESULT:    -6.305      0.000      0.000
REMARK INTER + INTRA:          -6.674
REMARK INTER:                  -6.674
REMARK INTRA:                   0.000
REMARK UNBOUND:                 0.000
REMARK SMILES O=c1ccc2cc(O)c(O)cc2o1
REMARK SMILES IDX 4 1 3 2 2 3 1 4 13 5 12 6 11 7 9 8 7 9 6 10 5 11 8 12 10 14
REMARK H PARENT 8 13 10 15
REMARK Flexibility Score: inf
ROOT
ATOM      1  C   UNL     1       0.080  -1.717  24.779  1.00  0.00     0.019 A 
ATOM      2  C   UNL     1      -1.225  -2.125  24.508  1.00  0.00     0.094 A 
ATOM      3  C   UNL     1      -2.066  -1.272  23.786  1.00  0.00     0.336 A 
ATOM      4  O   UNL     1      -3.248  -1.622  23.530  1.00  0.00    -0.246 OA
ATOM      5  O   UNL     1      -1.626  -0.089  23.365  1.00  0.00    -0.423 OA
ATOM      6  C   UNL     1      -0.386   0.339  23.603  1.00  0.00     0.142 A 
ATOM      7  C   UNL     1       0.021   1.592  23.136  1.00  0.00     0.098 A 
ATOM      8  C   UNL     1       1.321   2.050  23.382  1.00  0.00     0.161 A 
ATOM      9  C   UNL     1       2.225   1.246  24.102  1.00  0.00     0.158 A 
ATOM     10  C   UNL     1       1.819  -0.012  24.572  1.00  0.00     0.062 A 
ATOM     11  C   UNL     1       0.517  -0.468  24.325  1.00  0.00     0.022 A 
ENDROOT
BRANCH   9  12
ATOM     12  O   UNL     1       3.519   1.700  24.347  1.00  0.00    -0.504 OA
ATOM     13  H   UNL     1       3.939   1.637  25.267  1.00  0.00     0.293 HD
ENDBRANCH   9  12
BRANCH   8  14
ATOM     14  O   UNL     1       1.698   3.304  22.903  1.00  0.00    -0.504 OA
ATOM     15  H   UNL     1       2.608   3.472  22.492  1.00  0.00     0.293 HD
ENDBRANCH   8  14
TORSDOF 2
ENDMDL
MODEL 2
REMARK VINA RESULT:    -5.730     12.127     14.144
REMARK INTER + INTRA:          -6.065
REMARK INTER:                  -6.065
REMARK INTRA:                   0.000
REMARK UNBOUND:                 0.000
REMARK SMILES O=c1ccc2cc(O)c(O)cc2o1
REMARK SMILES IDX 4 1 3 2 2 3 1 4 13 5 12 6 11 7 9 8 7 9 6 10 5 11 8 12 10 14
REMARK H PARENT 8 13 10 15
REMARK Flexibility Score: inf
ROOT
ATOM      1  C   UNL     1     -12.031   5.159  20.698  1.00  0.00     0.019 A 
ATOM      2  C   UNL     1     -11.068   4.610  21.543  1.00  0.00     0.094 A 
ATOM      3  C   UNL     1     -10.228   3.605  21.053  1.00  0.00     0.336 A 
ATOM      4  O   UNL     1      -9.351   3.098  21.800  1.00  0.00    -0.246 OA
ATOM      5  O   UNL     1     -10.348   3.180  19.798  1.00  0.00    -0.423 OA
ATOM      6  C   UNL     1     -11.254   3.677  18.957  1.00  0.00     0.142 A 
ATOM      7  C   UNL     1     -11.335   3.190  17.649  1.00  0.00     0.098 A 
ATOM      8  C   UNL     1     -12.285   3.706  16.760  1.00  0.00     0.161 A 
ATOM      9  C   UNL     1     -13.165   4.720  17.182  1.00  0.00     0.158 A 
ATOM     10  C   UNL     1     -13.088   5.211  18.494  1.00  0.00     0.062 A 
ATOM     11  C   UNL     1     -12.136   4.692  19.383  1.00  0.00     0.022 A 
ENDROOT
BRANCH   9  12
ATOM     12  O   UNL     1     -14.111   5.235  16.298  1.00  0.00    -0.504 OA
ATOM     13  H   UNL     1     -14.954   5.691  16.628  1.00  0.00     0.293 HD
ENDBRANCH   9  12
BRANCH   8  14
ATOM     14  O   UNL     1     -12.339   3.201  15.462  1.00  0.00    -0.504 OA
ATOM     15  H   UNL     1     -11.531   3.196  14.852  1.00  0.00     0.293 HD
ENDBRANCH   8  14
TORSDOF 2
ENDMDL
MODEL 3
REMARK VINA RESULT:    -5.251     10.145     10.853
REMARK INTER + INTRA:          -5.558
REMARK INTER:                  -5.558
REMARK INTRA:                   0.000
REMARK UNBOUND:                 0.000
REMARK SMILES O=c1ccc2cc(O)c(O)cc2o1
REMARK SMILES IDX 4 1 3 2 2 3 1 4 13 5 12 6 11 7 9 8 7 9 6 10 5 11 8 12 10 14
REMARK H PARENT 8 13 10 15
REMARK Flexibility Score: inf
ROOT
ATOM      1  C   UNL     1      -3.252   1.598  14.627  1.00  0.00     0.019 A 
ATOM      2  C   UNL     1      -2.024   1.803  14.000  1.00  0.00     0.094 A 
ATOM      3  C   UNL     1      -1.503   3.100  13.935  1.00  0.00     0.336 A 
ATOM      4  O   UNL     1      -0.395   3.306  13.375  1.00  0.00    -0.246 OA
ATOM      5  O   UNL     1      -2.172   4.122  14.464  1.00  0.00    -0.423 OA
ATOM      6  C   UNL     1      -3.348   3.969  15.071  1.00  0.00     0.142 A 
ATOM      7  C   UNL     1      -4.006   5.080  15.608  1.00  0.00     0.098 A 
ATOM      8  C   UNL     1      -5.243   4.929  16.247  1.00  0.00     0.161 A 
ATOM      9  C   UNL     1      -5.829   3.653  16.351  1.00  0.00     0.158 A 
ATOM     10  C   UNL     1      -5.172   2.537  15.813  1.00  0.00     0.062 A 
ATOM     11  C   UNL     1      -3.935   2.690  15.173  1.00  0.00     0.022 A 
ENDROOT
BRANCH   9  12
ATOM     12  O   UNL     1      -7.060   3.502  16.986  1.00  0.00    -0.504 OA
ATOM     13  H   UNL     1      -7.713   2.777  16.713  1.00  0.00     0.293 HD
ENDBRANCH   9  12
BRANCH   8  14
ATOM     14  O   UNL     1      -5.874   6.056  16.773  1.00  0.00    -0.504 OA
ATOM     15  H   UNL     1      -6.780   6.367  16.445  1.00  0.00     0.293 HD
ENDBRANCH   8  14
TORSDOF 2
ENDMDL
MODEL 4
REMARK VINA RESULT:    -5.198     12.958     14.384
REMARK INTER + INTRA:          -5.502
REMARK INTER:                  -5.502
REMARK INTRA:                   0.000
REMARK UNBOUND:                 0.000
REMARK SMILES O=c1ccc2cc(O)c(O)cc2o1
REMARK SMILES IDX 4 1 3 2 2 3 1 4 13 5 12 6 11 7 9 8 7 9 6 10 5 11 8 12 10 14
REMARK H PARENT 8 13 10 15
REMARK Flexibility Score: inf
ROOT
ATOM      1  C   UNL     1     -11.082   4.274  20.880  1.00  0.00     0.019 A 
ATOM      2  C   UNL     1     -11.789   5.013  21.827  1.00  0.00     0.094 A 
ATOM      3  C   UNL     1     -12.946   5.693  21.432  1.00  0.00     0.336 A 
ATOM      4  O   UNL     1     -13.598   6.365  22.272  1.00  0.00    -0.246 OA
ATOM      5  O   UNL     1     -13.364   5.633  20.170  1.00  0.00    -0.423 OA
ATOM      6  C   UNL     1     -12.719   4.938  19.234  1.00  0.00     0.142 A 
ATOM      7  C   UNL     1     -13.205   4.912  17.923  1.00  0.00     0.098 A 
ATOM      8  C   UNL     1     -12.533   4.185  16.934  1.00  0.00     0.161 A 
ATOM      9  C   UNL     1     -11.361   3.476  17.257  1.00  0.00     0.158 A 
ATOM     10  C   UNL     1     -10.869   3.500  18.571  1.00  0.00     0.062 A 
ATOM     11  C   UNL     1     -11.544   4.228  19.560  1.00  0.00     0.022 A 
ENDROOT
BRANCH   9  12
ATOM     12  O   UNL     1     -10.690   2.751  16.273  1.00  0.00    -0.504 OA
ATOM     13  H   UNL     1     -11.171   2.401  15.452  1.00  0.00     0.293 HD
ENDBRANCH   9  12
BRANCH   8  14
ATOM     14  O   UNL     1     -13.043   4.178  15.637  1.00  0.00    -0.504 OA
ATOM     15  H   UNL     1     -14.024   4.337  15.443  1.00  0.00     0.293 HD
ENDBRANCH   8  14
TORSDOF 2
ENDMDL
MODEL 5
REMARK VINA RESULT:    -5.134     16.202     16.713
REMARK INTER + INTRA:          -5.434
REMARK INTER:                  -5.434
REMARK INTRA:                   0.000
REMARK UNBOUND:                 0.000
REMARK SMILES O=c1ccc2cc(O)c(O)cc2o1
REMARK SMILES IDX 4 1 3 2 2 3 1 4 13 5 12 6 11 7 9 8 7 9 6 10 5 11 8 12 10 14
REMARK H PARENT 8 13 10 15
REMARK Flexibility Score: inf
ROOT
ATOM      1  C   UNL     1      -3.487   5.336   9.221  1.00  0.00     0.019 A 
ATOM      2  C   UNL     1      -3.257   6.652   9.621  1.00  0.00     0.094 A 
ATOM      3  C   UNL     1      -1.990   7.209   9.421  1.00  0.00     0.336 A 
ATOM      4  O   UNL     1      -1.761   8.396   9.774  1.00  0.00    -0.246 OA
ATOM      5  O   UNL     1      -1.020   6.493   8.857  1.00  0.00    -0.423 OA
ATOM      6  C   UNL     1      -1.198   5.233   8.461  1.00  0.00     0.142 A 
ATOM      7  C   UNL     1      -0.142   4.529   7.875  1.00  0.00     0.098 A 
ATOM      8  C   UNL     1      -0.320   3.205   7.457  1.00  0.00     0.161 A 
ATOM      9  C   UNL     1      -1.569   2.577   7.626  1.00  0.00     0.158 A 
ATOM     10  C   UNL     1      -2.631   3.280   8.214  1.00  0.00     0.062 A 
ATOM     11  C   UNL     1      -2.450   4.606   8.632  1.00  0.00     0.022 A 
ENDROOT
BRANCH   9  12
ATOM     12  O   UNL     1      -1.748   1.259   7.210  1.00  0.00    -0.504 OA
ATOM     13  H   UNL     1      -1.130   0.517   7.517  1.00  0.00     0.293 HD
ENDBRANCH   9  12
BRANCH   8  14
ATOM     14  O   UNL     1       0.752   2.530   6.876  1.00  0.00    -0.504 OA
ATOM     15  H   UNL     1       1.607   3.004   6.611  1.00  0.00     0.293 HD
ENDBRANCH   8  14
TORSDOF 2
ENDMDL
MODEL 6
REMARK VINA RESULT:    -4.959     10.334     11.265
REMARK INTER + INTRA:          -5.249
REMARK INTER:                  -5.249
REMARK INTRA:                   0.000
REMARK UNBOUND:                 0.000
REMARK SMILES O=c1ccc2cc(O)c(O)cc2o1
REMARK SMILES IDX 4 1 3 2 2 3 1 4 13 5 12 6 11 7 9 8 7 9 6 10 5 11 8 12 10 14
REMARK H PARENT 8 13 10 15
REMARK Flexibility Score: inf
ROOT
ATOM      1  C   UNL     1      -1.136   5.046  14.329  1.00  0.00     0.019 A 
ATOM      2  C   UNL     1      -1.112   6.375  14.750  1.00  0.00     0.094 A 
ATOM      3  C   UNL     1      -2.216   6.890  15.437  1.00  0.00     0.336 A 
ATOM      4  O   UNL     1      -2.214   8.087  15.826  1.00  0.00    -0.246 OA
ATOM      5  O   UNL     1      -3.274   6.121  15.684  1.00  0.00    -0.423 OA
ATOM      6  C   UNL     1      -3.338   4.847  15.300  1.00  0.00     0.142 A 
ATOM      7  C   UNL     1      -4.475   4.086  15.588  1.00  0.00     0.098 A 
ATOM      8  C   UNL     1      -4.552   2.747  15.187  1.00  0.00     0.161 A 
ATOM      9  C   UNL     1      -3.478   2.160  14.491  1.00  0.00     0.158 A 
ATOM     10  C   UNL     1      -2.335   2.920  14.200  1.00  0.00     0.062 A 
ATOM     11  C   UNL     1      -2.261   4.260  14.602  1.00  0.00     0.022 A 
ENDROOT
BRANCH   9  12
ATOM     12  O   UNL     1      -3.552   0.827  14.092  1.00  0.00    -0.504 OA
ATOM     13  H   UNL     1      -3.910   0.565  13.181  1.00  0.00     0.293 HD
ENDBRANCH   9  12
BRANCH   8  14
ATOM     14  O   UNL     1      -5.699   2.016  15.489  1.00  0.00    -0.504 OA
ATOM     15  H   UNL     1      -6.132   2.047  16.405  1.00  0.00     0.293 HD
ENDBRANCH   8  14
TORSDOF 2
ENDMDL
MODEL 7
REMARK VINA RESULT:    -4.941     10.171     10.521
REMARK INTER + INTRA:          -5.230
REMARK INTER:                  -5.230
REMARK INTRA:                   0.000
REMARK UNBOUND:                 0.000
REMARK SMILES O=c1ccc2cc(O)c(O)cc2o1
REMARK SMILES IDX 4 1 3 2 2 3 1 4 13 5 12 6 11 7 9 8 7 9 6 10 5 11 8 12 10 14
REMARK H PARENT 8 13 10 15
REMARK Flexibility Score: inf
ROOT
ATOM      1  C   UNL     1      -5.409   2.744  16.209  1.00  0.00     0.019 A 
ATOM      2  C   UNL     1      -5.844   4.001  16.626  1.00  0.00     0.094 A 
ATOM      3  C   UNL     1      -5.095   5.129  16.279  1.00  0.00     0.336 A 
ATOM      4  O   UNL     1      -5.472   6.273  16.646  1.00  0.00    -0.246 OA
ATOM      5  O   UNL     1      -3.982   5.003  15.560  1.00  0.00    -0.423 OA
ATOM      6  C   UNL     1      -3.531   3.822  15.141  1.00  0.00     0.142 A 
ATOM      7  C   UNL     1      -2.354   3.750  14.388  1.00  0.00     0.098 A 
ATOM      8  C   UNL     1      -1.873   2.513  13.944  1.00  0.00     0.161 A 
ATOM      9  C   UNL     1      -2.574   1.334  14.256  1.00  0.00     0.158 A 
ATOM     10  C   UNL     1      -3.755   1.401  15.011  1.00  0.00     0.062 A 
ATOM     11  C   UNL     1      -4.235   2.641  15.454  1.00  0.00     0.022 A 
ENDROOT
BRANCH   9  12
ATOM     12  O   UNL     1      -2.096   0.101  13.814  1.00  0.00    -0.504 OA
ATOM     13  H   UNL     1      -2.267  -0.752  14.334  1.00  0.00     0.293 HD
ENDBRANCH   9  12
BRANCH   8  14
ATOM     14  O   UNL     1      -0.697   2.475  13.195  1.00  0.00    -0.504 OA
ATOM     15  H   UNL     1      -0.688   2.655  12.199  1.00  0.00     0.293 HD
ENDBRANCH   8  14
TORSDOF 2
ENDMDL
MODEL 8
REMARK VINA RESULT:    -4.869     13.183     14.718
REMARK INTER + INTRA:          -5.154
REMARK INTER:                  -5.154
REMARK INTRA:                   0.000
REMARK UNBOUND:                 0.000
REMARK SMILES O=c1ccc2cc(O)c(O)cc2o1
REMARK SMILES IDX 4 1 3 2 2 3 1 4 13 5 12 6 11 7 9 8 7 9 6 10 5 11 8 12 10 14
REMARK H PARENT 8 13 10 15
REMARK Flexibility Score: inf
ROOT
ATOM      1  C   UNL     1      -2.247   6.197  11.517  1.00  0.00     0.019 A 
ATOM      2  C   UNL     1      -2.492   5.589  12.747  1.00  0.00     0.094 A 
ATOM      3  C   UNL     1      -2.553   6.383  13.897  1.00  0.00     0.336 A 
ATOM      4  O   UNL     1      -2.773   5.853  15.017  1.00  0.00    -0.246 OA
ATOM      5  O   UNL     1      -2.379   7.700  13.816  1.00  0.00    -0.423 OA
ATOM      6  C   UNL     1      -2.143   8.321  12.661  1.00  0.00     0.142 A 
ATOM      7  C   UNL     1      -1.967   9.708  12.637  1.00  0.00     0.098 A 
ATOM      8  C   UNL     1      -1.718  10.368  11.428  1.00  0.00     0.161 A 
ATOM      9  C   UNL     1      -1.643   9.634  10.229  1.00  0.00     0.158 A 
ATOM     10  C   UNL     1      -1.818   8.242  10.249  1.00  0.00     0.062 A 
ATOM     11  C   UNL     1      -2.067   7.584  11.461  1.00  0.00     0.022 A 
ENDROOT
BRANCH   9  12
ATOM     12  O   UNL     1      -1.395  10.291   9.025  1.00  0.00    -0.504 OA
ATOM     13  H   UNL     1      -2.149  10.568   8.407  1.00  0.00     0.293 HD
ENDBRANCH   9  12
BRANCH   8  14
ATOM     14  O   UNL     1      -1.548  11.752  11.436  1.00  0.00    -0.504 OA
ATOM     15  H   UNL     1      -0.693  12.187  11.759  1.00  0.00     0.293 HD
ENDBRANCH   8  14
TORSDOF 2
ENDMDL
MODEL 9
REMARK VINA RESULT:    -4.792     10.354     11.494
REMARK INTER + INTRA:          -5.072
REMARK INTER:                  -5.072
REMARK INTRA:                   0.000
REMARK UNBOUND:                 0.000
REMARK SMILES O=c1ccc2cc(O)c(O)cc2o1
REMARK SMILES IDX 4 1 3 2 2 3 1 4 13 5 12 6 11 7 9 8 7 9 6 10 5 11 8 12 10 14
REMARK H PARENT 8 13 10 15
REMARK Flexibility Score: inf
ROOT
ATOM      1  C   UNL     1      -3.111   6.326  15.550  1.00  0.00     0.019 A 
ATOM      2  C   UNL     1      -1.954   7.008  15.176  1.00  0.00     0.094 A 
ATOM      3  C   UNL     1      -0.961   6.322  14.468  1.00  0.00     0.336 A 
ATOM      4  O   UNL     1       0.091   6.920  14.121  1.00  0.00    -0.246 OA
ATOM      5  O   UNL     1      -1.121   5.038  14.156  1.00  0.00    -0.423 OA
ATOM      6  C   UNL     1      -2.211   4.350  14.494  1.00  0.00     0.142 A 
ATOM      7  C   UNL     1      -2.324   3.003  14.139  1.00  0.00     0.098 A 
ATOM      8  C   UNL     1      -3.465   2.272  14.490  1.00  0.00     0.161 A 
ATOM      9  C   UNL     1      -4.506   2.895  15.204  1.00  0.00     0.158 A 
ATOM     10  C   UNL     1      -4.396   4.247  15.562  1.00  0.00     0.062 A 
ATOM     11  C   UNL     1      -3.253   4.976  15.210  1.00  0.00     0.022 A 
ENDROOT
BRANCH   9  12
ATOM     12  O   UNL     1      -5.643   2.169  15.554  1.00  0.00    -0.504 OA
ATOM     13  H   UNL     1      -5.944   1.363  15.018  1.00  0.00     0.293 HD
ENDBRANCH   9  12
BRANCH   8  14
ATOM     14  O   UNL     1      -3.548   0.930  14.122  1.00  0.00    -0.504 OA
ATOM     15  H   UNL     1      -4.431   0.486  13.901  1.00  0.00     0.293 HD
ENDBRANCH   8  14
TORSDOF 2
ENDMDL
