MODEL 1
REMARK VINA RESULT:    -4.547      0.000      0.000
REMARK INTER + INTRA:          -7.837
REMARK INTER:                  -7.205
REMARK INTRA:                  -0.632
REMARK UNBOUND:                -0.632
REMARK SMILES CCCCCCCCCCCC(=O)[O-]
REMARK SMILES IDX 7 1 8 2 9 3 10 4 11 5 12 6 13 7 14 8 6 9 5 10 4 11 3 12 2 13
REMARK SMILES IDX 1 14
REMARK H PARENT
REMARK Flexibility Score: inf
ROOT
ATOM      1  C   UNL     1      50.358  33.708   4.012  1.00  0.00     0.000 C 
ENDROOT
BRANCH   1   2
ATOM      2  C   UNL     1      50.468  33.863   2.486  1.00  0.00     0.000 C 
BRANCH   2   3
ATOM      3  C   UNL     1      51.619  33.038   1.881  1.00  0.00     0.000 C 
BRANCH   3   4
ATOM      4  C   UNL     1      51.359  32.484   0.465  1.00  0.00     0.006 C 
BRANCH   4   5
ATOM      5  C   UNL     1      50.034  32.940  -0.166  1.00  0.00     0.053 C 
BRANCH   5   6
ATOM      6  C   UNL     1      50.247  33.619  -1.483  1.00  0.00     0.041 C 
ATOM      7  O   UNL     1      51.398  34.001  -1.822  1.00  0.00    -0.550 OA
ATOM      8  O   UNL     1      49.180  33.801  -2.353  1.00  0.00    -0.550 OA
ENDBRANCH   5   6
ENDBRANCH   4   5
ENDBRANCH   3   4
ENDBRANCH   2   3
ENDBRANCH   1   2
BRANCH   1   9
ATOM      9  C   UNL     1      51.147  32.500   4.549  1.00  0.00     0.000 C 
BRANCH   9  10
ATOM     10  C   UNL     1      50.804  32.075   5.992  1.00  0.00    -0.000 C 
BRANCH  10  11
ATOM     11  C   UNL     1      49.382  32.433   6.458  1.00  0.00    -0.000 C 
BRANCH  11  12
ATOM     12  C   UNL     1      49.359  33.114   7.834  1.00  0.00    -0.000 C 
BRANCH  12  13
ATOM     13  C   UNL     1      49.861  34.560   7.738  1.00  0.00    -0.003 C 
ATOM     14  C   UNL     1      50.026  35.180   9.122  1.00  0.00     0.004 C 
ENDBRANCH  12  13
ENDBRANCH  11  12
ENDBRANCH  10  11
ENDBRANCH   9  10
ENDBRANCH   1   9
TORSDOF 10
ENDMDL
MODEL 2
REMARK VINA RESULT:    -4.376     14.033     16.424
REMARK INTER + INTRA:          -7.566
REMARK INTER:                  -6.605
REMARK INTRA:                  -0.961
REMARK UNBOUND:                -0.632
REMARK SMILES CCCCCCCCCCCC(=O)[O-]
REMARK SMILES IDX 7 1 8 2 9 3 10 4 11 5 12 6 13 7 14 8 6 9 5 10 4 11 3 12 2 13
REMARK SMILES IDX 1 14
REMARK H PARENT
REMARK Flexibility Score: inf
ROOT
ATOM      1  C   UNL     1      51.553  46.609  10.910  1.00  0.00     0.000 C 
ENDROOT
BRANCH   1   2
ATOM      2  C   UNL     1      51.292  46.408  12.412  1.00  0.00     0.000 C 
BRANCH   2   3
ATOM      3  C   UNL     1      52.538  45.925  13.177  1.00  0.00     0.000 C 
BRANCH   3   4
ATOM      4  C   UNL     1      53.847  45.909  12.362  1.00  0.00     0.006 C 
BRANCH   4   5
ATOM      5  C   UNL     1      54.479  44.518  12.194  1.00  0.00     0.053 C 
BRANCH   5   6
ATOM      6  C   UNL     1      54.291  43.982  10.810  1.00  0.00     0.041 C 
ATOM      7  O   UNL     1      54.086  42.753  10.627  1.00  0.00    -0.550 OA
ATOM      8  O   UNL     1      54.309  44.843   9.721  1.00  0.00    -0.550 OA
ENDBRANCH   5   6
ENDBRANCH   4   5
ENDBRANCH   3   4
ENDBRANCH   2   3
ENDBRANCH   1   2
BRANCH   1   9
ATOM      9  C   UNL     1      51.030  47.959  10.387  1.00  0.00     0.000 C 
BRANCH   9  10
ATOM     10  C   UNL     1      50.842  49.054  11.457  1.00  0.00    -0.000 C 
BRANCH  10  11
ATOM     11  C   UNL     1      49.401  49.566  11.622  1.00  0.00    -0.000 C 
BRANCH  11  12
ATOM     12  C   UNL     1      48.523  48.617  12.452  1.00  0.00    -0.000 C 
BRANCH  12  13
ATOM     13  C   UNL     1      47.464  47.941  11.572  1.00  0.00    -0.003 C 
ATOM     14  C   UNL     1      47.167  48.773  10.328  1.00  0.00     0.004 C 
ENDBRANCH  12  13
ENDBRANCH  11  12
ENDBRANCH  10  11
ENDBRANCH   9  10
ENDBRANCH   1   9
TORSDOF 10
ENDMDL
MODEL 3
REMARK VINA RESULT:    -4.314     14.035     16.090
REMARK INTER + INTRA:          -7.468
REMARK INTER:                  -6.416
REMARK INTRA:                  -1.052
REMARK UNBOUND:                -0.632
REMARK SMILES CCCCCCCCCCCC(=O)[O-]
REMARK SMILES IDX 7 1 8 2 9 3 10 4 11 5 12 6 13 7 14 8 6 9 5 10 4 11 3 12 2 13
REMARK SMILES IDX 1 14
REMARK H PARENT
REMARK Flexibility Score: inf
ROOT
ATOM      1  C   UNL     1      51.481  46.689  10.841  1.00  0.00     0.000 C 
ENDROOT
BRANCH   1   2
ATOM      2  C   UNL     1      51.337  46.341  12.332  1.00  0.00     0.000 C 
BRANCH   2   3
ATOM      3  C   UNL     1      52.688  46.288  13.069  1.00  0.00     0.000 C 
BRANCH   3   4
ATOM      4  C   UNL     1      53.924  46.098  12.166  1.00  0.00     0.006 C 
BRANCH   4   5
ATOM      5  C   UNL     1      54.439  44.653  12.084  1.00  0.00     0.053 C 
BRANCH   5   6
ATOM      6  C   UNL     1      54.262  44.073  10.715  1.00  0.00     0.041 C 
ATOM      7  O   UNL     1      54.243  44.825   9.705  1.00  0.00    -0.550 OA
ATOM      8  O   UNL     1      54.150  42.699  10.550  1.00  0.00    -0.550 OA
ENDBRANCH   5   6
ENDBRANCH   4   5
ENDBRANCH   3   4
ENDBRANCH   2   3
ENDBRANCH   1   2
BRANCH   1   9
ATOM      9  C   UNL     1      51.042  48.129  10.517  1.00  0.00     0.000 C 
BRANCH   9  10
ATOM     10  C   UNL     1      49.968  48.718  11.454  1.00  0.00    -0.000 C 
BRANCH  10  11
ATOM     11  C   UNL     1      48.514  48.520  10.988  1.00  0.00    -0.000 C 
BRANCH  11  12
ATOM     12  C   UNL     1      47.600  47.989  12.101  1.00  0.00    -0.000 C 
BRANCH  12  13
ATOM     13  C   UNL     1      47.581  46.455  12.110  1.00  0.00    -0.003 C 
ATOM     14  C   UNL     1      47.894  45.908  13.500  1.00  0.00     0.004 C 
ENDBRANCH  12  13
ENDBRANCH  11  12
ENDBRANCH  10  11
ENDBRANCH   9  10
ENDBRANCH   1   9
TORSDOF 10
ENDMDL
MODEL 4
REMARK VINA RESULT:    -4.283      3.849      7.527
REMARK INTER + INTRA:          -7.418
REMARK INTER:                  -6.725
REMARK INTRA:                  -0.693
REMARK UNBOUND:                -0.632
REMARK SMILES CCCCCCCCCCCC(=O)[O-]
REMARK SMILES IDX 7 1 8 2 9 3 10 4 11 5 12 6 13 7 14 8 6 9 5 10 4 11 3 12 2 13
REMARK SMILES IDX 1 14
REMARK H PARENT
REMARK Flexibility Score: inf
ROOT
ATOM      1  C   UNL     1      50.520  33.774   2.190  1.00  0.00     0.000 C 
ENDROOT
BRANCH   1   2
ATOM      2  C   UNL     1      50.393  33.721   3.721  1.00  0.00     0.000 C 
BRANCH   2   3
ATOM      3  C   UNL     1      51.254  32.614   4.356  1.00  0.00     0.000 C 
BRANCH   3   4
ATOM      4  C   UNL     1      50.835  32.187   5.778  1.00  0.00     0.006 C 
BRANCH   4   5
ATOM      5  C   UNL     1      49.385  32.536   6.148  1.00  0.00     0.053 C 
BRANCH   5   6
ATOM      6  C   UNL     1      49.314  33.432   7.345  1.00  0.00     0.041 C 
ATOM      7  O   UNL     1      48.843  33.004   8.432  1.00  0.00    -0.550 OA
ATOM      8  O   UNL     1      49.798  34.732   7.271  1.00  0.00    -0.550 OA
ENDBRANCH   5   6
ENDBRANCH   4   5
ENDBRANCH   3   4
ENDBRANCH   2   3
ENDBRANCH   1   2
BRANCH   1   9
ATOM      9  C   UNL     1      51.707  32.951   1.659  1.00  0.00     0.000 C 
BRANCH   9  10
ATOM     10  C   UNL     1      51.494  32.299   0.278  1.00  0.00    -0.000 C 
BRANCH  10  11
ATOM     11  C   UNL     1      50.100  32.512  -0.338  1.00  0.00    -0.000 C 
BRANCH  11  12
ATOM     12  C   UNL     1      50.130  33.416  -1.579  1.00  0.00    -0.000 C 
BRANCH  12  13
ATOM     13  C   UNL     1      51.570  33.789  -1.952  1.00  0.00    -0.003 C 
ATOM     14  C   UNL     1      51.600  34.794  -3.099  1.00  0.00     0.004 C 
ENDBRANCH  12  13
ENDBRANCH  11  12
ENDBRANCH  10  11
ENDBRANCH   9  10
ENDBRANCH   1   9
TORSDOF 10
ENDMDL
MODEL 5
REMARK VINA RESULT:    -4.231     13.927     16.659
REMARK INTER + INTRA:          -7.337
REMARK INTER:                  -6.357
REMARK INTRA:                  -0.980
REMARK UNBOUND:                -0.632
REMARK SMILES CCCCCCCCCCCC(=O)[O-]
REMARK SMILES IDX 7 1 8 2 9 3 10 4 11 5 12 6 13 7 14 8 6 9 5 10 4 11 3 12 2 13
REMARK SMILES IDX 1 14
REMARK H PARENT
REMARK Flexibility Score: inf
ROOT
ATOM      1  C   UNL     1      51.521  46.745  10.726  1.00  0.00     0.000 C 
ENDROOT
BRANCH   1   2
ATOM      2  C   UNL     1      50.941  48.123  10.370  1.00  0.00     0.000 C 
BRANCH   2   3
ATOM      3  C   UNL     1      50.625  48.979  11.610  1.00  0.00     0.000 C 
BRANCH   3   4
ATOM      4  C   UNL     1      49.129  49.271  11.846  1.00  0.00     0.006 C 
BRANCH   4   5
ATOM      5  C   UNL     1      48.195  48.755  10.740  1.00  0.00     0.053 C 
BRANCH   5   6
ATOM      6  C   UNL     1      47.282  47.677  11.237  1.00  0.00     0.041 C 
ATOM      7  O   UNL     1      47.738  46.726  11.926  1.00  0.00    -0.550 OA
ATOM      8  O   UNL     1      45.921  47.738  10.968  1.00  0.00    -0.550 OA
ENDBRANCH   5   6
ENDBRANCH   4   5
ENDBRANCH   3   4
ENDBRANCH   2   3
ENDBRANCH   1   2
BRANCH   1   9
ATOM      9  C   UNL     1      51.208  46.319  12.172  1.00  0.00     0.000 C 
BRANCH   9  10
ATOM     10  C   UNL     1      52.434  46.167  13.095  1.00  0.00    -0.000 C 
BRANCH  10  11
ATOM     11  C   UNL     1      53.798  46.342  12.405  1.00  0.00    -0.000 C 
BRANCH  11  12
ATOM     12  C   UNL     1      54.524  45.008  12.175  1.00  0.00    -0.000 C 
BRANCH  12  13
ATOM     13  C   UNL     1      54.503  44.621  10.691  1.00  0.00    -0.003 C 
ATOM     14  C   UNL     1      54.111  43.158  10.508  1.00  0.00     0.004 C 
ENDBRANCH  12  13
ENDBRANCH  11  12
ENDBRANCH  10  11
ENDBRANCH   9  10
ENDBRANCH   1   9
TORSDOF 10
ENDMDL
MODEL 6
REMARK VINA RESULT:    -4.202      4.491      7.882
REMARK INTER + INTRA:          -7.291
REMARK INTER:                  -6.728
REMARK INTRA:                  -0.564
REMARK UNBOUND:                -0.632
REMARK SMILES CCCCCCCCCCCC(=O)[O-]
REMARK SMILES IDX 7 1 8 2 9 3 10 4 11 5 12 6 13 7 14 8 6 9 5 10 4 11 3 12 2 13
REMARK SMILES IDX 1 14
REMARK H PARENT
REMARK Flexibility Score: inf
ROOT
ATOM      1  C   UNL     1      50.175  33.735   4.006  1.00  0.00     0.000 C 
ENDROOT
BRANCH   1   2
ATOM      2  C   UNL     1      50.927  32.683   4.838  1.00  0.00     0.000 C 
BRANCH   2   3
ATOM      3  C   UNL     1      50.435  32.609   6.295  1.00  0.00     0.000 C 
BRANCH   3   4
ATOM      4  C   UNL     1      49.665  33.849   6.796  1.00  0.00     0.006 C 
BRANCH   4   5
ATOM      5  C   UNL     1      48.912  33.642   8.119  1.00  0.00     0.053 C 
BRANCH   5   6
ATOM      6  C   UNL     1      49.240  34.704   9.121  1.00  0.00     0.041 C 
ATOM      7  O   UNL     1      50.385  35.229   9.138  1.00  0.00    -0.550 OA
ATOM      8  O   UNL     1      48.272  35.139  10.017  1.00  0.00    -0.550 OA
ENDBRANCH   5   6
ENDBRANCH   4   5
ENDBRANCH   3   4
ENDBRANCH   2   3
ENDBRANCH   1   2
BRANCH   1   9
ATOM      9  C   UNL     1      50.590  33.733   2.523  1.00  0.00     0.000 C 
BRANCH   9  10
ATOM     10  C   UNL     1      51.877  32.949   2.198  1.00  0.00    -0.000 C 
BRANCH  10  11
ATOM     11  C   UNL     1      51.837  32.139   0.891  1.00  0.00    -0.000 C 
BRANCH  11  12
ATOM     12  C   UNL     1      52.148  32.992  -0.348  1.00  0.00    -0.000 C 
BRANCH  12  13
ATOM     13  C   UNL     1      51.173  32.676  -1.489  1.00  0.00    -0.003 C 
ATOM     14  C   UNL     1      49.738  32.579  -0.978  1.00  0.00     0.004 C 
ENDBRANCH  12  13
ENDBRANCH  11  12
ENDBRANCH  10  11
ENDBRANCH   9  10
ENDBRANCH   1   9
TORSDOF 10
ENDMDL
MODEL 7
REMARK VINA RESULT:    -4.179     17.665     18.732
REMARK INTER + INTRA:          -7.254
REMARK INTER:                  -6.385
REMARK INTRA:                  -0.869
REMARK UNBOUND:                -0.632
REMARK SMILES CCCCCCCCCCCC(=O)[O-]
REMARK SMILES IDX 7 1 8 2 9 3 10 4 11 5 12 6 13 7 14 8 6 9 5 10 4 11 3 12 2 13
REMARK SMILES IDX 1 14
REMARK H PARENT
REMARK Flexibility Score: inf
ROOT
ATOM      1  C   UNL     1      49.982  50.641   1.679  1.00  0.00     0.000 C 
ENDROOT
BRANCH   1   2
ATOM      2  C   UNL     1      49.673  51.684   0.592  1.00  0.00     0.000 C 
BRANCH   2   3
ATOM      3  C   UNL     1      48.181  52.057   0.526  1.00  0.00     0.000 C 
BRANCH   3   4
ATOM      4  C   UNL     1      47.236  51.141   1.331  1.00  0.00     0.006 C 
BRANCH   4   5
ATOM      5  C   UNL     1      45.877  51.770   1.676  1.00  0.00     0.053 C 
BRANCH   5   6
ATOM      6  C   UNL     1      44.779  50.752   1.697  1.00  0.00     0.041 C 
ATOM      7  O   UNL     1      43.675  51.021   2.240  1.00  0.00    -0.550 OA
ATOM      8  O   UNL     1      44.963  49.518   1.089  1.00  0.00    -0.550 OA
ENDBRANCH   5   6
ENDBRANCH   4   5
ENDBRANCH   3   4
ENDBRANCH   2   3
ENDBRANCH   1   2
BRANCH   1   9
ATOM      9  C   UNL     1      51.037  51.125   2.691  1.00  0.00     0.000 C 
BRANCH   9  10
ATOM     10  C   UNL     1      52.156  52.010   2.106  1.00  0.00    -0.000 C 
BRANCH  10  11
ATOM     11  C   UNL     1      53.587  51.501   2.350  1.00  0.00    -0.000 C 
BRANCH  11  12
ATOM     12  C   UNL     1      54.069  50.533   1.260  1.00  0.00    -0.000 C 
BRANCH  12  13
ATOM     13  C   UNL     1      53.658  51.027  -0.133  1.00  0.00    -0.003 C 
ATOM     14  C   UNL     1      52.819  49.983  -0.863  1.00  0.00     0.004 C 
ENDBRANCH  12  13
ENDBRANCH  11  12
ENDBRANCH  10  11
ENDBRANCH   9  10
ENDBRANCH   1   9
TORSDOF 10
ENDMDL
MODEL 8
REMARK VINA RESULT:    -4.148     15.373     16.826
REMARK INTER + INTRA:          -7.205
REMARK INTER:                  -6.042
REMARK INTRA:                  -1.163
REMARK UNBOUND:                -0.632
REMARK SMILES CCCCCCCCCCCC(=O)[O-]
REMARK SMILES IDX 7 1 8 2 9 3 10 4 11 5 12 6 13 7 14 8 6 9 5 10 4 11 3 12 2 13
REMARK SMILES IDX 1 14
REMARK H PARENT
REMARK Flexibility Score: inf
ROOT
ATOM      1  C   UNL     1      50.964  48.132  10.344  1.00  0.00     0.000 C 
ENDROOT
BRANCH   1   2
ATOM      2  C   UNL     1      51.532  46.762  10.748  1.00  0.00     0.000 C 
BRANCH   2   3
ATOM      3  C   UNL     1      51.160  46.359  12.187  1.00  0.00     0.000 C 
BRANCH   3   4
ATOM      4  C   UNL     1      52.353  46.048  13.114  1.00  0.00     0.006 C 
BRANCH   4   5
ATOM      5  C   UNL     1      53.725  46.080  12.423  1.00  0.00     0.053 C 
BRANCH   5   6
ATOM      6  C   UNL     1      54.333  44.716  12.323  1.00  0.00     0.041 C 
ATOM      7  O   UNL     1      54.403  44.133  11.209  1.00  0.00    -0.550 OA
ATOM      8  O   UNL     1      54.854  44.101  13.454  1.00  0.00    -0.550 OA
ENDBRANCH   5   6
ENDBRANCH   4   5
ENDBRANCH   3   4
ENDBRANCH   2   3
ENDBRANCH   1   2
BRANCH   1   9
ATOM      9  C   UNL     1      50.700  49.050  11.551  1.00  0.00     0.000 C 
BRANCH   9  10
ATOM     10  C   UNL     1      49.219  49.389  11.813  1.00  0.00    -0.000 C 
BRANCH  10  11
ATOM     11  C   UNL     1      48.210  48.643  10.921  1.00  0.00    -0.000 C 
BRANCH  11  12
ATOM     12  C   UNL     1      47.090  47.966  11.725  1.00  0.00    -0.000 C 
BRANCH  12  13
ATOM     13  C   UNL     1      47.493  46.544  12.135  1.00  0.00    -0.003 C 
ATOM     14  C   UNL     1      47.749  46.455  13.636  1.00  0.00     0.004 C 
ENDBRANCH  12  13
ENDBRANCH  11  12
ENDBRANCH  10  11
ENDBRANCH   9  10
ENDBRANCH   1   9
TORSDOF 10
ENDMDL
