MODEL 1
REMARK VINA RESULT:    -3.930      0.000      0.000
REMARK INTER + INTRA:         -12.928
REMARK INTER:                  -8.984
REMARK INTRA:                  -3.944
REMARK UNBOUND:                -3.944
REMARK SMILES CCCCCCCCCCCCCCCCCCCCCCCC(=O)[O-]
REMARK SMILES IDX 13 1 14 2 15 3 16 4 17 5 18 6 19 7 20 8 21 9 22 10 23 11
REMARK SMILES IDX 24 12 25 13 26 14 12 15 11 16 10 17 9 18 8 19 7 20 6 21 5 22
REMARK SMILES IDX 4 23 3 24 2 25 1 26
REMARK H PARENT
REMARK Flexibility Score: inf
ROOT
ATOM      1  C   UNL     1       7.651   4.840  -2.814  1.00  0.00     0.000 C 
ENDROOT
BRANCH   1   2
ATOM      2  C   UNL     1       8.047   4.574  -1.348  1.00  0.00     0.000 C 
BRANCH   2   3
ATOM      3  C   UNL     1       9.568   4.455  -1.171  1.00  0.00     0.000 C 
BRANCH   3   4
ATOM      4  C   UNL     1      10.338   5.322  -2.188  1.00  0.00     0.000 C 
BRANCH   4   5
ATOM      5  C   UNL     1      10.677   6.716  -1.636  1.00  0.00     0.000 C 
BRANCH   5   6
ATOM      6  C   UNL     1      10.402   7.843  -2.646  1.00  0.00     0.000 C 
BRANCH   6   7
ATOM      7  C   UNL     1      10.138   7.295  -4.060  1.00  0.00     0.000 C 
BRANCH   7   8
ATOM      8  C   UNL     1       9.080   8.118  -4.819  1.00  0.00     0.000 C 
BRANCH   8   9
ATOM      9  C   UNL     1       8.546   7.383  -6.062  1.00  0.00     0.000 C 
BRANCH   9  10
ATOM     10  C   UNL     1       8.840   5.872  -6.010  1.00  0.00     0.006 C 
BRANCH  10  11
ATOM     11  C   UNL     1       8.044   5.084  -7.061  1.00  0.00     0.053 C 
BRANCH  11  12
ATOM     12  C   UNL     1       8.936   4.513  -8.124  1.00  0.00     0.041 C 
ATOM     13  O   UNL     1       8.871   3.288  -8.419  1.00  0.00    -0.550 OA
ATOM     14  O   UNL     1       9.826   5.339  -8.799  1.00  0.00    -0.550 OA
ENDBRANCH  11  12
ENDBRANCH  10  11
ENDBRANCH   9  10
ENDBRANCH   8   9
ENDBRANCH   7   8
ENDBRANCH   6   7
ENDBRANCH   5   6
ENDBRANCH   4   5
ENDBRANCH   3   4
ENDBRANCH   2   3
ENDBRANCH   1   2
BRANCH   1  15
ATOM     15  C   UNL     1       6.768   6.094  -2.962  1.00  0.00     0.000 C 
BRANCH  15  16
ATOM     16  C   UNL     1       6.981   7.129  -1.843  1.00  0.00     0.000 C 
BRANCH  16  17
ATOM     17  C   UNL     1       6.016   8.323  -1.946  1.00  0.00     0.000 C 
BRANCH  17  18
ATOM     18  C   UNL     1       6.737   9.680  -1.981  1.00  0.00    -0.000 C 
BRANCH  18  19
ATOM     19  C   UNL     1       6.426  10.624  -0.802  1.00  0.00    -0.000 C 
BRANCH  19  20
ATOM     20  C   UNL     1       7.678  11.125  -0.047  1.00  0.00    -0.000 C 
BRANCH  20  21
ATOM     21  C   UNL     1       8.899  10.211  -0.264  1.00  0.00    -0.000 C 
BRANCH  21  22
ATOM     22  C   UNL     1       9.552   9.765   1.054  1.00  0.00    -0.000 C 
BRANCH  22  23
ATOM     23  C   UNL     1       9.064   8.378   1.511  1.00  0.00    -0.000 C 
BRANCH  23  24
ATOM     24  C   UNL     1       9.169   8.187   3.034  1.00  0.00    -0.000 C 
BRANCH  24  25
ATOM     25  C   UNL     1       9.450   6.731   3.433  1.00  0.00    -0.003 C 
ATOM     26  C   UNL     1       9.512   5.828   2.206  1.00  0.00     0.004 C 
ENDBRANCH  24  25
ENDBRANCH  23  24
ENDBRANCH  22  23
ENDBRANCH  21  22
ENDBRANCH  20  21
ENDBRANCH  19  20
ENDBRANCH  18  19
ENDBRANCH  17  18
ENDBRANCH  16  17
ENDBRANCH  15  16
ENDBRANCH   1  15
TORSDOF 22
ENDMDL
MODEL 2
REMARK VINA RESULT:    -3.837      5.535      8.847
REMARK INTER + INTRA:         -12.717
REMARK INTER:                  -9.830
REMARK INTRA:                  -2.887
REMARK UNBOUND:                -3.944
REMARK SMILES CCCCCCCCCCCCCCCCCCCCCCCC(=O)[O-]
REMARK SMILES IDX 13 1 14 2 15 3 16 4 17 5 18 6 19 7 20 8 21 9 22 10 23 11
REMARK SMILES IDX 24 12 25 13 26 14 12 15 11 16 10 17 9 18 8 19 7 20 6 21 5 22
REMARK SMILES IDX 4 23 3 24 2 25 1 26
REMARK H PARENT
REMARK Flexibility Score: inf
ROOT
ATOM      1  C   UNL     1       9.248   4.205  -1.427  1.00  0.00     0.000 C 
ENDROOT
BRANCH   1   2
ATOM      2  C   UNL     1      10.087   4.973  -0.386  1.00  0.00     0.000 C 
BRANCH   2   3
ATOM      3  C   UNL     1       9.224   5.539   0.751  1.00  0.00     0.000 C 
BRANCH   3   4
ATOM      4  C   UNL     1       9.831   6.824   1.352  1.00  0.00     0.000 C 
BRANCH   4   5
ATOM      5  C   UNL     1       9.282   8.099   0.691  1.00  0.00     0.000 C 
BRANCH   5   6
ATOM      6  C   UNL     1       8.965   9.210   1.707  1.00  0.00     0.000 C 
BRANCH   6   7
ATOM      7  C   UNL     1       9.215   8.752   3.155  1.00  0.00     0.000 C 
BRANCH   7   8
ATOM      8  C   UNL     1       8.797   9.818   4.186  1.00  0.00     0.000 C 
BRANCH   8   9
ATOM      9  C   UNL     1       8.661   9.238   5.606  1.00  0.00     0.000 C 
BRANCH   9  10
ATOM     10  C   UNL     1       8.091  10.270   6.599  1.00  0.00     0.006 C 
BRANCH  10  11
ATOM     11  C   UNL     1       6.559  10.362   6.531  1.00  0.00     0.053 C 
BRANCH  11  12
ATOM     12  C   UNL     1       5.929  10.168   7.879  1.00  0.00     0.041 C 
ATOM     13  O   UNL     1       6.269   9.194   8.606  1.00  0.00    -0.550 OA
ATOM     14  O   UNL     1       4.979  11.071   8.337  1.00  0.00    -0.550 OA
ENDBRANCH  11  12
ENDBRANCH  10  11
ENDBRANCH   9  10
ENDBRANCH   8   9
ENDBRANCH   7   8
ENDBRANCH   6   7
ENDBRANCH   5   6
ENDBRANCH   4   5
ENDBRANCH   3   4
ENDBRANCH   2   3
ENDBRANCH   1   2
BRANCH   1  15
ATOM     15  C   UNL     1       7.743   4.514  -1.306  1.00  0.00     0.000 C 
BRANCH  15  16
ATOM     16  C   UNL     1       7.269   5.631  -2.253  1.00  0.00     0.000 C 
BRANCH  16  17
ATOM     17  C   UNL     1       6.993   5.124  -3.679  1.00  0.00     0.000 C 
BRANCH  17  18
ATOM     18  C   UNL     1       7.758   5.908  -4.757  1.00  0.00    -0.000 C 
BRANCH  18  19
ATOM     19  C   UNL     1       9.295   5.859  -4.642  1.00  0.00    -0.000 C 
BRANCH  19  20
ATOM     20  C   UNL     1       9.963   7.247  -4.514  1.00  0.00    -0.000 C 
BRANCH  20  21
ATOM     21  C   UNL     1      10.127   7.687  -3.047  1.00  0.00    -0.000 C 
BRANCH  21  22
ATOM     22  C   UNL     1       9.711   9.148  -2.813  1.00  0.00    -0.000 C 
BRANCH  22  23
ATOM     23  C   UNL     1       8.542   9.578  -3.717  1.00  0.00    -0.000 C 
BRANCH  23  24
ATOM     24  C   UNL     1       7.371  10.181  -2.923  1.00  0.00    -0.000 C 
BRANCH  24  25
ATOM     25  C   UNL     1       6.808   9.218  -1.868  1.00  0.00    -0.003 C 
ATOM     26  C   UNL     1       5.283   9.233  -1.868  1.00  0.00     0.004 C 
ENDBRANCH  24  25
ENDBRANCH  23  24
ENDBRANCH  22  23
ENDBRANCH  21  22
ENDBRANCH  20  21
ENDBRANCH  19  20
ENDBRANCH  18  19
ENDBRANCH  17  18
ENDBRANCH  16  17
ENDBRANCH  15  16
ENDBRANCH   1  15
TORSDOF 22
ENDMDL
MODEL 3
REMARK VINA RESULT:    -3.664      1.628      2.454
REMARK INTER + INTRA:         -12.320
REMARK INTER:                  -8.530
REMARK INTRA:                  -3.790
REMARK UNBOUND:                -3.944
REMARK SMILES CCCCCCCCCCCCCCCCCCCCCCCC(=O)[O-]
REMARK SMILES IDX 13 1 14 2 15 3 16 4 17 5 18 6 19 7 20 8 21 9 22 10 23 11
REMARK SMILES IDX 24 12 25 13 26 14 12 15 11 16 10 17 9 18 8 19 7 20 6 21 5 22
REMARK SMILES IDX 4 23 3 24 2 25 1 26
REMARK H PARENT
REMARK Flexibility Score: inf
ROOT
ATOM      1  C   UNL     1       9.248   4.010  -1.431  1.00  0.00     0.000 C 
ENDROOT
BRANCH   1   2
ATOM      2  C   UNL     1      10.264   5.040  -0.898  1.00  0.00     0.000 C 
BRANCH   2   3
ATOM      3  C   UNL     1      11.103   5.662  -2.024  1.00  0.00     0.000 C 
BRANCH   3   4
ATOM      4  C   UNL     1      11.042   4.827  -3.319  1.00  0.00     0.000 C 
BRANCH   4   5
ATOM      5  C   UNL     1      10.776   5.689  -4.564  1.00  0.00     0.000 C 
BRANCH   5   6
ATOM      6  C   UNL     1       9.843   6.879  -4.278  1.00  0.00     0.000 C 
BRANCH   6   7
ATOM      7  C   UNL     1       8.631   6.900  -5.226  1.00  0.00     0.000 C 
BRANCH   7   8
ATOM      8  C   UNL     1       8.091   5.486  -5.516  1.00  0.00     0.000 C 
BRANCH   8   9
ATOM      9  C   UNL     1       8.069   5.165  -7.022  1.00  0.00     0.000 C 
BRANCH   9  10
ATOM     10  C   UNL     1       7.164   6.136  -7.805  1.00  0.00     0.006 C 
BRANCH  10  11
ATOM     11  C   UNL     1       7.834   6.654  -9.087  1.00  0.00     0.053 C 
BRANCH  11  12
ATOM     12  C   UNL     1       8.397   8.032  -8.905  1.00  0.00     0.041 C 
ATOM     13  O   UNL     1       9.530   8.191  -8.369  1.00  0.00    -0.550 OA
ATOM     14  O   UNL     1       7.680   9.138  -9.341  1.00  0.00    -0.550 OA
ENDBRANCH  11  12
ENDBRANCH  10  11
ENDBRANCH   9  10
ENDBRANCH   8   9
ENDBRANCH   7   8
ENDBRANCH   6   7
ENDBRANCH   5   6
ENDBRANCH   4   5
ENDBRANCH   3   4
ENDBRANCH   2   3
ENDBRANCH   1   2
BRANCH   1  15
ATOM     15  C   UNL     1       7.791   4.462  -1.217  1.00  0.00     0.000 C 
BRANCH  15  16
ATOM     16  C   UNL     1       7.636   5.987  -1.080  1.00  0.00     0.000 C 
BRANCH  16  17
ATOM     17  C   UNL     1       6.819   6.607  -2.227  1.00  0.00     0.000 C 
BRANCH  17  18
ATOM     18  C   UNL     1       6.402   8.061  -1.953  1.00  0.00    -0.000 C 
BRANCH  18  19
ATOM     19  C   UNL     1       7.416   9.134  -2.401  1.00  0.00    -0.000 C 
BRANCH  19  20
ATOM     20  C   UNL     1       8.330   9.650  -1.267  1.00  0.00    -0.000 C 
BRANCH  20  21
ATOM     21  C   UNL     1       9.744   9.041  -1.330  1.00  0.00    -0.000 C 
BRANCH  21  22
ATOM     22  C   UNL     1      10.355   8.808   0.061  1.00  0.00    -0.000 C 
BRANCH  22  23
ATOM     23  C   UNL     1       9.288   8.755   1.169  1.00  0.00    -0.000 C 
BRANCH  23  24
ATOM     24  C   UNL     1       9.288   7.416   1.926  1.00  0.00    -0.000 C 
BRANCH  24  25
ATOM     25  C   UNL     1       9.331   7.594   3.451  1.00  0.00    -0.003 C 
ATOM     26  C   UNL     1       9.536   6.257   4.155  1.00  0.00     0.004 C 
ENDBRANCH  24  25
ENDBRANCH  23  24
ENDBRANCH  22  23
ENDBRANCH  21  22
ENDBRANCH  20  21
ENDBRANCH  19  20
ENDBRANCH  18  19
ENDBRANCH  17  18
ENDBRANCH  16  17
ENDBRANCH  15  16
ENDBRANCH   1  15
TORSDOF 22
ENDMDL
MODEL 4
REMARK VINA RESULT:    -3.603     14.531     17.125
REMARK INTER + INTRA:         -12.182
REMARK INTER:                  -8.774
REMARK INTRA:                  -3.407
REMARK UNBOUND:                -3.944
REMARK SMILES CCCCCCCCCCCCCCCCCCCCCCCC(=O)[O-]
REMARK SMILES IDX 13 1 14 2 15 3 16 4 17 5 18 6 19 7 20 8 21 9 22 10 23 11
REMARK SMILES IDX 24 12 25 13 26 14 12 15 11 16 10 17 9 18 8 19 7 20 6 21 5 22
REMARK SMILES IDX 4 23 3 24 2 25 1 26
REMARK H PARENT
REMARK Flexibility Score: inf
ROOT
ATOM      1  C   UNL     1      -4.935  -3.916  -6.824  1.00  0.00     0.000 C 
ENDROOT
BRANCH   1   2
ATOM      2  C   UNL     1      -4.341  -4.885  -7.865  1.00  0.00     0.000 C 
BRANCH   2   3
ATOM      3  C   UNL     1      -4.144  -4.216  -9.233  1.00  0.00     0.000 C 
BRANCH   3   4
ATOM      4  C   UNL     1      -4.607  -2.744  -9.229  1.00  0.00     0.000 C 
BRANCH   4   5
ATOM      5  C   UNL     1      -3.713  -1.843 -10.097  1.00  0.00     0.000 C 
BRANCH   5   6
ATOM      6  C   UNL     1      -2.213  -2.129  -9.906  1.00  0.00     0.000 C 
BRANCH   6   7
ATOM      7  C   UNL     1      -1.647  -1.418  -8.663  1.00  0.00     0.000 C 
BRANCH   7   8
ATOM      8  C   UNL     1      -0.580  -2.264  -7.942  1.00  0.00     0.000 C 
BRANCH   8   9
ATOM      9  C   UNL     1      -1.193  -3.206  -6.889  1.00  0.00     0.000 C 
BRANCH   9  10
ATOM     10  C   UNL     1      -0.631  -4.637  -6.999  1.00  0.00     0.006 C 
BRANCH  10  11
ATOM     11  C   UNL     1       0.426  -4.767  -8.106  1.00  0.00     0.053 C 
BRANCH  11  12
ATOM     12  C   UNL     1       1.751  -5.215  -7.562  1.00  0.00     0.041 C 
ATOM     13  O   UNL     1       1.925  -5.319  -6.316  1.00  0.00    -0.550 OA
ATOM     14  O   UNL     1       2.786  -5.532  -8.432  1.00  0.00    -0.550 OA
ENDBRANCH  11  12
ENDBRANCH  10  11
ENDBRANCH   9  10
ENDBRANCH   8   9
ENDBRANCH   7   8
ENDBRANCH   6   7
ENDBRANCH   5   6
ENDBRANCH   4   5
ENDBRANCH   3   4
ENDBRANCH   2   3
ENDBRANCH   1   2
BRANCH   1  15
ATOM     15  C   UNL     1      -5.987  -4.595  -5.927  1.00  0.00     0.000 C 
BRANCH  15  16
ATOM     16  C   UNL     1      -7.269  -3.762  -5.746  1.00  0.00     0.000 C 
BRANCH  16  17
ATOM     17  C   UNL     1      -7.193  -2.394  -6.447  1.00  0.00     0.000 C 
BRANCH  17  18
ATOM     18  C   UNL     1      -7.392  -1.212  -5.486  1.00  0.00    -0.000 C 
BRANCH  18  19
ATOM     19  C   UNL     1      -8.798  -0.577  -5.503  1.00  0.00    -0.000 C 
BRANCH  19  20
ATOM     20  C   UNL     1      -8.793   0.963  -5.635  1.00  0.00    -0.000 C 
BRANCH  20  21
ATOM     21  C   UNL     1      -8.624   1.427  -7.095  1.00  0.00    -0.000 C 
BRANCH  21  22
ATOM     22  C   UNL     1      -7.465   2.420  -7.274  1.00  0.00    -0.000 C 
BRANCH  22  23
ATOM     23  C   UNL     1      -6.089   1.757  -7.085  1.00  0.00    -0.000 C 
BRANCH  23  24
ATOM     24  C   UNL     1      -5.660   0.926  -8.307  1.00  0.00    -0.000 C 
BRANCH  24  25
ATOM     25  C   UNL     1      -4.502   1.566  -9.085  1.00  0.00    -0.003 C 
ATOM     26  C   UNL     1      -3.337   1.901  -8.159  1.00  0.00     0.004 C 
ENDBRANCH  24  25
ENDBRANCH  23  24
ENDBRANCH  22  23
ENDBRANCH  21  22
ENDBRANCH  20  21
ENDBRANCH  19  20
ENDBRANCH  18  19
ENDBRANCH  17  18
ENDBRANCH  16  17
ENDBRANCH  15  16
ENDBRANCH   1  15
TORSDOF 22
ENDMDL
MODEL 5
REMARK VINA RESULT:    -3.599      5.801      9.526
REMARK INTER + INTRA:         -12.172
REMARK INTER:                  -9.757
REMARK INTRA:                  -2.414
REMARK UNBOUND:                -3.944
REMARK SMILES CCCCCCCCCCCCCCCCCCCCCCCC(=O)[O-]
REMARK SMILES IDX 13 1 14 2 15 3 16 4 17 5 18 6 19 7 20 8 21 9 22 10 23 11
REMARK SMILES IDX 24 12 25 13 26 14 12 15 11 16 10 17 9 18 8 19 7 20 6 21 5 22
REMARK SMILES IDX 4 23 3 24 2 25 1 26
REMARK H PARENT
REMARK Flexibility Score: inf
ROOT
ATOM      1  C   UNL     1       9.275   6.572  -0.480  1.00  0.00     0.000 C 
ENDROOT
BRANCH   1   2
ATOM      2  C   UNL     1      10.022   7.187   0.719  1.00  0.00     0.000 C 
BRANCH   2   3
ATOM      3  C   UNL     1       9.431   6.737   2.063  1.00  0.00     0.000 C 
BRANCH   3   4
ATOM      4  C   UNL     1       9.127   7.932   2.990  1.00  0.00     0.000 C 
BRANCH   4   5
ATOM      5  C   UNL     1       9.395   7.613   4.470  1.00  0.00     0.000 C 
BRANCH   5   6
ATOM      6  C   UNL     1       9.086   8.797   5.402  1.00  0.00     0.000 C 
BRANCH   6   7
ATOM      7  C   UNL     1       8.816  10.092   4.615  1.00  0.00     0.000 C 
BRANCH   7   8
ATOM      8  C   UNL     1       7.530  10.802   5.081  1.00  0.00     0.000 C 
BRANCH   8   9
ATOM      9  C   UNL     1       7.441  10.907   6.614  1.00  0.00     0.000 C 
BRANCH   9  10
ATOM     10  C   UNL     1       6.077  10.431   7.148  1.00  0.00     0.006 C 
BRANCH  10  11
ATOM     11  C   UNL     1       6.098  10.173   8.663  1.00  0.00     0.053 C 
BRANCH  11  12
ATOM     12  C   UNL     1       6.428   8.745   8.981  1.00  0.00     0.041 C 
ATOM     13  O   UNL     1       7.577   8.286   8.733  1.00  0.00    -0.550 OA
ATOM     14  O   UNL     1       5.471   7.927   9.568  1.00  0.00    -0.550 OA
ENDBRANCH  11  12
ENDBRANCH  10  11
ENDBRANCH   9  10
ENDBRANCH   8   9
ENDBRANCH   7   8
ENDBRANCH   6   7
ENDBRANCH   5   6
ENDBRANCH   4   5
ENDBRANCH   3   4
ENDBRANCH   2   3
ENDBRANCH   1   2
BRANCH   1  15
ATOM     15  C   UNL     1       8.797   5.135  -0.196  1.00  0.00     0.000 C 
BRANCH  15  16
ATOM     16  C   UNL     1       7.671   4.666  -1.135  1.00  0.00     0.000 C 
BRANCH  16  17
ATOM     17  C   UNL     1       7.286   5.728  -2.179  1.00  0.00     0.000 C 
BRANCH  17  18
ATOM     18  C   UNL     1       6.921   5.126  -3.545  1.00  0.00    -0.000 C 
BRANCH  18  19
ATOM     19  C   UNL     1       7.621   5.771  -4.759  1.00  0.00    -0.000 C 
BRANCH  19  20
ATOM     20  C   UNL     1       9.139   5.991  -4.568  1.00  0.00    -0.000 C 
BRANCH  20  21
ATOM     21  C   UNL     1       9.558   7.451  -4.828  1.00  0.00    -0.000 C 
BRANCH  21  22
ATOM     22  C   UNL     1       9.485   8.325  -3.566  1.00  0.00    -0.000 C 
BRANCH  22  23
ATOM     23  C   UNL     1       8.331   9.341  -3.621  1.00  0.00    -0.000 C 
BRANCH  23  24
ATOM     24  C   UNL     1       8.243  10.206  -2.352  1.00  0.00    -0.000 C 
BRANCH  24  25
ATOM     25  C   UNL     1       7.325   9.600  -1.281  1.00  0.00    -0.003 C 
ATOM     26  C   UNL     1       6.029   9.084  -1.897  1.00  0.00     0.004 C 
ENDBRANCH  24  25
ENDBRANCH  23  24
ENDBRANCH  22  23
ENDBRANCH  21  22
ENDBRANCH  20  21
ENDBRANCH  19  20
ENDBRANCH  18  19
ENDBRANCH  17  18
ENDBRANCH  16  17
ENDBRANCH  15  16
ENDBRANCH   1  15
TORSDOF 22
ENDMDL
MODEL 6
REMARK VINA RESULT:    -3.582      1.312      3.660
REMARK INTER + INTRA:         -12.133
REMARK INTER:                  -8.126
REMARK INTRA:                  -4.007
REMARK UNBOUND:                -3.944
REMARK SMILES CCCCCCCCCCCCCCCCCCCCCCCC(=O)[O-]
REMARK SMILES IDX 13 1 14 2 15 3 16 4 17 5 18 6 19 7 20 8 21 9 22 10 23 11
REMARK SMILES IDX 24 12 25 13 26 14 12 15 11 16 10 17 9 18 8 19 7 20 6 21 5 22
REMARK SMILES IDX 4 23 3 24 2 25 1 26
REMARK H PARENT
REMARK Flexibility Score: inf
ROOT
ATOM      1  C   UNL     1       6.617   9.914  -1.249  1.00  0.00     0.000 C 
ENDROOT
BRANCH   1   2
ATOM      2  C   UNL     1       8.028   9.657  -0.685  1.00  0.00     0.000 C 
BRANCH   2   3
ATOM      3  C   UNL     1       9.073  10.614  -1.278  1.00  0.00     0.000 C 
BRANCH   3   4
ATOM      4  C   UNL     1       9.583  10.132  -2.651  1.00  0.00     0.000 C 
BRANCH   4   5
ATOM      5  C   UNL     1      10.359   8.807  -2.560  1.00  0.00     0.000 C 
BRANCH   5   6
ATOM      6  C   UNL     1      10.127   7.893  -3.776  1.00  0.00     0.000 C 
BRANCH   6   7
ATOM      7  C   UNL     1      10.710   6.486  -3.556  1.00  0.00     0.000 C 
BRANCH   7   8
ATOM      8  C   UNL     1      10.370   5.525  -4.711  1.00  0.00     0.000 C 
BRANCH   8   9
ATOM      9  C   UNL     1       9.523   6.200  -5.805  1.00  0.00     0.000 C 
BRANCH   9  10
ATOM     10  C   UNL     1       8.427   5.263  -6.349  1.00  0.00     0.006 C 
BRANCH  10  11
ATOM     11  C   UNL     1       7.443   5.990  -7.278  1.00  0.00     0.053 C 
BRANCH  11  12
ATOM     12  C   UNL     1       8.032   6.228  -8.637  1.00  0.00     0.041 C 
ATOM     13  O   UNL     1       8.975   5.503  -9.058  1.00  0.00    -0.550 OA
ATOM     14  O   UNL     1       7.527   7.240  -9.443  1.00  0.00    -0.550 OA
ENDBRANCH  11  12
ENDBRANCH  10  11
ENDBRANCH   9  10
ENDBRANCH   8   9
ENDBRANCH   7   8
ENDBRANCH   6   7
ENDBRANCH   5   6
ENDBRANCH   4   5
ENDBRANCH   3   4
ENDBRANCH   2   3
ENDBRANCH   1   2
BRANCH   1  15
ATOM     15  C   UNL     1       6.007   8.655  -1.894  1.00  0.00     0.000 C 
BRANCH  15  16
ATOM     16  C   UNL     1       6.949   7.437  -1.869  1.00  0.00     0.000 C 
BRANCH  16  17
ATOM     17  C   UNL     1       6.808   6.551  -3.120  1.00  0.00     0.000 C 
BRANCH  17  18
ATOM     18  C   UNL     1       7.302   5.113  -2.898  1.00  0.00    -0.000 C 
BRANCH  18  19
ATOM     19  C   UNL     1       7.553   4.720  -1.428  1.00  0.00    -0.000 C 
BRANCH  19  20
ATOM     20  C   UNL     1       8.899   4.000  -1.189  1.00  0.00    -0.000 C 
BRANCH  20  21
ATOM     21  C   UNL     1       9.915   4.888  -0.444  1.00  0.00    -0.000 C 
BRANCH  21  22
ATOM     22  C   UNL     1       9.243   5.904   0.494  1.00  0.00    -0.000 C 
BRANCH  22  23
ATOM     23  C   UNL     1      10.110   7.154   0.723  1.00  0.00    -0.000 C 
BRANCH  23  24
ATOM     24  C   UNL     1      10.431   7.387   2.210  1.00  0.00    -0.000 C 
BRANCH  24  25
ATOM     25  C   UNL     1       9.218   7.885   3.009  1.00  0.00    -0.003 C 
ATOM     26  C   UNL     1       9.054   9.395   2.874  1.00  0.00     0.004 C 
ENDBRANCH  24  25
ENDBRANCH  23  24
ENDBRANCH  22  23
ENDBRANCH  21  22
ENDBRANCH  20  21
ENDBRANCH  19  20
ENDBRANCH  18  19
ENDBRANCH  17  18
ENDBRANCH  16  17
ENDBRANCH  15  16
ENDBRANCH   1  15
TORSDOF 22
ENDMDL
MODEL 7
REMARK VINA RESULT:    -3.538     14.381     17.316
REMARK INTER + INTRA:         -12.033
REMARK INTER:                  -8.629
REMARK INTRA:                  -3.404
REMARK UNBOUND:                -3.944
REMARK SMILES CCCCCCCCCCCCCCCCCCCCCCCC(=O)[O-]
REMARK SMILES IDX 13 1 14 2 15 3 16 4 17 5 18 6 19 7 20 8 21 9 22 10 23 11
REMARK SMILES IDX 24 12 25 13 26 14 12 15 11 16 10 17 9 18 8 19 7 20 6 21 5 22
REMARK SMILES IDX 4 23 3 24 2 25 1 26
REMARK H PARENT
REMARK Flexibility Score: inf
ROOT
ATOM      1  C   UNL     1       0.284  -7.123  -6.767  1.00  0.00     0.000 C 
ENDROOT
BRANCH   1   2
ATOM      2  C   UNL     1      -0.378  -5.786  -6.380  1.00  0.00     0.000 C 
BRANCH   2   3
ATOM      3  C   UNL     1       0.570  -4.593  -6.573  1.00  0.00     0.000 C 
BRANCH   3   4
ATOM      4  C   UNL     1       1.833  -4.981  -7.368  1.00  0.00     0.000 C 
BRANCH   4   5
ATOM      5  C   UNL     1       1.814  -4.437  -8.806  1.00  0.00     0.000 C 
BRANCH   5   6
ATOM      6  C   UNL     1       0.579  -3.568  -9.100  1.00  0.00     0.000 C 
BRANCH   6   7
ATOM      7  C   UNL     1       0.951  -2.085  -9.278  1.00  0.00     0.000 C 
BRANCH   7   8
ATOM      8  C   UNL     1      -0.229  -1.246  -9.805  1.00  0.00     0.000 C 
BRANCH   8   9
ATOM      9  C   UNL     1      -1.201  -0.832  -8.685  1.00  0.00     0.000 C 
BRANCH   9  10
ATOM     10  C   UNL     1      -2.627  -0.591  -9.217  1.00  0.00     0.006 C 
BRANCH  10  11
ATOM     11  C   UNL     1      -2.762   0.759  -9.937  1.00  0.00     0.053 C 
BRANCH  11  12
ATOM     12  C   UNL     1      -3.332   1.816  -9.038  1.00  0.00     0.041 C 
ATOM     13  O   UNL     1      -2.831   2.975  -9.021  1.00  0.00    -0.550 OA
ATOM     14  O   UNL     1      -4.426   1.526  -8.234  1.00  0.00    -0.550 OA
ENDBRANCH  11  12
ENDBRANCH  10  11
ENDBRANCH   9  10
ENDBRANCH   8   9
ENDBRANCH   7   8
ENDBRANCH   6   7
ENDBRANCH   5   6
ENDBRANCH   4   5
ENDBRANCH   3   4
ENDBRANCH   2   3
ENDBRANCH   1   2
BRANCH   1  15
ATOM     15  C   UNL     1      -0.540  -7.903  -7.809  1.00  0.00     0.000 C 
BRANCH  15  16
ATOM     16  C   UNL     1      -0.252  -7.477  -9.261  1.00  0.00     0.000 C 
BRANCH  16  17
ATOM     17  C   UNL     1      -1.461  -6.805  -9.934  1.00  0.00     0.000 C 
BRANCH  17  18
ATOM     18  C   UNL     1      -2.808  -7.280  -9.367  1.00  0.00    -0.000 C 
BRANCH  18  19
ATOM     19  C   UNL     1      -3.651  -6.194  -8.669  1.00  0.00    -0.000 C 
BRANCH  19  20
ATOM     20  C   UNL     1      -2.987  -4.799  -8.645  1.00  0.00    -0.000 C 
BRANCH  20  21
ATOM     21  C   UNL     1      -3.777  -3.788  -7.791  1.00  0.00    -0.000 C 
BRANCH  21  22
ATOM     22  C   UNL     1      -5.218  -3.586  -8.288  1.00  0.00    -0.000 C 
BRANCH  22  23
ATOM     23  C   UNL     1      -6.220  -3.417  -7.132  1.00  0.00    -0.000 C 
BRANCH  23  24
ATOM     24  C   UNL     1      -5.802  -4.191  -5.870  1.00  0.00    -0.000 C 
BRANCH  24  25
ATOM     25  C   UNL     1      -6.727  -5.378  -5.566  1.00  0.00    -0.003 C 
ATOM     26  C   UNL     1      -6.909  -6.262  -6.796  1.00  0.00     0.004 C 
ENDBRANCH  24  25
ENDBRANCH  23  24
ENDBRANCH  22  23
ENDBRANCH  21  22
ENDBRANCH  20  21
ENDBRANCH  19  20
ENDBRANCH  18  19
ENDBRANCH  17  18
ENDBRANCH  16  17
ENDBRANCH  15  16
ENDBRANCH   1  15
TORSDOF 22
ENDMDL
MODEL 8
REMARK VINA RESULT:    -3.537     15.173     17.589
REMARK INTER + INTRA:         -12.030
REMARK INTER:                  -8.554
REMARK INTRA:                  -3.477
REMARK UNBOUND:                -3.944
REMARK SMILES CCCCCCCCCCCCCCCCCCCCCCCC(=O)[O-]
REMARK SMILES IDX 13 1 14 2 15 3 16 4 17 5 18 6 19 7 20 8 21 9 22 10 23 11
REMARK SMILES IDX 24 12 25 13 26 14 12 15 11 16 10 17 9 18 8 19 7 20 6 21 5 22
REMARK SMILES IDX 4 23 3 24 2 25 1 26
REMARK H PARENT
REMARK Flexibility Score: inf
ROOT
ATOM      1  C   UNL     1       1.008  -5.528  -6.384  1.00  0.00     0.000 C 
ENDROOT
BRANCH   1   2
ATOM      2  C   UNL     1       0.132  -6.749  -6.730  1.00  0.00     0.000 C 
BRANCH   2   3
ATOM      3  C   UNL     1       0.130  -7.054  -8.235  1.00  0.00     0.000 C 
BRANCH   3   4
ATOM      4  C   UNL     1      -1.287  -6.972  -8.840  1.00  0.00     0.000 C 
BRANCH   4   5
ATOM      5  C   UNL     1      -1.392  -5.914  -9.950  1.00  0.00     0.000 C 
BRANCH   5   6
ATOM      6  C   UNL     1      -2.770  -5.229  -9.994  1.00  0.00     0.000 C 
BRANCH   6   7
ATOM      7  C   UNL     1      -3.543  -5.410  -8.675  1.00  0.00     0.000 C 
BRANCH   7   8
ATOM      8  C   UNL     1      -4.940  -4.763  -8.723  1.00  0.00     0.000 C 
BRANCH   8   9
ATOM      9  C   UNL     1      -5.104  -3.646  -7.676  1.00  0.00     0.000 C 
BRANCH   9  10
ATOM     10  C   UNL     1      -5.096  -4.198  -6.237  1.00  0.00     0.006 C 
BRANCH  10  11
ATOM     11  C   UNL     1      -6.511  -4.332  -5.654  1.00  0.00     0.053 C 
BRANCH  11  12
ATOM     12  C   UNL     1      -7.263  -3.035  -5.710  1.00  0.00     0.041 C 
ATOM     13  O   UNL     1      -8.283  -2.921  -6.445  1.00  0.00    -0.550 OA
ATOM     14  O   UNL     1      -6.847  -1.959  -4.937  1.00  0.00    -0.550 OA
ENDBRANCH  11  12
ENDBRANCH  10  11
ENDBRANCH   9  10
ENDBRANCH   8   9
ENDBRANCH   7   8
ENDBRANCH   6   7
ENDBRANCH   5   6
ENDBRANCH   4   5
ENDBRANCH   3   4
ENDBRANCH   2   3
ENDBRANCH   1   2
BRANCH   1  15
ATOM     15  C   UNL     1       0.552  -4.255  -7.123  1.00  0.00     0.000 C 
BRANCH  15  16
ATOM     16  C   UNL     1      -0.869  -3.802  -6.744  1.00  0.00     0.000 C 
BRANCH  16  17
ATOM     17  C   UNL     1      -1.297  -2.516  -7.472  1.00  0.00     0.000 C 
BRANCH  17  18
ATOM     18  C   UNL     1      -0.546  -2.293  -8.794  1.00  0.00    -0.000 C 
BRANCH  18  19
ATOM     19  C   UNL     1      -1.278  -1.416  -9.830  1.00  0.00    -0.000 C 
BRANCH  19  20
ATOM     20  C   UNL     1      -2.803  -1.657  -9.896  1.00  0.00    -0.000 C 
BRANCH  20  21
ATOM     21  C   UNL     1      -3.612  -0.385  -9.576  1.00  0.00    -0.000 C 
BRANCH  21  22
ATOM     22  C   UNL     1      -2.745   0.739  -8.985  1.00  0.00    -0.000 C 
BRANCH  22  23
ATOM     23  C   UNL     1      -3.589   1.884  -8.398  1.00  0.00    -0.000 C 
BRANCH  23  24
ATOM     24  C   UNL     1      -5.047   1.469  -8.133  1.00  0.00    -0.000 C 
BRANCH  24  25
ATOM     25  C   UNL     1      -6.064   2.424  -8.774  1.00  0.00    -0.003 C 
ATOM     26  C   UNL     1      -7.066   2.931  -7.744  1.00  0.00     0.004 C 
ENDBRANCH  24  25
ENDBRANCH  23  24
ENDBRANCH  22  23
ENDBRANCH  21  22
ENDBRANCH  20  21
ENDBRANCH  19  20
ENDBRANCH  18  19
ENDBRANCH  17  18
ENDBRANCH  16  17
ENDBRANCH  15  16
ENDBRANCH   1  15
TORSDOF 22
ENDMDL
MODEL 9
REMARK VINA RESULT:    -3.510     15.193     17.983
REMARK INTER + INTRA:         -11.968
REMARK INTER:                  -8.897
REMARK INTRA:                  -3.070
REMARK UNBOUND:                -3.944
REMARK SMILES CCCCCCCCCCCCCCCCCCCCCCCC(=O)[O-]
REMARK SMILES IDX 13 1 14 2 15 3 16 4 17 5 18 6 19 7 20 8 21 9 22 10 23 11
REMARK SMILES IDX 24 12 25 13 26 14 12 15 11 16 10 17 9 18 8 19 7 20 6 21 5 22
REMARK SMILES IDX 4 23 3 24 2 25 1 26
REMARK H PARENT
REMARK Flexibility Score: inf
ROOT
ATOM      1  C   UNL     1      -0.275  -3.896  -6.740  1.00  0.00     0.000 C 
ENDROOT
BRANCH   1   2
ATOM      2  C   UNL     1      -0.169  -3.047  -8.022  1.00  0.00     0.000 C 
BRANCH   2   3
ATOM      3  C   UNL     1      -1.145  -1.861  -8.014  1.00  0.00     0.000 C 
BRANCH   3   4
ATOM      4  C   UNL     1      -1.812  -1.651  -9.389  1.00  0.00     0.000 C 
BRANCH   4   5
ATOM      5  C   UNL     1      -2.981  -0.654  -9.330  1.00  0.00     0.000 C 
BRANCH   5   6
ATOM      6  C   UNL     1      -2.563   0.725  -8.789  1.00  0.00     0.000 C 
BRANCH   6   7
ATOM      7  C   UNL     1      -3.767   1.674  -8.649  1.00  0.00     0.000 C 
BRANCH   7   8
ATOM      8  C   UNL     1      -5.070   0.922  -8.321  1.00  0.00     0.000 C 
BRANCH   8   9
ATOM      9  C   UNL     1      -6.248   1.878  -8.055  1.00  0.00     0.000 C 
BRANCH   9  10
ATOM     10  C   UNL     1      -7.106   1.419  -6.860  1.00  0.00     0.006 C 
BRANCH  10  11
ATOM     11  C   UNL     1      -7.157  -0.111  -6.730  1.00  0.00     0.053 C 
BRANCH  11  12
ATOM     12  C   UNL     1      -7.405  -0.542  -5.315  1.00  0.00     0.041 C 
ATOM     13  O   UNL     1      -6.942  -1.638  -4.893  1.00  0.00    -0.550 OA
ATOM     14  O   UNL     1      -8.131   0.275  -4.458  1.00  0.00    -0.550 OA
ENDBRANCH  11  12
ENDBRANCH  10  11
ENDBRANCH   9  10
ENDBRANCH   8   9
ENDBRANCH   7   8
ENDBRANCH   6   7
ENDBRANCH   5   6
ENDBRANCH   4   5
ENDBRANCH   3   4
ENDBRANCH   2   3
ENDBRANCH   1   2
BRANCH   1  15
ATOM     15  C   UNL     1       0.795  -5.004  -6.684  1.00  0.00     0.000 C 
BRANCH  15  16
ATOM     16  C   UNL     1       0.208  -6.426  -6.738  1.00  0.00     0.000 C 
BRANCH  16  17
ATOM     17  C   UNL     1      -0.023  -6.920  -8.177  1.00  0.00     0.000 C 
BRANCH  17  18
ATOM     18  C   UNL     1      -1.507  -6.940  -8.577  1.00  0.00    -0.000 C 
BRANCH  18  19
ATOM     19  C   UNL     1      -1.901  -5.959  -9.700  1.00  0.00    -0.000 C 
BRANCH  19  20
ATOM     20  C   UNL     1      -3.082  -5.029  -9.341  1.00  0.00    -0.000 C 
BRANCH  20  21
ATOM     21  C   UNL     1      -3.481  -5.134  -7.856  1.00  0.00    -0.000 C 
BRANCH  21  22
ATOM     22  C   UNL     1      -4.222  -3.886  -7.349  1.00  0.00    -0.000 C 
BRANCH  22  23
ATOM     23  C   UNL     1      -5.706  -3.877  -7.760  1.00  0.00    -0.000 C 
BRANCH  23  24
ATOM     24  C   UNL     1      -6.502  -5.028  -7.121  1.00  0.00    -0.000 C 
BRANCH  24  25
ATOM     25  C   UNL     1      -6.482  -4.985  -5.586  1.00  0.00    -0.003 C 
ATOM     26  C   UNL     1      -7.175  -6.208  -4.994  1.00  0.00     0.004 C 
ENDBRANCH  24  25
ENDBRANCH  23  24
ENDBRANCH  22  23
ENDBRANCH  21  22
ENDBRANCH  20  21
ENDBRANCH  19  20
ENDBRANCH  18  19
ENDBRANCH  17  18
ENDBRANCH  16  17
ENDBRANCH  15  16
ENDBRANCH   1  15
TORSDOF 22
ENDMDL
