MODEL 1
REMARK VINA RESULT:    -6.534      0.000      0.000
REMARK INTER + INTRA:          -9.679
REMARK INTER:                  -8.635
REMARK INTRA:                  -1.044
REMARK UNBOUND:                -1.044
REMARK SMILES CC[C@H](C=C[C@@H](C)[C@@H]1CC[C@@H]2[C@H]3CC=C4C[C@@H](O)CC[C@]4(C)[C@H]3CC[C@@]21C)C(C)C
REMARK SMILES IDX 6 1 7 2 5 3 4 4 3 5 2 6 1 7 28 8 29 9 30 10 8 11 9 12 26 13
REMARK SMILES IDX 10 14 11 15 25 16 27 17 12 18 24 19 23 20 13 21 21 22 14 23
REMARK SMILES IDX 15 24 20 25 22 26 16 27 19 28 17 29 18 30
REMARK H PARENT 18 31
REMARK Flexibility Score: inf
ROOT
ATOM      1  C   UNL     1     136.041 128.341 116.208  1.00  0.00     0.012 C 
ATOM      2  C   UNL     1     135.798 126.877 116.635  1.00  0.00     0.012 C 
ENDROOT
BRANCH   1   3
ATOM      3  C   UNL     1     134.722 128.997 115.845  1.00  0.00    -0.028 C 
ATOM      4  C   UNL     1     133.527 128.463 116.155  1.00  0.00    -0.027 C 
BRANCH   4   5
ATOM      5  C   UNL     1     132.217 129.112 115.747  1.00  0.00     0.014 C 
BRANCH   5   6
ATOM      6  C   UNL     1     132.493 130.532 115.169  1.00  0.00     0.004 C 
ATOM      7  C   UNL     1     131.550 131.595 115.740  1.00  0.00     0.004 C 
ENDBRANCH   5   6
BRANCH   5   8
ATOM      8  C   UNL     1     131.420 128.189 114.770  1.00  0.00    -0.011 C 
ATOM      9  C   UNL     1     132.201 126.897 114.459  1.00  0.00     0.008 C 
ATOM     10  C   UNL     1     130.037 127.810 115.323  1.00  0.00     0.008 C 
ENDBRANCH   5   8
ENDBRANCH   4   5
ENDBRANCH   1   3
BRANCH   1  11
ATOM     11  C   UNL     1     137.120 128.555 115.082  1.00  0.00     0.002 C 
ATOM     12  C   UNL     1     137.741 127.274 114.514  1.00  0.00     0.005 C 
ATOM     13  C   UNL     1     138.324 129.541 115.366  1.00  0.00    -0.026 C 
ATOM     14  C   UNL     1     139.044 127.721 113.888  1.00  0.00     0.005 C 
ATOM     15  C   UNL     1     139.598 128.803 114.825  1.00  0.00    -0.001 C 
ATOM     16  C   UNL     1     138.493 129.957 116.860  1.00  0.00     0.007 C 
ATOM     17  C   UNL     1     138.104 130.835 114.531  1.00  0.00     0.012 C 
ATOM     18  C   UNL     1     140.504 128.200 115.955  1.00  0.00     0.000 C 
ATOM     19  C   UNL     1     139.916 130.430 117.157  1.00  0.00     0.005 C 
ATOM     20  C   UNL     1     140.926 129.262 117.034  1.00  0.00     0.003 C 
ATOM     21  C   UNL     1     141.706 127.411 115.369  1.00  0.00     0.031 C 
ATOM     22  C   UNL     1     142.430 129.729 116.968  1.00  0.00    -0.008 C 
ATOM     23  C   UNL     1     142.928 127.398 116.243  1.00  0.00    -0.027 C 
ATOM     24  C   UNL     1     143.314 128.477 116.947  1.00  0.00    -0.065 C 
ATOM     25  C   UNL     1     142.736 130.590 118.238  1.00  0.00     0.014 C 
ATOM     26  C   UNL     1     142.737 130.568 115.701  1.00  0.00     0.016 C 
ATOM     27  C   UNL     1     144.731 128.506 117.487  1.00  0.00     0.063 C 
ATOM     28  C   UNL     1     144.229 130.743 118.539  1.00  0.00     0.033 C 
ATOM     29  C   UNL     1     144.858 129.362 118.753  1.00  0.00     0.118 C 
BRANCH  29  30
ATOM     30  O   UNL     1     146.205 129.484 119.136  1.00  0.00    -0.393 OA
ATOM     31  H   UNL     1     146.750 128.945 118.504  1.00  0.00     0.210 HD
ENDBRANCH  29  30
ENDBRANCH   1  11
TORSDOF 6
ENDMDL
MODEL 2
REMARK VINA RESULT:    -6.335      3.678      9.736
REMARK INTER + INTRA:          -9.415
REMARK INTER:                  -8.254
REMARK INTRA:                  -1.161
REMARK UNBOUND:                -1.044
REMARK SMILES CC[C@H](C=C[C@@H](C)[C@@H]1CC[C@@H]2[C@H]3CC=C4C[C@@H](O)CC[C@]4(C)[C@H]3CC[C@@]21C)C(C)C
REMARK SMILES IDX 6 1 7 2 5 3 4 4 3 5 2 6 1 7 28 8 29 9 30 10 8 11 9 12 26 13
REMARK SMILES IDX 10 14 11 15 25 16 27 17 12 18 24 19 23 20 13 21 21 22 14 23
REMARK SMILES IDX 15 24 20 25 22 26 16 27 19 28 17 29 18 30
REMARK H PARENT 18 31
REMARK Flexibility Score: inf
ROOT
ATOM      1  C   UNL     1     138.499 129.666 114.701  1.00  0.00     0.012 C 
ATOM      2  C   UNL     1     138.514 129.132 113.253  1.00  0.00     0.012 C 
ENDROOT
BRANCH   1   3
ATOM      3  C   UNL     1     139.910 130.021 115.134  1.00  0.00    -0.028 C 
ATOM      4  C   UNL     1     141.007 129.522 114.537  1.00  0.00    -0.027 C 
BRANCH   4   5
ATOM      5  C   UNL     1     142.410 129.855 115.010  1.00  0.00     0.014 C 
BRANCH   5   6
ATOM      6  C   UNL     1     142.344 130.934 116.132  1.00  0.00     0.004 C 
ATOM      7  C   UNL     1     143.053 130.496 117.416  1.00  0.00     0.004 C 
ENDBRANCH   5   6
BRANCH   5   8
ATOM      8  C   UNL     1     143.174 128.561 115.439  1.00  0.00    -0.011 C 
ATOM      9  C   UNL     1     142.344 127.297 115.139  1.00  0.00     0.008 C 
ATOM     10  C   UNL     1     144.539 128.432 114.747  1.00  0.00     0.008 C 
ENDBRANCH   5   8
ENDBRANCH   4   5
ENDBRANCH   1   3
BRANCH   1  11
ATOM     11  C   UNL     1     137.785 128.748 115.762  1.00  0.00     0.002 C 
ATOM     12  C   UNL     1     137.417 127.342 115.273  1.00  0.00     0.005 C 
ATOM     13  C   UNL     1     136.505 129.305 116.506  1.00  0.00    -0.026 C 
ATOM     14  C   UNL     1     136.333 126.876 116.220  1.00  0.00     0.005 C 
ATOM     15  C   UNL     1     135.480 128.118 116.509  1.00  0.00    -0.001 C 
ATOM     16  C   UNL     1     135.890 130.593 115.877  1.00  0.00     0.007 C 
ATOM     17  C   UNL     1     136.897 129.632 117.976  1.00  0.00     0.012 C 
ATOM     18  C   UNL     1     134.315 128.290 115.473  1.00  0.00     0.000 C 
ATOM     19  C   UNL     1     134.421 130.765 116.265  1.00  0.00     0.005 C 
ATOM     20  C   UNL     1     133.547 129.652 115.635  1.00  0.00     0.003 C 
ATOM     21  C   UNL     1     133.373 127.055 115.456  1.00  0.00     0.031 C 
ATOM     22  C   UNL     1     132.107 129.544 116.265  1.00  0.00    -0.008 C 
ATOM     23  C   UNL     1     131.952 127.360 115.076  1.00  0.00    -0.027 C 
ATOM     24  C   UNL     1     131.328 128.478 115.487  1.00  0.00    -0.065 C 
ATOM     25  C   UNL     1     131.404 130.935 116.135  1.00  0.00     0.014 C 
ATOM     26  C   UNL     1     132.142 129.132 117.760  1.00  0.00     0.016 C 
ATOM     27  C   UNL     1     129.814 128.528 115.386  1.00  0.00     0.063 C 
ATOM     28  C   UNL     1     129.882 130.880 116.293  1.00  0.00     0.033 C 
ATOM     29  C   UNL     1     129.284 129.957 115.226  1.00  0.00     0.118 C 
BRANCH  29  30
ATOM     30  O   UNL     1     127.880 129.975 115.284  1.00  0.00    -0.393 OA
ATOM     31  H   UNL     1     127.596 129.313 115.967  1.00  0.00     0.210 HD
ENDBRANCH  29  30
ENDBRANCH   1  11
TORSDOF 6
ENDMDL
MODEL 3
REMARK VINA RESULT:    -6.312      8.497     11.129
REMARK INTER + INTRA:          -9.385
REMARK INTER:                  -7.888
REMARK INTRA:                  -1.497
REMARK UNBOUND:                -1.044
REMARK SMILES CC[C@H](C=C[C@@H](C)[C@@H]1CC[C@@H]2[C@H]3CC=C4C[C@@H](O)CC[C@]4(C)[C@H]3CC[C@@]21C)C(C)C
REMARK SMILES IDX 6 1 7 2 5 3 4 4 3 5 2 6 1 7 28 8 29 9 30 10 8 11 9 12 26 13
REMARK SMILES IDX 10 14 11 15 25 16 27 17 12 18 24 19 23 20 13 21 21 22 14 23
REMARK SMILES IDX 15 24 20 25 22 26 16 27 19 28 17 29 18 30
REMARK H PARENT 18 31
REMARK Flexibility Score: inf
ROOT
ATOM      1  C   UNL     1     129.312 131.558 114.445  1.00  0.00     0.012 C 
ATOM      2  C   UNL     1     128.053 131.929 113.632  1.00  0.00     0.012 C 
ENDROOT
BRANCH   1   3
ATOM      3  C   UNL     1     129.158 130.165 115.026  1.00  0.00    -0.028 C 
ATOM      4  C   UNL     1     130.193 129.320 115.189  1.00  0.00    -0.027 C 
BRANCH   4   5
ATOM      5  C   UNL     1     130.014 127.914 115.733  1.00  0.00     0.014 C 
BRANCH   5   6
ATOM      6  C   UNL     1     130.404 126.875 114.640  1.00  0.00     0.004 C 
ATOM      7  C   UNL     1     131.904 126.876 114.332  1.00  0.00     0.004 C 
ENDBRANCH   5   6
BRANCH   5   8
ATOM      8  C   UNL     1     130.801 127.732 117.071  1.00  0.00    -0.011 C 
ATOM      9  C   UNL     1     131.812 128.876 117.285  1.00  0.00     0.008 C 
ATOM     10  C   UNL     1     129.870 127.660 118.290  1.00  0.00     0.008 C 
ENDBRANCH   5   8
ENDBRANCH   4   5
ENDBRANCH   1   3
BRANCH   1  11
ATOM     11  C   UNL     1     129.746 132.597 115.545  1.00  0.00     0.002 C 
ATOM     12  C   UNL     1     131.234 132.582 115.913  1.00  0.00     0.005 C 
ATOM     13  C   UNL     1     128.953 132.628 116.913  1.00  0.00    -0.026 C 
ATOM     14  C   UNL     1     131.301 133.235 117.276  1.00  0.00     0.005 C 
ATOM     15  C   UNL     1     130.053 132.748 118.025  1.00  0.00    -0.001 C 
ATOM     16  C   UNL     1     128.022 131.400 117.158  1.00  0.00     0.007 C 
ATOM     17  C   UNL     1     128.071 133.909 116.940  1.00  0.00     0.012 C 
ATOM     18  C   UNL     1     130.313 131.411 118.801  1.00  0.00     0.000 C 
ATOM     19  C   UNL     1     127.725 131.204 118.645  1.00  0.00     0.005 C 
ATOM     20  C   UNL     1     129.004 130.795 119.417  1.00  0.00     0.003 C 
ATOM     21  C   UNL     1     131.464 131.558 119.834  1.00  0.00     0.031 C 
ATOM     22  C   UNL     1     128.869 130.924 120.981  1.00  0.00    -0.008 C 
ATOM     23  C   UNL     1     131.345 130.659 121.031  1.00  0.00    -0.027 C 
ATOM     24  C   UNL     1     130.162 130.398 121.614  1.00  0.00    -0.065 C 
ATOM     25  C   UNL     1     127.647 130.065 121.445  1.00  0.00     0.014 C 
ATOM     26  C   UNL     1     128.660 132.391 121.440  1.00  0.00     0.016 C 
ATOM     27  C   UNL     1     130.170 129.808 123.012  1.00  0.00     0.063 C 
ATOM     28  C   UNL     1     127.650 129.737 122.941  1.00  0.00     0.033 C 
ATOM     29  C   UNL     1     128.923 128.964 123.299  1.00  0.00     0.118 C 
BRANCH  29  30
ATOM     30  O   UNL     1     128.897 128.559 124.645  1.00  0.00    -0.393 OA
ATOM     31  H   UNL     1     128.269 129.157 125.129  1.00  0.00     0.210 HD
ENDBRANCH  29  30
ENDBRANCH   1  11
TORSDOF 6
ENDMDL
MODEL 4
REMARK VINA RESULT:    -6.308      1.593      2.531
REMARK INTER + INTRA:          -9.380
REMARK INTER:                  -8.461
REMARK INTRA:                  -0.919
REMARK UNBOUND:                -1.044
REMARK SMILES CC[C@H](C=C[C@@H](C)[C@@H]1CC[C@@H]2[C@H]3CC=C4C[C@@H](O)CC[C@]4(C)[C@H]3CC[C@@]21C)C(C)C
REMARK SMILES IDX 6 1 7 2 5 3 4 4 3 5 2 6 1 7 28 8 29 9 30 10 8 11 9 12 26 13
REMARK SMILES IDX 10 14 11 15 25 16 27 17 12 18 24 19 23 20 13 21 21 22 14 23
REMARK SMILES IDX 15 24 20 25 22 26 16 27 19 28 17 29 18 30
REMARK H PARENT 18 31
REMARK Flexibility Score: inf
ROOT
ATOM      1  C   UNL     1     136.278 129.525 115.874  1.00  0.00     0.012 C 
ATOM      2  C   UNL     1     136.732 130.731 116.724  1.00  0.00     0.012 C 
ENDROOT
BRANCH   1   3
ATOM      3  C   UNL     1     134.798 129.271 116.090  1.00  0.00    -0.028 C 
ATOM      4  C   UNL     1     134.244 128.047 116.007  1.00  0.00    -0.027 C 
BRANCH   4   5
ATOM      5  C   UNL     1     132.754 127.817 116.185  1.00  0.00     0.014 C 
BRANCH   5   6
ATOM      6  C   UNL     1     132.222 128.699 117.353  1.00  0.00     0.004 C 
ATOM      7  C   UNL     1     131.580 127.873 118.471  1.00  0.00     0.004 C 
ENDBRANCH   5   6
BRANCH   5   8
ATOM      8  C   UNL     1     131.992 128.046 114.839  1.00  0.00    -0.011 C 
ATOM      9  C   UNL     1     130.737 127.157 114.749  1.00  0.00     0.008 C 
ATOM     10  C   UNL     1     131.575 129.512 114.647  1.00  0.00     0.008 C 
ENDBRANCH   5   8
ENDBRANCH   4   5
ENDBRANCH   1   3
BRANCH   1  11
ATOM     11  C   UNL     1     137.121 128.207 116.051  1.00  0.00     0.002 C 
ATOM     12  C   UNL     1     137.400 127.795 117.501  1.00  0.00     0.005 C 
ATOM     13  C   UNL     1     138.497 128.081 115.283  1.00  0.00    -0.026 C 
ATOM     14  C   UNL     1     138.599 126.876 117.416  1.00  0.00     0.005 C 
ATOM     15  C   UNL     1     139.499 127.476 116.327  1.00  0.00    -0.001 C 
ATOM     16  C   UNL     1     139.036 129.414 114.677  1.00  0.00     0.007 C 
ATOM     17  C   UNL     1     138.317 127.066 114.118  1.00  0.00     0.012 C 
ATOM     18  C   UNL     1     140.512 128.523 116.908  1.00  0.00     0.000 C 
ATOM     19  C   UNL     1     140.546 129.360 114.446  1.00  0.00     0.005 C 
ATOM     20  C   UNL     1     141.311 129.287 115.791  1.00  0.00     0.003 C 
ATOM     21  C   UNL     1     141.428 127.897 117.996  1.00  0.00     0.031 C 
ATOM     22  C   UNL     1     142.823 128.871 115.638  1.00  0.00    -0.008 C 
ATOM     23  C   UNL     1     142.786 128.529 118.106  1.00  0.00    -0.027 C 
ATOM     24  C   UNL     1     143.474 128.934 117.024  1.00  0.00    -0.065 C 
ATOM     25  C   UNL     1     143.518 129.878 114.663  1.00  0.00     0.014 C 
ATOM     26  C   UNL     1     142.990 127.432 115.084  1.00  0.00     0.016 C 
ATOM     27  C   UNL     1     144.960 129.202 117.183  1.00  0.00     0.063 C 
ATOM     28  C   UNL     1     145.046 129.877 114.755  1.00  0.00     0.033 C 
ATOM     29  C   UNL     1     145.480 130.237 116.180  1.00  0.00     0.118 C 
BRANCH  29  30
ATOM     30  O   UNL     1     146.879 130.348 116.261  1.00  0.00    -0.393 OA
ATOM     31  H   UNL     1     147.271 129.728 115.591  1.00  0.00     0.210 HD
ENDBRANCH  29  30
ENDBRANCH   1  11
TORSDOF 6
ENDMDL
MODEL 5
REMARK VINA RESULT:    -6.266      3.412      9.220
REMARK INTER + INTRA:          -9.324
REMARK INTER:                  -8.068
REMARK INTRA:                  -1.256
REMARK UNBOUND:                -1.044
REMARK SMILES CC[C@H](C=C[C@@H](C)[C@@H]1CC[C@@H]2[C@H]3CC=C4C[C@@H](O)CC[C@]4(C)[C@H]3CC[C@@]21C)C(C)C
REMARK SMILES IDX 6 1 7 2 5 3 4 4 3 5 2 6 1 7 28 8 29 9 30 10 8 11 9 12 26 13
REMARK SMILES IDX 10 14 11 15 25 16 27 17 12 18 24 19 23 20 13 21 21 22 14 23
REMARK SMILES IDX 15 24 20 25 22 26 16 27 19 28 17 29 18 30
REMARK H PARENT 18 31
REMARK Flexibility Score: inf
ROOT
ATOM      1  C   UNL     1     140.707 130.148 114.391  1.00  0.00     0.012 C 
ATOM      2  C   UNL     1     139.980 130.145 113.029  1.00  0.00     0.012 C 
ENDROOT
BRANCH   1   3
ATOM      3  C   UNL     1     142.208 130.193 114.174  1.00  0.00    -0.028 C 
ATOM      4  C   UNL     1     143.093 129.717 115.068  1.00  0.00    -0.027 C 
BRANCH   4   5
ATOM      5  C   UNL     1     144.593 129.809 114.854  1.00  0.00     0.014 C 
BRANCH   5   6
ATOM      6  C   UNL     1     145.152 131.065 115.585  1.00  0.00     0.004 C 
ATOM      7  C   UNL     1     146.661 130.983 115.832  1.00  0.00     0.004 C 
ENDBRANCH   5   6
BRANCH   5   8
ATOM      8  C   UNL     1     145.297 128.480 115.278  1.00  0.00    -0.011 C 
ATOM      9  C   UNL     1     144.458 127.709 116.315  1.00  0.00     0.008 C 
ATOM     10  C   UNL     1     145.572 127.558 114.080  1.00  0.00     0.008 C 
ENDBRANCH   5   8
ENDBRANCH   4   5
ENDBRANCH   1   3
BRANCH   1  11
ATOM     11  C   UNL     1     140.303 128.996 115.385  1.00  0.00     0.002 C 
ATOM     12  C   UNL     1     139.915 127.667 114.728  1.00  0.00     0.005 C 
ATOM     13  C   UNL     1     139.194 129.290 116.474  1.00  0.00    -0.026 C 
ATOM     14  C   UNL     1     139.100 126.941 115.777  1.00  0.00     0.005 C 
ATOM     15  C   UNL     1     138.264 128.027 116.469  1.00  0.00    -0.001 C 
ATOM     16  C   UNL     1     138.381 130.602 116.244  1.00  0.00     0.007 C 
ATOM     17  C   UNL     1     139.887 129.396 117.863  1.00  0.00     0.012 C 
ATOM     18  C   UNL     1     136.888 128.260 115.754  1.00  0.00     0.000 C 
ATOM     19  C   UNL     1     137.029 130.561 116.958  1.00  0.00     0.005 C 
ATOM     20  C   UNL     1     136.101 129.494 116.328  1.00  0.00     0.003 C 
ATOM     21  C   UNL     1     136.038 126.962 115.702  1.00  0.00     0.031 C 
ATOM     22  C   UNL     1     134.848 129.140 117.216  1.00  0.00    -0.008 C 
ATOM     23  C   UNL     1     134.554 127.188 115.695  1.00  0.00    -0.027 C 
ATOM     24  C   UNL     1     133.975 128.153 116.432  1.00  0.00    -0.065 C 
ATOM     25  C   UNL     1     134.057 130.458 117.503  1.00  0.00     0.014 C 
ATOM     26  C   UNL     1     135.242 128.482 118.564  1.00  0.00     0.016 C 
ATOM     27  C   UNL     1     132.478 128.073 116.664  1.00  0.00     0.063 C 
ATOM     28  C   UNL     1     132.615 130.229 117.964  1.00  0.00     0.033 C 
ATOM     29  C   UNL     1     131.845 129.450 116.892  1.00  0.00     0.118 C 
BRANCH  29  30
ATOM     30  O   UNL     1     130.491 129.322 117.247  1.00  0.00    -0.393 OA
ATOM     31  H   UNL     1     129.946 129.514 116.439  1.00  0.00     0.210 HD
ENDBRANCH  29  30
ENDBRANCH   1  11
TORSDOF 6
ENDMDL
MODEL 6
REMARK VINA RESULT:    -6.023      7.796     10.751
REMARK INTER + INTRA:          -9.003
REMARK INTER:                  -7.438
REMARK INTRA:                  -1.565
REMARK UNBOUND:                -1.044
REMARK SMILES CC[C@H](C=C[C@@H](C)[C@@H]1CC[C@@H]2[C@H]3CC=C4C[C@@H](O)CC[C@]4(C)[C@H]3CC[C@@]21C)C(C)C
REMARK SMILES IDX 6 1 7 2 5 3 4 4 3 5 2 6 1 7 28 8 29 9 30 10 8 11 9 12 26 13
REMARK SMILES IDX 10 14 11 15 25 16 27 17 12 18 24 19 23 20 13 21 21 22 14 23
REMARK SMILES IDX 15 24 20 25 22 26 16 27 19 28 17 29 18 30
REMARK H PARENT 18 31
REMARK Flexibility Score: inf
ROOT
ATOM      1  C   UNL     1     131.613 128.810 115.310  1.00  0.00     0.012 C 
ATOM      2  C   UNL     1     132.981 129.523 115.363  1.00  0.00     0.012 C 
ENDROOT
BRANCH   1   3
ATOM      3  C   UNL     1     130.521 129.815 114.995  1.00  0.00    -0.028 C 
ATOM      4  C   UNL     1     130.630 131.128 115.270  1.00  0.00    -0.027 C 
BRANCH   4   5
ATOM      5  C   UNL     1     129.510 132.112 114.987  1.00  0.00     0.014 C 
BRANCH   5   6
ATOM      6  C   UNL     1     128.359 131.392 114.224  1.00  0.00     0.004 C 
ATOM      7  C   UNL     1     127.949 132.125 112.944  1.00  0.00     0.004 C 
ENDBRANCH   5   6
BRANCH   5   8
ATOM      8  C   UNL     1     129.040 132.813 116.302  1.00  0.00    -0.011 C 
ATOM      9  C   UNL     1     128.039 131.933 117.077  1.00  0.00     0.008 C 
ATOM     10  C   UNL     1     130.214 133.160 117.230  1.00  0.00     0.008 C 
ENDBRANCH   5   8
ENDBRANCH   4   5
ENDBRANCH   1   3
BRANCH   1  11
ATOM     11  C   UNL     1     131.247 127.937 116.567  1.00  0.00     0.002 C 
ATOM     12  C   UNL     1     129.789 127.470 116.642  1.00  0.00     0.005 C 
ATOM     13  C   UNL     1     131.608 128.490 118.004  1.00  0.00    -0.026 C 
ATOM     14  C   UNL     1     129.565 127.137 118.101  1.00  0.00     0.005 C 
ATOM     15  C   UNL     1     130.344 128.200 118.888  1.00  0.00    -0.001 C 
ATOM     16  C   UNL     1     132.002 129.999 118.046  1.00  0.00     0.007 C 
ATOM     17  C   UNL     1     132.806 127.668 118.560  1.00  0.00     0.012 C 
ATOM     18  C   UNL     1     129.476 129.473 119.183  1.00  0.00     0.000 C 
ATOM     19  C   UNL     1     131.808 130.595 119.440  1.00  0.00     0.005 C 
ATOM     20  C   UNL     1     130.307 130.646 119.818  1.00  0.00     0.003 C 
ATOM     21  C   UNL     1     128.196 129.123 119.989  1.00  0.00     0.031 C 
ATOM     22  C   UNL     1     130.047 130.905 121.350  1.00  0.00    -0.008 C 
ATOM     23  C   UNL     1     127.697 130.227 120.876  1.00  0.00    -0.027 C 
ATOM     24  C   UNL     1     128.534 131.027 121.560  1.00  0.00    -0.065 C 
ATOM     25  C   UNL     1     130.762 132.235 121.756  1.00  0.00     0.014 C 
ATOM     26  C   UNL     1     130.574 129.753 122.244  1.00  0.00     0.016 C 
ATOM     27  C   UNL     1     127.962 131.847 122.702  1.00  0.00     0.063 C 
ATOM     28  C   UNL     1     130.251 132.841 123.066  1.00  0.00     0.033 C 
ATOM     29  C   UNL     1     128.753 133.137 122.950  1.00  0.00     0.118 C 
BRANCH  29  30
ATOM     30  O   UNL     1     128.284 133.792 124.102  1.00  0.00    -0.393 OA
ATOM     31  H   UNL     1     127.610 134.463 123.817  1.00  0.00     0.210 HD
ENDBRANCH  29  30
ENDBRANCH   1  11
TORSDOF 6
ENDMDL
MODEL 7
REMARK VINA RESULT:    -6.003      3.366      9.371
REMARK INTER + INTRA:          -8.977
REMARK INTER:                  -7.822
REMARK INTRA:                  -1.154
REMARK UNBOUND:                -1.044
REMARK SMILES CC[C@H](C=C[C@@H](C)[C@@H]1CC[C@@H]2[C@H]3CC=C4C[C@@H](O)CC[C@]4(C)[C@H]3CC[C@@]21C)C(C)C
REMARK SMILES IDX 6 1 7 2 5 3 4 4 3 5 2 6 1 7 28 8 29 9 30 10 8 11 9 12 26 13
REMARK SMILES IDX 10 14 11 15 25 16 27 17 12 18 24 19 23 20 13 21 21 22 14 23
REMARK SMILES IDX 15 24 20 25 22 26 16 27 19 28 17 29 18 30
REMARK H PARENT 18 31
REMARK Flexibility Score: inf
ROOT
ATOM      1  C   UNL     1     140.743 128.399 116.455  1.00  0.00     0.012 C 
ATOM      2  C   UNL     1     140.807 129.260 117.734  1.00  0.00     0.012 C 
ENDROOT
BRANCH   1   3
ATOM      3  C   UNL     1     142.132 128.259 115.859  1.00  0.00    -0.028 C 
ATOM      4  C   UNL     1     142.871 129.312 115.466  1.00  0.00    -0.027 C 
BRANCH   4   5
ATOM      5  C   UNL     1     144.240 129.151 114.832  1.00  0.00     0.014 C 
BRANCH   5   6
ATOM      6  C   UNL     1     145.154 130.343 115.246  1.00  0.00     0.004 C 
ATOM      7  C   UNL     1     144.405 131.411 116.048  1.00  0.00     0.004 C 
ENDBRANCH   5   6
BRANCH   5   8
ATOM      8  C   UNL     1     144.851 127.754 115.175  1.00  0.00    -0.011 C 
ATOM      9  C   UNL     1     145.721 127.225 114.018  1.00  0.00     0.008 C 
ATOM     10  C   UNL     1     145.697 127.786 116.456  1.00  0.00     0.008 C 
ENDBRANCH   5   8
ENDBRANCH   4   5
ENDBRANCH   1   3
BRANCH   1  11
ATOM     11  C   UNL     1     139.695 128.858 115.373  1.00  0.00     0.002 C 
ATOM     12  C   UNL     1     139.392 130.360 115.347  1.00  0.00     0.005 C 
ATOM     13  C   UNL     1     138.295 128.123 115.317  1.00  0.00    -0.026 C 
ATOM     14  C   UNL     1     138.053 130.471 114.651  1.00  0.00     0.005 C 
ATOM     15  C   UNL     1     137.236 129.267 115.140  1.00  0.00    -0.001 C 
ATOM     16  C   UNL     1     137.973 127.230 116.555  1.00  0.00     0.007 C 
ATOM     17  C   UNL     1     138.268 127.216 114.054  1.00  0.00     0.012 C 
ATOM     18  C   UNL     1     136.432 129.589 116.447  1.00  0.00     0.000 C 
ATOM     19  C   UNL     1     136.469 127.002 116.711  1.00  0.00     0.005 C 
ATOM     20  C   UNL     1     135.742 128.321 117.070  1.00  0.00     0.003 C 
ATOM     21  C   UNL     1     135.456 130.780 116.245  1.00  0.00     0.031 C 
ATOM     22  C   UNL     1     134.178 128.251 116.895  1.00  0.00    -0.008 C 
ATOM     23  C   UNL     1     134.228 130.733 117.108  1.00  0.00    -0.027 C 
ATOM     24  C   UNL     1     133.587 129.581 117.375  1.00  0.00    -0.065 C 
ATOM     25  C   UNL     1     133.635 127.069 117.764  1.00  0.00     0.014 C 
ATOM     26  C   UNL     1     133.754 128.030 115.420  1.00  0.00     0.016 C 
ATOM     27  C   UNL     1     132.173 129.662 117.921  1.00  0.00     0.063 C 
ATOM     28  C   UNL     1     132.132 127.143 118.046  1.00  0.00     0.033 C 
ATOM     29  C   UNL     1     131.807 128.447 118.782  1.00  0.00     0.118 C 
BRANCH  29  30
ATOM     30  O   UNL     1     130.450 128.488 119.145  1.00  0.00    -0.393 OA
ATOM     31  H   UNL     1     130.313 129.288 119.717  1.00  0.00     0.210 HD
ENDBRANCH  29  30
ENDBRANCH   1  11
TORSDOF 6
ENDMDL
MODEL 8
REMARK VINA RESULT:    -6.000      3.639      9.550
REMARK INTER + INTRA:          -8.973
REMARK INTER:                  -7.789
REMARK INTRA:                  -1.183
REMARK UNBOUND:                -1.044
REMARK SMILES CC[C@H](C=C[C@@H](C)[C@@H]1CC[C@@H]2[C@H]3CC=C4C[C@@H](O)CC[C@]4(C)[C@H]3CC[C@@]21C)C(C)C
REMARK SMILES IDX 6 1 7 2 5 3 4 4 3 5 2 6 1 7 28 8 29 9 30 10 8 11 9 12 26 13
REMARK SMILES IDX 10 14 11 15 25 16 27 17 12 18 24 19 23 20 13 21 21 22 14 23
REMARK SMILES IDX 15 24 20 25 22 26 16 27 19 28 17 29 18 30
REMARK H PARENT 18 31
REMARK Flexibility Score: inf
ROOT
ATOM      1  C   UNL     1     139.817 127.421 117.222  1.00  0.00     0.012 C 
ATOM      2  C   UNL     1     140.387 127.140 118.629  1.00  0.00     0.012 C 
ENDROOT
BRANCH   1   3
ATOM      3  C   UNL     1     140.926 127.336 116.190  1.00  0.00    -0.028 C 
ATOM      4  C   UNL     1     142.039 128.090 116.247  1.00  0.00    -0.027 C 
BRANCH   4   5
ATOM      5  C   UNL     1     143.119 128.023 115.183  1.00  0.00     0.014 C 
BRANCH   5   6
ATOM      6  C   UNL     1     143.454 129.460 114.683  1.00  0.00     0.004 C 
ATOM      7  C   UNL     1     142.203 130.310 114.449  1.00  0.00     0.004 C 
ENDBRANCH   5   6
BRANCH   5   8
ATOM      8  C   UNL     1     144.368 127.241 115.706  1.00  0.00    -0.011 C 
ATOM      9  C   UNL     1     145.665 127.761 115.057  1.00  0.00     0.008 C 
ATOM     10  C   UNL     1     144.510 127.326 117.234  1.00  0.00     0.008 C 
ENDBRANCH   5   8
ENDBRANCH   4   5
ENDBRANCH   1   3
BRANCH   1  11
ATOM     11  C   UNL     1     138.990 128.752 117.072  1.00  0.00     0.002 C 
ATOM     12  C   UNL     1     138.742 129.523 118.374  1.00  0.00     0.005 C 
ATOM     13  C   UNL     1     137.600 128.700 116.319  1.00  0.00    -0.026 C 
ATOM     14  C   UNL     1     137.551 130.408 118.078  1.00  0.00     0.005 C 
ATOM     15  C   UNL     1     136.625 129.564 117.192  1.00  0.00    -0.001 C 
ATOM     16  C   UNL     1     137.037 127.264 116.081  1.00  0.00     0.007 C 
ATOM     17  C   UNL     1     137.768 129.383 114.931  1.00  0.00     0.012 C 
ATOM     18  C   UNL     1     135.613 128.713 118.035  1.00  0.00     0.000 C 
ATOM     19  C   UNL     1     135.524 127.279 115.867  1.00  0.00     0.005 C 
ATOM     20  C   UNL     1     134.785 127.702 117.161  1.00  0.00     0.003 C 
ATOM     21  C   UNL     1     134.725 129.607 118.943  1.00  0.00     0.031 C 
ATOM     22  C   UNL     1     133.275 128.087 116.933  1.00  0.00    -0.008 C 
ATOM     23  C   UNL     1     133.363 129.043 119.232  1.00  0.00    -0.027 C 
ATOM     24  C   UNL     1     132.650 128.387 118.299  1.00  0.00    -0.065 C 
ATOM     25  C   UNL     1     132.552 126.876 116.257  1.00  0.00     0.014 C 
ATOM     26  C   UNL     1     133.112 129.341 116.034  1.00  0.00     0.016 C 
ATOM     27  C   UNL     1     131.165 128.190 118.545  1.00  0.00     0.063 C 
ATOM     28  C   UNL     1     131.026 126.922 116.370  1.00  0.00     0.033 C 
ATOM     29  C   UNL     1     130.616 126.941 117.846  1.00  0.00     0.118 C 
BRANCH  29  30
ATOM     30  O   UNL     1     129.218 126.875 117.975  1.00  0.00    -0.393 OA
ATOM     31  H   UNL     1     128.819 127.172 117.115  1.00  0.00     0.210 HD
ENDBRANCH  29  30
ENDBRANCH   1  11
TORSDOF 6
ENDMDL
MODEL 9
REMARK VINA RESULT:    -5.997      8.821     13.126
REMARK INTER + INTRA:          -8.969
REMARK INTER:                  -7.682
REMARK INTRA:                  -1.286
REMARK UNBOUND:                -1.044
REMARK SMILES CC[C@H](C=C[C@@H](C)[C@@H]1CC[C@@H]2[C@H]3CC=C4C[C@@H](O)CC[C@]4(C)[C@H]3CC[C@@]21C)C(C)C
REMARK SMILES IDX 6 1 7 2 5 3 4 4 3 5 2 6 1 7 28 8 29 9 30 10 8 11 9 12 26 13
REMARK SMILES IDX 10 14 11 15 25 16 27 17 12 18 24 19 23 20 13 21 21 22 14 23
REMARK SMILES IDX 15 24 20 25 22 26 16 27 19 28 17 29 18 30
REMARK H PARENT 18 31
REMARK Flexibility Score: inf
ROOT
ATOM      1  C   UNL     1     130.294 132.736 114.485  1.00  0.00     0.012 C 
ATOM      2  C   UNL     1     129.831 132.878 113.019  1.00  0.00     0.012 C 
ENDROOT
BRANCH   1   3
ATOM      3  C   UNL     1     130.752 131.313 114.745  1.00  0.00    -0.028 C 
ATOM      4  C   UNL     1     129.937 130.356 115.224  1.00  0.00    -0.027 C 
BRANCH   4   5
ATOM      5  C   UNL     1     130.423 128.948 115.519  1.00  0.00     0.014 C 
BRANCH   5   6
ATOM      6  C   UNL     1     131.859 128.759 114.947  1.00  0.00     0.004 C 
ATOM      7  C   UNL     1     132.114 127.332 114.452  1.00  0.00     0.004 C 
ENDBRANCH   5   6
BRANCH   5   8
ATOM      8  C   UNL     1     130.316 128.631 117.046  1.00  0.00    -0.011 C 
ATOM      9  C   UNL     1     129.513 129.718 117.787  1.00  0.00     0.008 C 
ATOM     10  C   UNL     1     129.667 127.265 117.314  1.00  0.00     0.008 C 
ENDBRANCH   5   8
ENDBRANCH   4   5
ENDBRANCH   1   3
BRANCH   1  11
ATOM     11  C   UNL     1     129.267 133.219 115.576  1.00  0.00     0.002 C 
ATOM     12  C   UNL     1     127.822 133.384 115.092  1.00  0.00     0.005 C 
ATOM     13  C   UNL     1     129.605 134.520 116.410  1.00  0.00    -0.026 C 
ATOM     14  C   UNL     1     127.182 134.313 116.101  1.00  0.00     0.005 C 
ATOM     15  C   UNL     1     128.267 135.336 116.462  1.00  0.00    -0.001 C 
ATOM     16  C   UNL     1     130.777 135.378 115.840  1.00  0.00     0.007 C 
ATOM     17  C   UNL     1     129.986 134.091 117.855  1.00  0.00     0.012 C 
ATOM     18  C   UNL     1     128.249 136.580 115.507  1.00  0.00     0.000 C 
ATOM     19  C   UNL     1     130.705 136.826 116.325  1.00  0.00     0.005 C 
ATOM     20  C   UNL     1     129.467 137.546 115.737  1.00  0.00     0.003 C 
ATOM     21  C   UNL     1     126.877 137.307 115.532  1.00  0.00     0.031 C 
ATOM     22  C   UNL     1     129.123 138.905 116.458  1.00  0.00    -0.008 C 
ATOM     23  C   UNL     1     126.947 138.780 115.250  1.00  0.00    -0.027 C 
ATOM     24  C   UNL     1     127.946 139.550 115.717  1.00  0.00    -0.065 C 
ATOM     25  C   UNL     1     130.381 139.832 116.394  1.00  0.00     0.014 C 
ATOM     26  C   UNL     1     128.717 138.704 117.941  1.00  0.00     0.016 C 
ATOM     27  C   UNL     1     127.748 141.054 115.714  1.00  0.00     0.063 C 
ATOM     28  C   UNL     1     130.077 141.310 116.648  1.00  0.00     0.033 C 
ATOM     29  C   UNL     1     129.072 141.819 115.609  1.00  0.00     0.118 C 
BRANCH  29  30
ATOM     30  O   UNL     1     128.860 143.201 115.758  1.00  0.00    -0.393 OA
ATOM     31  H   UNL     1     129.647 143.579 116.232  1.00  0.00     0.210 HD
ENDBRANCH  29  30
ENDBRANCH   1  11
TORSDOF 6
ENDMDL
