MODEL 1
REMARK VINA RESULT:    -2.567      0.000      0.000
REMARK INTER + INTRA:         -10.040
REMARK INTER:                  -6.768
REMARK INTRA:                  -3.272
REMARK UNBOUND:                -3.272
REMARK SMILES CCCCCCCCCCCCCCCCCCCCCCCCCCCCCC(=O)[O-]
REMARK SMILES IDX 16 1 17 2 18 3 19 4 20 5 21 6 22 7 23 8 24 9 25 10 26 11
REMARK SMILES IDX 27 12 28 13 29 14 30 15 31 16 32 17 15 18 14 19 13 20 12 21
REMARK SMILES IDX 11 22 10 23 9 24 8 25 7 26 6 27 5 28 4 29 3 30 2 31 1 32
REMARK H PARENT
REMARK Flexibility Score: inf
ROOT
ATOM      1  C   UNL     1      16.540   7.527  19.101  1.00  0.00     0.000 C 
ENDROOT
BRANCH   1   2
ATOM      2  C   UNL     1      17.999   7.385  19.558  1.00  0.00     0.000 C 
BRANCH   2   3
ATOM      3  C   UNL     1      18.247   7.987  20.954  1.00  0.00     0.000 C 
BRANCH   3   4
ATOM      4  C   UNL     1      17.994   7.027  22.133  1.00  0.00     0.000 C 
BRANCH   4   5
ATOM      5  C   UNL     1      18.492   5.583  21.920  1.00  0.00     0.000 C 
BRANCH   5   6
ATOM      6  C   UNL     1      17.471   4.487  22.273  1.00  0.00     0.000 C 
BRANCH   6   7
ATOM      7  C   UNL     1      16.048   5.040  22.467  1.00  0.00     0.000 C 
BRANCH   7   8
ATOM      8  C   UNL     1      14.996   3.919  22.599  1.00  0.00     0.000 C 
BRANCH   8   9
ATOM      9  C   UNL     1      13.546   4.411  22.464  1.00  0.00     0.000 C 
BRANCH   9  10
ATOM     10  C   UNL     1      12.854   3.879  21.200  1.00  0.00     0.000 C 
BRANCH  10  11
ATOM     11  C   UNL     1      13.056   4.788  19.976  1.00  0.00     0.000 C 
BRANCH  11  12
ATOM     12  C   UNL     1      13.090   6.300  20.274  1.00  0.00     0.000 C 
BRANCH  12  13
ATOM     13  C   UNL     1      11.897   7.086  19.689  1.00  0.00     0.006 C 
BRANCH  13  14
ATOM     14  C   UNL     1      10.637   6.987  20.566  1.00  0.00     0.053 C 
BRANCH  14  15
ATOM     15  C   UNL     1       9.525   6.284  19.850  1.00  0.00     0.041 C 
ATOM     16  O   UNL     1       8.486   6.910  19.508  1.00  0.00    -0.550 OA
ATOM     17  O   UNL     1       9.663   4.944  19.505  1.00  0.00    -0.550 OA
ENDBRANCH  14  15
ENDBRANCH  13  14
ENDBRANCH  12  13
ENDBRANCH  11  12
ENDBRANCH  10  11
ENDBRANCH   9  10
ENDBRANCH   8   9
ENDBRANCH   7   8
ENDBRANCH   6   7
ENDBRANCH   5   6
ENDBRANCH   4   5
ENDBRANCH   3   4
ENDBRANCH   2   3
ENDBRANCH   1   2
BRANCH   1  18
ATOM     18  C   UNL     1      16.062   6.260  18.376  1.00  0.00     0.000 C 
BRANCH  18  19
ATOM     19  C   UNL     1      16.910   5.018  18.711  1.00  0.00     0.000 C 
BRANCH  19  20
ATOM     20  C   UNL     1      17.356   4.179  17.498  1.00  0.00     0.000 C 
BRANCH  20  21
ATOM     21  C   UNL     1      17.409   4.992  16.195  1.00  0.00     0.000 C 
BRANCH  21  22
ATOM     22  C   UNL     1      18.702   5.817  16.056  1.00  0.00     0.000 C 
BRANCH  22  23
ATOM     23  C   UNL     1      20.000   4.996  15.948  1.00  0.00     0.000 C 
BRANCH  23  24
ATOM     24  C   UNL     1      19.924   3.891  14.880  1.00  0.00    -0.000 C 
BRANCH  24  25
ATOM     25  C   UNL     1      20.027   4.444  13.448  1.00  0.00    -0.000 C 
BRANCH  25  26
ATOM     26  C   UNL     1      18.666   4.485  12.729  1.00  0.00    -0.000 C 
BRANCH  26  27
ATOM     27  C   UNL     1      18.733   3.904  11.308  1.00  0.00    -0.000 C 
BRANCH  27  28
ATOM     28  C   UNL     1      18.103   4.837  10.259  1.00  0.00    -0.000 C 
BRANCH  28  29
ATOM     29  C   UNL     1      19.085   5.905   9.744  1.00  0.00    -0.000 C 
BRANCH  29  30
ATOM     30  C   UNL     1      19.490   6.972  10.780  1.00  0.00    -0.000 C 
BRANCH  30  31
ATOM     31  C   UNL     1      19.959   8.310  10.183  1.00  0.00    -0.003 C 
ATOM     32  C   UNL     1      19.070   8.796   9.038  1.00  0.00     0.004 C 
ENDBRANCH  30  31
ENDBRANCH  29  30
ENDBRANCH  28  29
ENDBRANCH  27  28
ENDBRANCH  26  27
ENDBRANCH  25  26
ENDBRANCH  24  25
ENDBRANCH  23  24
ENDBRANCH  22  23
ENDBRANCH  21  22
ENDBRANCH  20  21
ENDBRANCH  19  20
ENDBRANCH  18  19
ENDBRANCH   1  18
TORSDOF 28
ENDMDL
MODEL 2
REMARK VINA RESULT:    -1.685      3.725      9.106
REMARK INTER + INTRA:          -7.716
REMARK INTER:                  -5.974
REMARK INTRA:                  -1.742
REMARK UNBOUND:                -3.272
REMARK SMILES CCCCCCCCCCCCCCCCCCCCCCCCCCCCCC(=O)[O-]
REMARK SMILES IDX 16 1 17 2 18 3 19 4 20 5 21 6 22 7 23 8 24 9 25 10 26 11
REMARK SMILES IDX 27 12 28 13 29 14 30 15 31 16 32 17 15 18 14 19 13 20 12 21
REMARK SMILES IDX 11 22 10 23 9 24 8 25 7 26 6 27 5 28 4 29 3 30 2 31 1 32
REMARK H PARENT
REMARK Flexibility Score: inf
ROOT
ATOM      1  C   UNL     1      11.539   5.499  17.982  1.00  0.00     0.000 C 
ENDROOT
BRANCH   1   2
ATOM      2  C   UNL     1      12.429   4.305  17.606  1.00  0.00     0.000 C 
BRANCH   2   3
ATOM      3  C   UNL     1      13.641   4.147  18.544  1.00  0.00     0.000 C 
BRANCH   3   4
ATOM      4  C   UNL     1      14.982   3.875  17.836  1.00  0.00     0.000 C 
BRANCH   4   5
ATOM      5  C   UNL     1      15.425   4.959  16.832  1.00  0.00     0.000 C 
BRANCH   5   6
ATOM      6  C   UNL     1      16.771   5.631  17.156  1.00  0.00     0.000 C 
BRANCH   6   7
ATOM      7  C   UNL     1      17.656   4.775  18.078  1.00  0.00     0.000 C 
BRANCH   7   8
ATOM      8  C   UNL     1      18.814   4.097  17.315  1.00  0.00     0.000 C 
BRANCH   8   9
ATOM      9  C   UNL     1      19.433   4.979  16.217  1.00  0.00     0.000 C 
BRANCH   9  10
ATOM     10  C   UNL     1      19.788   4.186  14.950  1.00  0.00     0.000 C 
BRANCH  10  11
ATOM     11  C   UNL     1      18.591   4.002  14.001  1.00  0.00     0.000 C 
BRANCH  11  12
ATOM     12  C   UNL     1      18.865   4.330  12.520  1.00  0.00     0.000 C 
BRANCH  12  13
ATOM     13  C   UNL     1      17.592   4.587  11.685  1.00  0.00     0.006 C 
BRANCH  13  14
ATOM     14  C   UNL     1      17.893   4.766  10.188  1.00  0.00     0.053 C 
BRANCH  14  15
ATOM     15  C   UNL     1      18.921   5.831   9.959  1.00  0.00     0.041 C 
ATOM     16  O   UNL     1      20.005   5.561   9.375  1.00  0.00    -0.550 OA
ATOM     17  O   UNL     1      18.654   7.142  10.338  1.00  0.00    -0.550 OA
ENDBRANCH  14  15
ENDBRANCH  13  14
ENDBRANCH  12  13
ENDBRANCH  11  12
ENDBRANCH  10  11
ENDBRANCH   9  10
ENDBRANCH   8   9
ENDBRANCH   7   8
ENDBRANCH   6   7
ENDBRANCH   5   6
ENDBRANCH   4   5
ENDBRANCH   3   4
ENDBRANCH   2   3
ENDBRANCH   1   2
BRANCH   1  18
ATOM     18  C   UNL     1      10.608   5.147  19.151  1.00  0.00     0.000 C 
BRANCH  18  19
ATOM     19  C   UNL     1      11.369   4.696  20.413  1.00  0.00     0.000 C 
BRANCH  19  20
ATOM     20  C   UNL     1      12.464   5.663  20.902  1.00  0.00     0.000 C 
BRANCH  20  21
ATOM     21  C   UNL     1      13.125   5.207  22.212  1.00  0.00     0.000 C 
BRANCH  21  22
ATOM     22  C   UNL     1      13.918   3.896  22.058  1.00  0.00     0.000 C 
BRANCH  22  23
ATOM     23  C   UNL     1      15.438   4.062  21.880  1.00  0.00     0.000 C 
BRANCH  23  24
ATOM     24  C   UNL     1      16.062   5.017  22.913  1.00  0.00    -0.000 C 
BRANCH  24  25
ATOM     25  C   UNL     1      17.158   5.911  22.306  1.00  0.00    -0.000 C 
BRANCH  25  26
ATOM     26  C   UNL     1      18.461   5.891  23.125  1.00  0.00    -0.000 C 
BRANCH  26  27
ATOM     27  C   UNL     1      19.582   5.103  22.430  1.00  0.00    -0.000 C 
BRANCH  27  28
ATOM     28  C   UNL     1      19.931   5.670  21.042  1.00  0.00    -0.000 C 
BRANCH  28  29
ATOM     29  C   UNL     1      20.106   7.200  21.051  1.00  0.00    -0.000 C 
BRANCH  29  30
ATOM     30  C   UNL     1      18.972   7.990  20.367  1.00  0.00    -0.000 C 
BRANCH  30  31
ATOM     31  C   UNL     1      18.776   7.681  18.872  1.00  0.00    -0.003 C 
ATOM     32  C   UNL     1      19.737   8.459  17.973  1.00  0.00     0.004 C 
ENDBRANCH  30  31
ENDBRANCH  29  30
ENDBRANCH  28  29
ENDBRANCH  27  28
ENDBRANCH  26  27
ENDBRANCH  25  26
ENDBRANCH  24  25
ENDBRANCH  23  24
ENDBRANCH  22  23
ENDBRANCH  21  22
ENDBRANCH  20  21
ENDBRANCH  19  20
ENDBRANCH  18  19
ENDBRANCH   1  18
TORSDOF 28
ENDMDL
MODEL 3
REMARK VINA RESULT:    -1.657      1.828      3.191
REMARK INTER + INTRA:          -7.642
REMARK INTER:                  -5.885
REMARK INTRA:                  -1.757
REMARK UNBOUND:                -3.272
REMARK SMILES CCCCCCCCCCCCCCCCCCCCCCCCCCCCCC(=O)[O-]
REMARK SMILES IDX 16 1 17 2 18 3 19 4 20 5 21 6 22 7 23 8 24 9 25 10 26 11
REMARK SMILES IDX 27 12 28 13 29 14 30 15 31 16 32 17 15 18 14 19 13 20 12 21
REMARK SMILES IDX 11 22 10 23 9 24 8 25 7 26 6 27 5 28 4 29 3 30 2 31 1 32
REMARK H PARENT
REMARK Flexibility Score: inf
ROOT
ATOM      1  C   UNL     1      19.176   7.986  20.513  1.00  0.00     0.000 C 
ENDROOT
BRANCH   1   2
ATOM      2  C   UNL     1      19.716   8.671  21.777  1.00  0.00     0.000 C 
BRANCH   2   3
ATOM      3  C   UNL     1      18.856   8.386  23.023  1.00  0.00     0.000 C 
BRANCH   3   4
ATOM      4  C   UNL     1      17.685   7.410  22.797  1.00  0.00     0.000 C 
BRANCH   4   5
ATOM      5  C   UNL     1      18.094   5.965  22.444  1.00  0.00     0.000 C 
BRANCH   5   6
ATOM      6  C   UNL     1      17.245   4.869  23.113  1.00  0.00     0.000 C 
BRANCH   6   7
ATOM      7  C   UNL     1      15.738   5.176  23.072  1.00  0.00     0.000 C 
BRANCH   7   8
ATOM      8  C   UNL     1      15.105   4.820  21.710  1.00  0.00     0.000 C 
BRANCH   8   9
ATOM      9  C   UNL     1      16.119   4.741  20.557  1.00  0.00     0.000 C 
BRANCH   9  10
ATOM     10  C   UNL     1      16.055   5.962  19.625  1.00  0.00     0.000 C 
BRANCH  10  11
ATOM     11  C   UNL     1      14.814   5.961  18.717  1.00  0.00     0.000 C 
BRANCH  11  12
ATOM     12  C   UNL     1      14.091   4.605  18.588  1.00  0.00     0.000 C 
BRANCH  12  13
ATOM     13  C   UNL     1      12.581   4.722  18.290  1.00  0.00     0.006 C 
BRANCH  13  14
ATOM     14  C   UNL     1      11.714   4.525  19.544  1.00  0.00     0.053 C 
BRANCH  14  15
ATOM     15  C   UNL     1      10.451   5.328  19.471  1.00  0.00     0.041 C 
ATOM     16  O   UNL     1       9.536   5.011  18.665  1.00  0.00    -0.550 OA
ATOM     17  O   UNL     1      10.260   6.396  20.341  1.00  0.00    -0.550 OA
ENDBRANCH  14  15
ENDBRANCH  13  14
ENDBRANCH  12  13
ENDBRANCH  11  12
ENDBRANCH  10  11
ENDBRANCH   9  10
ENDBRANCH   8   9
ENDBRANCH   7   8
ENDBRANCH   6   7
ENDBRANCH   5   6
ENDBRANCH   4   5
ENDBRANCH   3   4
ENDBRANCH   2   3
ENDBRANCH   1   2
BRANCH   1  18
ATOM     18  C   UNL     1      19.999   6.736  20.168  1.00  0.00     0.000 C 
BRANCH  18  19
ATOM     19  C   UNL     1      19.230   5.732  19.288  1.00  0.00     0.000 C 
BRANCH  19  20
ATOM     20  C   UNL     1      20.090   4.953  18.274  1.00  0.00     0.000 C 
BRANCH  20  21
ATOM     21  C   UNL     1      19.253   4.082  17.324  1.00  0.00     0.000 C 
BRANCH  21  22
ATOM     22  C   UNL     1      18.113   4.863  16.643  1.00  0.00     0.000 C 
BRANCH  22  23
ATOM     23  C   UNL     1      17.407   4.127  15.490  1.00  0.00     0.000 C 
BRANCH  23  24
ATOM     24  C   UNL     1      18.319   3.910  14.269  1.00  0.00    -0.000 C 
BRANCH  24  25
ATOM     25  C   UNL     1      17.773   4.579  12.997  1.00  0.00    -0.000 C 
BRANCH  25  26
ATOM     26  C   UNL     1      18.889   5.143  12.098  1.00  0.00    -0.000 C 
BRANCH  26  27
ATOM     27  C   UNL     1      19.877   6.030  12.871  1.00  0.00    -0.000 C 
BRANCH  27  28
ATOM     28  C   UNL     1      19.429   7.501  12.931  1.00  0.00    -0.000 C 
BRANCH  28  29
ATOM     29  C   UNL     1      19.947   8.231  14.183  1.00  0.00    -0.000 C 
BRANCH  29  30
ATOM     30  C   UNL     1      19.660   7.517  15.520  1.00  0.00    -0.000 C 
BRANCH  30  31
ATOM     31  C   UNL     1      19.671   8.431  16.758  1.00  0.00    -0.003 C 
ATOM     32  C   UNL     1      20.125   9.856  16.442  1.00  0.00     0.004 C 
ENDBRANCH  30  31
ENDBRANCH  29  30
ENDBRANCH  28  29
ENDBRANCH  27  28
ENDBRANCH  26  27
ENDBRANCH  25  26
ENDBRANCH  24  25
ENDBRANCH  23  24
ENDBRANCH  22  23
ENDBRANCH  21  22
ENDBRANCH  20  21
ENDBRANCH  19  20
ENDBRANCH  18  19
ENDBRANCH   1  18
TORSDOF 28
ENDMDL
MODEL 4
REMARK VINA RESULT:    -1.231      1.483      2.246
REMARK INTER + INTRA:          -6.518
REMARK INTER:                  -5.715
REMARK INTRA:                  -0.802
REMARK UNBOUND:                -3.272
REMARK SMILES CCCCCCCCCCCCCCCCCCCCCCCCCCCCCC(=O)[O-]
REMARK SMILES IDX 16 1 17 2 18 3 19 4 20 5 21 6 22 7 23 8 24 9 25 10 26 11
REMARK SMILES IDX 27 12 28 13 29 14 30 15 31 16 32 17 15 18 14 19 13 20 12 21
REMARK SMILES IDX 11 22 10 23 9 24 8 25 7 26 6 27 5 28 4 29 3 30 2 31 1 32
REMARK H PARENT
REMARK Flexibility Score: inf
ROOT
ATOM      1  C   UNL     1      19.159   8.096  20.504  1.00  0.00     0.000 C 
ENDROOT
BRANCH   1   2
ATOM      2  C   UNL     1      19.702   8.701  21.807  1.00  0.00     0.000 C 
BRANCH   2   3
ATOM      3  C   UNL     1      18.774   8.454  23.011  1.00  0.00     0.000 C 
BRANCH   3   4
ATOM      4  C   UNL     1      17.612   7.477  22.747  1.00  0.00     0.000 C 
BRANCH   4   5
ATOM      5  C   UNL     1      18.033   6.027  22.429  1.00  0.00     0.000 C 
BRANCH   5   6
ATOM      6  C   UNL     1      17.180   4.941  23.107  1.00  0.00     0.000 C 
BRANCH   6   7
ATOM      7  C   UNL     1      15.677   5.267  23.090  1.00  0.00     0.000 C 
BRANCH   7   8
ATOM      8  C   UNL     1      14.942   4.585  21.916  1.00  0.00     0.000 C 
BRANCH   8   9
ATOM      9  C   UNL     1      15.833   4.340  20.687  1.00  0.00     0.000 C 
BRANCH   9  10
ATOM     10  C   UNL     1      15.667   5.421  19.608  1.00  0.00     0.000 C 
BRANCH  10  11
ATOM     11  C   UNL     1      14.543   5.105  18.607  1.00  0.00     0.000 C 
BRANCH  11  12
ATOM     12  C   UNL     1      13.201   4.675  19.234  1.00  0.00     0.000 C 
BRANCH  12  13
ATOM     13  C   UNL     1      12.164   4.162  18.212  1.00  0.00     0.006 C 
BRANCH  13  14
ATOM     14  C   UNL     1      11.015   5.159  17.986  1.00  0.00     0.053 C 
BRANCH  14  15
ATOM     15  C   UNL     1      10.059   5.167  19.139  1.00  0.00     0.041 C 
ATOM     16  O   UNL     1       9.353   4.154  19.394  1.00  0.00    -0.550 OA
ATOM     17  O   UNL     1       9.994   6.277  19.975  1.00  0.00    -0.550 OA
ENDBRANCH  14  15
ENDBRANCH  13  14
ENDBRANCH  12  13
ENDBRANCH  11  12
ENDBRANCH  10  11
ENDBRANCH   9  10
ENDBRANCH   8   9
ENDBRANCH   7   8
ENDBRANCH   6   7
ENDBRANCH   5   6
ENDBRANCH   4   5
ENDBRANCH   3   4
ENDBRANCH   2   3
ENDBRANCH   1   2
BRANCH   1  18
ATOM     18  C   UNL     1      19.964   6.854  20.093  1.00  0.00     0.000 C 
BRANCH  18  19
ATOM     19  C   UNL     1      19.172   5.897  19.181  1.00  0.00     0.000 C 
BRANCH  19  20
ATOM     20  C   UNL     1      20.007   5.170  18.109  1.00  0.00     0.000 C 
BRANCH  20  21
ATOM     21  C   UNL     1      19.167   4.227  17.234  1.00  0.00     0.000 C 
BRANCH  21  22
ATOM     22  C   UNL     1      17.990   4.941  16.542  1.00  0.00     0.000 C 
BRANCH  22  23
ATOM     23  C   UNL     1      17.365   4.184  15.357  1.00  0.00     0.000 C 
BRANCH  23  24
ATOM     24  C   UNL     1      18.253   4.197  14.100  1.00  0.00    -0.000 C 
BRANCH  24  25
ATOM     25  C   UNL     1      17.551   4.832  12.887  1.00  0.00    -0.000 C 
BRANCH  25  26
ATOM     26  C   UNL     1      17.891   4.119  11.566  1.00  0.00    -0.000 C 
BRANCH  26  27
ATOM     27  C   UNL     1      19.399   3.875  11.398  1.00  0.00    -0.000 C 
BRANCH  27  28
ATOM     28  C   UNL     1      20.125   5.075  10.765  1.00  0.00    -0.000 C 
BRANCH  28  29
ATOM     29  C   UNL     1      19.444   5.574   9.478  1.00  0.00    -0.000 C 
BRANCH  29  30
ATOM     30  C   UNL     1      18.290   6.574   9.695  1.00  0.00    -0.000 C 
BRANCH  30  31
ATOM     31  C   UNL     1      18.623   8.034   9.343  1.00  0.00    -0.003 C 
ATOM     32  C   UNL     1      20.095   8.381   9.570  1.00  0.00     0.004 C 
ENDBRANCH  30  31
ENDBRANCH  29  30
ENDBRANCH  28  29
ENDBRANCH  27  28
ENDBRANCH  26  27
ENDBRANCH  25  26
ENDBRANCH  24  25
ENDBRANCH  23  24
ENDBRANCH  22  23
ENDBRANCH  21  22
ENDBRANCH  20  21
ENDBRANCH  19  20
ENDBRANCH  18  19
ENDBRANCH   1  18
TORSDOF 28
ENDMDL
MODEL 5
REMARK VINA RESULT:    -0.804      3.768      9.645
REMARK INTER + INTRA:          -5.391
REMARK INTER:                  -4.606
REMARK INTRA:                  -0.785
REMARK UNBOUND:                -3.272
REMARK SMILES CCCCCCCCCCCCCCCCCCCCCCCCCCCCCC(=O)[O-]
REMARK SMILES IDX 16 1 17 2 18 3 19 4 20 5 21 6 22 7 23 8 24 9 25 10 26 11
REMARK SMILES IDX 27 12 28 13 29 14 30 15 31 16 32 17 15 18 14 19 13 20 12 21
REMARK SMILES IDX 11 22 10 23 9 24 8 25 7 26 6 27 5 28 4 29 3 30 2 31 1 32
REMARK H PARENT
REMARK Flexibility Score: inf
ROOT
ATOM      1  C   UNL     1      16.909   5.306  17.597  1.00  0.00     0.000 C 
ENDROOT
BRANCH   1   2
ATOM      2  C   UNL     1      17.829   4.957  18.777  1.00  0.00     0.000 C 
BRANCH   2   3
ATOM      3  C   UNL     1      19.002   4.048  18.366  1.00  0.00     0.000 C 
BRANCH   3   4
ATOM      4  C   UNL     1      19.497   4.236  16.919  1.00  0.00     0.000 C 
BRANCH   4   5
ATOM      5  C   UNL     1      20.125   5.611  16.614  1.00  0.00     0.000 C 
BRANCH   5   6
ATOM      6  C   UNL     1      19.189   6.608  15.908  1.00  0.00     0.000 C 
BRANCH   6   7
ATOM      7  C   UNL     1      19.433   6.680  14.390  1.00  0.00     0.000 C 
BRANCH   7   8
ATOM      8  C   UNL     1      19.769   5.301  13.785  1.00  0.00     0.000 C 
BRANCH   8   9
ATOM      9  C   UNL     1      18.550   4.376  13.636  1.00  0.00     0.000 C 
BRANCH   9  10
ATOM     10  C   UNL     1      18.118   4.193  12.173  1.00  0.00     0.000 C 
BRANCH  10  11
ATOM     11  C   UNL     1      17.890   5.527  11.443  1.00  0.00     0.000 C 
BRANCH  11  12
ATOM     12  C   UNL     1      18.246   5.529   9.943  1.00  0.00     0.000 C 
BRANCH  12  13
ATOM     13  C   UNL     1      19.759   5.628   9.654  1.00  0.00     0.006 C 
BRANCH  13  14
ATOM     14  C   UNL     1      20.125   6.881   8.841  1.00  0.00     0.053 C 
BRANCH  14  15
ATOM     15  C   UNL     1      19.886   8.134   9.628  1.00  0.00     0.041 C 
ATOM     16  O   UNL     1      19.509   9.190   9.053  1.00  0.00    -0.550 OA
ATOM     17  O   UNL     1      20.023   8.117  11.012  1.00  0.00    -0.550 OA
ENDBRANCH  14  15
ENDBRANCH  13  14
ENDBRANCH  12  13
ENDBRANCH  11  12
ENDBRANCH  10  11
ENDBRANCH   9  10
ENDBRANCH   8   9
ENDBRANCH   7   8
ENDBRANCH   6   7
ENDBRANCH   5   6
ENDBRANCH   4   5
ENDBRANCH   3   4
ENDBRANCH   2   3
ENDBRANCH   1   2
BRANCH   1  18
ATOM     18  C   UNL     1      16.086   6.569  17.894  1.00  0.00     0.000 C 
BRANCH  18  19
ATOM     19  C   UNL     1      16.673   7.415  19.040  1.00  0.00     0.000 C 
BRANCH  19  20
ATOM     20  C   UNL     1      18.182   7.231  19.287  1.00  0.00     0.000 C 
BRANCH  20  21
ATOM     21  C   UNL     1      18.691   8.022  20.501  1.00  0.00     0.000 C 
BRANCH  21  22
ATOM     22  C   UNL     1      18.427   7.304  21.838  1.00  0.00     0.000 C 
BRANCH  22  23
ATOM     23  C   UNL     1      19.331   6.092  22.125  1.00  0.00     0.000 C 
BRANCH  23  24
ATOM     24  C   UNL     1      18.640   4.746  21.841  1.00  0.00    -0.000 C 
BRANCH  24  25
ATOM     25  C   UNL     1      17.426   4.501  22.753  1.00  0.00    -0.000 C 
BRANCH  25  26
ATOM     26  C   UNL     1      16.122   5.079  22.174  1.00  0.00    -0.000 C 
BRANCH  26  27
ATOM     27  C   UNL     1      14.936   4.113  22.313  1.00  0.00    -0.000 C 
BRANCH  27  28
ATOM     28  C   UNL     1      14.197   3.887  20.982  1.00  0.00    -0.000 C 
BRANCH  28  29
ATOM     29  C   UNL     1      13.621   5.187  20.392  1.00  0.00    -0.000 C 
BRANCH  29  30
ATOM     30  C   UNL     1      12.404   4.999  19.464  1.00  0.00    -0.000 C 
BRANCH  30  31
ATOM     31  C   UNL     1      12.551   3.878  18.420  1.00  0.00    -0.003 C 
ATOM     32  C   UNL     1      13.145   4.368  17.100  1.00  0.00     0.004 C 
ENDBRANCH  30  31
ENDBRANCH  29  30
ENDBRANCH  28  29
ENDBRANCH  27  28
ENDBRANCH  26  27
ENDBRANCH  25  26
ENDBRANCH  24  25
ENDBRANCH  23  24
ENDBRANCH  22  23
ENDBRANCH  21  22
ENDBRANCH  20  21
ENDBRANCH  19  20
ENDBRANCH  18  19
ENDBRANCH   1  18
TORSDOF 28
ENDMDL
MODEL 6
REMARK VINA RESULT:    -0.737      3.502      8.397
REMARK INTER + INTRA:          -5.216
REMARK INTER:                  -4.104
REMARK INTRA:                  -1.112
REMARK UNBOUND:                -3.272
REMARK SMILES CCCCCCCCCCCCCCCCCCCCCCCCCCCCCC(=O)[O-]
REMARK SMILES IDX 16 1 17 2 18 3 19 4 20 5 21 6 22 7 23 8 24 9 25 10 26 11
REMARK SMILES IDX 27 12 28 13 29 14 30 15 31 16 32 17 15 18 14 19 13 20 12 21
REMARK SMILES IDX 11 22 10 23 9 24 8 25 7 26 6 27 5 28 4 29 3 30 2 31 1 32
REMARK H PARENT
REMARK Flexibility Score: inf
ROOT
ATOM      1  C   UNL     1       9.943   4.435  19.275  1.00  0.00     0.000 C 
ENDROOT
BRANCH   1   2
ATOM      2  C   UNL     1      10.366   5.618  18.391  1.00  0.00     0.000 C 
BRANCH   2   3
ATOM      3  C   UNL     1      11.518   5.262  17.433  1.00  0.00     0.000 C 
BRANCH   3   4
ATOM      4  C   UNL     1      12.161   3.882  17.670  1.00  0.00     0.000 C 
BRANCH   4   5
ATOM      5  C   UNL     1      13.701   3.882  17.755  1.00  0.00     0.000 C 
BRANCH   5   6
ATOM      6  C   UNL     1      14.421   4.329  16.470  1.00  0.00     0.000 C 
BRANCH   6   7
ATOM      7  C   UNL     1      15.877   4.756  16.723  1.00  0.00     0.000 C 
BRANCH   7   8
ATOM      8  C   UNL     1      16.162   5.008  18.219  1.00  0.00     0.000 C 
BRANCH   8   9
ATOM      9  C   UNL     1      17.629   5.359  18.519  1.00  0.00     0.000 C 
BRANCH   9  10
ATOM     10  C   UNL     1      18.474   4.125  18.872  1.00  0.00     0.000 C 
BRANCH  10  11
ATOM     11  C   UNL     1      19.888   4.172  18.268  1.00  0.00     0.000 C 
BRANCH  11  12
ATOM     12  C   UNL     1      19.947   4.278  16.731  1.00  0.00     0.000 C 
BRANCH  12  13
ATOM     13  C   UNL     1      19.032   5.370  16.138  1.00  0.00     0.006 C 
BRANCH  13  14
ATOM     14  C   UNL     1      19.602   5.983  14.849  1.00  0.00     0.053 C 
BRANCH  14  15
ATOM     15  C   UNL     1      18.946   5.408  13.631  1.00  0.00     0.041 C 
ATOM     16  O   UNL     1      19.224   5.851  12.484  1.00  0.00    -0.550 OA
ATOM     17  O   UNL     1      18.070   4.336  13.759  1.00  0.00    -0.550 OA
ENDBRANCH  14  15
ENDBRANCH  13  14
ENDBRANCH  12  13
ENDBRANCH  11  12
ENDBRANCH  10  11
ENDBRANCH   9  10
ENDBRANCH   8   9
ENDBRANCH   7   8
ENDBRANCH   6   7
ENDBRANCH   5   6
ENDBRANCH   4   5
ENDBRANCH   3   4
ENDBRANCH   2   3
ENDBRANCH   1   2
BRANCH   1  18
ATOM     18  C   UNL     1      11.139   3.875  20.059  1.00  0.00     0.000 C 
BRANCH  18  19
ATOM     19  C   UNL     1      11.834   4.935  20.934  1.00  0.00     0.000 C 
BRANCH  19  20
ATOM     20  C   UNL     1      12.880   4.387  21.924  1.00  0.00     0.000 C 
BRANCH  20  21
ATOM     21  C   UNL     1      13.372   5.446  22.922  1.00  0.00     0.000 C 
BRANCH  21  22
ATOM     22  C   UNL     1      14.901   5.429  23.109  1.00  0.00     0.000 C 
BRANCH  22  23
ATOM     23  C   UNL     1      15.662   4.424  22.226  1.00  0.00     0.000 C 
BRANCH  23  24
ATOM     24  C   UNL     1      17.134   4.253  22.642  1.00  0.00    -0.000 C 
BRANCH  24  25
ATOM     25  C   UNL     1      17.832   5.597  22.910  1.00  0.00    -0.000 C 
BRANCH  25  26
ATOM     26  C   UNL     1      19.073   5.809  22.024  1.00  0.00    -0.000 C 
BRANCH  26  27
ATOM     27  C   UNL     1      19.937   6.989  22.492  1.00  0.00    -0.000 C 
BRANCH  27  28
ATOM     28  C   UNL     1      19.924   8.163  21.497  1.00  0.00    -0.000 C 
BRANCH  28  29
ATOM     29  C   UNL     1      19.697   7.711  20.043  1.00  0.00    -0.000 C 
BRANCH  29  30
ATOM     30  C   UNL     1      19.857   8.819  18.983  1.00  0.00    -0.000 C 
BRANCH  30  31
ATOM     31  C   UNL     1      19.844   8.327  17.525  1.00  0.00    -0.003 C 
ATOM     32  C   UNL     1      19.996   9.462  16.512  1.00  0.00     0.004 C 
ENDBRANCH  30  31
ENDBRANCH  29  30
ENDBRANCH  28  29
ENDBRANCH  27  28
ENDBRANCH  26  27
ENDBRANCH  25  26
ENDBRANCH  24  25
ENDBRANCH  23  24
ENDBRANCH  22  23
ENDBRANCH  21  22
ENDBRANCH  20  21
ENDBRANCH  19  20
ENDBRANCH  18  19
ENDBRANCH   1  18
TORSDOF 28
ENDMDL
