MODEL 1
REMARK VINA RESULT:    -4.053      0.000      0.000
REMARK INTER + INTRA:         -13.352
REMARK INTER:                 -10.213
REMARK INTRA:                  -3.140
REMARK UNBOUND:                -3.140
REMARK SMILES CCCCCCCCCCCCCCCCCCCCCCCCCCCC(=O)[O-]
REMARK SMILES IDX 15 1 16 2 17 3 18 4 19 5 20 6 21 7 22 8 23 9 24 10 25 11
REMARK SMILES IDX 26 12 27 13 28 14 29 15 30 16 14 17 13 18 12 19 11 20 10 21
REMARK SMILES IDX 9 22 8 23 7 24 6 25 5 26 4 27 3 28 2 29 1 30
REMARK H PARENT
REMARK Flexibility Score: inf
ROOT
ATOM      1  C   UNL     1      59.466  24.435  52.126  1.00  0.00     0.000 C 
ENDROOT
BRANCH   1   2
ATOM      2  C   UNL     1      58.331  25.152  51.364  1.00  0.00     0.000 C 
BRANCH   2   3
ATOM      3  C   UNL     1      58.794  25.869  50.080  1.00  0.00     0.000 C 
BRANCH   3   4
ATOM      4  C   UNL     1      60.282  26.264  50.043  1.00  0.00     0.000 C 
BRANCH   4   5
ATOM      5  C   UNL     1      60.549  27.778  49.931  1.00  0.00     0.000 C 
BRANCH   5   6
ATOM      6  C   UNL     1      59.658  28.465  48.883  1.00  0.00     0.000 C 
BRANCH   6   7
ATOM      7  C   UNL     1      58.963  29.721  49.437  1.00  0.00     0.000 C 
BRANCH   7   8
ATOM      8  C   UNL     1      58.173  29.439  50.728  1.00  0.00     0.000 C 
BRANCH   8   9
ATOM      9  C   UNL     1      56.689  29.122  50.448  1.00  0.00     0.000 C 
BRANCH   9  10
ATOM     10  C   UNL     1      55.972  28.441  51.628  1.00  0.00     0.000 C 
BRANCH  10  11
ATOM     11  C   UNL     1      54.442  28.450  51.480  1.00  0.00     0.000 C 
BRANCH  11  12
ATOM     12  C   UNL     1      53.982  28.367  50.013  1.00  0.00     0.006 C 
BRANCH  12  13
ATOM     13  C   UNL     1      53.125  27.133  49.685  1.00  0.00     0.053 C 
BRANCH  13  14
ATOM     14  C   UNL     1      53.963  25.905  49.497  1.00  0.00     0.041 C 
ATOM     15  O   UNL     1      55.191  26.012  49.235  1.00  0.00    -0.550 OA
ATOM     16  O   UNL     1      53.394  24.644  49.639  1.00  0.00    -0.550 OA
ENDBRANCH  13  14
ENDBRANCH  12  13
ENDBRANCH  11  12
ENDBRANCH  10  11
ENDBRANCH   9  10
ENDBRANCH   8   9
ENDBRANCH   7   8
ENDBRANCH   6   7
ENDBRANCH   5   6
ENDBRANCH   4   5
ENDBRANCH   3   4
ENDBRANCH   2   3
ENDBRANCH   1   2
BRANCH   1  17
ATOM     17  C   UNL     1      59.398  22.904  51.984  1.00  0.00     0.000 C 
BRANCH  17  18
ATOM     18  C   UNL     1      60.783  22.260  51.824  1.00  0.00     0.000 C 
BRANCH  18  19
ATOM     19  C   UNL     1      61.502  22.713  50.541  1.00  0.00     0.000 C 
BRANCH  19  20
ATOM     20  C   UNL     1      60.636  22.436  49.300  1.00  0.00     0.000 C 
BRANCH  20  21
ATOM     21  C   UNL     1      61.040  21.148  48.555  1.00  0.00     0.000 C 
BRANCH  21  22
ATOM     22  C   UNL     1      59.922  20.088  48.448  1.00  0.00    -0.000 C 
BRANCH  22  23
ATOM     23  C   UNL     1      60.150  18.843  49.321  1.00  0.00    -0.000 C 
BRANCH  23  24
ATOM     24  C   UNL     1      59.572  17.557  48.703  1.00  0.00    -0.000 C 
BRANCH  24  25
ATOM     25  C   UNL     1      58.422  16.967  49.534  1.00  0.00    -0.000 C 
BRANCH  25  26
ATOM     26  C   UNL     1      57.491  18.049  50.101  1.00  0.00    -0.000 C 
BRANCH  26  27
ATOM     27  C   UNL     1      57.527  18.051  51.636  1.00  0.00    -0.000 C 
BRANCH  27  28
ATOM     28  C   UNL     1      57.822  19.446  52.212  1.00  0.00    -0.000 C 
BRANCH  28  29
ATOM     29  C   UNL     1      56.565  20.126  52.779  1.00  0.00    -0.003 C 
ATOM     30  C   UNL     1      55.864  19.226  53.791  1.00  0.00     0.004 C 
ENDBRANCH  28  29
ENDBRANCH  27  28
ENDBRANCH  26  27
ENDBRANCH  25  26
ENDBRANCH  24  25
ENDBRANCH  23  24
ENDBRANCH  22  23
ENDBRANCH  21  22
ENDBRANCH  20  21
ENDBRANCH  19  20
ENDBRANCH  18  19
ENDBRANCH  17  18
ENDBRANCH   1  17
TORSDOF 26
ENDMDL
MODEL 2
REMARK VINA RESULT:    -3.951      3.739      7.756
REMARK INTER + INTRA:         -13.095
REMARK INTER:                  -7.613
REMARK INTRA:                  -5.482
REMARK UNBOUND:                -3.140
REMARK SMILES CCCCCCCCCCCCCCCCCCCCCCCCCCCC(=O)[O-]
REMARK SMILES IDX 15 1 16 2 17 3 18 4 19 5 20 6 21 7 22 8 23 9 24 10 25 11
REMARK SMILES IDX 26 12 27 13 28 14 29 15 30 16 14 17 13 18 12 19 11 20 10 21
REMARK SMILES IDX 9 22 8 23 7 24 6 25 5 26 4 27 3 28 2 29 1 30
REMARK H PARENT
REMARK Flexibility Score: inf
ROOT
ATOM      1  C   UNL     1      58.286  26.105  49.938  1.00  0.00     0.000 C 
ENDROOT
BRANCH   1   2
ATOM      2  C   UNL     1      58.078  27.634  49.932  1.00  0.00     0.000 C 
BRANCH   2   3
ATOM      3  C   UNL     1      59.157  28.409  49.149  1.00  0.00     0.000 C 
BRANCH   3   4
ATOM      4  C   UNL     1      59.330  29.887  49.548  1.00  0.00     0.000 C 
BRANCH   4   5
ATOM      5  C   UNL     1      60.584  30.190  50.391  1.00  0.00     0.000 C 
BRANCH   5   6
ATOM      6  C   UNL     1      60.251  30.541  51.851  1.00  0.00     0.000 C 
BRANCH   6   7
ATOM      7  C   UNL     1      60.882  29.556  52.849  1.00  0.00     0.000 C 
BRANCH   7   8
ATOM      8  C   UNL     1      60.468  28.096  52.583  1.00  0.00     0.000 C 
BRANCH   8   9
ATOM      9  C   UNL     1      61.687  27.158  52.453  1.00  0.00     0.000 C 
BRANCH   9  10
ATOM     10  C   UNL     1      62.602  27.500  51.263  1.00  0.00     0.000 C 
BRANCH  10  11
ATOM     11  C   UNL     1      62.742  26.339  50.266  1.00  0.00     0.000 C 
BRANCH  11  12
ATOM     12  C   UNL     1      61.707  25.223  50.499  1.00  0.00     0.006 C 
BRANCH  12  13
ATOM     13  C   UNL     1      62.307  23.890  50.975  1.00  0.00     0.053 C 
BRANCH  13  14
ATOM     14  C   UNL     1      61.582  22.713  50.396  1.00  0.00     0.041 C 
ATOM     15  O   UNL     1      61.943  21.542  50.687  1.00  0.00    -0.550 OA
ATOM     16  O   UNL     1      60.491  22.911  49.556  1.00  0.00    -0.550 OA
ENDBRANCH  13  14
ENDBRANCH  12  13
ENDBRANCH  11  12
ENDBRANCH  10  11
ENDBRANCH   9  10
ENDBRANCH   8   9
ENDBRANCH   7   8
ENDBRANCH   6   7
ENDBRANCH   5   6
ENDBRANCH   4   5
ENDBRANCH   3   4
ENDBRANCH   2   3
ENDBRANCH   1   2
BRANCH   1  17
ATOM     17  C   UNL     1      57.983  25.473  51.309  1.00  0.00     0.000 C 
BRANCH  17  18
ATOM     18  C   UNL     1      57.117  26.375  52.200  1.00  0.00     0.000 C 
BRANCH  18  19
ATOM     19  C   UNL     1      56.176  25.575  53.118  1.00  0.00     0.000 C 
BRANCH  19  20
ATOM     20  C   UNL     1      55.105  26.489  53.737  1.00  0.00     0.000 C 
BRANCH  20  21
ATOM     21  C   UNL     1      53.721  26.332  53.078  1.00  0.00     0.000 C 
BRANCH  21  22
ATOM     22  C   UNL     1      53.533  25.025  52.276  1.00  0.00    -0.000 C 
BRANCH  22  23
ATOM     23  C   UNL     1      53.063  25.238  50.828  1.00  0.00    -0.000 C 
BRANCH  23  24
ATOM     24  C   UNL     1      54.222  25.477  49.844  1.00  0.00    -0.000 C 
BRANCH  24  25
ATOM     25  C   UNL     1      54.486  26.969  49.591  1.00  0.00    -0.000 C 
BRANCH  25  26
ATOM     26  C   UNL     1      53.208  27.817  49.692  1.00  0.00    -0.000 C 
BRANCH  26  27
ATOM     27  C   UNL     1      53.507  29.183  50.326  1.00  0.00    -0.000 C 
BRANCH  27  28
ATOM     28  C   UNL     1      54.994  29.353  50.676  1.00  0.00    -0.000 C 
BRANCH  28  29
ATOM     29  C   UNL     1      55.209  29.808  52.127  1.00  0.00    -0.003 C 
ATOM     30  C   UNL     1      56.689  30.026  52.422  1.00  0.00     0.004 C 
ENDBRANCH  28  29
ENDBRANCH  27  28
ENDBRANCH  26  27
ENDBRANCH  25  26
ENDBRANCH  24  25
ENDBRANCH  23  24
ENDBRANCH  22  23
ENDBRANCH  21  22
ENDBRANCH  20  21
ENDBRANCH  19  20
ENDBRANCH  18  19
ENDBRANCH  17  18
ENDBRANCH   1  17
TORSDOF 26
ENDMDL
MODEL 3
REMARK VINA RESULT:    -3.838      2.031      8.524
REMARK INTER + INTRA:         -12.812
REMARK INTER:                  -9.187
REMARK INTRA:                  -3.626
REMARK UNBOUND:                -3.140
REMARK SMILES CCCCCCCCCCCCCCCCCCCCCCCCCCCC(=O)[O-]
REMARK SMILES IDX 15 1 16 2 17 3 18 4 19 5 20 6 21 7 22 8 23 9 24 10 25 11
REMARK SMILES IDX 26 12 27 13 28 14 29 15 30 16 14 17 13 18 12 19 11 20 10 21
REMARK SMILES IDX 9 22 8 23 7 24 6 25 5 26 4 27 3 28 2 29 1 30
REMARK H PARENT
REMARK Flexibility Score: inf
ROOT
ATOM      1  C   UNL     1      59.112  26.698  49.491  1.00  0.00     0.000 C 
ENDROOT
BRANCH   1   2
ATOM      2  C   UNL     1      60.266  25.808  50.001  1.00  0.00     0.000 C 
BRANCH   2   3
ATOM      3  C   UNL     1      59.816  24.413  50.479  1.00  0.00     0.000 C 
BRANCH   3   4
ATOM      4  C   UNL     1      60.939  23.504  51.014  1.00  0.00     0.000 C 
BRANCH   4   5
ATOM      5  C   UNL     1      60.754  22.003  50.720  1.00  0.00     0.000 C 
BRANCH   5   6
ATOM      6  C   UNL     1      61.770  21.465  49.698  1.00  0.00     0.000 C 
BRANCH   6   7
ATOM      7  C   UNL     1      61.100  21.003  48.393  1.00  0.00     0.000 C 
BRANCH   7   8
ATOM      8  C   UNL     1      59.745  20.312  48.636  1.00  0.00     0.000 C 
BRANCH   8   9
ATOM      9  C   UNL     1      59.863  18.773  48.615  1.00  0.00     0.000 C 
BRANCH   9  10
ATOM     10  C   UNL     1      59.038  18.079  49.715  1.00  0.00     0.000 C 
BRANCH  10  11
ATOM     11  C   UNL     1      58.307  19.076  50.630  1.00  0.00     0.000 C 
BRANCH  11  12
ATOM     12  C   UNL     1      56.776  19.009  50.484  1.00  0.00     0.006 C 
BRANCH  12  13
ATOM     13  C   UNL     1      56.034  18.585  51.762  1.00  0.00     0.053 C 
BRANCH  13  14
ATOM     14  C   UNL     1      55.399  19.753  52.453  1.00  0.00     0.041 C 
ATOM     15  O   UNL     1      56.116  20.609  53.036  1.00  0.00    -0.550 OA
ATOM     16  O   UNL     1      54.017  19.912  52.427  1.00  0.00    -0.550 OA
ENDBRANCH  13  14
ENDBRANCH  12  13
ENDBRANCH  11  12
ENDBRANCH  10  11
ENDBRANCH   9  10
ENDBRANCH   8   9
ENDBRANCH   7   8
ENDBRANCH   6   7
ENDBRANCH   5   6
ENDBRANCH   4   5
ENDBRANCH   3   4
ENDBRANCH   2   3
ENDBRANCH   1   2
BRANCH   1  17
ATOM     17  C   UNL     1      59.549  28.154  49.253  1.00  0.00     0.000 C 
BRANCH  17  18
ATOM     18  C   UNL     1      58.469  29.171  49.654  1.00  0.00     0.000 C 
BRANCH  18  19
ATOM     19  C   UNL     1      58.855  29.984  50.901  1.00  0.00     0.000 C 
BRANCH  19  20
ATOM     20  C   UNL     1      59.956  29.270  51.704  1.00  0.00     0.000 C 
BRANCH  20  21
ATOM     21  C   UNL     1      59.478  28.776  53.083  1.00  0.00     0.000 C 
BRANCH  21  22
ATOM     22  C   UNL     1      58.994  27.309  53.111  1.00  0.00    -0.000 C 
BRANCH  22  23
ATOM     23  C   UNL     1      57.479  27.143  52.912  1.00  0.00    -0.000 C 
BRANCH  23  24
ATOM     24  C   UNL     1      56.666  28.347  53.420  1.00  0.00    -0.000 C 
BRANCH  24  25
ATOM     25  C   UNL     1      55.253  28.403  52.820  1.00  0.00    -0.000 C 
BRANCH  25  26
ATOM     26  C   UNL     1      55.085  29.555  51.819  1.00  0.00    -0.000 C 
BRANCH  26  27
ATOM     27  C   UNL     1      54.848  29.017  50.401  1.00  0.00    -0.000 C 
BRANCH  27  28
ATOM     28  C   UNL     1      53.684  28.013  50.343  1.00  0.00    -0.000 C 
BRANCH  28  29
ATOM     29  C   UNL     1      54.046  26.738  49.566  1.00  0.00    -0.003 C 
ATOM     30  C   UNL     1      55.483  26.313  49.846  1.00  0.00     0.004 C 
ENDBRANCH  28  29
ENDBRANCH  27  28
ENDBRANCH  26  27
ENDBRANCH  25  26
ENDBRANCH  24  25
ENDBRANCH  23  24
ENDBRANCH  22  23
ENDBRANCH  21  22
ENDBRANCH  20  21
ENDBRANCH  19  20
ENDBRANCH  18  19
ENDBRANCH  17  18
ENDBRANCH   1  17
TORSDOF 26
ENDMDL
MODEL 4
REMARK VINA RESULT:    -3.789      2.611      8.120
REMARK INTER + INTRA:         -12.688
REMARK INTER:                  -8.661
REMARK INTRA:                  -4.028
REMARK UNBOUND:                -3.140
REMARK SMILES CCCCCCCCCCCCCCCCCCCCCCCCCCCC(=O)[O-]
REMARK SMILES IDX 15 1 16 2 17 3 18 4 19 5 20 6 21 7 22 8 23 9 24 10 25 11
REMARK SMILES IDX 26 12 27 13 28 14 29 15 30 16 14 17 13 18 12 19 11 20 10 21
REMARK SMILES IDX 9 22 8 23 7 24 6 25 5 26 4 27 3 28 2 29 1 30
REMARK H PARENT
REMARK Flexibility Score: inf
ROOT
ATOM      1  C   UNL     1      58.952  29.623  49.431  1.00  0.00     0.000 C 
ENDROOT
BRANCH   1   2
ATOM      2  C   UNL     1      59.278  28.135  49.179  1.00  0.00     0.000 C 
BRANCH   2   3
ATOM      3  C   UNL     1      60.718  27.737  49.559  1.00  0.00     0.000 C 
BRANCH   3   4
ATOM      4  C   UNL     1      60.851  26.443  50.385  1.00  0.00     0.000 C 
BRANCH   4   5
ATOM      5  C   UNL     1      59.584  25.567  50.428  1.00  0.00     0.000 C 
BRANCH   5   6
ATOM      6  C   UNL     1      59.892  24.066  50.304  1.00  0.00     0.000 C 
BRANCH   6   7
ATOM      7  C   UNL     1      61.396  23.765  50.417  1.00  0.00     0.000 C 
BRANCH   7   8
ATOM      8  C   UNL     1      61.739  22.313  50.033  1.00  0.00     0.000 C 
BRANCH   8   9
ATOM      9  C   UNL     1      60.633  21.657  49.180  1.00  0.00     0.000 C 
BRANCH   9  10
ATOM     10  C   UNL     1      60.274  20.229  49.632  1.00  0.00     0.000 C 
BRANCH  10  11
ATOM     11  C   UNL     1      59.701  19.371  48.493  1.00  0.00     0.000 C 
BRANCH  11  12
ATOM     12  C   UNL     1      59.745  17.863  48.800  1.00  0.00     0.006 C 
BRANCH  12  13
ATOM     13  C   UNL     1      58.365  17.193  48.898  1.00  0.00     0.053 C 
BRANCH  13  14
ATOM     14  C   UNL     1      57.650  17.569  50.160  1.00  0.00     0.041 C 
ATOM     15  O   UNL     1      58.011  17.077  51.262  1.00  0.00    -0.550 OA
ATOM     16  O   UNL     1      56.604  18.486  50.123  1.00  0.00    -0.550 OA
ENDBRANCH  13  14
ENDBRANCH  12  13
ENDBRANCH  11  12
ENDBRANCH  10  11
ENDBRANCH   9  10
ENDBRANCH   8   9
ENDBRANCH   7   8
ENDBRANCH   6   7
ENDBRANCH   5   6
ENDBRANCH   4   5
ENDBRANCH   3   4
ENDBRANCH   2   3
ENDBRANCH   1   2
BRANCH   1  17
ATOM     17  C   UNL     1      59.265  30.061  50.874  1.00  0.00     0.000 C 
BRANCH  17  18
ATOM     18  C   UNL     1      58.366  29.372  51.911  1.00  0.00     0.000 C 
BRANCH  18  19
ATOM     19  C   UNL     1      57.229  30.282  52.408  1.00  0.00     0.000 C 
BRANCH  19  20
ATOM     20  C   UNL     1      55.858  29.627  52.168  1.00  0.00     0.000 C 
BRANCH  20  21
ATOM     21  C   UNL     1      55.530  29.439  50.674  1.00  0.00     0.000 C 
BRANCH  21  22
ATOM     22  C   UNL     1      55.057  28.019  50.291  1.00  0.00    -0.000 C 
BRANCH  22  23
ATOM     23  C   UNL     1      56.067  26.909  50.622  1.00  0.00    -0.000 C 
BRANCH  23  24
ATOM     24  C   UNL     1      55.525  25.879  51.630  1.00  0.00    -0.000 C 
BRANCH  24  25
ATOM     25  C   UNL     1      56.622  25.312  52.544  1.00  0.00    -0.000 C 
BRANCH  25  26
ATOM     26  C   UNL     1      57.005  26.282  53.673  1.00  0.00    -0.000 C 
BRANCH  26  27
ATOM     27  C   UNL     1      58.521  26.519  53.698  1.00  0.00    -0.000 C 
BRANCH  27  28
ATOM     28  C   UNL     1      59.178  25.970  54.975  1.00  0.00    -0.000 C 
BRANCH  28  29
ATOM     29  C   UNL     1      60.299  24.962  54.673  1.00  0.00    -0.003 C 
ATOM     30  C   UNL     1      59.751  23.729  53.964  1.00  0.00     0.004 C 
ENDBRANCH  28  29
ENDBRANCH  27  28
ENDBRANCH  26  27
ENDBRANCH  25  26
ENDBRANCH  24  25
ENDBRANCH  23  24
ENDBRANCH  22  23
ENDBRANCH  21  22
ENDBRANCH  20  21
ENDBRANCH  19  20
ENDBRANCH  18  19
ENDBRANCH  17  18
ENDBRANCH   1  17
TORSDOF 26
ENDMDL
MODEL 5
REMARK VINA RESULT:    -3.787      3.421      9.193
REMARK INTER + INTRA:         -12.684
REMARK INTER:                  -8.594
REMARK INTRA:                  -4.090
REMARK UNBOUND:                -3.140
REMARK SMILES CCCCCCCCCCCCCCCCCCCCCCCCCCCC(=O)[O-]
REMARK SMILES IDX 15 1 16 2 17 3 18 4 19 5 20 6 21 7 22 8 23 9 24 10 25 11
REMARK SMILES IDX 26 12 27 13 28 14 29 15 30 16 14 17 13 18 12 19 11 20 10 21
REMARK SMILES IDX 9 22 8 23 7 24 6 25 5 26 4 27 3 28 2 29 1 30
REMARK H PARENT
REMARK Flexibility Score: inf
ROOT
ATOM      1  C   UNL     1      60.970  20.627  48.731  1.00  0.00     0.000 C 
ENDROOT
BRANCH   1   2
ATOM      2  C   UNL     1      59.675  19.793  48.632  1.00  0.00     0.000 C 
BRANCH   2   3
ATOM      3  C   UNL     1      59.888  18.278  48.826  1.00  0.00     0.000 C 
BRANCH   3   4
ATOM      4  C   UNL     1      58.603  17.434  48.906  1.00  0.00     0.000 C 
BRANCH   4   5
ATOM      5  C   UNL     1      57.934  17.398  50.293  1.00  0.00     0.000 C 
BRANCH   5   6
ATOM      6  C   UNL     1      56.678  18.282  50.373  1.00  0.00     0.000 C 
BRANCH   6   7
ATOM      7  C   UNL     1      56.771  19.333  51.492  1.00  0.00     0.000 C 
BRANCH   7   8
ATOM      8  C   UNL     1      58.065  19.206  52.318  1.00  0.00     0.000 C 
BRANCH   8   9
ATOM      9  C   UNL     1      58.972  20.447  52.178  1.00  0.00     0.000 C 
BRANCH   9  10
ATOM     10  C   UNL     1      60.456  20.159  52.469  1.00  0.00     0.000 C 
BRANCH  10  11
ATOM     11  C   UNL     1      60.834  18.687  52.241  1.00  0.00     0.000 C 
BRANCH  11  12
ATOM     12  C   UNL     1      62.342  18.485  52.008  1.00  0.00     0.006 C 
BRANCH  12  13
ATOM     13  C   UNL     1      63.184  19.764  52.153  1.00  0.00     0.053 C 
BRANCH  13  14
ATOM     14  C   UNL     1      64.328  19.792  51.186  1.00  0.00     0.041 C 
ATOM     15  O   UNL     1      64.121  19.619  49.956  1.00  0.00    -0.550 OA
ATOM     16  O   UNL     1      65.620  20.037  51.641  1.00  0.00    -0.550 OA
ENDBRANCH  13  14
ENDBRANCH  12  13
ENDBRANCH  11  12
ENDBRANCH  10  11
ENDBRANCH   9  10
ENDBRANCH   8   9
ENDBRANCH   7   8
ENDBRANCH   6   7
ENDBRANCH   5   6
ENDBRANCH   4   5
ENDBRANCH   3   4
ENDBRANCH   2   3
ENDBRANCH   1   2
BRANCH   1  17
ATOM     17  C   UNL     1      60.715  22.057  49.238  1.00  0.00     0.000 C 
BRANCH  17  18
ATOM     18  C   UNL     1      61.812  22.554  50.192  1.00  0.00     0.000 C 
BRANCH  18  19
ATOM     19  C   UNL     1      61.409  23.834  50.943  1.00  0.00     0.000 C 
BRANCH  19  20
ATOM     20  C   UNL     1      60.064  24.375  50.426  1.00  0.00     0.000 C 
BRANCH  20  21
ATOM     21  C   UNL     1      60.045  25.908  50.275  1.00  0.00     0.000 C 
BRANCH  21  22
ATOM     22  C   UNL     1      58.834  26.465  49.494  1.00  0.00    -0.000 C 
BRANCH  22  23
ATOM     23  C   UNL     1      57.475  26.178  50.153  1.00  0.00    -0.000 C 
BRANCH  23  24
ATOM     24  C   UNL     1      57.390  26.677  51.607  1.00  0.00    -0.000 C 
BRANCH  24  25
ATOM     25  C   UNL     1      56.296  27.737  51.805  1.00  0.00    -0.000 C 
BRANCH  25  26
ATOM     26  C   UNL     1      55.887  28.412  50.487  1.00  0.00    -0.000 C 
BRANCH  26  27
ATOM     27  C   UNL     1      54.440  28.055  50.116  1.00  0.00    -0.000 C 
BRANCH  27  28
ATOM     28  C   UNL     1      53.811  27.060  51.105  1.00  0.00    -0.000 C 
BRANCH  28  29
ATOM     29  C   UNL     1      53.474  25.712  50.449  1.00  0.00    -0.003 C 
ATOM     30  C   UNL     1      53.845  25.714  48.970  1.00  0.00     0.004 C 
ENDBRANCH  28  29
ENDBRANCH  27  28
ENDBRANCH  26  27
ENDBRANCH  25  26
ENDBRANCH  24  25
ENDBRANCH  23  24
ENDBRANCH  22  23
ENDBRANCH  21  22
ENDBRANCH  20  21
ENDBRANCH  19  20
ENDBRANCH  18  19
ENDBRANCH  17  18
ENDBRANCH   1  17
TORSDOF 26
ENDMDL
MODEL 6
REMARK VINA RESULT:    -3.762      5.117      8.656
REMARK INTER + INTRA:         -12.619
REMARK INTER:                  -6.641
REMARK INTRA:                  -5.978
REMARK UNBOUND:                -3.140
REMARK SMILES CCCCCCCCCCCCCCCCCCCCCCCCCCCC(=O)[O-]
REMARK SMILES IDX 15 1 16 2 17 3 18 4 19 5 20 6 21 7 22 8 23 9 24 10 25 11
REMARK SMILES IDX 26 12 27 13 28 14 29 15 30 16 14 17 13 18 12 19 11 20 10 21
REMARK SMILES IDX 9 22 8 23 7 24 6 25 5 26 4 27 3 28 2 29 1 30
REMARK H PARENT
REMARK Flexibility Score: inf
ROOT
ATOM      1  C   UNL     1      59.378  25.573  51.694  1.00  0.00     0.000 C 
ENDROOT
BRANCH   1   2
ATOM      2  C   UNL     1      57.879  25.486  51.335  1.00  0.00     0.000 C 
BRANCH   2   3
ATOM      3  C   UNL     1      56.966  25.167  52.536  1.00  0.00     0.000 C 
BRANCH   3   4
ATOM      4  C   UNL     1      55.510  25.653  52.407  1.00  0.00     0.000 C 
BRANCH   4   5
ATOM      5  C   UNL     1      55.223  26.522  51.167  1.00  0.00     0.000 C 
BRANCH   5   6
ATOM      6  C   UNL     1      54.364  27.756  51.490  1.00  0.00     0.000 C 
BRANCH   6   7
ATOM      7  C   UNL     1      54.009  28.567  50.232  1.00  0.00     0.000 C 
BRANCH   7   8
ATOM      8  C   UNL     1      54.102  30.087  50.462  1.00  0.00     0.000 C 
BRANCH   8   9
ATOM      9  C   UNL     1      53.617  30.496  51.869  1.00  0.00     0.000 C 
BRANCH   9  10
ATOM     10  C   UNL     1      54.584  31.445  52.601  1.00  0.00     0.000 C 
BRANCH  10  11
ATOM     11  C   UNL     1      55.001  30.919  53.984  1.00  0.00     0.000 C 
BRANCH  11  12
ATOM     12  C   UNL     1      56.300  31.565  54.502  1.00  0.00     0.006 C 
BRANCH  12  13
ATOM     13  C   UNL     1      56.686  32.873  53.792  1.00  0.00     0.053 C 
BRANCH  13  14
ATOM     14  C   UNL     1      56.560  34.058  54.699  1.00  0.00     0.041 C 
ATOM     15  O   UNL     1      55.540  34.795  54.638  1.00  0.00    -0.550 OA
ATOM     16  O   UNL     1      57.555  34.333  55.632  1.00  0.00    -0.550 OA
ENDBRANCH  13  14
ENDBRANCH  12  13
ENDBRANCH  11  12
ENDBRANCH  10  11
ENDBRANCH   9  10
ENDBRANCH   8   9
ENDBRANCH   7   8
ENDBRANCH   6   7
ENDBRANCH   5   6
ENDBRANCH   4   5
ENDBRANCH   3   4
ENDBRANCH   2   3
ENDBRANCH   1   2
BRANCH   1  17
ATOM     17  C   UNL     1      60.220  26.202  50.569  1.00  0.00     0.000 C 
BRANCH  17  18
ATOM     18  C   UNL     1      59.367  26.964  49.544  1.00  0.00     0.000 C 
BRANCH  18  19
ATOM     19  C   UNL     1      59.975  28.324  49.160  1.00  0.00     0.000 C 
BRANCH  19  20
ATOM     20  C   UNL     1      58.901  29.426  49.163  1.00  0.00     0.000 C 
BRANCH  20  21
ATOM     21  C   UNL     1      57.714  29.112  50.094  1.00  0.00     0.000 C 
BRANCH  21  22
ATOM     22  C   UNL     1      57.779  29.799  51.476  1.00  0.00    -0.000 C 
BRANCH  22  23
ATOM     23  C   UNL     1      57.730  28.826  52.665  1.00  0.00    -0.000 C 
BRANCH  23  24
ATOM     24  C   UNL     1      59.000  28.867  53.534  1.00  0.00    -0.000 C 
BRANCH  24  25
ATOM     25  C   UNL     1      60.079  29.798  52.961  1.00  0.00    -0.000 C 
BRANCH  25  26
ATOM     26  C   UNL     1      61.365  29.047  52.587  1.00  0.00    -0.000 C 
BRANCH  26  27
ATOM     27  C   UNL     1      62.280  29.925  51.721  1.00  0.00    -0.000 C 
BRANCH  27  28
ATOM     28  C   UNL     1      61.530  31.115  51.099  1.00  0.00    -0.000 C 
BRANCH  28  29
ATOM     29  C   UNL     1      62.340  31.807  49.992  1.00  0.00    -0.003 C 
ATOM     30  C   UNL     1      63.281  30.824  49.304  1.00  0.00     0.004 C 
ENDBRANCH  28  29
ENDBRANCH  27  28
ENDBRANCH  26  27
ENDBRANCH  25  26
ENDBRANCH  24  25
ENDBRANCH  23  24
ENDBRANCH  22  23
ENDBRANCH  21  22
ENDBRANCH  20  21
ENDBRANCH  19  20
ENDBRANCH  18  19
ENDBRANCH  17  18
ENDBRANCH   1  17
TORSDOF 26
ENDMDL
MODEL 7
REMARK VINA RESULT:    -3.726      4.963      8.258
REMARK INTER + INTRA:         -12.529
REMARK INTER:                  -6.817
REMARK INTRA:                  -5.712
REMARK UNBOUND:                -3.140
REMARK SMILES CCCCCCCCCCCCCCCCCCCCCCCCCCCC(=O)[O-]
REMARK SMILES IDX 15 1 16 2 17 3 18 4 19 5 20 6 21 7 22 8 23 9 24 10 25 11
REMARK SMILES IDX 26 12 27 13 28 14 29 15 30 16 14 17 13 18 12 19 11 20 10 21
REMARK SMILES IDX 9 22 8 23 7 24 6 25 5 26 4 27 3 28 2 29 1 30
REMARK H PARENT
REMARK Flexibility Score: inf
ROOT
ATOM      1  C   UNL     1      57.082  25.982  50.506  1.00  0.00     0.000 C 
ENDROOT
BRANCH   1   2
ATOM      2  C   UNL     1      58.233  27.006  50.408  1.00  0.00     0.000 C 
BRANCH   2   3
ATOM      3  C   UNL     1      57.779  28.419  49.990  1.00  0.00     0.000 C 
BRANCH   3   4
ATOM      4  C   UNL     1      58.892  29.339  49.453  1.00  0.00     0.000 C 
BRANCH   4   5
ATOM      5  C   UNL     1      59.585  30.209  50.519  1.00  0.00     0.000 C 
BRANCH   5   6
ATOM      6  C   UNL     1      58.763  30.338  51.812  1.00  0.00     0.000 C 
BRANCH   6   7
ATOM      7  C   UNL     1      59.425  29.622  53.001  1.00  0.00     0.000 C 
BRANCH   7   8
ATOM      8  C   UNL     1      60.920  29.337  52.764  1.00  0.00     0.000 C 
BRANCH   8   9
ATOM      9  C   UNL     1      61.202  27.834  52.557  1.00  0.00     0.000 C 
BRANCH   9  10
ATOM     10  C   UNL     1      62.376  27.555  51.600  1.00  0.00     0.000 C 
BRANCH  10  11
ATOM     11  C   UNL     1      61.914  27.173  50.185  1.00  0.00     0.000 C 
BRANCH  11  12
ATOM     12  C   UNL     1      62.443  28.132  49.104  1.00  0.00     0.006 C 
BRANCH  12  13
ATOM     13  C   UNL     1      63.057  29.431  49.652  1.00  0.00     0.053 C 
BRANCH  13  14
ATOM     14  C   UNL     1      64.020  30.046  48.682  1.00  0.00     0.041 C 
ATOM     15  O   UNL     1      64.677  31.070  49.007  1.00  0.00    -0.550 OA
ATOM     16  O   UNL     1      64.212  29.470  47.431  1.00  0.00    -0.550 OA
ENDBRANCH  13  14
ENDBRANCH  12  13
ENDBRANCH  11  12
ENDBRANCH  10  11
ENDBRANCH   9  10
ENDBRANCH   8   9
ENDBRANCH   7   8
ENDBRANCH   6   7
ENDBRANCH   5   6
ENDBRANCH   4   5
ENDBRANCH   3   4
ENDBRANCH   2   3
ENDBRANCH   1   2
BRANCH   1  17
ATOM     17  C   UNL     1      55.741  26.549  50.007  1.00  0.00     0.000 C 
BRANCH  17  18
ATOM     18  C   UNL     1      54.528  25.866  50.656  1.00  0.00     0.000 C 
BRANCH  18  19
ATOM     19  C   UNL     1      53.273  26.755  50.652  1.00  0.00     0.000 C 
BRANCH  19  20
ATOM     20  C   UNL     1      53.417  27.903  49.637  1.00  0.00     0.000 C 
BRANCH  20  21
ATOM     21  C   UNL     1      53.204  29.295  50.263  1.00  0.00     0.000 C 
BRANCH  21  22
ATOM     22  C   UNL     1      54.497  29.991  50.743  1.00  0.00    -0.000 C 
BRANCH  22  23
ATOM     23  C   UNL     1      54.645  30.058  52.272  1.00  0.00    -0.000 C 
BRANCH  23  24
ATOM     24  C   UNL     1      55.631  29.017  52.831  1.00  0.00    -0.000 C 
BRANCH  24  25
ATOM     25  C   UNL     1      54.938  27.947  53.689  1.00  0.00    -0.000 C 
BRANCH  25  26
ATOM     26  C   UNL     1      55.877  27.339  54.742  1.00  0.00    -0.000 C 
BRANCH  26  27
ATOM     27  C   UNL     1      56.613  26.116  54.177  1.00  0.00    -0.000 C 
BRANCH  27  28
ATOM     28  C   UNL     1      58.132  26.336  54.090  1.00  0.00    -0.000 C 
BRANCH  28  29
ATOM     29  C   UNL     1      58.891  25.057  53.701  1.00  0.00    -0.003 C 
ATOM     30  C   UNL     1      57.925  23.917  53.400  1.00  0.00     0.004 C 
ENDBRANCH  28  29
ENDBRANCH  27  28
ENDBRANCH  26  27
ENDBRANCH  25  26
ENDBRANCH  24  25
ENDBRANCH  23  24
ENDBRANCH  22  23
ENDBRANCH  21  22
ENDBRANCH  20  21
ENDBRANCH  19  20
ENDBRANCH  18  19
ENDBRANCH  17  18
ENDBRANCH   1  17
TORSDOF 26
ENDMDL
MODEL 8
REMARK VINA RESULT:    -3.686      5.680      8.519
REMARK INTER + INTRA:         -12.428
REMARK INTER:                  -6.482
REMARK INTRA:                  -5.946
REMARK UNBOUND:                -3.140
REMARK SMILES CCCCCCCCCCCCCCCCCCCCCCCCCCCC(=O)[O-]
REMARK SMILES IDX 15 1 16 2 17 3 18 4 19 5 20 6 21 7 22 8 23 9 24 10 25 11
REMARK SMILES IDX 26 12 27 13 28 14 29 15 30 16 14 17 13 18 12 19 11 20 10 21
REMARK SMILES IDX 9 22 8 23 7 24 6 25 5 26 4 27 3 28 2 29 1 30
REMARK H PARENT
REMARK Flexibility Score: inf
ROOT
ATOM      1  C   UNL     1      57.527  29.227  50.008  1.00  0.00     0.000 C 
ENDROOT
BRANCH   1   2
ATOM      2  C   UNL     1      58.878  29.319  49.267  1.00  0.00     0.000 C 
BRANCH   2   3
ATOM      3  C   UNL     1      59.690  28.008  49.283  1.00  0.00     0.000 C 
BRANCH   3   4
ATOM      4  C   UNL     1      60.950  28.021  50.169  1.00  0.00     0.000 C 
BRANCH   4   5
ATOM      5  C   UNL     1      60.742  27.491  51.601  1.00  0.00     0.000 C 
BRANCH   5   6
ATOM      6  C   UNL     1      60.417  28.606  52.609  1.00  0.00     0.000 C 
BRANCH   6   7
ATOM      7  C   UNL     1      61.284  29.859  52.397  1.00  0.00     0.000 C 
BRANCH   7   8
ATOM      8  C   UNL     1      60.445  31.145  52.271  1.00  0.00     0.000 C 
BRANCH   8   9
ATOM      9  C   UNL     1      59.006  30.958  52.796  1.00  0.00     0.000 C 
BRANCH   9  10
ATOM     10  C   UNL     1      58.276  32.284  53.075  1.00  0.00     0.000 C 
BRANCH  10  11
ATOM     11  C   UNL     1      57.815  32.415  54.535  1.00  0.00     0.000 C 
BRANCH  11  12
ATOM     12  C   UNL     1      58.252  31.225  55.409  1.00  0.00     0.006 C 
BRANCH  12  13
ATOM     13  C   UNL     1      58.136  31.471  56.922  1.00  0.00     0.053 C 
BRANCH  13  14
ATOM     14  C   UNL     1      56.982  30.726  57.522  1.00  0.00     0.041 C 
ATOM     15  O   UNL     1      57.183  29.665  58.170  1.00  0.00    -0.550 OA
ATOM     16  O   UNL     1      55.688  31.220  57.388  1.00  0.00    -0.550 OA
ENDBRANCH  13  14
ENDBRANCH  12  13
ENDBRANCH  11  12
ENDBRANCH  10  11
ENDBRANCH   9  10
ENDBRANCH   8   9
ENDBRANCH   7   8
ENDBRANCH   6   7
ENDBRANCH   5   6
ENDBRANCH   4   5
ENDBRANCH   3   4
ENDBRANCH   2   3
ENDBRANCH   1   2
BRANCH   1  17
ATOM     17  C   UNL     1      57.305  27.853  50.666  1.00  0.00     0.000 C 
BRANCH  17  18
ATOM     18  C   UNL     1      56.152  27.067  50.025  1.00  0.00     0.000 C 
BRANCH  18  19
ATOM     19  C   UNL     1      54.829  27.220  50.795  1.00  0.00     0.000 C 
BRANCH  19  20
ATOM     20  C   UNL     1      53.689  27.637  49.849  1.00  0.00     0.000 C 
BRANCH  20  21
ATOM     21  C   UNL     1      53.051  28.987  50.229  1.00  0.00     0.000 C 
BRANCH  21  22
ATOM     22  C   UNL     1      54.059  30.134  50.461  1.00  0.00    -0.000 C 
BRANCH  22  23
ATOM     23  C   UNL     1      53.659  31.106  51.583  1.00  0.00    -0.000 C 
BRANCH  23  24
ATOM     24  C   UNL     1      54.756  31.287  52.648  1.00  0.00    -0.000 C 
BRANCH  24  25
ATOM     25  C   UNL     1      55.394  29.956  53.071  1.00  0.00    -0.000 C 
BRANCH  25  26
ATOM     26  C   UNL     1      54.821  29.424  54.393  1.00  0.00    -0.000 C 
BRANCH  26  27
ATOM     27  C   UNL     1      55.683  28.278  54.942  1.00  0.00    -0.000 C 
BRANCH  27  28
ATOM     28  C   UNL     1      57.002  28.117  54.168  1.00  0.00    -0.000 C 
BRANCH  28  29
ATOM     29  C   UNL     1      57.659  26.748  54.404  1.00  0.00    -0.003 C 
ATOM     30  C   UNL     1      56.939  25.651  53.627  1.00  0.00     0.004 C 
ENDBRANCH  28  29
ENDBRANCH  27  28
ENDBRANCH  26  27
ENDBRANCH  25  26
ENDBRANCH  24  25
ENDBRANCH  23  24
ENDBRANCH  22  23
ENDBRANCH  21  22
ENDBRANCH  20  21
ENDBRANCH  19  20
ENDBRANCH  18  19
ENDBRANCH  17  18
ENDBRANCH   1  17
TORSDOF 26
ENDMDL
