MODEL 1
REMARK VINA RESULT:    -5.948      0.000      0.000
REMARK INTER + INTRA:         -16.114
REMARK INTER:                 -12.902
REMARK INTRA:                  -3.212
REMARK UNBOUND:                -3.212
REMARK SMILES CCCCCCCCCCCCCCCCCCCCCC(=O)[O-]
REMARK SMILES IDX 12 1 11 2 10 3 9 4 8 5 7 6 6 7 5 8 4 9 3 10 2 11 1 12 13 13
REMARK SMILES IDX 14 14 15 15 16 16 17 17 18 18 19 19 20 20 21 21 22 22 23 23
REMARK SMILES IDX 24 24
REMARK H PARENT
REMARK Flexibility Score: inf
ROOT
ATOM      1  C   UNL     1       4.499   8.830   7.848  1.00  0.00     0.000 C 
ENDROOT
BRANCH   1   2
ATOM      2  C   UNL     1       3.080   9.135   7.345  1.00  0.00     0.000 C 
BRANCH   2   3
ATOM      3  C   UNL     1       1.997   8.349   8.101  1.00  0.00     0.000 C 
BRANCH   3   4
ATOM      4  C   UNL     1       2.338   8.153   9.589  1.00  0.00    -0.000 C 
BRANCH   4   5
ATOM      5  C   UNL     1       1.814   9.300  10.469  1.00  0.00    -0.000 C 
BRANCH   5   6
ATOM      6  C   UNL     1       1.247   8.804  11.811  1.00  0.00    -0.000 C 
BRANCH   6   7
ATOM      7  C   UNL     1       1.381   7.274  11.976  1.00  0.00    -0.000 C 
BRANCH   7   8
ATOM      8  C   UNL     1       0.133   6.604  12.584  1.00  0.00    -0.000 C 
BRANCH   8   9
ATOM      9  C   UNL     1      -0.602   5.630  11.644  1.00  0.00    -0.000 C 
BRANCH   9  10
ATOM     10  C   UNL     1       0.149   5.285  10.341  1.00  0.00    -0.000 C 
BRANCH  10  11
ATOM     11  C   UNL     1      -0.600   5.641   9.046  1.00  0.00    -0.003 C 
ATOM     12  C   UNL     1      -1.322   6.986   9.123  1.00  0.00     0.004 C 
ENDBRANCH  10  11
ENDBRANCH   9  10
ENDBRANCH   8   9
ENDBRANCH   7   8
ENDBRANCH   6   7
ENDBRANCH   5   6
ENDBRANCH   4   5
ENDBRANCH   3   4
ENDBRANCH   2   3
ENDBRANCH   1   2
BRANCH   1  13
ATOM     13  C   UNL     1       5.541   9.104   6.758  1.00  0.00     0.000 C 
BRANCH  13  14
ATOM     14  C   UNL     1       5.467   8.046   5.647  1.00  0.00     0.000 C 
BRANCH  14  15
ATOM     15  C   UNL     1       6.821   7.366   5.374  1.00  0.00     0.000 C 
BRANCH  15  16
ATOM     16  C   UNL     1       7.926   7.672   6.403  1.00  0.00     0.000 C 
BRANCH  16  17
ATOM     17  C   UNL     1       8.322   6.441   7.238  1.00  0.00     0.000 C 
BRANCH  17  18
ATOM     18  C   UNL     1       7.140   5.841   8.020  1.00  0.00     0.000 C 
BRANCH  18  19
ATOM     19  C   UNL     1       6.826   4.363   7.710  1.00  0.00     0.000 C 
BRANCH  19  20
ATOM     20  C   UNL     1       5.343   3.963   7.851  1.00  0.00     0.006 C 
BRANCH  20  21
ATOM     21  C   UNL     1       4.367   5.149   7.855  1.00  0.00     0.053 C 
BRANCH  21  22
ATOM     22  C   UNL     1       2.976   4.728   7.498  1.00  0.00     0.041 C 
ATOM     23  O   UNL     1       2.320   5.370   6.635  1.00  0.00    -0.550 OA
ATOM     24  O   UNL     1       2.411   3.609   8.098  1.00  0.00    -0.550 OA
ENDBRANCH  21  22
ENDBRANCH  20  21
ENDBRANCH  19  20
ENDBRANCH  18  19
ENDBRANCH  17  18
ENDBRANCH  16  17
ENDBRANCH  15  16
ENDBRANCH  14  15
ENDBRANCH  13  14
ENDBRANCH   1  13
TORSDOF 20
ENDMDL
MODEL 2
REMARK VINA RESULT:    -5.904      2.400      3.933
REMARK INTER + INTRA:         -16.020
REMARK INTER:                 -12.298
REMARK INTRA:                  -3.722
REMARK UNBOUND:                -3.212
REMARK SMILES CCCCCCCCCCCCCCCCCCCCCC(=O)[O-]
REMARK SMILES IDX 12 1 11 2 10 3 9 4 8 5 7 6 6 7 5 8 4 9 3 10 2 11 1 12 13 13
REMARK SMILES IDX 14 14 15 15 16 16 17 17 18 18 19 19 20 20 21 21 22 22 23 23
REMARK SMILES IDX 24 24
REMARK H PARENT
REMARK Flexibility Score: inf
ROOT
ATOM      1  C   UNL     1       2.920   4.840   9.434  1.00  0.00     0.000 C 
ENDROOT
BRANCH   1   2
ATOM      2  C   UNL     1       2.964   6.358   9.659  1.00  0.00     0.000 C 
BRANCH   2   3
ATOM      3  C   UNL     1       2.161   7.141   8.607  1.00  0.00     0.000 C 
BRANCH   3   4
ATOM      4  C   UNL     1       1.831   8.574   9.060  1.00  0.00    -0.000 C 
BRANCH   4   5
ATOM      5  C   UNL     1       2.277   8.852  10.505  1.00  0.00    -0.000 C 
BRANCH   5   6
ATOM      6  C   UNL     1       1.092   8.945  11.482  1.00  0.00    -0.000 C 
BRANCH   6   7
ATOM      7  C   UNL     1       1.313   8.100  12.756  1.00  0.00    -0.000 C 
BRANCH   7   8
ATOM      8  C   UNL     1       0.843   6.639  12.620  1.00  0.00    -0.000 C 
BRANCH   8   9
ATOM      9  C   UNL     1      -0.524   6.459  11.933  1.00  0.00    -0.000 C 
BRANCH   9  10
ATOM     10  C   UNL     1      -0.691   5.147  11.139  1.00  0.00    -0.000 C 
BRANCH  10  11
ATOM     11  C   UNL     1      -0.746   5.313   9.611  1.00  0.00    -0.003 C 
ATOM     12  C   UNL     1      -1.350   6.648   9.176  1.00  0.00     0.004 C 
ENDBRANCH  10  11
ENDBRANCH   9  10
ENDBRANCH   8   9
ENDBRANCH   7   8
ENDBRANCH   6   7
ENDBRANCH   5   6
ENDBRANCH   4   5
ENDBRANCH   3   4
ENDBRANCH   2   3
ENDBRANCH   1   2
BRANCH   1  13
ATOM     13  C   UNL     1       2.540   4.508   7.986  1.00  0.00     0.000 C 
BRANCH  13  14
ATOM     14  C   UNL     1       3.600   3.610   7.331  1.00  0.00     0.000 C 
BRANCH  14  15
ATOM     15  C   UNL     1       4.968   3.685   8.034  1.00  0.00     0.000 C 
BRANCH  15  16
ATOM     16  C   UNL     1       6.047   4.486   7.283  1.00  0.00     0.000 C 
BRANCH  16  17
ATOM     17  C   UNL     1       6.430   5.793   8.001  1.00  0.00     0.000 C 
BRANCH  17  18
ATOM     18  C   UNL     1       5.678   7.020   7.455  1.00  0.00     0.000 C 
BRANCH  18  19
ATOM     19  C   UNL     1       5.023   6.830   6.071  1.00  0.00     0.000 C 
BRANCH  19  20
ATOM     20  C   UNL     1       5.822   7.402   4.883  1.00  0.00     0.006 C 
BRANCH  20  21
ATOM     21  C   UNL     1       6.379   8.814   5.118  1.00  0.00     0.053 C 
BRANCH  21  22
ATOM     22  C   UNL     1       7.872   8.815   5.222  1.00  0.00     0.041 C 
ATOM     23  O   UNL     1       8.537   9.804   4.812  1.00  0.00    -0.550 OA
ATOM     24  O   UNL     1       8.531   7.736   5.798  1.00  0.00    -0.550 OA
ENDBRANCH  21  22
ENDBRANCH  20  21
ENDBRANCH  19  20
ENDBRANCH  18  19
ENDBRANCH  17  18
ENDBRANCH  16  17
ENDBRANCH  15  16
ENDBRANCH  14  15
ENDBRANCH  13  14
ENDBRANCH   1  13
TORSDOF 20
ENDMDL
MODEL 3
REMARK VINA RESULT:    -5.867      1.935      3.354
REMARK INTER + INTRA:         -15.938
REMARK INTER:                 -12.604
REMARK INTRA:                  -3.334
REMARK UNBOUND:                -3.212
REMARK SMILES CCCCCCCCCCCCCCCCCCCCCC(=O)[O-]
REMARK SMILES IDX 12 1 11 2 10 3 9 4 8 5 7 6 6 7 5 8 4 9 3 10 2 11 1 12 13 13
REMARK SMILES IDX 14 14 15 15 16 16 17 17 18 18 19 19 20 20 21 21 22 22 23 23
REMARK SMILES IDX 24 24
REMARK H PARENT
REMARK Flexibility Score: inf
ROOT
ATOM      1  C   UNL     1       3.619   8.686   8.429  1.00  0.00     0.000 C 
ENDROOT
BRANCH   1   2
ATOM      2  C   UNL     1       2.331   8.447   9.231  1.00  0.00     0.000 C 
BRANCH   2   3
ATOM      3  C   UNL     1       2.013   9.593  10.205  1.00  0.00     0.000 C 
BRANCH   3   4
ATOM      4  C   UNL     1       1.367   9.097  11.511  1.00  0.00    -0.000 C 
BRANCH   4   5
ATOM      5  C   UNL     1       1.478   7.573  11.681  1.00  0.00    -0.000 C 
BRANCH   5   6
ATOM      6  C   UNL     1       0.504   7.023  12.739  1.00  0.00    -0.000 C 
BRANCH   6   7
ATOM      7  C   UNL     1      -0.400   5.903  12.179  1.00  0.00    -0.000 C 
BRANCH   7   8
ATOM      8  C   UNL     1      -0.972   6.208  10.780  1.00  0.00    -0.000 C 
BRANCH   8   9
ATOM      9  C   UNL     1      -0.739   5.104   9.732  1.00  0.00    -0.000 C 
BRANCH   9  10
ATOM     10  C   UNL     1       0.426   5.364   8.754  1.00  0.00    -0.000 C 
BRANCH  10  11
ATOM     11  C   UNL     1       1.596   4.372   8.859  1.00  0.00    -0.003 C 
ATOM     12  C   UNL     1       2.520   4.659  10.042  1.00  0.00     0.004 C 
ENDBRANCH  10  11
ENDBRANCH   9  10
ENDBRANCH   8   9
ENDBRANCH   7   8
ENDBRANCH   6   7
ENDBRANCH   5   6
ENDBRANCH   4   5
ENDBRANCH   3   4
ENDBRANCH   2   3
ENDBRANCH   1   2
BRANCH   1  13
ATOM     13  C   UNL     1       4.396   7.379   8.233  1.00  0.00     0.000 C 
BRANCH  13  14
ATOM     14  C   UNL     1       3.883   6.612   7.005  1.00  0.00     0.000 C 
BRANCH  14  15
ATOM     15  C   UNL     1       4.486   5.200   6.884  1.00  0.00     0.000 C 
BRANCH  15  16
ATOM     16  C   UNL     1       5.481   4.816   7.995  1.00  0.00     0.000 C 
BRANCH  16  17
ATOM     17  C   UNL     1       6.884   4.489   7.455  1.00  0.00     0.000 C 
BRANCH  17  18
ATOM     18  C   UNL     1       8.013   5.017   8.359  1.00  0.00     0.000 C 
BRANCH  18  19
ATOM     19  C   UNL     1       8.756   6.261   7.829  1.00  0.00     0.000 C 
BRANCH  19  20
ATOM     20  C   UNL     1       7.853   7.363   7.240  1.00  0.00     0.006 C 
BRANCH  20  21
ATOM     21  C   UNL     1       8.054   7.609   5.738  1.00  0.00     0.053 C 
BRANCH  21  22
ATOM     22  C   UNL     1       6.752   7.648   4.999  1.00  0.00     0.041 C 
ATOM     23  O   UNL     1       6.371   6.651   4.331  1.00  0.00    -0.550 OA
ATOM     24  O   UNL     1       5.944   8.776   5.072  1.00  0.00    -0.550 OA
ENDBRANCH  21  22
ENDBRANCH  20  21
ENDBRANCH  19  20
ENDBRANCH  18  19
ENDBRANCH  17  18
ENDBRANCH  16  17
ENDBRANCH  15  16
ENDBRANCH  14  15
ENDBRANCH  13  14
ENDBRANCH   1  13
TORSDOF 20
ENDMDL
MODEL 4
REMARK VINA RESULT:    -5.855      1.982      3.888
REMARK INTER + INTRA:         -15.913
REMARK INTER:                 -12.591
REMARK INTRA:                  -3.321
REMARK UNBOUND:                -3.212
REMARK SMILES CCCCCCCCCCCCCCCCCCCCCC(=O)[O-]
REMARK SMILES IDX 12 1 11 2 10 3 9 4 8 5 7 6 6 7 5 8 4 9 3 10 2 11 1 12 13 13
REMARK SMILES IDX 14 14 15 15 16 16 17 17 18 18 19 19 20 20 21 21 22 22 23 23
REMARK SMILES IDX 24 24
REMARK H PARENT
REMARK Flexibility Score: inf
ROOT
ATOM      1  C   UNL     1       3.442   6.554   9.475  1.00  0.00     0.000 C 
ENDROOT
BRANCH   1   2
ATOM      2  C   UNL     1       3.222   5.068   9.155  1.00  0.00     0.000 C 
BRANCH   2   3
ATOM      3  C   UNL     1       1.939   4.816   8.345  1.00  0.00     0.000 C 
BRANCH   3   4
ATOM      4  C   UNL     1       1.251   6.121   7.906  1.00  0.00    -0.000 C 
BRANCH   4   5
ATOM      5  C   UNL     1      -0.218   6.192   8.356  1.00  0.00    -0.000 C 
BRANCH   5   6
ATOM      6  C   UNL     1      -0.553   5.159   9.445  1.00  0.00    -0.000 C 
BRANCH   6   7
ATOM      7  C   UNL     1      -1.334   5.780  10.624  1.00  0.00    -0.000 C 
BRANCH   7   8
ATOM      8  C   UNL     1      -0.559   5.769  11.956  1.00  0.00    -0.000 C 
BRANCH   8   9
ATOM      9  C   UNL     1       0.826   6.440  11.904  1.00  0.00    -0.000 C 
BRANCH   9  10
ATOM     10  C   UNL     1       0.980   7.696  12.788  1.00  0.00    -0.000 C 
BRANCH  10  11
ATOM     11  C   UNL     1       1.463   8.956  12.049  1.00  0.00    -0.003 C 
ATOM     12  C   UNL     1       1.035   8.990  10.582  1.00  0.00     0.004 C 
ENDBRANCH  10  11
ENDBRANCH   9  10
ENDBRANCH   8   9
ENDBRANCH   7   8
ENDBRANCH   6   7
ENDBRANCH   5   6
ENDBRANCH   4   5
ENDBRANCH   3   4
ENDBRANCH   2   3
ENDBRANCH   1   2
BRANCH   1  13
ATOM     13  C   UNL     1       4.715   7.080   8.802  1.00  0.00     0.000 C 
BRANCH  13  14
ATOM     14  C   UNL     1       4.487   8.479   8.210  1.00  0.00     0.000 C 
BRANCH  14  15
ATOM     15  C   UNL     1       4.449   8.481   6.671  1.00  0.00     0.000 C 
BRANCH  15  16
ATOM     16  C   UNL     1       4.442   7.088   6.015  1.00  0.00     0.000 C 
BRANCH  16  17
ATOM     17  C   UNL     1       5.733   6.790   5.233  1.00  0.00     0.000 C 
BRANCH  17  18
ATOM     18  C   UNL     1       6.680   8.001   5.154  1.00  0.00     0.000 C 
BRANCH  18  19
ATOM     19  C   UNL     1       8.055   7.809   5.828  1.00  0.00     0.000 C 
BRANCH  19  20
ATOM     20  C   UNL     1       8.005   7.380   7.308  1.00  0.00     0.006 C 
BRANCH  20  21
ATOM     21  C   UNL     1       8.879   6.161   7.642  1.00  0.00     0.053 C 
BRANCH  21  22
ATOM     22  C   UNL     1       8.072   5.035   8.210  1.00  0.00     0.041 C 
ATOM     23  O   UNL     1       7.153   4.507   7.531  1.00  0.00    -0.550 OA
ATOM     24  O   UNL     1       8.353   4.549   9.481  1.00  0.00    -0.550 OA
ENDBRANCH  21  22
ENDBRANCH  20  21
ENDBRANCH  19  20
ENDBRANCH  18  19
ENDBRANCH  17  18
ENDBRANCH  16  17
ENDBRANCH  15  16
ENDBRANCH  14  15
ENDBRANCH  13  14
ENDBRANCH   1  13
TORSDOF 20
ENDMDL
MODEL 5
REMARK VINA RESULT:    -5.849      2.354      6.902
REMARK INTER + INTRA:         -15.899
REMARK INTER:                 -11.981
REMARK INTRA:                  -3.918
REMARK UNBOUND:                -3.212
REMARK SMILES CCCCCCCCCCCCCCCCCCCCCC(=O)[O-]
REMARK SMILES IDX 12 1 11 2 10 3 9 4 8 5 7 6 6 7 5 8 4 9 3 10 2 11 1 12 13 13
REMARK SMILES IDX 14 14 15 15 16 16 17 17 18 18 19 19 20 20 21 21 22 22 23 23
REMARK SMILES IDX 24 24
REMARK H PARENT
REMARK Flexibility Score: inf
ROOT
ATOM      1  C   UNL     1       3.417   7.473   8.057  1.00  0.00     0.000 C 
ENDROOT
BRANCH   1   2
ATOM      2  C   UNL     1       3.501   9.003   8.153  1.00  0.00     0.000 C 
BRANCH   2   3
ATOM      3  C   UNL     1       4.464   9.614   7.121  1.00  0.00     0.000 C 
BRANCH   3   4
ATOM      4  C   UNL     1       5.709   8.741   6.885  1.00  0.00    -0.000 C 
BRANCH   4   5
ATOM      5  C   UNL     1       6.015   8.544   5.391  1.00  0.00    -0.000 C 
BRANCH   5   6
ATOM      6  C   UNL     1       5.428   7.234   4.836  1.00  0.00    -0.000 C 
BRANCH   6   7
ATOM      7  C   UNL     1       6.208   5.990   5.317  1.00  0.00    -0.000 C 
BRANCH   7   8
ATOM      8  C   UNL     1       5.389   5.062   6.236  1.00  0.00    -0.000 C 
BRANCH   8   9
ATOM      9  C   UNL     1       6.163   4.501   7.443  1.00  0.00    -0.000 C 
BRANCH   9  10
ATOM     10  C   UNL     1       6.874   5.557   8.316  1.00  0.00    -0.000 C 
BRANCH  10  11
ATOM     11  C   UNL     1       8.410   5.501   8.281  1.00  0.00    -0.003 C 
ATOM     12  C   UNL     1       9.038   6.723   7.612  1.00  0.00     0.004 C 
ENDBRANCH  10  11
ENDBRANCH   9  10
ENDBRANCH   8   9
ENDBRANCH   7   8
ENDBRANCH   6   7
ENDBRANCH   5   6
ENDBRANCH   4   5
ENDBRANCH   3   4
ENDBRANCH   2   3
ENDBRANCH   1   2
BRANCH   1  13
ATOM     13  C   UNL     1       2.395   7.043   6.998  1.00  0.00     0.000 C 
BRANCH  13  14
ATOM     14  C   UNL     1       1.891   5.616   7.267  1.00  0.00     0.000 C 
BRANCH  14  15
ATOM     15  C   UNL     1       2.392   5.046   8.607  1.00  0.00     0.000 C 
BRANCH  15  16
ATOM     16  C   UNL     1       1.305   4.416   9.497  1.00  0.00     0.000 C 
BRANCH  16  17
ATOM     17  C   UNL     1      -0.098   4.982   9.218  1.00  0.00     0.000 C 
BRANCH  17  18
ATOM     18  C   UNL     1      -0.469   6.152  10.148  1.00  0.00     0.000 C 
BRANCH  18  19
ATOM     19  C   UNL     1      -0.226   7.560   9.566  1.00  0.00     0.000 C 
BRANCH  19  20
ATOM     20  C   UNL     1       0.683   8.472  10.415  1.00  0.00     0.006 C 
BRANCH  20  21
ATOM     21  C   UNL     1       1.695   7.718  11.289  1.00  0.00     0.053 C 
BRANCH  21  22
ATOM     22  C   UNL     1       1.422   7.909  12.749  1.00  0.00     0.041 C 
ATOM     23  O   UNL     1       2.062   8.771  13.407  1.00  0.00    -0.550 OA
ATOM     24  O   UNL     1       0.441   7.153  13.379  1.00  0.00    -0.550 OA
ENDBRANCH  21  22
ENDBRANCH  20  21
ENDBRANCH  19  20
ENDBRANCH  18  19
ENDBRANCH  17  18
ENDBRANCH  16  17
ENDBRANCH  15  16
ENDBRANCH  14  15
ENDBRANCH  13  14
ENDBRANCH   1  13
TORSDOF 20
ENDMDL
MODEL 6
REMARK VINA RESULT:    -5.828      1.756      6.678
REMARK INTER + INTRA:         -15.855
REMARK INTER:                 -12.614
REMARK INTRA:                  -3.240
REMARK UNBOUND:                -3.212
REMARK SMILES CCCCCCCCCCCCCCCCCCCCCC(=O)[O-]
REMARK SMILES IDX 12 1 11 2 10 3 9 4 8 5 7 6 6 7 5 8 4 9 3 10 2 11 1 12 13 13
REMARK SMILES IDX 14 14 15 15 16 16 17 17 18 18 19 19 20 20 21 21 22 22 23 23
REMARK SMILES IDX 24 24
REMARK H PARENT
REMARK Flexibility Score: inf
ROOT
ATOM      1  C   UNL     1       2.369   4.970   6.907  1.00  0.00     0.000 C 
ENDROOT
BRANCH   1   2
ATOM      2  C   UNL     1       2.466   4.417   8.337  1.00  0.00     0.000 C 
BRANCH   2   3
ATOM      3  C   UNL     1       3.734   4.883   9.072  1.00  0.00     0.000 C 
BRANCH   3   4
ATOM      4  C   UNL     1       4.908   5.151   8.114  1.00  0.00    -0.000 C 
BRANCH   4   5
ATOM      5  C   UNL     1       5.965   4.035   8.151  1.00  0.00    -0.000 C 
BRANCH   5   6
ATOM      6  C   UNL     1       7.366   4.534   7.755  1.00  0.00    -0.000 C 
BRANCH   6   7
ATOM      7  C   UNL     1       7.549   6.044   8.020  1.00  0.00    -0.000 C 
BRANCH   7   8
ATOM      8  C   UNL     1       8.583   6.716   7.094  1.00  0.00    -0.000 C 
BRANCH   8   9
ATOM      9  C   UNL     1       8.022   7.843   6.208  1.00  0.00    -0.000 C 
BRANCH   9  10
ATOM     10  C   UNL     1       6.491   8.026   6.270  1.00  0.00    -0.000 C 
BRANCH  10  11
ATOM     11  C   UNL     1       5.739   7.652   4.981  1.00  0.00    -0.003 C 
ATOM     12  C   UNL     1       6.171   6.303   4.407  1.00  0.00     0.004 C 
ENDBRANCH  10  11
ENDBRANCH   9  10
ENDBRANCH   8   9
ENDBRANCH   7   8
ENDBRANCH   6   7
ENDBRANCH   5   6
ENDBRANCH   4   5
ENDBRANCH   3   4
ENDBRANCH   2   3
ENDBRANCH   1   2
BRANCH   1  13
ATOM     13  C   UNL     1       1.582   6.285   6.877  1.00  0.00     0.000 C 
BRANCH  13  14
ATOM     14  C   UNL     1       2.411   7.408   6.237  1.00  0.00     0.000 C 
BRANCH  14  15
ATOM     15  C   UNL     1       2.603   8.619   7.168  1.00  0.00     0.000 C 
BRANCH  15  16
ATOM     16  C   UNL     1       2.864   8.273   8.646  1.00  0.00     0.000 C 
BRANCH  16  17
ATOM     17  C   UNL     1       2.377   9.367   9.612  1.00  0.00     0.000 C 
BRANCH  17  18
ATOM     18  C   UNL     1       1.249   8.886  10.543  1.00  0.00     0.000 C 
BRANCH  18  19
ATOM     19  C   UNL     1       0.468   7.650  10.050  1.00  0.00     0.000 C 
BRANCH  19  20
ATOM     20  C   UNL     1       0.569   6.406  10.955  1.00  0.00     0.006 C 
BRANCH  20  21
ATOM     21  C   UNL     1      -0.782   5.893  11.475  1.00  0.00     0.053 C 
BRANCH  21  22
ATOM     22  C   UNL     1      -1.181   4.609  10.816  1.00  0.00     0.041 C 
ATOM     23  O   UNL     1      -0.994   4.444   9.581  1.00  0.00    -0.550 OA
ATOM     24  O   UNL     1      -1.736   3.582  11.570  1.00  0.00    -0.550 OA
ENDBRANCH  21  22
ENDBRANCH  20  21
ENDBRANCH  19  20
ENDBRANCH  18  19
ENDBRANCH  17  18
ENDBRANCH  16  17
ENDBRANCH  15  16
ENDBRANCH  14  15
ENDBRANCH  13  14
ENDBRANCH   1  13
TORSDOF 20
ENDMDL
MODEL 7
REMARK VINA RESULT:    -5.819      1.403      6.887
REMARK INTER + INTRA:         -15.835
REMARK INTER:                 -12.684
REMARK INTRA:                  -3.151
REMARK UNBOUND:                -3.212
REMARK SMILES CCCCCCCCCCCCCCCCCCCCCC(=O)[O-]
REMARK SMILES IDX 12 1 11 2 10 3 9 4 8 5 7 6 6 7 5 8 4 9 3 10 2 11 1 12 13 13
REMARK SMILES IDX 14 14 15 15 16 16 17 17 18 18 19 19 20 20 21 21 22 22 23 23
REMARK SMILES IDX 24 24
REMARK H PARENT
REMARK Flexibility Score: inf
ROOT
ATOM      1  C   UNL     1       3.576   6.339   8.576  1.00  0.00     0.000 C 
ENDROOT
BRANCH   1   2
ATOM      2  C   UNL     1       4.547   5.160   8.732  1.00  0.00     0.000 C 
BRANCH   2   3
ATOM      3  C   UNL     1       4.863   4.466   7.397  1.00  0.00     0.000 C 
BRANCH   3   4
ATOM      4  C   UNL     1       6.375   4.347   7.136  1.00  0.00    -0.000 C 
BRANCH   4   5
ATOM      5  C   UNL     1       7.205   4.441   8.427  1.00  0.00    -0.000 C 
BRANCH   5   6
ATOM      6  C   UNL     1       8.322   5.496   8.336  1.00  0.00    -0.000 C 
BRANCH   6   7
ATOM      7  C   UNL     1       7.823   6.831   7.742  1.00  0.00    -0.000 C 
BRANCH   7   8
ATOM      8  C   UNL     1       8.668   7.337   6.557  1.00  0.00    -0.000 C 
BRANCH   8   9
ATOM      9  C   UNL     1       7.887   8.145   5.503  1.00  0.00    -0.000 C 
BRANCH   9  10
ATOM     10  C   UNL     1       6.411   8.425   5.854  1.00  0.00    -0.000 C 
BRANCH  10  11
ATOM     11  C   UNL     1       5.397   7.462   5.214  1.00  0.00    -0.003 C 
ATOM     12  C   UNL     1       6.043   6.461   4.257  1.00  0.00     0.004 C 
ENDBRANCH  10  11
ENDBRANCH   9  10
ENDBRANCH   8   9
ENDBRANCH   7   8
ENDBRANCH   6   7
ENDBRANCH   5   6
ENDBRANCH   4   5
ENDBRANCH   3   4
ENDBRANCH   2   3
ENDBRANCH   1   2
BRANCH   1  13
ATOM     13  C   UNL     1       4.310   7.679   8.704  1.00  0.00     0.000 C 
BRANCH  13  14
ATOM     14  C   UNL     1       3.353   8.857   8.465  1.00  0.00     0.000 C 
BRANCH  14  15
ATOM     15  C   UNL     1       2.036   8.728   9.253  1.00  0.00     0.000 C 
BRANCH  15  16
ATOM     16  C   UNL     1       1.921   9.637  10.490  1.00  0.00     0.000 C 
BRANCH  16  17
ATOM     17  C   UNL     1       1.221   8.949  11.675  1.00  0.00     0.000 C 
BRANCH  17  18
ATOM     18  C   UNL     1       1.594   7.462  11.810  1.00  0.00     0.000 C 
BRANCH  18  19
ATOM     19  C   UNL     1       0.523   6.571  12.474  1.00  0.00     0.000 C 
BRANCH  19  20
ATOM     20  C   UNL     1      -0.525   5.977  11.512  1.00  0.00     0.006 C 
BRANCH  20  21
ATOM     21  C   UNL     1       0.061   5.412  10.210  1.00  0.00     0.053 C 
BRANCH  21  22
ATOM     22  C   UNL     1      -0.443   6.146   9.006  1.00  0.00     0.041 C 
ATOM     23  O   UNL     1      -1.416   6.939   9.108  1.00  0.00    -0.550 OA
ATOM     24  O   UNL     1       0.180   5.976   7.776  1.00  0.00    -0.550 OA
ENDBRANCH  21  22
ENDBRANCH  20  21
ENDBRANCH  19  20
ENDBRANCH  18  19
ENDBRANCH  17  18
ENDBRANCH  16  17
ENDBRANCH  15  16
ENDBRANCH  14  15
ENDBRANCH  13  14
ENDBRANCH   1  13
TORSDOF 20
ENDMDL
MODEL 8
REMARK VINA RESULT:    -5.780      1.111      6.802
REMARK INTER + INTRA:         -15.750
REMARK INTER:                 -12.718
REMARK INTRA:                  -3.032
REMARK UNBOUND:                -3.212
REMARK SMILES CCCCCCCCCCCCCCCCCCCCCC(=O)[O-]
REMARK SMILES IDX 12 1 11 2 10 3 9 4 8 5 7 6 6 7 5 8 4 9 3 10 2 11 1 12 13 13
REMARK SMILES IDX 14 14 15 15 16 16 17 17 18 18 19 19 20 20 21 21 22 22 23 23
REMARK SMILES IDX 24 24
REMARK H PARENT
REMARK Flexibility Score: inf
ROOT
ATOM      1  C   UNL     1       4.458   8.264   8.336  1.00  0.00     0.000 C 
ENDROOT
BRANCH   1   2
ATOM      2  C   UNL     1       4.545   6.754   8.601  1.00  0.00     0.000 C 
BRANCH   2   3
ATOM      3  C   UNL     1       4.353   5.913   7.329  1.00  0.00     0.000 C 
BRANCH   3   4
ATOM      4  C   UNL     1       4.328   4.401   7.617  1.00  0.00    -0.000 C 
BRANCH   4   5
ATOM      5  C   UNL     1       5.694   3.868   8.081  1.00  0.00    -0.000 C 
BRANCH   5   6
ATOM      6  C   UNL     1       6.869   4.515   7.327  1.00  0.00    -0.000 C 
BRANCH   6   7
ATOM      7  C   UNL     1       7.977   5.013   8.281  1.00  0.00    -0.000 C 
BRANCH   7   8
ATOM      8  C   UNL     1       8.771   6.215   7.735  1.00  0.00    -0.000 C 
BRANCH   8   9
ATOM      9  C   UNL     1       7.913   7.429   7.333  1.00  0.00    -0.000 C 
BRANCH   9  10
ATOM     10  C   UNL     1       7.942   7.784   5.831  1.00  0.00    -0.000 C 
BRANCH  10  11
ATOM     11  C   UNL     1       6.562   7.879   5.159  1.00  0.00    -0.003 C 
ATOM     12  C   UNL     1       6.188   6.618   4.381  1.00  0.00     0.004 C 
ENDBRANCH  10  11
ENDBRANCH   9  10
ENDBRANCH   8   9
ENDBRANCH   7   8
ENDBRANCH   6   7
ENDBRANCH   5   6
ENDBRANCH   4   5
ENDBRANCH   3   4
ENDBRANCH   2   3
ENDBRANCH   1   2
BRANCH   1  13
ATOM     13  C   UNL     1       3.039   8.670   7.921  1.00  0.00     0.000 C 
BRANCH  13  14
ATOM     14  C   UNL     1       2.394   9.577   8.981  1.00  0.00     0.000 C 
BRANCH  14  15
ATOM     15  C   UNL     1       1.400   8.827   9.888  1.00  0.00     0.000 C 
BRANCH  15  16
ATOM     16  C   UNL     1       2.040   8.021  11.033  1.00  0.00     0.000 C 
BRANCH  16  17
ATOM     17  C   UNL     1       1.193   8.033  12.318  1.00  0.00     0.000 C 
BRANCH  17  18
ATOM     18  C   UNL     1       0.686   6.634  12.714  1.00  0.00     0.000 C 
BRANCH  18  19
ATOM     19  C   UNL     1      -0.688   6.241  12.131  1.00  0.00     0.000 C 
BRANCH  19  20
ATOM     20  C   UNL     1      -0.649   5.157  11.035  1.00  0.00     0.006 C 
BRANCH  20  21
ATOM     21  C   UNL     1      -0.663   5.709   9.601  1.00  0.00     0.053 C 
BRANCH  21  22
ATOM     22  C   UNL     1       0.627   5.443   8.889  1.00  0.00     0.041 C 
ATOM     23  O   UNL     1       0.839   5.943   7.753  1.00  0.00    -0.550 OA
ATOM     24  O   UNL     1       1.608   4.664   9.492  1.00  0.00    -0.550 OA
ENDBRANCH  21  22
ENDBRANCH  20  21
ENDBRANCH  19  20
ENDBRANCH  18  19
ENDBRANCH  17  18
ENDBRANCH  16  17
ENDBRANCH  15  16
ENDBRANCH  14  15
ENDBRANCH  13  14
ENDBRANCH   1  13
TORSDOF 20
ENDMDL
MODEL 9
REMARK VINA RESULT:    -5.776      1.597      4.338
REMARK INTER + INTRA:         -15.740
REMARK INTER:                 -13.008
REMARK INTRA:                  -2.732
REMARK UNBOUND:                -3.212
REMARK SMILES CCCCCCCCCCCCCCCCCCCCCC(=O)[O-]
REMARK SMILES IDX 12 1 11 2 10 3 9 4 8 5 7 6 6 7 5 8 4 9 3 10 2 11 1 12 13 13
REMARK SMILES IDX 14 14 15 15 16 16 17 17 18 18 19 19 20 20 21 21 22 22 23 23
REMARK SMILES IDX 24 24
REMARK H PARENT
REMARK Flexibility Score: inf
ROOT
ATOM      1  C   UNL     1       7.458   7.222   7.348  1.00  0.00     0.000 C 
ENDROOT
BRANCH   1   2
ATOM      2  C   UNL     1       7.676   7.813   5.947  1.00  0.00     0.000 C 
BRANCH   2   3
ATOM      3  C   UNL     1       6.360   8.187   5.246  1.00  0.00     0.000 C 
BRANCH   3   4
ATOM      4  C   UNL     1       5.127   7.952   6.136  1.00  0.00    -0.000 C 
BRANCH   4   5
ATOM      5  C   UNL     1       4.663   9.232   6.851  1.00  0.00    -0.000 C 
BRANCH   5   6
ATOM      6  C   UNL     1       4.040   8.947   8.228  1.00  0.00    -0.000 C 
BRANCH   6   7
ATOM      7  C   UNL     1       2.521   9.230   8.256  1.00  0.00    -0.000 C 
BRANCH   7   8
ATOM      8  C   UNL     1       1.807   8.663   9.498  1.00  0.00    -0.000 C 
BRANCH   8   9
ATOM      9  C   UNL     1       1.982   9.495  10.782  1.00  0.00    -0.000 C 
BRANCH   9  10
ATOM     10  C   UNL     1       1.392   8.862  12.060  1.00  0.00    -0.000 C 
BRANCH  10  11
ATOM     11  C   UNL     1       0.964   7.391  11.918  1.00  0.00    -0.003 C 
ATOM     12  C   UNL     1       0.567   6.753  13.249  1.00  0.00     0.004 C 
ENDBRANCH  10  11
ENDBRANCH   9  10
ENDBRANCH   8   9
ENDBRANCH   7   8
ENDBRANCH   6   7
ENDBRANCH   5   6
ENDBRANCH   4   5
ENDBRANCH   3   4
ENDBRANCH   2   3
ENDBRANCH   1   2
BRANCH   1  13
ATOM     13  C   UNL     1       8.520   6.164   7.671  1.00  0.00     0.000 C 
BRANCH  13  14
ATOM     14  C   UNL     1       7.869   4.872   8.188  1.00  0.00     0.000 C 
BRANCH  14  15
ATOM     15  C   UNL     1       6.728   4.371   7.284  1.00  0.00     0.000 C 
BRANCH  15  16
ATOM     16  C   UNL     1       5.444   3.952   8.023  1.00  0.00     0.000 C 
BRANCH  16  17
ATOM     17  C   UNL     1       4.253   4.879   7.724  1.00  0.00     0.000 C 
BRANCH  17  18
ATOM     18  C   UNL     1       3.744   5.624   8.971  1.00  0.00     0.000 C 
BRANCH  18  19
ATOM     19  C   UNL     1       2.675   4.877   9.796  1.00  0.00     0.000 C 
BRANCH  19  20
ATOM     20  C   UNL     1       1.462   4.368   8.991  1.00  0.00     0.006 C 
BRANCH  20  21
ATOM     21  C   UNL     1       0.572   5.482   8.419  1.00  0.00     0.053 C 
BRANCH  21  22
ATOM     22  C   UNL     1      -0.664   5.684   9.239  1.00  0.00     0.041 C 
ATOM     23  O   UNL     1      -1.397   6.690   9.046  1.00  0.00    -0.550 OA
ATOM     24  O   UNL     1      -1.024   4.746  10.199  1.00  0.00    -0.550 OA
ENDBRANCH  21  22
ENDBRANCH  20  21
ENDBRANCH  19  20
ENDBRANCH  18  19
ENDBRANCH  17  18
ENDBRANCH  16  17
ENDBRANCH  15  16
ENDBRANCH  14  15
ENDBRANCH  13  14
ENDBRANCH   1  13
TORSDOF 20
ENDMDL
