MODEL 1
REMARK VINA RESULT:    -5.875      0.000      0.000
REMARK INTER + INTRA:         -12.858
REMARK INTER:                  -9.653
REMARK INTRA:                  -3.204
REMARK UNBOUND:                -3.204
REMARK SMILES C[C@@H]1O[C@H](OC[C@H]2O[C@H](Oc3c(-c4ccc(O)c(O)c4)oc4cc(O)cc(O)c4c3=O)[C@H](O)[C@@H](O)[C@@H]2O)[C@@H](O)[C@H](O)[C@H]1O
REMARK SMILES IDX 7 1 36 2 34 3 32 4 9 5 8 6 6 7 5 8 4 9 1 10 2 11 42 12 3 13
REMARK SMILES IDX 40 14 38 15 43 16 41 18 39 20 37 22 35 24 10 26 11 27 12 28
REMARK SMILES IDX 30 29 21 30 29 31 31 32 22 33 27 34 23 35 26 36 24 37 13 38
REMARK SMILES IDX 20 39 14 40 18 41 15 42 16 43 19 44 17 46 28 48 25 50 33 52
REMARK H PARENT 43 17 41 19 39 21 37 23 35 25 19 45 17 47 28 49 25 51 33 53
REMARK Flexibility Score: inf
ROOT
ATOM      1  C   UNL     1      19.218  28.669  34.733  1.00  0.00     0.180 C 
ATOM      2  C   UNL     1      20.401  28.273  35.670  1.00  0.00     0.177 C 
ATOM      3  C   UNL     1      21.784  28.761  35.196  1.00  0.00     0.180 C 
ATOM      4  C   UNL     1      21.919  28.674  33.670  1.00  0.00     0.214 C 
ATOM      5  C   UNL     1      20.705  29.347  33.016  1.00  0.00     0.339 C 
ATOM      6  O   UNL     1      19.511  28.653  33.340  1.00  0.00    -0.332 OA
ENDROOT
BRANCH   1   7
ATOM      7  C   UNL     1      18.412  29.916  35.188  1.00  0.00     0.198 C 
BRANCH   7   8
ATOM      8  O   UNL     1      19.219  31.083  35.310  1.00  0.00    -0.347 OA
BRANCH   8   9
ATOM      9  C   UNL     1      18.873  31.883  36.445  1.00  0.00     0.281 C 
ATOM     10  C   UNL     1      15.349  32.088  37.050  1.00  0.00     0.041 C 
ATOM     11  C   UNL     1      16.725  32.661  37.398  1.00  0.00     0.150 C 
ATOM     12  C   UNL     1      17.172  32.130  38.799  1.00  0.00     0.174 C 
ATOM     13  O   UNL     1      17.567  32.425  36.274  1.00  0.00    -0.344 OA
ATOM     14  C   UNL     1      18.691  31.959  38.921  1.00  0.00     0.179 C 
ATOM     15  C   UNL     1      19.148  31.111  37.744  1.00  0.00     0.202 C 
BRANCH  12  16
ATOM     16  O   UNL     1      16.690  32.971  39.814  1.00  0.00    -0.388 OA
ATOM     17  H   UNL     1      16.077  33.622  39.397  1.00  0.00     0.211 HD
ENDBRANCH  12  16
BRANCH  14  18
ATOM     18  O   UNL     1      18.980  31.311  40.139  1.00  0.00    -0.387 OA
ATOM     19  H   UNL     1      19.315  30.406  39.888  1.00  0.00     0.211 HD
ENDBRANCH  14  18
BRANCH  15  20
ATOM     20  O   UNL     1      20.530  30.866  37.851  1.00  0.00    -0.385 OA
ATOM     21  H   UNL     1      20.890  30.809  36.923  1.00  0.00     0.211 HD
ENDBRANCH  15  20
ENDBRANCH   8   9
ENDBRANCH   7   8
ENDBRANCH   1   7
BRANCH   2  22
ATOM     22  O   UNL     1      20.442  26.873  35.790  1.00  0.00    -0.387 OA
ATOM     23  H   UNL     1      20.474  26.667  36.766  1.00  0.00     0.211 HD
ENDBRANCH   2  22
BRANCH   3  24
ATOM     24  O   UNL     1      21.997  30.091  35.611  1.00  0.00    -0.387 OA
ATOM     25  H   UNL     1      22.300  30.617  34.824  1.00  0.00     0.211 HD
ENDBRANCH   3  24
BRANCH   5  26
ATOM     26  O   UNL     1      20.873  29.356  31.590  1.00  0.00    -0.454 OA
BRANCH  26  27
ATOM     27  C   UNL     1      19.920  28.922  30.655  1.00  0.00     0.214 A 
ATOM     28  C   UNL     1      18.977  29.818  30.078  1.00  0.00     0.180 A 
ATOM     29  C   UNL     1      19.863  27.566  30.256  1.00  0.00     0.239 A 
ATOM     30  O   UNL     1      18.241  29.392  29.047  1.00  0.00    -0.452 OA
ATOM     31  C   UNL     1      19.136  27.198  29.112  1.00  0.00     0.111 A 
ATOM     32  O   UNL     1      20.414  26.686  30.962  1.00  0.00    -0.285 OA
ATOM     33  C   UNL     1      18.305  28.173  28.529  1.00  0.00     0.146 A 
ATOM     34  C   UNL     1      19.208  25.916  28.534  1.00  0.00     0.134 A 
ATOM     35  C   UNL     1      17.518  27.859  27.417  1.00  0.00     0.094 A 
ATOM     36  C   UNL     1      18.429  25.616  27.408  1.00  0.00     0.093 A 
ATOM     37  C   UNL     1      17.579  26.585  26.853  1.00  0.00     0.123 A 
BRANCH  28  38
ATOM     38  C   UNL     1      18.694  31.229  30.551  1.00  0.00     0.025 A 
ATOM     39  C   UNL     1      18.238  31.552  31.848  1.00  0.00     0.062 A 
ATOM     40  C   UNL     1      18.789  32.271  29.599  1.00  0.00     0.016 A 
ATOM     41  C   UNL     1      17.897  32.868  32.181  1.00  0.00     0.158 A 
ATOM     42  C   UNL     1      18.448  33.574  29.936  1.00  0.00     0.051 A 
ATOM     43  C   UNL     1      18.028  33.899  31.223  1.00  0.00     0.157 A 
BRANCH  41  44
ATOM     44  O   UNL     1      17.426  33.109  33.469  1.00  0.00    -0.504 OA
ATOM     45  H   UNL     1      17.658  32.535  34.271  1.00  0.00     0.293 HD
ENDBRANCH  41  44
BRANCH  43  46
ATOM     46  O   UNL     1      17.763  35.242  31.515  1.00  0.00    -0.504 OA
ATOM     47  H   UNL     1      17.121  35.810  30.987  1.00  0.00     0.293 HD
ENDBRANCH  43  46
ENDBRANCH  28  38
BRANCH  34  48
ATOM     48  O   UNL     1      20.069  24.949  29.046  1.00  0.00    -0.507 OA
ATOM     49  H   UNL     1      20.200  24.822  30.040  1.00  0.00     0.293 HD
ENDBRANCH  34  48
BRANCH  37  50
ATOM     50  O   UNL     1      16.790  26.254  25.756  1.00  0.00    -0.508 OA
ATOM     51  H   UNL     1      16.246  26.958  25.272  1.00  0.00     0.293 HD
ENDBRANCH  37  50
ENDBRANCH  26  27
ENDBRANCH   5  26
BRANCH   4  52
ATOM     52  O   UNL     1      22.010  27.334  33.251  1.00  0.00    -0.384 OA
ATOM     53  H   UNL     1      21.157  27.118  32.784  1.00  0.00     0.211 HD
ENDBRANCH   4  52
TORSDOF 16
ENDMDL
MODEL 2
REMARK VINA RESULT:    -5.840      2.041      5.567
REMARK INTER + INTRA:         -12.800
REMARK INTER:                  -9.915
REMARK INTRA:                  -2.886
REMARK UNBOUND:                -3.204
REMARK SMILES C[C@@H]1O[C@H](OC[C@H]2O[C@H](Oc3c(-c4ccc(O)c(O)c4)oc4cc(O)cc(O)c4c3=O)[C@H](O)[C@@H](O)[C@@H]2O)[C@@H](O)[C@H](O)[C@H]1O
REMARK SMILES IDX 7 1 36 2 34 3 32 4 9 5 8 6 6 7 5 8 4 9 1 10 2 11 42 12 3 13
REMARK SMILES IDX 40 14 38 15 43 16 41 18 39 20 37 22 35 24 10 26 11 27 12 28
REMARK SMILES IDX 30 29 21 30 29 31 31 32 22 33 27 34 23 35 26 36 24 37 13 38
REMARK SMILES IDX 20 39 14 40 18 41 15 42 16 43 19 44 17 46 28 48 25 50 33 52
REMARK H PARENT 43 17 41 19 39 21 37 23 35 25 19 45 17 47 28 49 25 51 33 53
REMARK Flexibility Score: inf
ROOT
ATOM      1  C   UNL     1      18.251  29.037  34.688  1.00  0.00     0.180 C 
ATOM      2  C   UNL     1      19.676  28.405  34.757  1.00  0.00     0.177 C 
ATOM      3  C   UNL     1      20.602  28.790  33.586  1.00  0.00     0.180 C 
ATOM      4  C   UNL     1      19.834  28.867  32.261  1.00  0.00     0.214 C 
ATOM      5  C   UNL     1      18.587  29.742  32.449  1.00  0.00     0.339 C 
ATOM      6  O   UNL     1      17.696  29.151  33.382  1.00  0.00    -0.332 OA
ENDROOT
BRANCH   1   7
ATOM      7  C   UNL     1      18.054  30.303  35.564  1.00  0.00     0.198 C 
BRANCH   7   8
ATOM      8  O   UNL     1      16.682  30.621  35.779  1.00  0.00    -0.347 OA
BRANCH   8   9
ATOM      9  C   UNL     1      16.408  32.020  35.654  1.00  0.00     0.281 C 
ATOM     10  C   UNL     1      18.568  34.098  37.613  1.00  0.00     0.041 C 
ATOM     11  C   UNL     1      17.285  34.042  36.779  1.00  0.00     0.150 C 
ATOM     12  C   UNL     1      17.545  34.690  35.380  1.00  0.00     0.174 C 
ATOM     13  O   UNL     1      16.814  32.700  36.838  1.00  0.00    -0.344 OA
ATOM     14  C   UNL     1      16.714  34.052  34.259  1.00  0.00     0.179 C 
ATOM     15  C   UNL     1      16.950  32.551  34.318  1.00  0.00     0.202 C 
BRANCH  12  16
ATOM     16  O   UNL     1      17.314  36.074  35.435  1.00  0.00    -0.388 OA
ATOM     17  H   UNL     1      18.172  36.512  35.643  1.00  0.00     0.211 HD
ENDBRANCH  12  16
BRANCH  14  18
ATOM     18  O   UNL     1      17.145  34.572  33.022  1.00  0.00    -0.387 OA
ATOM     19  H   UNL     1      17.107  33.808  32.382  1.00  0.00     0.211 HD
ENDBRANCH  14  18
BRANCH  15  20
ATOM     20  O   UNL     1      16.262  31.926  33.261  1.00  0.00    -0.385 OA
ATOM     21  H   UNL     1      15.295  31.929  33.498  1.00  0.00     0.211 HD
ENDBRANCH  15  20
ENDBRANCH   8   9
ENDBRANCH   7   8
ENDBRANCH   1   7
BRANCH   2  22
ATOM     22  O   UNL     1      19.556  27.005  34.786  1.00  0.00    -0.387 OA
ATOM     23  H   UNL     1      19.182  26.728  33.904  1.00  0.00     0.211 HD
ENDBRANCH   2  22
BRANCH   3  24
ATOM     24  O   UNL     1      21.220  30.030  33.844  1.00  0.00    -0.387 OA
ATOM     25  H   UNL     1      20.822  30.409  34.672  1.00  0.00     0.211 HD
ENDBRANCH   3  24
BRANCH   5  26
ATOM     26  O   UNL     1      17.917  29.899  31.190  1.00  0.00    -0.454 OA
BRANCH  26  27
ATOM     27  C   UNL     1      18.357  30.706  30.128  1.00  0.00     0.214 A 
ATOM     28  C   UNL     1      18.741  30.150  28.876  1.00  0.00     0.180 A 
ATOM     29  C   UNL     1      18.437  32.110  30.272  1.00  0.00     0.239 A 
ATOM     30  O   UNL     1      18.946  30.976  27.847  1.00  0.00    -0.452 OA
ATOM     31  C   UNL     1      18.571  32.929  29.138  1.00  0.00     0.111 A 
ATOM     32  O   UNL     1      18.450  32.619  31.420  1.00  0.00    -0.285 OA
ATOM     33  C   UNL     1      18.842  32.296  27.909  1.00  0.00     0.146 A 
ATOM     34  C   UNL     1      18.442  34.330  29.180  1.00  0.00     0.134 A 
ATOM     35  C   UNL     1      19.034  33.055  26.750  1.00  0.00     0.094 A 
ATOM     36  C   UNL     1      18.617  35.080  28.009  1.00  0.00     0.093 A 
ATOM     37  C   UNL     1      18.920  34.444  26.795  1.00  0.00     0.123 A 
BRANCH  28  38
ATOM     38  C   UNL     1      18.979  28.679  28.598  1.00  0.00     0.025 A 
ATOM     39  C   UNL     1      20.214  28.145  28.174  1.00  0.00     0.062 A 
ATOM     40  C   UNL     1      17.864  27.810  28.665  1.00  0.00     0.016 A 
ATOM     41  C   UNL     1      20.331  26.791  27.834  1.00  0.00     0.158 A 
ATOM     42  C   UNL     1      17.988  26.470  28.327  1.00  0.00     0.051 A 
ATOM     43  C   UNL     1      19.213  25.935  27.937  1.00  0.00     0.157 A 
BRANCH  41  44
ATOM     44  O   UNL     1      21.574  26.339  27.395  1.00  0.00    -0.504 OA
ATOM     45  H   UNL     1      21.724  25.873  26.509  1.00  0.00     0.293 HD
ENDBRANCH  41  44
BRANCH  43  46
ATOM     46  O   UNL     1      19.282  24.562  27.673  1.00  0.00    -0.504 OA
ATOM     47  H   UNL     1      20.123  24.094  27.378  1.00  0.00     0.293 HD
ENDBRANCH  43  46
ENDBRANCH  28  38
BRANCH  34  48
ATOM     48  O   UNL     1      18.108  34.981  30.365  1.00  0.00    -0.507 OA
ATOM     49  H   UNL     1      17.264  34.762  30.876  1.00  0.00     0.293 HD
ENDBRANCH  34  48
BRANCH  37  50
ATOM     50  O   UNL     1      19.123  35.212  25.653  1.00  0.00    -0.508 OA
ATOM     51  H   UNL     1      20.051  35.341  25.268  1.00  0.00     0.293 HD
ENDBRANCH  37  50
ENDBRANCH  26  27
ENDBRANCH   5  26
BRANCH   4  52
ATOM     52  O   UNL     1      19.458  27.583  31.824  1.00  0.00    -0.384 OA
ATOM     53  H   UNL     1      18.942  27.165  32.566  1.00  0.00     0.211 HD
ENDBRANCH   4  52
TORSDOF 16
ENDMDL
MODEL 3
REMARK VINA RESULT:    -5.701      1.938      9.254
REMARK INTER + INTRA:         -12.572
REMARK INTER:                 -10.619
REMARK INTRA:                  -1.954
REMARK UNBOUND:                -3.204
REMARK SMILES C[C@@H]1O[C@H](OC[C@H]2O[C@H](Oc3c(-c4ccc(O)c(O)c4)oc4cc(O)cc(O)c4c3=O)[C@H](O)[C@@H](O)[C@@H]2O)[C@@H](O)[C@H](O)[C@H]1O
REMARK SMILES IDX 7 1 36 2 34 3 32 4 9 5 8 6 6 7 5 8 4 9 1 10 2 11 42 12 3 13
REMARK SMILES IDX 40 14 38 15 43 16 41 18 39 20 37 22 35 24 10 26 11 27 12 28
REMARK SMILES IDX 30 29 21 30 29 31 31 32 22 33 27 34 23 35 26 36 24 37 13 38
REMARK SMILES IDX 20 39 14 40 18 41 15 42 16 43 19 44 17 46 28 48 25 50 33 52
REMARK H PARENT 43 17 41 19 39 21 37 23 35 25 19 45 17 47 28 49 25 51 33 53
REMARK Flexibility Score: inf
ROOT
ATOM      1  C   UNL     1      19.660  32.176  29.594  1.00  0.00     0.180 C 
ATOM      2  C   UNL     1      20.247  33.614  29.739  1.00  0.00     0.177 C 
ATOM      3  C   UNL     1      20.073  34.237  31.139  1.00  0.00     0.180 C 
ATOM      4  C   UNL     1      18.716  33.869  31.754  1.00  0.00     0.214 C 
ATOM      5  C   UNL     1      18.513  32.351  31.661  1.00  0.00     0.339 C 
ATOM      6  O   UNL     1      18.451  31.935  30.306  1.00  0.00    -0.332 OA
ENDROOT
BRANCH   1   7
ATOM      7  C   UNL     1      20.699  31.029  29.718  1.00  0.00     0.198 C 
BRANCH   7   8
ATOM      8  O   UNL     1      20.114  29.791  30.111  1.00  0.00    -0.347 OA
BRANCH   8   9
ATOM      9  C   UNL     1      19.992  28.865  29.027  1.00  0.00     0.281 C 
ATOM     10  C   UNL     1      20.366  25.440  30.002  1.00  0.00     0.041 C 
ATOM     11  C   UNL     1      20.298  26.417  28.826  1.00  0.00     0.150 C 
ATOM     12  C   UNL     1      18.896  26.313  28.141  1.00  0.00     0.174 C 
ATOM     13  O   UNL     1      20.731  27.682  29.316  1.00  0.00    -0.344 OA
ATOM     14  C   UNL     1      18.420  27.642  27.543  1.00  0.00     0.179 C 
ATOM     15  C   UNL     1      18.516  28.693  28.638  1.00  0.00     0.202 C 
BRANCH  12  16
ATOM     16  O   UNL     1      18.909  25.309  27.159  1.00  0.00    -0.388 OA
ATOM     17  H   UNL     1      19.222  25.718  26.318  1.00  0.00     0.211 HD
ENDBRANCH  12  16
BRANCH  14  18
ATOM     18  O   UNL     1      17.085  27.495  27.114  1.00  0.00    -0.387 OA
ATOM     19  H   UNL     1      16.950  28.192  26.413  1.00  0.00     0.211 HD
ENDBRANCH  14  18
BRANCH  15  20
ATOM     20  O   UNL     1      18.020  29.919  28.157  1.00  0.00    -0.385 OA
ATOM     21  H   UNL     1      17.135  29.733  27.738  1.00  0.00     0.211 HD
ENDBRANCH  15  20
ENDBRANCH   8   9
ENDBRANCH   7   8
ENDBRANCH   1   7
BRANCH   2  22
ATOM     22  O   UNL     1      19.633  34.458  28.799  1.00  0.00    -0.387 OA
ATOM     23  H   UNL     1      18.654  34.439  28.988  1.00  0.00     0.211 HD
ENDBRANCH   2  22
BRANCH   3  24
ATOM     24  O   UNL     1      21.108  33.806  31.994  1.00  0.00    -0.387 OA
ATOM     25  H   UNL     1      20.940  34.182  32.899  1.00  0.00     0.211 HD
ENDBRANCH   3  24
BRANCH   5  26
ATOM     26  O   UNL     1      17.292  31.989  32.322  1.00  0.00    -0.454 OA
BRANCH  26  27
ATOM     27  C   UNL     1      17.008  32.201  33.682  1.00  0.00     0.214 A 
ATOM     28  C   UNL     1      17.575  31.384  34.700  1.00  0.00     0.180 A 
ATOM     29  C   UNL     1      16.137  33.239  34.085  1.00  0.00     0.239 A 
ATOM     30  O   UNL     1      17.436  31.764  35.973  1.00  0.00    -0.452 OA
ATOM     31  C   UNL     1      16.099  33.645  35.430  1.00  0.00     0.111 A 
ATOM     32  O   UNL     1      15.354  33.755  33.250  1.00  0.00    -0.285 OA
ATOM     33  C   UNL     1      16.778  32.845  36.369  1.00  0.00     0.146 A 
ATOM     34  C   UNL     1      15.426  34.801  35.866  1.00  0.00     0.134 A 
ATOM     35  C   UNL     1      16.741  33.166  37.729  1.00  0.00     0.094 A 
ATOM     36  C   UNL     1      15.411  35.125  37.230  1.00  0.00     0.093 A 
ATOM     37  C   UNL     1      16.063  34.304  38.163  1.00  0.00     0.123 A 
BRANCH  28  38
ATOM     38  C   UNL     1      18.309  30.077  34.478  1.00  0.00     0.025 A 
ATOM     39  C   UNL     1      18.355  29.395  33.243  1.00  0.00     0.062 A 
ATOM     40  C   UNL     1      18.891  29.452  35.607  1.00  0.00     0.016 A 
ATOM     41  C   UNL     1      18.964  28.138  33.140  1.00  0.00     0.158 A 
ATOM     42  C   UNL     1      19.492  28.206  35.497  1.00  0.00     0.051 A 
ATOM     43  C   UNL     1      19.564  27.546  34.273  1.00  0.00     0.157 A 
BRANCH  41  44
ATOM     44  O   UNL     1      18.945  27.510  31.897  1.00  0.00    -0.504 OA
ATOM     45  H   UNL     1      18.591  26.575  31.742  1.00  0.00     0.293 HD
ENDBRANCH  41  44
BRANCH  43  46
ATOM     46  O   UNL     1      20.243  26.323  34.219  1.00  0.00    -0.504 OA
ATOM     47  H   UNL     1      20.258  25.731  33.405  1.00  0.00     0.293 HD
ENDBRANCH  43  46
ENDBRANCH  28  38
BRANCH  34  48
ATOM     48  O   UNL     1      14.801  35.651  34.956  1.00  0.00    -0.507 OA
ATOM     49  H   UNL     1      13.802  35.807  34.971  1.00  0.00     0.293 HD
ENDBRANCH  34  48
BRANCH  37  50
ATOM     50  O   UNL     1      16.005  34.626  39.515  1.00  0.00    -0.508 OA
ATOM     51  H   UNL     1      15.226  34.329  40.090  1.00  0.00     0.293 HD
ENDBRANCH  37  50
ENDBRANCH  26  27
ENDBRANCH   5  26
BRANCH   4  52
ATOM     52  O   UNL     1      17.669  34.535  31.091  1.00  0.00    -0.384 OA
ATOM     53  H   UNL     1      16.915  33.889  31.018  1.00  0.00     0.211 HD
ENDBRANCH   4  52
TORSDOF 16
ENDMDL
MODEL 4
REMARK VINA RESULT:    -5.645      2.093      9.002
REMARK INTER + INTRA:         -12.479
REMARK INTER:                  -9.981
REMARK INTRA:                  -2.498
REMARK UNBOUND:                -3.204
REMARK SMILES C[C@@H]1O[C@H](OC[C@H]2O[C@H](Oc3c(-c4ccc(O)c(O)c4)oc4cc(O)cc(O)c4c3=O)[C@H](O)[C@@H](O)[C@@H]2O)[C@@H](O)[C@H](O)[C@H]1O
REMARK SMILES IDX 7 1 36 2 34 3 32 4 9 5 8 6 6 7 5 8 4 9 1 10 2 11 42 12 3 13
REMARK SMILES IDX 40 14 38 15 43 16 41 18 39 20 37 22 35 24 10 26 11 27 12 28
REMARK SMILES IDX 30 29 21 30 29 31 31 32 22 33 27 34 23 35 26 36 24 37 13 38
REMARK SMILES IDX 20 39 14 40 18 41 15 42 16 43 19 44 17 46 28 48 25 50 33 52
REMARK H PARENT 43 17 41 19 39 21 37 23 35 25 19 45 17 47 28 49 25 51 33 53
REMARK Flexibility Score: inf
ROOT
ATOM      1  C   UNL     1      18.161  29.995  30.291  1.00  0.00     0.180 C 
ATOM      2  C   UNL     1      19.028  30.356  29.045  1.00  0.00     0.177 C 
ATOM      3  C   UNL     1      20.448  30.856  29.377  1.00  0.00     0.180 C 
ATOM      4  C   UNL     1      20.455  31.742  30.630  1.00  0.00     0.214 C 
ATOM      5  C   UNL     1      19.712  31.022  31.762  1.00  0.00     0.339 C 
ATOM      6  O   UNL     1      18.346  30.834  31.426  1.00  0.00    -0.332 OA
ENDROOT
BRANCH   1   7
ATOM      7  C   UNL     1      18.106  28.482  30.633  1.00  0.00     0.198 C 
BRANCH   7   8
ATOM      8  O   UNL     1      17.997  27.656  29.479  1.00  0.00    -0.347 OA
BRANCH   8   9
ATOM      9  C   UNL     1      19.215  26.973  29.166  1.00  0.00     0.281 C 
ATOM     10  C   UNL     1      20.811  25.488  32.006  1.00  0.00     0.041 C 
ATOM     11  C   UNL     1      20.965  25.882  30.535  1.00  0.00     0.150 C 
ATOM     12  C   UNL     1      20.849  24.606  29.639  1.00  0.00     0.174 C 
ATOM     13  O   UNL     1      20.072  26.967  30.305  1.00  0.00    -0.344 OA
ATOM     14  C   UNL     1      20.226  24.891  28.267  1.00  0.00     0.179 C 
ATOM     15  C   UNL     1      18.913  25.620  28.507  1.00  0.00     0.202 C 
BRANCH  12  16
ATOM     16  O   UNL     1      22.108  24.001  29.490  1.00  0.00    -0.388 OA
ATOM     17  H   UNL     1      22.760  24.540  29.998  1.00  0.00     0.211 HD
ENDBRANCH  12  16
BRANCH  14  18
ATOM     18  O   UNL     1      19.998  23.665  27.608  1.00  0.00    -0.387 OA
ATOM     19  H   UNL     1      19.506  23.897  26.772  1.00  0.00     0.211 HD
ENDBRANCH  14  18
BRANCH  15  20
ATOM     20  O   UNL     1      18.267  25.840  27.276  1.00  0.00    -0.385 OA
ATOM     21  H   UNL     1      18.254  26.825  27.125  1.00  0.00     0.211 HD
ENDBRANCH  15  20
ENDBRANCH   8   9
ENDBRANCH   7   8
ENDBRANCH   1   7
BRANCH   2  22
ATOM     22  O   UNL     1      18.371  31.351  28.301  1.00  0.00    -0.387 OA
ATOM     23  H   UNL     1      19.068  31.817  27.761  1.00  0.00     0.211 HD
ENDBRANCH   2  22
BRANCH   3  24
ATOM     24  O   UNL     1      21.315  29.761  29.571  1.00  0.00    -0.387 OA
ATOM     25  H   UNL     1      21.125  29.370  30.466  1.00  0.00     0.211 HD
ENDBRANCH   3  24
BRANCH   5  26
ATOM     26  O   UNL     1      19.799  31.800  32.964  1.00  0.00    -0.454 OA
BRANCH  26  27
ATOM     27  C   UNL     1      18.734  32.068  33.841  1.00  0.00     0.214 A 
ATOM     28  C   UNL     1      18.449  31.224  34.950  1.00  0.00     0.180 A 
ATOM     29  C   UNL     1      17.901  33.194  33.644  1.00  0.00     0.239 A 
ATOM     30  O   UNL     1      17.565  31.644  35.860  1.00  0.00    -0.452 OA
ATOM     31  C   UNL     1      17.053  33.631  34.674  1.00  0.00     0.111 A 
ATOM     32  O   UNL     1      17.878  33.763  32.525  1.00  0.00    -0.285 OA
ATOM     33  C   UNL     1      16.905  32.791  35.795  1.00  0.00     0.146 A 
ATOM     34  C   UNL     1      16.361  34.857  34.633  1.00  0.00     0.134 A 
ATOM     35  C   UNL     1      16.039  33.145  36.834  1.00  0.00     0.094 A 
ATOM     36  C   UNL     1      15.510  35.211  35.689  1.00  0.00     0.093 A 
ATOM     37  C   UNL     1      15.343  34.352  36.787  1.00  0.00     0.123 A 
BRANCH  28  38
ATOM     38  C   UNL     1      19.038  29.849  35.189  1.00  0.00     0.025 A 
ATOM     39  C   UNL     1      20.069  29.579  36.114  1.00  0.00     0.062 A 
ATOM     40  C   UNL     1      18.599  28.794  34.352  1.00  0.00     0.016 A 
ATOM     41  C   UNL     1      20.636  28.301  36.204  1.00  0.00     0.158 A 
ATOM     42  C   UNL     1      19.167  27.531  34.447  1.00  0.00     0.051 A 
ATOM     43  C   UNL     1      20.163  27.256  35.380  1.00  0.00     0.157 A 
BRANCH  41  44
ATOM     44  O   UNL     1      21.669  28.115  37.119  1.00  0.00    -0.504 OA
ATOM     45  H   UNL     1      22.242  27.281  37.161  1.00  0.00     0.293 HD
ENDBRANCH  41  44
BRANCH  43  46
ATOM     46  O   UNL     1      20.645  25.945  35.468  1.00  0.00    -0.504 OA
ATOM     47  H   UNL     1      21.595  25.686  35.261  1.00  0.00     0.293 HD
ENDBRANCH  43  46
ENDBRANCH  28  38
BRANCH  34  48
ATOM     48  O   UNL     1      16.536  35.741  33.572  1.00  0.00    -0.507 OA
ATOM     49  H   UNL     1      16.110  36.658  33.565  1.00  0.00     0.293 HD
ENDBRANCH  34  48
BRANCH  37  50
ATOM     50  O   UNL     1      14.467  34.708  37.807  1.00  0.00    -0.508 OA
ATOM     51  H   UNL     1      13.905  35.549  37.743  1.00  0.00     0.293 HD
ENDBRANCH  37  50
ENDBRANCH  26  27
ENDBRANCH   5  26
BRANCH   4  52
ATOM     52  O   UNL     1      19.847  32.983  30.368  1.00  0.00    -0.384 OA
ATOM     53  H   UNL     1      20.345  33.396  29.612  1.00  0.00     0.211 HD
ENDBRANCH   4  52
TORSDOF 16
ENDMDL
MODEL 5
REMARK VINA RESULT:    -5.630      2.797      8.101
REMARK INTER + INTRA:         -12.455
REMARK INTER:                 -10.258
REMARK INTRA:                  -2.197
REMARK UNBOUND:                -3.204
REMARK SMILES C[C@@H]1O[C@H](OC[C@H]2O[C@H](Oc3c(-c4ccc(O)c(O)c4)oc4cc(O)cc(O)c4c3=O)[C@H](O)[C@@H](O)[C@@H]2O)[C@@H](O)[C@H](O)[C@H]1O
REMARK SMILES IDX 7 1 36 2 34 3 32 4 9 5 8 6 6 7 5 8 4 9 1 10 2 11 42 12 3 13
REMARK SMILES IDX 40 14 38 15 43 16 41 18 39 20 37 22 35 24 10 26 11 27 12 28
REMARK SMILES IDX 30 29 21 30 29 31 31 32 22 33 27 34 23 35 26 36 24 37 13 38
REMARK SMILES IDX 20 39 14 40 18 41 15 42 16 43 19 44 17 46 28 48 25 50 33 52
REMARK H PARENT 43 17 41 19 39 21 37 23 35 25 19 45 17 47 28 49 25 51 33 53
REMARK Flexibility Score: inf
ROOT
ATOM      1  C   UNL     1      18.931  28.156  27.123  1.00  0.00     0.180 C 
ATOM      2  C   UNL     1      20.061  27.867  26.087  1.00  0.00     0.177 C 
ATOM      3  C   UNL     1      21.488  28.123  26.611  1.00  0.00     0.180 C 
ATOM      4  C   UNL     1      21.543  29.359  27.518  1.00  0.00     0.214 C 
ATOM      5  C   UNL     1      20.442  29.254  28.582  1.00  0.00     0.339 C 
ATOM      6  O   UNL     1      19.158  29.270  27.979  1.00  0.00    -0.332 OA
ENDROOT
BRANCH   1   7
ATOM      7  C   UNL     1      18.380  26.904  27.857  1.00  0.00     0.198 C 
BRANCH   7   8
ATOM      8  O   UNL     1      19.184  25.745  27.656  1.00  0.00    -0.347 OA
BRANCH   8   9
ATOM      9  C   UNL     1      19.203  24.877  28.793  1.00  0.00     0.281 C 
ATOM     10  C   UNL     1      19.122  21.397  27.958  1.00  0.00     0.041 C 
ATOM     11  C   UNL     1      18.986  22.428  29.080  1.00  0.00     0.150 C 
ATOM     12  C   UNL     1      20.287  22.430  29.948  1.00  0.00     0.174 C 
ATOM     13  O   UNL     1      18.564  23.645  28.472  1.00  0.00    -0.344 OA
ATOM     14  C   UNL     1      20.617  23.809  30.533  1.00  0.00     0.179 C 
ATOM     15  C   UNL     1      20.620  24.802  29.381  1.00  0.00     0.202 C 
BRANCH  12  16
ATOM     16  O   UNL     1      20.190  21.473  30.970  1.00  0.00    -0.388 OA
ATOM     17  H   UNL     1      19.776  20.665  30.585  1.00  0.00     0.211 HD
ENDBRANCH  12  16
BRANCH  14  18
ATOM     18  O   UNL     1      21.888  23.752  31.140  1.00  0.00    -0.387 OA
ATOM     19  H   UNL     1      22.537  23.624  30.394  1.00  0.00     0.211 HD
ENDBRANCH  14  18
BRANCH  15  20
ATOM     20  O   UNL     1      20.989  26.073  29.859  1.00  0.00    -0.385 OA
ATOM     21  H   UNL     1      21.849  25.962  30.351  1.00  0.00     0.211 HD
ENDBRANCH  15  20
ENDBRANCH   8   9
ENDBRANCH   7   8
ENDBRANCH   1   7
BRANCH   2  22
ATOM     22  O   UNL     1      19.856  28.666  24.949  1.00  0.00    -0.387 OA
ATOM     23  H   UNL     1      18.943  28.455  24.607  1.00  0.00     0.211 HD
ENDBRANCH   2  22
BRANCH   3  24
ATOM     24  O   UNL     1      21.953  26.998  27.322  1.00  0.00    -0.387 OA
ATOM     25  H   UNL     1      21.819  26.194  26.753  1.00  0.00     0.211 HD
ENDBRANCH   3  24
BRANCH   5  26
ATOM     26  O   UNL     1      20.549  30.357  29.493  1.00  0.00    -0.454 OA
BRANCH  26  27
ATOM     27  C   UNL     1      19.737  30.565  30.621  1.00  0.00     0.214 A 
ATOM     28  C   UNL     1      18.801  31.635  30.680  1.00  0.00     0.180 A 
ATOM     29  C   UNL     1      19.828  29.712  31.744  1.00  0.00     0.239 A 
ATOM     30  O   UNL     1      17.917  31.654  31.682  1.00  0.00    -0.452 OA
ATOM     31  C   UNL     1      18.819  29.725  32.722  1.00  0.00     0.111 A 
ATOM     32  O   UNL     1      20.843  28.987  31.896  1.00  0.00    -0.285 OA
ATOM     33  C   UNL     1      17.860  30.753  32.653  1.00  0.00     0.146 A 
ATOM     34  C   UNL     1      18.729  28.764  33.747  1.00  0.00     0.134 A 
ATOM     35  C   UNL     1      16.857  30.852  33.622  1.00  0.00     0.094 A 
ATOM     36  C   UNL     1      17.708  28.860  34.703  1.00  0.00     0.093 A 
ATOM     37  C   UNL     1      16.776  29.908  34.645  1.00  0.00     0.123 A 
BRANCH  28  38
ATOM     38  C   UNL     1      18.730  32.802  29.716  1.00  0.00     0.025 A 
ATOM     39  C   UNL     1      19.058  32.717  28.346  1.00  0.00     0.062 A 
ATOM     40  C   UNL     1      18.420  34.076  30.250  1.00  0.00     0.016 A 
ATOM     41  C   UNL     1      19.070  33.861  27.539  1.00  0.00     0.158 A 
ATOM     42  C   UNL     1      18.435  35.206  29.444  1.00  0.00     0.051 A 
ATOM     43  C   UNL     1      18.729  35.118  28.086  1.00  0.00     0.157 A 
BRANCH  41  44
ATOM     44  O   UNL     1      19.432  33.707  26.203  1.00  0.00    -0.504 OA
ATOM     45  H   UNL     1      20.384  33.772  25.865  1.00  0.00     0.293 HD
ENDBRANCH  41  44
BRANCH  43  46
ATOM     46  O   UNL     1      18.661  36.286  27.317  1.00  0.00    -0.504 OA
ATOM     47  H   UNL     1      18.282  37.154  27.656  1.00  0.00     0.293 HD
ENDBRANCH  43  46
ENDBRANCH  28  38
BRANCH  34  48
ATOM     48  O   UNL     1      19.620  27.696  33.806  1.00  0.00    -0.507 OA
ATOM     49  H   UNL     1      20.264  27.579  34.578  1.00  0.00     0.293 HD
ENDBRANCH  34  48
BRANCH  37  50
ATOM     50  O   UNL     1      15.793  30.003  35.624  1.00  0.00    -0.508 OA
ATOM     51  H   UNL     1      15.045  29.321  35.682  1.00  0.00     0.293 HD
ENDBRANCH  37  50
ENDBRANCH  26  27
ENDBRANCH   5  26
BRANCH   4  52
ATOM     52  O   UNL     1      21.375  30.538  26.768  1.00  0.00    -0.384 OA
ATOM     53  H   UNL     1      20.455  30.872  26.955  1.00  0.00     0.211 HD
ENDBRANCH   4  52
TORSDOF 16
ENDMDL
MODEL 6
REMARK VINA RESULT:    -5.616      2.543      4.208
REMARK INTER + INTRA:         -12.432
REMARK INTER:                  -9.744
REMARK INTRA:                  -2.687
REMARK UNBOUND:                -3.204
REMARK SMILES C[C@@H]1O[C@H](OC[C@H]2O[C@H](Oc3c(-c4ccc(O)c(O)c4)oc4cc(O)cc(O)c4c3=O)[C@H](O)[C@@H](O)[C@@H]2O)[C@@H](O)[C@H](O)[C@H]1O
REMARK SMILES IDX 7 1 36 2 34 3 32 4 9 5 8 6 6 7 5 8 4 9 1 10 2 11 42 12 3 13
REMARK SMILES IDX 40 14 38 15 43 16 41 18 39 20 37 22 35 24 10 26 11 27 12 28
REMARK SMILES IDX 30 29 21 30 29 31 31 32 22 33 27 34 23 35 26 36 24 37 13 38
REMARK SMILES IDX 20 39 14 40 18 41 15 42 16 43 19 44 17 46 28 48 25 50 33 52
REMARK H PARENT 43 17 41 19 39 21 37 23 35 25 19 45 17 47 28 49 25 51 33 53
REMARK Flexibility Score: inf
ROOT
ATOM      1  C   UNL     1      18.804  28.688  33.947  1.00  0.00     0.180 C 
ATOM      2  C   UNL     1      19.706  29.206  35.111  1.00  0.00     0.177 C 
ATOM      3  C   UNL     1      21.089  29.722  34.667  1.00  0.00     0.180 C 
ATOM      4  C   UNL     1      21.672  28.869  33.533  1.00  0.00     0.214 C 
ATOM      5  C   UNL     1      20.622  28.714  32.425  1.00  0.00     0.339 C 
ATOM      6  O   UNL     1      19.489  28.005  32.903  1.00  0.00    -0.332 OA
ENDROOT
BRANCH   1   7
ATOM      7  C   UNL     1      17.742  29.701  33.442  1.00  0.00     0.198 C 
BRANCH   7   8
ATOM      8  O   UNL     1      18.009  31.037  33.856  1.00  0.00    -0.347 OA
BRANCH   8   9
ATOM      9  C   UNL     1      17.511  32.014  32.936  1.00  0.00     0.281 C 
ATOM     10  C   UNL     1      15.489  34.542  34.466  1.00  0.00     0.041 C 
ATOM     11  C   UNL     1      15.939  33.915  33.144  1.00  0.00     0.150 C 
ATOM     12  C   UNL     1      16.995  34.843  32.460  1.00  0.00     0.174 C 
ATOM     13  O   UNL     1      16.293  32.565  33.429  1.00  0.00    -0.344 OA
ATOM     14  C   UNL     1      18.036  34.068  31.643  1.00  0.00     0.179 C 
ATOM     15  C   UNL     1      18.624  33.000  32.553  1.00  0.00     0.202 C 
BRANCH  12  16
ATOM     16  O   UNL     1      16.353  35.799  31.657  1.00  0.00    -0.388 OA
ATOM     17  H   UNL     1      16.723  35.721  30.746  1.00  0.00     0.211 HD
ENDBRANCH  12  16
BRANCH  14  18
ATOM     18  O   UNL     1      19.040  34.964  31.220  1.00  0.00    -0.387 OA
ATOM     19  H   UNL     1      19.857  34.407  31.084  1.00  0.00     0.211 HD
ENDBRANCH  14  18
BRANCH  15  20
ATOM     20  O   UNL     1      19.639  32.307  31.868  1.00  0.00    -0.385 OA
ATOM     21  H   UNL     1      19.192  31.627  31.293  1.00  0.00     0.211 HD
ENDBRANCH  15  20
ENDBRANCH   8   9
ENDBRANCH   7   8
ENDBRANCH   1   7
BRANCH   2  22
ATOM     22  O   UNL     1      19.897  28.169  36.040  1.00  0.00    -0.387 OA
ATOM     23  H   UNL     1      20.799  28.304  36.444  1.00  0.00     0.211 HD
ENDBRANCH   2  22
BRANCH   3  24
ATOM     24  O   UNL     1      20.992  31.063  34.242  1.00  0.00    -0.387 OA
ATOM     25  H   UNL     1      20.765  31.623  35.032  1.00  0.00     0.211 HD
ENDBRANCH   3  24
BRANCH   5  26
ATOM     26  O   UNL     1      21.193  28.000  31.319  1.00  0.00    -0.454 OA
BRANCH  26  27
ATOM     27  C   UNL     1      20.550  26.995  30.579  1.00  0.00     0.214 A 
ATOM     28  C   UNL     1      19.830  27.289  29.387  1.00  0.00     0.180 A 
ATOM     29  C   UNL     1      20.594  25.646  31.000  1.00  0.00     0.239 A 
ATOM     30  O   UNL     1      19.423  26.273  28.621  1.00  0.00    -0.452 OA
ATOM     31  C   UNL     1      20.228  24.618  30.114  1.00  0.00     0.111 A 
ATOM     32  O   UNL     1      20.901  25.373  32.187  1.00  0.00    -0.285 OA
ATOM     33  C   UNL     1      19.619  24.993  28.901  1.00  0.00     0.146 A 
ATOM     34  C   UNL     1      20.449  23.254  30.384  1.00  0.00     0.134 A 
ATOM     35  C   UNL     1      19.188  24.018  27.996  1.00  0.00     0.094 A 
ATOM     36  C   UNL     1      20.031  22.286  29.461  1.00  0.00     0.093 A 
ATOM     37  C   UNL     1      19.394  22.667  28.270  1.00  0.00     0.123 A 
BRANCH  28  38
ATOM     38  C   UNL     1      19.440  28.673  28.909  1.00  0.00     0.025 A 
ATOM     39  C   UNL     1      19.973  29.292  27.758  1.00  0.00     0.062 A 
ATOM     40  C   UNL     1      18.570  29.429  29.731  1.00  0.00     0.016 A 
ATOM     41  C   UNL     1      19.644  30.615  27.438  1.00  0.00     0.158 A 
ATOM     42  C   UNL     1      18.249  30.740  29.406  1.00  0.00     0.051 A 
ATOM     43  C   UNL     1      18.751  31.341  28.255  1.00  0.00     0.157 A 
BRANCH  41  44
ATOM     44  O   UNL     1      20.231  31.171  26.304  1.00  0.00    -0.504 OA
ATOM     45  H   UNL     1      19.708  31.599  25.550  1.00  0.00     0.293 HD
ENDBRANCH  41  44
BRANCH  43  46
ATOM     46  O   UNL     1      18.334  32.643  27.953  1.00  0.00    -0.504 OA
ATOM     47  H   UNL     1      18.706  33.464  28.401  1.00  0.00     0.293 HD
ENDBRANCH  43  46
ENDBRANCH  28  38
BRANCH  34  48
ATOM     48  O   UNL     1      21.109  22.853  31.542  1.00  0.00    -0.507 OA
ATOM     49  H   UNL     1      22.058  23.140  31.744  1.00  0.00     0.293 HD
ENDBRANCH  34  48
BRANCH  37  50
ATOM     50  O   UNL     1      18.957  21.686  27.385  1.00  0.00    -0.508 OA
ATOM     51  H   UNL     1      19.034  21.815  26.383  1.00  0.00     0.293 HD
ENDBRANCH  37  50
ENDBRANCH  26  27
ENDBRANCH   5  26
BRANCH   4  52
ATOM     52  O   UNL     1      22.059  27.602  34.009  1.00  0.00    -0.384 OA
ATOM     53  H   UNL     1      21.225  27.070  34.125  1.00  0.00     0.211 HD
ENDBRANCH   4  52
TORSDOF 16
ENDMDL
MODEL 7
REMARK VINA RESULT:    -5.516      1.390      2.250
REMARK INTER + INTRA:         -12.267
REMARK INTER:                  -9.776
REMARK INTRA:                  -2.491
REMARK UNBOUND:                -3.204
REMARK SMILES C[C@@H]1O[C@H](OC[C@H]2O[C@H](Oc3c(-c4ccc(O)c(O)c4)oc4cc(O)cc(O)c4c3=O)[C@H](O)[C@@H](O)[C@@H]2O)[C@@H](O)[C@H](O)[C@H]1O
REMARK SMILES IDX 7 1 36 2 34 3 32 4 9 5 8 6 6 7 5 8 4 9 1 10 2 11 42 12 3 13
REMARK SMILES IDX 40 14 38 15 43 16 41 18 39 20 37 22 35 24 10 26 11 27 12 28
REMARK SMILES IDX 30 29 21 30 29 31 31 32 22 33 27 34 23 35 26 36 24 37 13 38
REMARK SMILES IDX 20 39 14 40 18 41 15 42 16 43 19 44 17 46 28 48 25 50 33 52
REMARK H PARENT 43 17 41 19 39 21 37 23 35 25 19 45 17 47 28 49 25 51 33 53
REMARK Flexibility Score: inf
ROOT
ATOM      1  C   UNL     1      18.750  30.271  34.300  1.00  0.00     0.180 C 
ATOM      2  C   UNL     1      19.758  29.878  35.425  1.00  0.00     0.177 C 
ATOM      3  C   UNL     1      21.242  30.035  35.037  1.00  0.00     0.180 C 
ATOM      4  C   UNL     1      21.488  29.631  33.577  1.00  0.00     0.214 C 
ATOM      5  C   UNL     1      20.476  30.351  32.676  1.00  0.00     0.339 C 
ATOM      6  O   UNL     1      19.152  29.937  32.977  1.00  0.00    -0.332 OA
ENDROOT
BRANCH   1   7
ATOM      7  C   UNL     1      18.149  31.697  34.430  1.00  0.00     0.198 C 
BRANCH   7   8
ATOM      8  O   UNL     1      16.728  31.711  34.323  1.00  0.00    -0.347 OA
BRANCH   8   9
ATOM      9  C   UNL     1      16.091  32.308  35.457  1.00  0.00     0.281 C 
ATOM     10  C   UNL     1      18.011  32.099  38.472  1.00  0.00     0.041 C 
ATOM     11  C   UNL     1      16.641  32.418  37.868  1.00  0.00     0.150 C 
ATOM     12  C   UNL     1      16.436  33.967  37.827  1.00  0.00     0.174 C 
ATOM     13  O   UNL     1      16.546  31.681  36.652  1.00  0.00    -0.344 OA
ATOM     14  C   UNL     1      15.582  34.430  36.641  1.00  0.00     0.179 C 
ATOM     15  C   UNL     1      16.195  33.838  35.382  1.00  0.00     0.202 C 
BRANCH  12  16
ATOM     16  O   UNL     1      15.880  34.415  39.037  1.00  0.00    -0.388 OA
ATOM     17  H   UNL     1      15.565  33.623  39.532  1.00  0.00     0.211 HD
ENDBRANCH  12  16
BRANCH  14  18
ATOM     18  O   UNL     1      15.605  35.839  36.587  1.00  0.00    -0.387 OA
ATOM     19  H   UNL     1      14.925  36.144  37.250  1.00  0.00     0.211 HD
ENDBRANCH  14  18
BRANCH  15  20
ATOM     20  O   UNL     1      15.486  34.294  34.255  1.00  0.00    -0.385 OA
ATOM     21  H   UNL     1      16.028  35.022  33.844  1.00  0.00     0.211 HD
ENDBRANCH  15  20
ENDBRANCH   8   9
ENDBRANCH   7   8
ENDBRANCH   1   7
BRANCH   2  22
ATOM     22  O   UNL     1      19.535  28.541  35.795  1.00  0.00    -0.387 OA
ATOM     23  H   UNL     1      20.380  28.209  36.207  1.00  0.00     0.211 HD
ENDBRANCH   2  22
BRANCH   3  24
ATOM     24  O   UNL     1      21.657  31.367  35.232  1.00  0.00    -0.387 OA
ATOM     25  H   UNL     1      21.249  31.927  34.519  1.00  0.00     0.211 HD
ENDBRANCH   3  24
BRANCH   5  26
ATOM     26  O   UNL     1      20.762  30.056  31.302  1.00  0.00    -0.454 OA
BRANCH  26  27
ATOM     27  C   UNL     1      19.851  29.521  30.376  1.00  0.00     0.214 A 
ATOM     28  C   UNL     1      19.040  30.357  29.557  1.00  0.00     0.180 A 
ATOM     29  C   UNL     1      19.705  28.123  30.230  1.00  0.00     0.239 A 
ATOM     30  O   UNL     1      18.354  29.797  28.558  1.00  0.00    -0.452 OA
ATOM     31  C   UNL     1      19.041  27.596  29.110  1.00  0.00     0.111 A 
ATOM     32  O   UNL     1      20.118  27.355  31.135  1.00  0.00    -0.285 OA
ATOM     33  C   UNL     1      18.349  28.501  28.281  1.00  0.00     0.146 A 
ATOM     34  C   UNL     1      19.043  26.226  28.786  1.00  0.00     0.134 A 
ATOM     35  C   UNL     1      17.628  28.037  27.176  1.00  0.00     0.094 A 
ATOM     36  C   UNL     1      18.333  25.774  27.666  1.00  0.00     0.093 A 
ATOM     37  C   UNL     1      17.619  26.679  26.864  1.00  0.00     0.123 A 
BRANCH  28  38
ATOM     38  C   UNL     1      18.848  31.849  29.735  1.00  0.00     0.025 A 
ATOM     39  C   UNL     1      18.377  32.451  30.921  1.00  0.00     0.062 A 
ATOM     40  C   UNL     1      19.051  32.675  28.603  1.00  0.00     0.016 A 
ATOM     41  C   UNL     1      18.124  33.827  30.976  1.00  0.00     0.158 A 
ATOM     42  C   UNL     1      18.797  34.039  28.665  1.00  0.00     0.051 A 
ATOM     43  C   UNL     1      18.361  34.637  29.844  1.00  0.00     0.157 A 
BRANCH  41  44
ATOM     44  O   UNL     1      17.632  34.347  32.171  1.00  0.00    -0.504 OA
ATOM     45  H   UNL     1      16.722  34.781  32.266  1.00  0.00     0.293 HD
ENDBRANCH  41  44
BRANCH  43  46
ATOM     46  O   UNL     1      18.188  36.027  29.857  1.00  0.00    -0.504 OA
ATOM     47  H   UNL     1      18.187  36.580  30.698  1.00  0.00     0.293 HD
ENDBRANCH  43  46
ENDBRANCH  28  38
BRANCH  34  48
ATOM     48  O   UNL     1      19.771  25.314  29.546  1.00  0.00    -0.507 OA
ATOM     49  H   UNL     1      19.861  24.344  29.275  1.00  0.00     0.293 HD
ENDBRANCH  34  48
BRANCH  37  50
ATOM     50  O   UNL     1      16.893  26.203  25.777  1.00  0.00    -0.508 OA
ATOM     51  H   UNL     1      17.188  25.373  25.275  1.00  0.00     0.293 HD
ENDBRANCH  37  50
ENDBRANCH  26  27
ENDBRANCH   5  26
BRANCH   4  52
ATOM     52  O   UNL     1      21.369  28.238  33.416  1.00  0.00    -0.384 OA
ATOM     53  H   UNL     1      20.604  27.946  33.982  1.00  0.00     0.211 HD
ENDBRANCH   4  52
TORSDOF 16
ENDMDL
MODEL 8
REMARK VINA RESULT:    -5.477      1.895      4.771
REMARK INTER + INTRA:         -12.204
REMARK INTER:                  -8.738
REMARK INTRA:                  -3.467
REMARK UNBOUND:                -3.204
REMARK SMILES C[C@@H]1O[C@H](OC[C@H]2O[C@H](Oc3c(-c4ccc(O)c(O)c4)oc4cc(O)cc(O)c4c3=O)[C@H](O)[C@@H](O)[C@@H]2O)[C@@H](O)[C@H](O)[C@H]1O
REMARK SMILES IDX 7 1 36 2 34 3 32 4 9 5 8 6 6 7 5 8 4 9 1 10 2 11 42 12 3 13
REMARK SMILES IDX 40 14 38 15 43 16 41 18 39 20 37 22 35 24 10 26 11 27 12 28
REMARK SMILES IDX 30 29 21 30 29 31 31 32 22 33 27 34 23 35 26 36 24 37 13 38
REMARK SMILES IDX 20 39 14 40 18 41 15 42 16 43 19 44 17 46 28 48 25 50 33 52
REMARK H PARENT 43 17 41 19 39 21 37 23 35 25 19 45 17 47 28 49 25 51 33 53
REMARK Flexibility Score: inf
ROOT
ATOM      1  C   UNL     1      20.703  32.089  31.245  1.00  0.00     0.180 C 
ATOM      2  C   UNL     1      20.331  33.209  30.225  1.00  0.00     0.177 C 
ATOM      3  C   UNL     1      18.863  33.183  29.755  1.00  0.00     0.180 C 
ATOM      4  C   UNL     1      18.355  31.746  29.574  1.00  0.00     0.214 C 
ATOM      5  C   UNL     1      18.673  30.935  30.837  1.00  0.00     0.339 C 
ATOM      6  O   UNL     1      20.075  30.830  31.026  1.00  0.00    -0.332 OA
ENDROOT
BRANCH   1   7
ATOM      7  C   UNL     1      20.710  32.534  32.732  1.00  0.00     0.198 C 
BRANCH   7   8
ATOM      8  O   UNL     1      20.246  33.868  32.914  1.00  0.00    -0.347 OA
BRANCH   8   9
ATOM      9  C   UNL     1      19.253  33.977  33.939  1.00  0.00     0.281 C 
ATOM     10  C   UNL     1      16.509  31.712  33.542  1.00  0.00     0.041 C 
ATOM     11  C   UNL     1      17.030  32.944  34.285  1.00  0.00     0.150 C 
ATOM     12  C   UNL     1      17.462  32.536  35.731  1.00  0.00     0.174 C 
ATOM     13  O   UNL     1      17.987  33.565  33.432  1.00  0.00    -0.344 OA
ATOM     14  C   UNL     1      18.633  33.369  36.266  1.00  0.00     0.179 C 
ATOM     15  C   UNL     1      19.745  33.306  35.230  1.00  0.00     0.202 C 
BRANCH  12  16
ATOM     16  O   UNL     1      16.365  32.614  36.605  1.00  0.00    -0.388 OA
ATOM     17  H   UNL     1      16.030  33.541  36.582  1.00  0.00     0.211 HD
ENDBRANCH  12  16
BRANCH  14  18
ATOM     18  O   UNL     1      19.064  32.815  37.489  1.00  0.00    -0.387 OA
ATOM     19  H   UNL     1      18.232  32.606  37.997  1.00  0.00     0.211 HD
ENDBRANCH  14  18
BRANCH  15  20
ATOM     20  O   UNL     1      20.873  33.998  35.709  1.00  0.00    -0.385 OA
ATOM     21  H   UNL     1      21.471  33.324  36.135  1.00  0.00     0.211 HD
ENDBRANCH  15  20
ENDBRANCH   8   9
ENDBRANCH   7   8
ENDBRANCH   1   7
BRANCH   2  22
ATOM     22  O   UNL     1      21.160  33.096  29.097  1.00  0.00    -0.387 OA
ATOM     23  H   UNL     1      21.177  32.131  28.844  1.00  0.00     0.211 HD
ENDBRANCH   2  22
BRANCH   3  24
ATOM     24  O   UNL     1      18.044  33.857  30.683  1.00  0.00    -0.387 OA
ATOM     25  H   UNL     1      17.727  34.700  30.262  1.00  0.00     0.211 HD
ENDBRANCH   3  24
BRANCH   5  26
ATOM     26  O   UNL     1      18.114  29.619  30.714  1.00  0.00    -0.454 OA
BRANCH  26  27
ATOM     27  C   UNL     1      18.850  28.426  30.631  1.00  0.00     0.214 A 
ATOM     28  C   UNL     1      19.436  27.827  31.781  1.00  0.00     0.180 A 
ATOM     29  C   UNL     1      19.038  27.777  29.388  1.00  0.00     0.239 A 
ATOM     30  O   UNL     1      19.939  26.594  31.672  1.00  0.00    -0.452 OA
ATOM     31  C   UNL     1      19.493  26.449  29.348  1.00  0.00     0.111 A 
ATOM     32  O   UNL     1      18.855  28.412  28.320  1.00  0.00    -0.285 OA
ATOM     33  C   UNL     1      19.957  25.885  30.552  1.00  0.00     0.146 A 
ATOM     34  C   UNL     1      19.499  25.672  28.174  1.00  0.00     0.134 A 
ATOM     35  C   UNL     1      20.468  24.583  30.573  1.00  0.00     0.094 A 
ATOM     36  C   UNL     1      19.995  24.362  28.209  1.00  0.00     0.093 A 
ATOM     37  C   UNL     1      20.487  23.819  29.407  1.00  0.00     0.123 A 
BRANCH  28  38
ATOM     38  C   UNL     1      19.581  28.480  33.140  1.00  0.00     0.025 A 
ATOM     39  C   UNL     1      20.805  28.941  33.671  1.00  0.00     0.062 A 
ATOM     40  C   UNL     1      18.434  28.529  33.969  1.00  0.00     0.016 A 
ATOM     41  C   UNL     1      20.878  29.438  34.978  1.00  0.00     0.158 A 
ATOM     42  C   UNL     1      18.515  29.022  35.264  1.00  0.00     0.051 A 
ATOM     43  C   UNL     1      19.716  29.505  35.778  1.00  0.00     0.157 A 
BRANCH  41  44
ATOM     44  O   UNL     1      22.125  29.848  35.445  1.00  0.00    -0.504 OA
ATOM     45  H   UNL     1      22.913  29.225  35.572  1.00  0.00     0.293 HD
ENDBRANCH  41  44
BRANCH  43  46
ATOM     46  O   UNL     1      19.714  30.050  37.067  1.00  0.00    -0.504 OA
ATOM     47  H   UNL     1      18.914  30.498  37.480  1.00  0.00     0.293 HD
ENDBRANCH  43  46
ENDBRANCH  28  38
BRANCH  34  48
ATOM     48  O   UNL     1      18.986  26.175  26.982  1.00  0.00    -0.507 OA
ATOM     49  H   UNL     1      18.368  25.631  26.394  1.00  0.00     0.293 HD
ENDBRANCH  34  48
BRANCH  37  50
ATOM     50  O   UNL     1      21.006  22.528  29.410  1.00  0.00    -0.508 OA
ATOM     51  H   UNL     1      20.489  21.756  29.006  1.00  0.00     0.293 HD
ENDBRANCH  37  50
ENDBRANCH  26  27
ENDBRANCH   5  26
BRANCH   4  52
ATOM     52  O   UNL     1      18.951  31.142  28.451  1.00  0.00    -0.384 OA
ATOM     53  H   UNL     1      18.734  31.714  27.666  1.00  0.00     0.211 HD
ENDBRANCH   4  52
TORSDOF 16
ENDMDL
MODEL 9
REMARK VINA RESULT:    -5.472      2.139      5.945
REMARK INTER + INTRA:         -12.195
REMARK INTER:                  -9.572
REMARK INTRA:                  -2.623
REMARK UNBOUND:                -3.204
REMARK SMILES C[C@@H]1O[C@H](OC[C@H]2O[C@H](Oc3c(-c4ccc(O)c(O)c4)oc4cc(O)cc(O)c4c3=O)[C@H](O)[C@@H](O)[C@@H]2O)[C@@H](O)[C@H](O)[C@H]1O
REMARK SMILES IDX 7 1 36 2 34 3 32 4 9 5 8 6 6 7 5 8 4 9 1 10 2 11 42 12 3 13
REMARK SMILES IDX 40 14 38 15 43 16 41 18 39 20 37 22 35 24 10 26 11 27 12 28
REMARK SMILES IDX 30 29 21 30 29 31 31 32 22 33 27 34 23 35 26 36 24 37 13 38
REMARK SMILES IDX 20 39 14 40 18 41 15 42 16 43 19 44 17 46 28 48 25 50 33 52
REMARK H PARENT 43 17 41 19 39 21 37 23 35 25 19 45 17 47 28 49 25 51 33 53
REMARK Flexibility Score: inf
ROOT
ATOM      1  C   UNL     1      20.447  32.942  31.752  1.00  0.00     0.180 C 
ATOM      2  C   UNL     1      20.158  34.145  30.801  1.00  0.00     0.177 C 
ATOM      3  C   UNL     1      18.772  34.109  30.128  1.00  0.00     0.180 C 
ATOM      4  C   UNL     1      18.370  32.680  29.740  1.00  0.00     0.214 C 
ATOM      5  C   UNL     1      18.556  31.757  30.952  1.00  0.00     0.339 C 
ATOM      6  O   UNL     1      19.923  31.689  31.326  1.00  0.00    -0.332 OA
ENDROOT
BRANCH   1   7
ATOM      7  C   UNL     1      20.227  33.232  33.261  1.00  0.00     0.198 C 
BRANCH   7   8
ATOM      8  O   UNL     1      19.168  34.154  33.499  1.00  0.00    -0.347 OA
BRANCH   8   9
ATOM      9  C   UNL     1      18.015  33.539  34.081  1.00  0.00     0.281 C 
ATOM     10  C   UNL     1      18.705  31.735  37.096  1.00  0.00     0.041 C 
ATOM     11  C   UNL     1      17.676  32.007  35.996  1.00  0.00     0.150 C 
ATOM     12  C   UNL     1      16.567  32.963  36.544  1.00  0.00     0.174 C 
ATOM     13  O   UNL     1      18.406  32.396  34.837  1.00  0.00    -0.344 OA
ATOM     14  C   UNL     1      15.984  33.888  35.468  1.00  0.00     0.179 C 
ATOM     15  C   UNL     1      17.152  34.591  34.794  1.00  0.00     0.202 C 
BRANCH  12  16
ATOM     16  O   UNL     1      15.545  32.220  37.158  1.00  0.00    -0.388 OA
ATOM     17  H   UNL     1      14.691  32.484  36.741  1.00  0.00     0.211 HD
ENDBRANCH  12  16
BRANCH  14  18
ATOM     18  O   UNL     1      15.133  34.826  36.087  1.00  0.00    -0.387 OA
ATOM     19  H   UNL     1      15.151  35.632  35.500  1.00  0.00     0.211 HD
ENDBRANCH  14  18
BRANCH  15  20
ATOM     20  O   UNL     1      16.663  35.507  33.844  1.00  0.00    -0.385 OA
ATOM     21  H   UNL     1      16.531  35.004  32.994  1.00  0.00     0.211 HD
ENDBRANCH  15  20
ENDBRANCH   8   9
ENDBRANCH   7   8
ENDBRANCH   1   7
BRANCH   2  22
ATOM     22  O   UNL     1      21.139  34.181  29.795  1.00  0.00    -0.387 OA
ATOM     23  H   UNL     1      20.814  33.600  29.052  1.00  0.00     0.211 HD
ENDBRANCH   2  22
BRANCH   3  24
ATOM     24  O   UNL     1      17.799  34.653  30.991  1.00  0.00    -0.387 OA
ATOM     25  H   UNL     1      17.717  35.624  30.796  1.00  0.00     0.211 HD
ENDBRANCH   3  24
BRANCH   5  26
ATOM     26  O   UNL     1      18.089  30.439  30.626  1.00  0.00    -0.454 OA
BRANCH  26  27
ATOM     27  C   UNL     1      18.575  29.243  31.180  1.00  0.00     0.214 A 
ATOM     28  C   UNL     1      19.223  28.259  30.381  1.00  0.00     0.180 A 
ATOM     29  C   UNL     1      18.431  28.974  32.560  1.00  0.00     0.239 A 
ATOM     30  O   UNL     1      19.845  27.249  30.995  1.00  0.00    -0.452 OA
ATOM     31  C   UNL     1      19.178  27.947  33.160  1.00  0.00     0.111 A 
ATOM     32  O   UNL     1      17.589  29.616  33.235  1.00  0.00    -0.285 OA
ATOM     33  C   UNL     1      19.885  27.076  32.309  1.00  0.00     0.146 A 
ATOM     34  C   UNL     1      19.251  27.761  34.553  1.00  0.00     0.134 A 
ATOM     35  C   UNL     1      20.610  26.004  32.838  1.00  0.00     0.094 A 
ATOM     36  C   UNL     1      19.996  26.695  35.075  1.00  0.00     0.093 A 
ATOM     37  C   UNL     1      20.670  25.811  34.217  1.00  0.00     0.123 A 
BRANCH  28  38
ATOM     38  C   UNL     1      19.246  28.226  28.867  1.00  0.00     0.025 A 
ATOM     39  C   UNL     1      18.390  27.426  28.080  1.00  0.00     0.062 A 
ATOM     40  C   UNL     1      20.263  28.960  28.211  1.00  0.00     0.016 A 
ATOM     41  C   UNL     1      18.542  27.367  26.689  1.00  0.00     0.158 A 
ATOM     42  C   UNL     1      20.407  28.896  26.831  1.00  0.00     0.051 A 
ATOM     43  C   UNL     1      19.544  28.131  26.051  1.00  0.00     0.157 A 
BRANCH  41  44
ATOM     44  O   UNL     1      17.681  26.533  25.979  1.00  0.00    -0.504 OA
ATOM     45  H   UNL     1      16.785  26.829  25.611  1.00  0.00     0.293 HD
ENDBRANCH  41  44
BRANCH  43  46
ATOM     46  O   UNL     1      19.703  28.163  24.661  1.00  0.00    -0.504 OA
ATOM     47  H   UNL     1      20.494  28.583  24.201  1.00  0.00     0.293 HD
ENDBRANCH  43  46
ENDBRANCH  28  38
BRANCH  34  48
ATOM     48  O   UNL     1      18.620  28.644  35.426  1.00  0.00    -0.507 OA
ATOM     49  H   UNL     1      19.085  29.006  36.248  1.00  0.00     0.293 HD
ENDBRANCH  34  48
BRANCH  37  50
ATOM     50  O   UNL     1      21.375  24.740  34.756  1.00  0.00    -0.508 OA
ATOM     51  H   UNL     1      21.256  23.801  34.395  1.00  0.00     0.293 HD
ENDBRANCH  37  50
ENDBRANCH  26  27
ENDBRANCH   5  26
BRANCH   4  52
ATOM     52  O   UNL     1      19.145  32.218  28.661  1.00  0.00    -0.384 OA
ATOM     53  H   UNL     1      18.748  31.352  28.370  1.00  0.00     0.211 HD
ENDBRANCH   4  52
TORSDOF 16
ENDMDL
