MODEL 1
REMARK VINA RESULT:    -4.247      0.000      0.000
REMARK INTER + INTRA:          -7.378
REMARK INTER:                  -6.730
REMARK INTRA:                  -0.648
REMARK UNBOUND:                -0.648
REMARK SMILES CCCCCCCCCCCC(=O)[O-]
REMARK SMILES IDX 7 1 8 2 9 3 10 4 11 5 12 6 13 7 14 8 6 9 5 10 4 11 3 12 2 13
REMARK SMILES IDX 1 14
REMARK H PARENT
REMARK Flexibility Score: inf
ROOT
ATOM      1  C   UNL     1      13.790  22.459 -24.257  1.00  0.00     0.000 C 
ENDROOT
BRANCH   1   2
ATOM      2  C   UNL     1      12.478  22.994 -23.670  1.00  0.00     0.000 C 
BRANCH   2   3
ATOM      3  C   UNL     1      12.207  22.387 -22.287  1.00  0.00     0.000 C 
BRANCH   3   4
ATOM      4  C   UNL     1      12.751  23.290 -21.174  1.00  0.00     0.006 C 
BRANCH   4   5
ATOM      5  C   UNL     1      12.149  22.911 -19.817  1.00  0.00     0.053 C 
BRANCH   5   6
ATOM      6  C   UNL     1      13.131  22.124 -19.010  1.00  0.00     0.041 C 
ATOM      7  O   UNL     1      12.771  21.570 -17.937  1.00  0.00    -0.550 OA
ATOM      8  O   UNL     1      14.434  21.959 -19.465  1.00  0.00    -0.550 OA
ENDBRANCH   5   6
ENDBRANCH   4   5
ENDBRANCH   3   4
ENDBRANCH   2   3
ENDBRANCH   1   2
BRANCH   1   9
ATOM      9  C   UNL     1      13.846  22.682 -25.774  1.00  0.00     0.000 C 
BRANCH   9  10
ATOM     10  C   UNL     1      12.576  22.202 -26.498  1.00  0.00    -0.000 C 
BRANCH  10  11
ATOM     11  C   UNL     1      12.863  21.290 -27.709  1.00  0.00    -0.000 C 
BRANCH  11  12
ATOM     12  C   UNL     1      12.185  19.914 -27.573  1.00  0.00    -0.000 C 
BRANCH  12  13
ATOM     13  C   UNL     1      12.161  19.409 -26.122  1.00  0.00    -0.003 C 
ATOM     14  C   UNL     1      13.005  18.152 -25.920  1.00  0.00     0.004 C 
ENDBRANCH  12  13
ENDBRANCH  11  12
ENDBRANCH  10  11
ENDBRANCH   9  10
ENDBRANCH   1   9
TORSDOF 10
ENDMDL
MODEL 2
REMARK VINA RESULT:    -4.202      3.029      5.333
REMARK INTER + INTRA:          -7.306
REMARK INTER:                  -6.598
REMARK INTRA:                  -0.709
REMARK UNBOUND:                -0.648
REMARK SMILES CCCCCCCCCCCC(=O)[O-]
REMARK SMILES IDX 7 1 8 2 9 3 10 4 11 5 12 6 13 7 14 8 6 9 5 10 4 11 3 12 2 13
REMARK SMILES IDX 1 14
REMARK H PARENT
REMARK Flexibility Score: inf
ROOT
ATOM      1  C   UNL     1      12.847  21.763 -18.626  1.00  0.00     0.000 C 
ENDROOT
BRANCH   1   2
ATOM      2  C   UNL     1      14.291  21.527 -19.082  1.00  0.00     0.000 C 
BRANCH   2   3
ATOM      3  C   UNL     1      14.529  20.047 -19.409  1.00  0.00     0.000 C 
BRANCH   3   4
ATOM      4  C   UNL     1      15.799  19.530 -18.724  1.00  0.00     0.006 C 
BRANCH   4   5
ATOM      5  C   UNL     1      16.137  20.370 -17.488  1.00  0.00     0.053 C 
BRANCH   5   6
ATOM      6  C   UNL     1      17.619  20.463 -17.307  1.00  0.00     0.041 C 
ATOM      7  O   UNL     1      18.236  19.571 -16.666  1.00  0.00    -0.550 OA
ATOM      8  O   UNL     1      18.327  21.507 -17.888  1.00  0.00    -0.550 OA
ENDBRANCH   5   6
ENDBRANCH   4   5
ENDBRANCH   3   4
ENDBRANCH   2   3
ENDBRANCH   1   2
BRANCH   1   9
ATOM      9  C   UNL     1      12.110  22.698 -19.595  1.00  0.00     0.000 C 
BRANCH   9  10
ATOM     10  C   UNL     1      12.975  23.121 -20.795  1.00  0.00    -0.000 C 
BRANCH  10  11
ATOM     11  C   UNL     1      12.432  22.626 -22.152  1.00  0.00    -0.000 C 
BRANCH  11  12
ATOM     12  C   UNL     1      13.521  21.942 -22.997  1.00  0.00    -0.000 C 
BRANCH  12  13
ATOM     13  C   UNL     1      13.654  22.559 -24.398  1.00  0.00    -0.003 C 
ATOM     14  C   UNL     1      12.759  23.780 -24.594  1.00  0.00     0.004 C 
ENDBRANCH  12  13
ENDBRANCH  11  12
ENDBRANCH  10  11
ENDBRANCH   9  10
ENDBRANCH   1   9
TORSDOF 10
ENDMDL
MODEL 3
REMARK VINA RESULT:    -4.114      2.387      3.531
REMARK INTER + INTRA:          -7.167
REMARK INTER:                  -5.770
REMARK INTRA:                  -1.397
REMARK UNBOUND:                -0.648
REMARK SMILES CCCCCCCCCCCC(=O)[O-]
REMARK SMILES IDX 7 1 8 2 9 3 10 4 11 5 12 6 13 7 14 8 6 9 5 10 4 11 3 12 2 13
REMARK SMILES IDX 1 14
REMARK H PARENT
REMARK Flexibility Score: inf
ROOT
ATOM      1  C   UNL     1      12.743  23.136 -21.151  1.00  0.00     0.000 C 
ENDROOT
BRANCH   1   2
ATOM      2  C   UNL     1      11.938  22.029 -20.459  1.00  0.00     0.000 C 
BRANCH   2   3
ATOM      3  C   UNL     1      12.688  21.488 -19.235  1.00  0.00     0.000 C 
BRANCH   3   4
ATOM      4  C   UNL     1      14.202  21.499 -19.468  1.00  0.00     0.006 C 
BRANCH   4   5
ATOM      5  C   UNL     1      14.850  20.221 -18.925  1.00  0.00     0.053 C 
BRANCH   5   6
ATOM      6  C   UNL     1      15.939  20.557 -17.956  1.00  0.00     0.041 C 
ATOM      7  O   UNL     1      16.458  19.654 -17.247  1.00  0.00    -0.550 OA
ATOM      8  O   UNL     1      16.418  21.859 -17.870  1.00  0.00    -0.550 OA
ENDBRANCH   5   6
ENDBRANCH   4   5
ENDBRANCH   3   4
ENDBRANCH   2   3
ENDBRANCH   1   2
BRANCH   1   9
ATOM      9  C   UNL     1      12.634  23.024 -22.678  1.00  0.00     0.000 C 
BRANCH   9  10
ATOM     10  C   UNL     1      13.709  22.109 -23.290  1.00  0.00    -0.000 C 
BRANCH  10  11
ATOM     11  C   UNL     1      13.164  21.159 -24.378  1.00  0.00    -0.000 C 
BRANCH  11  12
ATOM     12  C   UNL     1      12.912  19.741 -23.835  1.00  0.00    -0.000 C 
BRANCH  12  13
ATOM     13  C   UNL     1      13.732  19.438 -22.572  1.00  0.00    -0.003 C 
ATOM     14  C   UNL     1      13.013  18.488 -21.615  1.00  0.00     0.004 C 
ENDBRANCH  12  13
ENDBRANCH  11  12
ENDBRANCH  10  11
ENDBRANCH   9  10
ENDBRANCH   1   9
TORSDOF 10
ENDMDL
MODEL 4
REMARK VINA RESULT:    -4.110     22.470     24.086
REMARK INTER + INTRA:          -7.160
REMARK INTER:                  -6.573
REMARK INTRA:                  -0.587
REMARK UNBOUND:                -0.648
REMARK SMILES CCCCCCCCCCCC(=O)[O-]
REMARK SMILES IDX 7 1 8 2 9 3 10 4 11 5 12 6 13 7 14 8 6 9 5 10 4 11 3 12 2 13
REMARK SMILES IDX 1 14
REMARK H PARENT
REMARK Flexibility Score: inf
ROOT
ATOM      1  C   UNL     1      29.497   4.609 -23.483  1.00  0.00     0.000 C 
ENDROOT
BRANCH   1   2
ATOM      2  C   UNL     1      30.333   4.371 -22.220  1.00  0.00     0.000 C 
BRANCH   2   3
ATOM      3  C   UNL     1      30.804   5.699 -21.614  1.00  0.00     0.000 C 
BRANCH   3   4
ATOM      4  C   UNL     1      30.687   5.678 -20.086  1.00  0.00     0.006 C 
BRANCH   4   5
ATOM      5  C   UNL     1      29.387   5.000 -19.644  1.00  0.00     0.053 C 
BRANCH   5   6
ATOM      6  C   UNL     1      28.256   5.978 -19.654  1.00  0.00     0.041 C 
ATOM      7  O   UNL     1      27.440   5.996 -20.614  1.00  0.00    -0.550 OA
ATOM      8  O   UNL     1      28.071   6.839 -18.578  1.00  0.00    -0.550 OA
ENDBRANCH   5   6
ENDBRANCH   4   5
ENDBRANCH   3   4
ENDBRANCH   2   3
ENDBRANCH   1   2
BRANCH   1   9
ATOM      9  C   UNL     1      30.389   5.014 -24.665  1.00  0.00     0.000 C 
BRANCH   9  10
ATOM     10  C   UNL     1      31.465   3.964 -24.991  1.00  0.00    -0.000 C 
BRANCH  10  11
ATOM     11  C   UNL     1      32.063   4.112 -26.406  1.00  0.00    -0.000 C 
BRANCH  11  12
ATOM     12  C   UNL     1      31.123   4.876 -27.356  1.00  0.00    -0.000 C 
BRANCH  12  13
ATOM     13  C   UNL     1      30.922   4.150 -28.695  1.00  0.00    -0.003 C 
ATOM     14  C   UNL     1      31.274   5.023 -29.899  1.00  0.00     0.004 C 
ENDBRANCH  12  13
ENDBRANCH  11  12
ENDBRANCH  10  11
ENDBRANCH   9  10
ENDBRANCH   1   9
TORSDOF 10
ENDMDL
MODEL 5
REMARK VINA RESULT:    -4.107      1.824      3.581
REMARK INTER + INTRA:          -7.156
REMARK INTER:                  -6.731
REMARK INTRA:                  -0.426
REMARK UNBOUND:                -0.648
REMARK SMILES CCCCCCCCCCCC(=O)[O-]
REMARK SMILES IDX 7 1 8 2 9 3 10 4 11 5 12 6 13 7 14 8 6 9 5 10 4 11 3 12 2 13
REMARK SMILES IDX 1 14
REMARK H PARENT
REMARK Flexibility Score: inf
ROOT
ATOM      1  C   UNL     1      12.781  22.828 -20.983  1.00  0.00     0.000 C 
ENDROOT
BRANCH   1   2
ATOM      2  C   UNL     1      11.975  22.610 -19.698  1.00  0.00     0.000 C 
BRANCH   2   3
ATOM      3  C   UNL     1      12.809  21.871 -18.644  1.00  0.00     0.000 C 
BRANCH   3   4
ATOM      4  C   UNL     1      14.263  21.716 -19.103  1.00  0.00     0.006 C 
BRANCH   4   5
ATOM      5  C   UNL     1      14.851  20.385 -18.624  1.00  0.00     0.053 C 
BRANCH   5   6
ATOM      6  C   UNL     1      16.130  20.614 -17.883  1.00  0.00     0.041 C 
ATOM      7  O   UNL     1      16.695  21.739 -17.925  1.00  0.00    -0.550 OA
ATOM      8  O   UNL     1      16.674  19.600 -17.103  1.00  0.00    -0.550 OA
ENDBRANCH   5   6
ENDBRANCH   4   5
ENDBRANCH   3   4
ENDBRANCH   2   3
ENDBRANCH   1   2
BRANCH   1   9
ATOM      9  C   UNL     1      12.123  22.116 -22.173  1.00  0.00     0.000 C 
BRANCH   9  10
ATOM     10  C   UNL     1      12.436  22.787 -23.522  1.00  0.00    -0.000 C 
BRANCH  10  11
ATOM     11  C   UNL     1      13.080  21.835 -24.551  1.00  0.00    -0.000 C 
BRANCH  11  12
ATOM     12  C   UNL     1      13.748  22.598 -25.709  1.00  0.00    -0.000 C 
BRANCH  12  13
ATOM     13  C   UNL     1      13.018  22.398 -27.046  1.00  0.00    -0.003 C 
ATOM     14  C   UNL     1      12.588  20.950 -27.274  1.00  0.00     0.004 C 
ENDBRANCH  12  13
ENDBRANCH  11  12
ENDBRANCH  10  11
ENDBRANCH   9  10
ENDBRANCH   1   9
TORSDOF 10
ENDMDL
MODEL 6
REMARK VINA RESULT:    -4.101      1.302      2.267
REMARK INTER + INTRA:          -7.146
REMARK INTER:                  -6.452
REMARK INTRA:                  -0.694
REMARK UNBOUND:                -0.648
REMARK SMILES CCCCCCCCCCCC(=O)[O-]
REMARK SMILES IDX 7 1 8 2 9 3 10 4 11 5 12 6 13 7 14 8 6 9 5 10 4 11 3 12 2 13
REMARK SMILES IDX 1 14
REMARK H PARENT
REMARK Flexibility Score: inf
ROOT
ATOM      1  C   UNL     1      12.442  21.635 -22.989  1.00  0.00     0.000 C 
ENDROOT
BRANCH   1   2
ATOM      2  C   UNL     1      11.877  21.375 -21.588  1.00  0.00     0.000 C 
BRANCH   2   3
ATOM      3  C   UNL     1      11.913  22.650 -20.735  1.00  0.00     0.000 C 
BRANCH   3   4
ATOM      4  C   UNL     1      12.729  22.433 -19.456  1.00  0.00     0.006 C 
BRANCH   4   5
ATOM      5  C   UNL     1      14.231  22.535 -19.739  1.00  0.00     0.053 C 
BRANCH   5   6
ATOM      6  C   UNL     1      14.977  21.471 -18.999  1.00  0.00     0.041 C 
ATOM      7  O   UNL     1      14.546  20.288 -18.984  1.00  0.00    -0.550 OA
ATOM      8  O   UNL     1      16.177  21.774 -18.367  1.00  0.00    -0.550 OA
ENDBRANCH   5   6
ENDBRANCH   4   5
ENDBRANCH   3   4
ENDBRANCH   2   3
ENDBRANCH   1   2
BRANCH   1   9
ATOM      9  C   UNL     1      12.614  23.139 -23.242  1.00  0.00     0.000 C 
BRANCH   9  10
ATOM     10  C   UNL     1      12.742  23.485 -24.736  1.00  0.00    -0.000 C 
BRANCH  10  11
ATOM     11  C   UNL     1      12.231  22.370 -25.674  1.00  0.00    -0.000 C 
BRANCH  11  12
ATOM     12  C   UNL     1      13.089  22.243 -26.945  1.00  0.00    -0.000 C 
BRANCH  12  13
ATOM     13  C   UNL     1      12.624  21.098 -27.858  1.00  0.00    -0.003 C 
ATOM     14  C   UNL     1      12.383  19.796 -27.097  1.00  0.00     0.004 C 
ENDBRANCH  12  13
ENDBRANCH  11  12
ENDBRANCH  10  11
ENDBRANCH   9  10
ENDBRANCH   1   9
TORSDOF 10
ENDMDL
MODEL 7
REMARK VINA RESULT:    -4.095      3.460      6.952
REMARK INTER + INTRA:          -7.137
REMARK INTER:                  -6.570
REMARK INTRA:                  -0.566
REMARK UNBOUND:                -0.648
REMARK SMILES CCCCCCCCCCCC(=O)[O-]
REMARK SMILES IDX 7 1 8 2 9 3 10 4 11 5 12 6 13 7 14 8 6 9 5 10 4 11 3 12 2 13
REMARK SMILES IDX 1 14
REMARK H PARENT
REMARK Flexibility Score: inf
ROOT
ATOM      1  C   UNL     1      12.318  21.831 -22.087  1.00  0.00     0.000 C 
ENDROOT
BRANCH   1   2
ATOM      2  C   UNL     1      11.900  22.287 -23.490  1.00  0.00     0.000 C 
BRANCH   2   3
ATOM      3  C   UNL     1      12.926  23.265 -24.078  1.00  0.00     0.000 C 
BRANCH   3   4
ATOM      4  C   UNL     1      13.535  22.711 -25.371  1.00  0.00     0.006 C 
BRANCH   4   5
ATOM      5  C   UNL     1      12.448  22.422 -26.411  1.00  0.00     0.053 C 
BRANCH   5   6
ATOM      6  C   UNL     1      12.635  21.060 -27.000  1.00  0.00     0.041 C 
ATOM      7  O   UNL     1      12.596  20.040 -26.262  1.00  0.00    -0.550 OA
ATOM      8  O   UNL     1      12.803  20.911 -28.371  1.00  0.00    -0.550 OA
ENDBRANCH   5   6
ENDBRANCH   4   5
ENDBRANCH   3   4
ENDBRANCH   2   3
ENDBRANCH   1   2
BRANCH   1   9
ATOM      9  C   UNL     1      12.658  23.033 -21.196  1.00  0.00     0.000 C 
BRANCH   9  10
ATOM     10  C   UNL     1      13.757  22.724 -20.165  1.00  0.00    -0.000 C 
BRANCH  10  11
ATOM     11  C   UNL     1      13.395  21.572 -19.203  1.00  0.00    -0.000 C 
BRANCH  11  12
ATOM     12  C   UNL     1      14.524  20.533 -19.091  1.00  0.00    -0.000 C 
BRANCH  12  13
ATOM     13  C   UNL     1      15.394  20.738 -17.842  1.00  0.00    -0.003 C 
ATOM     14  C   UNL     1      16.612  21.620 -18.108  1.00  0.00     0.004 C 
ENDBRANCH  12  13
ENDBRANCH  11  12
ENDBRANCH  10  11
ENDBRANCH   9  10
ENDBRANCH   1   9
TORSDOF 10
ENDMDL
MODEL 8
REMARK VINA RESULT:    -3.989     21.581     23.465
REMARK INTER + INTRA:          -6.968
REMARK INTER:                  -6.147
REMARK INTRA:                  -0.821
REMARK UNBOUND:                -0.648
REMARK SMILES CCCCCCCCCCCC(=O)[O-]
REMARK SMILES IDX 7 1 8 2 9 3 10 4 11 5 12 6 13 7 14 8 6 9 5 10 4 11 3 12 2 13
REMARK SMILES IDX 1 14
REMARK H PARENT
REMARK Flexibility Score: inf
ROOT
ATOM      1  C   UNL     1      30.348   5.713 -21.795  1.00  0.00     0.000 C 
ENDROOT
BRANCH   1   2
ATOM      2  C   UNL     1      29.375   4.854 -20.980  1.00  0.00     0.000 C 
BRANCH   2   3
ATOM      3  C   UNL     1      29.642   4.996 -19.476  1.00  0.00     0.000 C 
BRANCH   3   4
ATOM      4  C   UNL     1      29.491   6.454 -19.027  1.00  0.00     0.006 C 
BRANCH   4   5
ATOM      5  C   UNL     1      28.229   6.639 -18.178  1.00  0.00     0.053 C 
BRANCH   5   6
ATOM      6  C   UNL     1      27.226   7.475 -18.905  1.00  0.00     0.041 C 
ATOM      7  O   UNL     1      27.189   7.470 -20.164  1.00  0.00    -0.550 OA
ATOM      8  O   UNL     1      26.296   8.223 -18.193  1.00  0.00    -0.550 OA
ENDBRANCH   5   6
ENDBRANCH   4   5
ENDBRANCH   3   4
ENDBRANCH   2   3
ENDBRANCH   1   2
BRANCH   1   9
ATOM      9  C   UNL     1      31.743   5.075 -21.838  1.00  0.00     0.000 C 
BRANCH   9  10
ATOM     10  C   UNL     1      31.860   3.958 -22.889  1.00  0.00    -0.000 C 
BRANCH  10  11
ATOM     11  C   UNL     1      30.999   4.201 -24.147  1.00  0.00    -0.000 C 
BRANCH  11  12
ATOM     12  C   UNL     1      31.846   4.236 -25.432  1.00  0.00    -0.000 C 
BRANCH  12  13
ATOM     13  C   UNL     1      31.858   5.622 -26.093  1.00  0.00    -0.003 C 
ATOM     14  C   UNL     1      30.730   6.524 -25.596  1.00  0.00     0.004 C 
ENDBRANCH  12  13
ENDBRANCH  11  12
ENDBRANCH  10  11
ENDBRANCH   9  10
ENDBRANCH   1   9
TORSDOF 10
ENDMDL
MODEL 9
REMARK VINA RESULT:    -3.931     22.254     24.691
REMARK INTER + INTRA:          -6.877
REMARK INTER:                  -6.097
REMARK INTRA:                  -0.780
REMARK UNBOUND:                -0.648
REMARK SMILES CCCCCCCCCCCC(=O)[O-]
REMARK SMILES IDX 7 1 8 2 9 3 10 4 11 5 12 6 13 7 14 8 6 9 5 10 4 11 3 12 2 13
REMARK SMILES IDX 1 14
REMARK H PARENT
REMARK Flexibility Score: inf
ROOT
ATOM      1  C   UNL     1      29.845   5.853 -22.179  1.00  0.00     0.000 C 
ENDROOT
BRANCH   1   2
ATOM      2  C   UNL     1      30.807   5.760 -23.368  1.00  0.00     0.000 C 
BRANCH   2   3
ATOM      3  C   UNL     1      31.540   4.412 -23.379  1.00  0.00     0.000 C 
BRANCH   3   4
ATOM      4  C   UNL     1      31.706   3.887 -24.809  1.00  0.00     0.006 C 
BRANCH   4   5
ATOM      5  C   UNL     1      30.538   4.332 -25.696  1.00  0.00     0.053 C 
BRANCH   5   6
ATOM      6  C   UNL     1      31.046   5.003 -26.933  1.00  0.00     0.041 C 
ATOM      7  O   UNL     1      31.257   6.245 -26.940  1.00  0.00    -0.550 OA
ATOM      8  O   UNL     1      31.336   4.250 -28.064  1.00  0.00    -0.550 OA
ENDBRANCH   5   6
ENDBRANCH   4   5
ENDBRANCH   3   4
ENDBRANCH   2   3
ENDBRANCH   1   2
BRANCH   1   9
ATOM      9  C   UNL     1      30.046   4.676 -21.215  1.00  0.00     0.000 C 
BRANCH   9  10
ATOM     10  C   UNL     1      30.456   5.123 -19.800  1.00  0.00    -0.000 C 
BRANCH  10  11
ATOM     11  C   UNL     1      29.258   5.475 -18.893  1.00  0.00    -0.000 C 
BRANCH  11  12
ATOM     12  C   UNL     1      29.197   6.979 -18.570  1.00  0.00    -0.000 C 
BRANCH  12  13
ATOM     13  C   UNL     1      27.798   7.573 -18.795  1.00  0.00    -0.003 C 
ATOM     14  C   UNL     1      27.205   7.194 -20.150  1.00  0.00     0.004 C 
ENDBRANCH  12  13
ENDBRANCH  11  12
ENDBRANCH  10  11
ENDBRANCH   9  10
ENDBRANCH   1   9
TORSDOF 10
ENDMDL
