MODEL 1
REMARK VINA RESULT:    -5.321      0.000      0.000
REMARK INTER + INTRA:          -5.632
REMARK INTER:                  -5.632
REMARK INTRA:                   0.000
REMARK UNBOUND:                 0.000
REMARK SMILES O=c1ccc2cc(O)c(O)cc2o1
REMARK SMILES IDX 4 1 3 2 2 3 1 4 13 5 12 6 11 7 9 8 7 9 6 10 5 11 8 12 10 14
REMARK H PARENT 8 13 10 15
REMARK Flexibility Score: inf
ROOT
ATOM      1  C   UNL     1      19.626  25.573  39.721  1.00  0.00     0.019 A 
ATOM      2  C   UNL     1      19.031  26.495  38.862  1.00  0.00     0.094 A 
ATOM      3  C   UNL     1      18.685  26.092  37.568  1.00  0.00     0.336 A 
ATOM      4  O   UNL     1      18.146  26.911  36.778  1.00  0.00    -0.246 OA
ATOM      5  O   UNL     1      18.922  24.846  37.165  1.00  0.00    -0.423 OA
ATOM      6  C   UNL     1      19.488  23.934  37.952  1.00  0.00     0.142 A 
ATOM      7  C   UNL     1      19.712  22.640  37.473  1.00  0.00     0.098 A 
ATOM      8  C   UNL     1      20.309  21.676  38.299  1.00  0.00     0.161 A 
ATOM      9  C   UNL     1      20.683  22.008  39.610  1.00  0.00     0.158 A 
ATOM     10  C   UNL     1      20.459  23.306  40.095  1.00  0.00     0.062 A 
ATOM     11  C   UNL     1      19.864  24.270  39.271  1.00  0.00     0.022 A 
ENDROOT
BRANCH   9  12
ATOM     12  O   UNL     1      21.275  21.044  40.424  1.00  0.00    -0.504 OA
ATOM     13  H   UNL     1      22.037  20.465  40.092  1.00  0.00     0.293 HD
ENDBRANCH   9  12
BRANCH   8  14
ATOM     14  O   UNL     1      20.533  20.385  37.824  1.00  0.00    -0.504 OA
ATOM     15  H   UNL     1      20.116  20.056  36.962  1.00  0.00     0.293 HD
ENDBRANCH   8  14
TORSDOF 2
ENDMDL
MODEL 2
REMARK VINA RESULT:    -5.320      1.524      2.433
REMARK INTER + INTRA:          -5.631
REMARK INTER:                  -5.631
REMARK INTRA:                   0.000
REMARK UNBOUND:                 0.000
REMARK SMILES O=c1ccc2cc(O)c(O)cc2o1
REMARK SMILES IDX 4 1 3 2 2 3 1 4 13 5 12 6 11 7 9 8 7 9 6 10 5 11 8 12 10 14
REMARK H PARENT 8 13 10 15
REMARK Flexibility Score: inf
ROOT
ATOM      1  C   UNL     1      19.071  25.212  37.799  1.00  0.00     0.019 A 
ATOM      2  C   UNL     1      18.948  26.414  38.494  1.00  0.00     0.094 A 
ATOM      3  C   UNL     1      19.388  26.477  39.821  1.00  0.00     0.336 A 
ATOM      4  O   UNL     1      19.285  27.554  40.465  1.00  0.00    -0.246 OA
ATOM      5  O   UNL     1      19.914  25.405  40.408  1.00  0.00    -0.423 OA
ATOM      6  C   UNL     1      20.049  24.239  39.781  1.00  0.00     0.142 A 
ATOM      7  C   UNL     1      20.610  23.147  40.449  1.00  0.00     0.098 A 
ATOM      8  C   UNL     1      20.754  21.916  39.792  1.00  0.00     0.161 A 
ATOM      9  C   UNL     1      20.335  21.777  38.461  1.00  0.00     0.158 A 
ATOM     10  C   UNL     1      19.773  22.871  37.785  1.00  0.00     0.062 A 
ATOM     11  C   UNL     1      19.628  24.101  38.441  1.00  0.00     0.022 A 
ENDROOT
BRANCH   9  12
ATOM     12  O   UNL     1      20.483  20.551  37.816  1.00  0.00    -0.504 OA
ATOM     13  H   UNL     1      21.113  19.839  38.166  1.00  0.00     0.293 HD
ENDBRANCH   9  12
BRANCH   8  14
ATOM     14  O   UNL     1      21.312  20.825  40.457  1.00  0.00    -0.504 OA
ATOM     15  H   UNL     1      21.327  20.770  41.468  1.00  0.00     0.293 HD
ENDBRANCH   8  14
TORSDOF 2
ENDMDL
MODEL 3
REMARK VINA RESULT:    -5.320      6.347      7.954
REMARK INTER + INTRA:          -5.631
REMARK INTER:                  -5.631
REMARK INTRA:                   0.000
REMARK UNBOUND:                 0.000
REMARK SMILES O=c1ccc2cc(O)c(O)cc2o1
REMARK SMILES IDX 4 1 3 2 2 3 1 4 13 5 12 6 11 7 9 8 7 9 6 10 5 11 8 12 10 14
REMARK H PARENT 8 13 10 15
REMARK Flexibility Score: inf
ROOT
ATOM      1  C   UNL     1      16.027  25.346  44.934  1.00  0.00     0.019 A 
ATOM      2  C   UNL     1      16.080  24.190  44.156  1.00  0.00     0.094 A 
ATOM      3  C   UNL     1      17.223  23.942  43.388  1.00  0.00     0.336 A 
ATOM      4  O   UNL     1      17.289  22.904  42.680  1.00  0.00    -0.246 OA
ATOM      5  O   UNL     1      18.241  24.798  43.400  1.00  0.00    -0.423 OA
ATOM      6  C   UNL     1      18.231  25.913  44.127  1.00  0.00     0.142 A 
ATOM      7  C   UNL     1      19.332  26.775  44.100  1.00  0.00     0.098 A 
ATOM      8  C   UNL     1      19.326  27.951  44.864  1.00  0.00     0.161 A 
ATOM      9  C   UNL     1      18.214  28.266  45.659  1.00  0.00     0.158 A 
ATOM     10  C   UNL     1      17.108  27.403  45.691  1.00  0.00     0.062 A 
ATOM     11  C   UNL     1      17.112  26.229  44.927  1.00  0.00     0.022 A 
ENDROOT
BRANCH   9  12
ATOM     12  O   UNL     1      18.216  29.436  46.416  1.00  0.00    -0.504 OA
ATOM     13  H   UNL     1      18.744  29.510  47.277  1.00  0.00     0.293 HD
ENDBRANCH   9  12
BRANCH   8  14
ATOM     14  O   UNL     1      20.421  28.812  44.838  1.00  0.00    -0.504 OA
ATOM     15  H   UNL     1      20.393  29.692  44.338  1.00  0.00     0.293 HD
ENDBRANCH   8  14
TORSDOF 2
ENDMDL
MODEL 4
REMARK VINA RESULT:    -5.116      6.654      8.185
REMARK INTER + INTRA:          -5.415
REMARK INTER:                  -5.415
REMARK INTRA:                   0.000
REMARK UNBOUND:                 0.000
REMARK SMILES O=c1ccc2cc(O)c(O)cc2o1
REMARK SMILES IDX 4 1 3 2 2 3 1 4 13 5 12 6 11 7 9 8 7 9 6 10 5 11 8 12 10 14
REMARK H PARENT 8 13 10 15
REMARK Flexibility Score: inf
ROOT
ATOM      1  C   UNL     1      18.108  24.830  43.296  1.00  0.00     0.019 A 
ATOM      2  C   UNL     1      16.965  24.033  43.344  1.00  0.00     0.094 A 
ATOM      3  C   UNL     1      15.903  24.419  44.168  1.00  0.00     0.336 A 
ATOM      4  O   UNL     1      14.863  23.712  44.224  1.00  0.00    -0.246 OA
ATOM      5  O   UNL     1      15.986  25.530  44.896  1.00  0.00    -0.423 OA
ATOM      6  C   UNL     1      17.057  26.318  44.881  1.00  0.00     0.142 A 
ATOM      7  C   UNL     1      17.086  27.474  45.668  1.00  0.00     0.098 A 
ATOM      8  C   UNL     1      18.214  28.308  45.655  1.00  0.00     0.161 A 
ATOM      9  C   UNL     1      19.317  27.985  44.852  1.00  0.00     0.158 A 
ATOM     10  C   UNL     1      19.293  26.827  44.060  1.00  0.00     0.062 A 
ATOM     11  C   UNL     1      18.167  25.993  44.072  1.00  0.00     0.022 A 
ENDROOT
BRANCH   9  12
ATOM     12  O   UNL     1      20.434  28.819  44.845  1.00  0.00    -0.504 OA
ATOM     13  H   UNL     1      20.897  29.078  43.982  1.00  0.00     0.293 HD
ENDBRANCH   9  12
BRANCH   8  14
ATOM     14  O   UNL     1      18.245  29.460  46.439  1.00  0.00    -0.504 OA
ATOM     15  H   UNL     1      17.648  30.254  46.241  1.00  0.00     0.293 HD
ENDBRANCH   8  14
TORSDOF 2
ENDMDL
MODEL 5
REMARK VINA RESULT:    -5.085      1.334      4.475
REMARK INTER + INTRA:          -5.382
REMARK INTER:                  -5.382
REMARK INTRA:                   0.000
REMARK UNBOUND:                 0.000
REMARK SMILES O=c1ccc2cc(O)c(O)cc2o1
REMARK SMILES IDX 4 1 3 2 2 3 1 4 13 5 12 6 11 7 9 8 7 9 6 10 5 11 8 12 10 14
REMARK H PARENT 8 13 10 15
REMARK Flexibility Score: inf
ROOT
ATOM      1  C   UNL     1      20.630  22.652  40.372  1.00  0.00     0.019 A 
ATOM      2  C   UNL     1      20.675  21.412  39.738  1.00  0.00     0.094 A 
ATOM      3  C   UNL     1      20.243  21.311  38.411  1.00  0.00     0.336 A 
ATOM      4  O   UNL     1      20.277  20.200  37.822  1.00  0.00    -0.246 OA
ATOM      5  O   UNL     1      19.794  22.385  37.767  1.00  0.00    -0.423 OA
ATOM      6  C   UNL     1      19.733  23.588  38.334  1.00  0.00     0.142 A 
ATOM      7  C   UNL     1      19.251  24.680  37.606  1.00  0.00     0.098 A 
ATOM      8  C   UNL     1      19.185  25.949  38.200  1.00  0.00     0.161 A 
ATOM      9  C   UNL     1      19.602  26.126  39.528  1.00  0.00     0.158 A 
ATOM     10  C   UNL     1      20.087  25.033  40.262  1.00  0.00     0.062 A 
ATOM     11  C   UNL     1      20.153  23.765  39.670  1.00  0.00     0.022 A 
ENDROOT
BRANCH   9  12
ATOM     12  O   UNL     1      19.533  27.390  40.110  1.00  0.00    -0.504 OA
ATOM     13  H   UNL     1      20.254  28.085  39.958  1.00  0.00     0.293 HD
ENDBRANCH   9  12
BRANCH   8  14
ATOM     14  O   UNL     1      18.705  27.040  37.477  1.00  0.00    -0.504 OA
ATOM     15  H   UNL     1      18.593  27.952  37.903  1.00  0.00     0.293 HD
ENDBRANCH   8  14
TORSDOF 2
ENDMDL
MODEL 6
REMARK VINA RESULT:    -5.082      5.643      7.164
REMARK INTER + INTRA:          -5.379
REMARK INTER:                  -5.379
REMARK INTRA:                   0.000
REMARK UNBOUND:                 0.000
REMARK SMILES O=c1ccc2cc(O)c(O)cc2o1
REMARK SMILES IDX 4 1 3 2 2 3 1 4 13 5 12 6 11 7 9 8 7 9 6 10 5 11 8 12 10 14
REMARK H PARENT 8 13 10 15
REMARK Flexibility Score: inf
ROOT
ATOM      1  C   UNL     1      16.570  25.358  43.144  1.00  0.00     0.019 A 
ATOM      2  C   UNL     1      16.947  24.604  42.034  1.00  0.00     0.094 A 
ATOM      3  C   UNL     1      18.235  24.763  41.511  1.00  0.00     0.336 A 
ATOM      4  O   UNL     1      18.594  24.091  40.510  1.00  0.00    -0.246 OA
ATOM      5  O   UNL     1      19.085  25.622  42.067  1.00  0.00    -0.423 OA
ATOM      6  C   UNL     1      18.766  26.361  43.127  1.00  0.00     0.142 A 
ATOM      7  C   UNL     1      19.702  27.247  43.668  1.00  0.00     0.098 A 
ATOM      8  C   UNL     1      19.370  28.029  44.785  1.00  0.00     0.161 A 
ATOM      9  C   UNL     1      18.097  27.923  45.363  1.00  0.00     0.158 A 
ATOM     10  C   UNL     1      17.154  27.034  44.824  1.00  0.00     0.062 A 
ATOM     11  C   UNL     1      17.484  26.254  43.708  1.00  0.00     0.022 A 
ENDROOT
BRANCH   9  12
ATOM     12  O   UNL     1      17.775  28.703  46.472  1.00  0.00    -0.504 OA
ATOM     13  H   UNL     1      16.817  28.953  46.686  1.00  0.00     0.293 HD
ENDBRANCH   9  12
BRANCH   8  14
ATOM     14  O   UNL     1      20.302  28.914  45.326  1.00  0.00    -0.504 OA
ATOM     15  H   UNL     1      20.015  29.756  45.809  1.00  0.00     0.293 HD
ENDBRANCH   8  14
TORSDOF 2
ENDMDL
MODEL 7
REMARK VINA RESULT:    -4.877      3.489      4.905
REMARK INTER + INTRA:          -5.162
REMARK INTER:                  -5.162
REMARK INTRA:                   0.000
REMARK UNBOUND:                 0.000
REMARK SMILES O=c1ccc2cc(O)c(O)cc2o1
REMARK SMILES IDX 4 1 3 2 2 3 1 4 13 5 12 6 11 7 9 8 7 9 6 10 5 11 8 12 10 14
REMARK H PARENT 8 13 10 15
REMARK Flexibility Score: inf
ROOT
ATOM      1  C   UNL     1      17.581  24.812  41.149  1.00  0.00     0.019 A 
ATOM      2  C   UNL     1      17.472  24.089  39.962  1.00  0.00     0.094 A 
ATOM      3  C   UNL     1      18.515  24.152  39.031  1.00  0.00     0.336 A 
ATOM      4  O   UNL     1      18.435  23.507  37.954  1.00  0.00    -0.246 OA
ATOM      5  O   UNL     1      19.593  24.892  39.278  1.00  0.00    -0.423 OA
ATOM      6  C   UNL     1      19.737  25.597  40.398  1.00  0.00     0.142 A 
ATOM      7  C   UNL     1      20.893  26.357  40.601  1.00  0.00     0.098 A 
ATOM      8  C   UNL     1      21.049  27.102  41.780  1.00  0.00     0.161 A 
ATOM      9  C   UNL     1      20.044  27.087  42.758  1.00  0.00     0.158 A 
ATOM     10  C   UNL     1      18.883  26.325  42.559  1.00  0.00     0.062 A 
ATOM     11  C   UNL     1      18.726  25.581  41.382  1.00  0.00     0.022 A 
ENDROOT
BRANCH   9  12
ATOM     12  O   UNL     1      20.207  27.829  43.926  1.00  0.00    -0.504 OA
ATOM     13  H   UNL     1      19.553  28.557  44.188  1.00  0.00     0.293 HD
ENDBRANCH   9  12
BRANCH   8  14
ATOM     14  O   UNL     1      22.200  27.860  41.985  1.00  0.00    -0.504 OA
ATOM     15  H   UNL     1      22.159  28.863  42.118  1.00  0.00     0.293 HD
ENDBRANCH   8  14
TORSDOF 2
ENDMDL
MODEL 8
REMARK VINA RESULT:    -4.798      4.384      5.746
REMARK INTER + INTRA:          -5.079
REMARK INTER:                  -5.079
REMARK INTRA:                   0.000
REMARK UNBOUND:                 0.000
REMARK SMILES O=c1ccc2cc(O)c(O)cc2o1
REMARK SMILES IDX 4 1 3 2 2 3 1 4 13 5 12 6 11 7 9 8 7 9 6 10 5 11 8 12 10 14
REMARK H PARENT 8 13 10 15
REMARK Flexibility Score: inf
ROOT
ATOM      1  C   UNL     1      20.196  26.153  40.501  1.00  0.00     0.019 A 
ATOM      2  C   UNL     1      19.648  25.260  39.582  1.00  0.00     0.094 A 
ATOM      3  C   UNL     1      18.548  24.484  39.962  1.00  0.00     0.336 A 
ATOM      4  O   UNL     1      18.040  23.672  39.145  1.00  0.00    -0.246 OA
ATOM      5  O   UNL     1      18.034  24.598  41.184  1.00  0.00    -0.423 OA
ATOM      6  C   UNL     1      18.526  25.438  42.092  1.00  0.00     0.142 A 
ATOM      7  C   UNL     1      17.943  25.514  43.360  1.00  0.00     0.098 A 
ATOM      8  C   UNL     1      18.458  26.397  44.321  1.00  0.00     0.161 A 
ATOM      9  C   UNL     1      19.561  27.207  44.011  1.00  0.00     0.158 A 
ATOM     10  C   UNL     1      20.148  27.135  42.739  1.00  0.00     0.062 A 
ATOM     11  C   UNL     1      19.635  26.252  41.779  1.00  0.00     0.022 A 
ENDROOT
BRANCH   9  12
ATOM     12  O   UNL     1      20.066  28.082  44.971  1.00  0.00    -0.504 OA
ATOM     13  H   UNL     1      19.525  28.345  45.786  1.00  0.00     0.293 HD
ENDBRANCH   9  12
BRANCH   8  14
ATOM     14  O   UNL     1      17.880  26.475  45.587  1.00  0.00    -0.504 OA
ATOM     15  H   UNL     1      17.795  27.357  46.079  1.00  0.00     0.293 HD
ENDBRANCH   8  14
TORSDOF 2
ENDMDL
MODEL 9
REMARK VINA RESULT:    -4.790      3.692      5.137
REMARK INTER + INTRA:          -5.071
REMARK INTER:                  -5.071
REMARK INTRA:                   0.000
REMARK UNBOUND:                 0.000
REMARK SMILES O=c1ccc2cc(O)c(O)cc2o1
REMARK SMILES IDX 4 1 3 2 2 3 1 4 13 5 12 6 11 7 9 8 7 9 6 10 5 11 8 12 10 14
REMARK H PARENT 8 13 10 15
REMARK Flexibility Score: inf
ROOT
ATOM      1  C   UNL     1      19.131  26.079  38.694  1.00  0.00     0.019 A 
ATOM      2  C   UNL     1      17.942  25.402  38.424  1.00  0.00     0.094 A 
ATOM      3  C   UNL     1      17.077  25.103  39.481  1.00  0.00     0.336 A 
ATOM      4  O   UNL     1      15.999  24.493  39.256  1.00  0.00    -0.246 OA
ATOM      5  O   UNL     1      17.386  25.459  40.725  1.00  0.00    -0.423 OA
ATOM      6  C   UNL     1      18.509  26.106  41.027  1.00  0.00     0.142 A 
ATOM      7  C   UNL     1      18.780  26.454  42.354  1.00  0.00     0.098 A 
ATOM      8  C   UNL     1      19.963  27.135  42.677  1.00  0.00     0.161 A 
ATOM      9  C   UNL     1      20.879  27.469  41.668  1.00  0.00     0.158 A 
ATOM     10  C   UNL     1      20.611  27.122  40.335  1.00  0.00     0.062 A 
ATOM     11  C   UNL     1      19.430  26.441  40.012  1.00  0.00     0.022 A 
ENDROOT
BRANCH   9  12
ATOM     12  O   UNL     1      22.052  28.146  41.998  1.00  0.00    -0.504 OA
ATOM     13  H   UNL     1      22.238  28.454  42.944  1.00  0.00     0.293 HD
ENDBRANCH   9  12
BRANCH   8  14
ATOM     14  O   UNL     1      20.235  27.483  43.998  1.00  0.00    -0.504 OA
ATOM     15  H   UNL     1      20.878  26.946  44.568  1.00  0.00     0.293 HD
ENDBRANCH   8  14
TORSDOF 2
ENDMDL
