MODEL 1
REMARK VINA RESULT:    -0.610      0.000      0.000
REMARK INTER + INTRA:          -1.401
REMARK INTER:                  -1.181
REMARK INTRA:                  -0.220
REMARK UNBOUND:                -0.220
REMARK SMILES CCCCCCCCCCCCCCCCCC(=O)[O-]
REMARK SMILES IDX 10 1 11 2 12 3 13 4 14 5 15 6 16 7 17 8 18 9 19 10 20 11
REMARK SMILES IDX 9 12 8 13 7 14 6 15 5 16 4 17 3 18 2 19 1 20
REMARK H PARENT
REMARK Flexibility Score: inf
ROOT
ATOM      1  C   UNL     1      -0.142  -0.107   0.228  1.00  0.00     0.000 C 
ENDROOT
BRANCH   1   2
ATOM      2  C   UNL     1      -0.028   1.205  -0.570  1.00  0.00     0.000 C 
BRANCH   2   3
ATOM      3  C   UNL     1       0.968   1.174  -1.749  1.00  0.00     0.000 C 
BRANCH   3   4
ATOM      4  C   UNL     1       2.290   0.433  -1.478  1.00  0.00     0.000 C 
BRANCH   4   5
ATOM      5  C   UNL     1       3.295   1.279  -0.679  1.00  0.00     0.000 C 
BRANCH   5   6
ATOM      6  C   UNL     1       3.291   2.763  -1.091  1.00  0.00     0.000 C 
BRANCH   6   7
ATOM      7  C   UNL     1       2.542   3.711  -0.133  1.00  0.00     0.006 C 
BRANCH   7   8
ATOM      8  C   UNL     1       2.275   5.113  -0.702  1.00  0.00     0.053 C 
BRANCH   8   9
ATOM      9  C   UNL     1       3.376   6.072  -0.369  1.00  0.00     0.041 C 
ATOM     10  O   UNL     1       4.449   5.654   0.141  1.00  0.00    -0.550 OA
ATOM     11  O   UNL     1       3.230   7.424  -0.654  1.00  0.00    -0.550 OA
ENDBRANCH   8   9
ENDBRANCH   7   8
ENDBRANCH   6   7
ENDBRANCH   5   6
ENDBRANCH   4   5
ENDBRANCH   3   4
ENDBRANCH   2   3
ENDBRANCH   1   2
BRANCH   1  12
ATOM     12  C   UNL     1      -0.277  -1.345  -0.675  1.00  0.00     0.000 C 
BRANCH  12  13
ATOM     13  C   UNL     1      -1.133  -1.074  -1.922  1.00  0.00    -0.000 C 
BRANCH  13  14
ATOM     14  C   UNL     1      -2.536  -0.545  -1.576  1.00  0.00    -0.000 C 
BRANCH  14  15
ATOM     15  C   UNL     1      -3.323  -1.504  -0.667  1.00  0.00    -0.000 C 
BRANCH  15  16
ATOM     16  C   UNL     1      -3.341  -2.945  -1.206  1.00  0.00    -0.000 C 
BRANCH  16  17
ATOM     17  C   UNL     1      -2.882  -3.971  -0.158  1.00  0.00    -0.000 C 
BRANCH  17  18
ATOM     18  C   UNL     1      -2.054  -5.115  -0.770  1.00  0.00    -0.000 C 
BRANCH  18  19
ATOM     19  C   UNL     1      -2.878  -6.396  -0.971  1.00  0.00    -0.003 C 
ATOM     20  C   UNL     1      -4.268  -6.308  -0.344  1.00  0.00     0.004 C 
ENDBRANCH  18  19
ENDBRANCH  17  18
ENDBRANCH  16  17
ENDBRANCH  15  16
ENDBRANCH  14  15
ENDBRANCH  13  14
ENDBRANCH  12  13
ENDBRANCH   1  12
TORSDOF 16
ENDMDL
MODEL 2
REMARK VINA RESULT:    -0.559      0.935      1.693
REMARK INTER + INTRA:          -1.301
REMARK INTER:                  -0.325
REMARK INTRA:                  -0.976
REMARK UNBOUND:                -0.220
REMARK SMILES CCCCCCCCCCCCCCCCCC(=O)[O-]
REMARK SMILES IDX 10 1 11 2 12 3 13 4 14 5 15 6 16 7 17 8 18 9 19 10 20 11
REMARK SMILES IDX 9 12 8 13 7 14 6 15 5 16 4 17 3 18 2 19 1 20
REMARK H PARENT
REMARK Flexibility Score: inf
ROOT
ATOM      1  C   UNL     1      -0.552   1.152  -0.710  1.00  0.00     0.000 C 
ENDROOT
BRANCH   1   2
ATOM      2  C   UNL     1       0.324  -0.030  -0.254  1.00  0.00     0.000 C 
BRANCH   2   3
ATOM      3  C   UNL     1       1.327  -0.551  -1.304  1.00  0.00     0.000 C 
BRANCH   3   4
ATOM      4  C   UNL     1       2.252   0.515  -1.920  1.00  0.00     0.000 C 
BRANCH   4   5
ATOM      5  C   UNL     1       3.002   1.338  -0.860  1.00  0.00     0.000 C 
BRANCH   5   6
ATOM      6  C   UNL     1       3.064   2.838  -1.201  1.00  0.00     0.000 C 
BRANCH   6   7
ATOM      7  C   UNL     1       2.356   3.773  -0.199  1.00  0.00     0.006 C 
BRANCH   7   8
ATOM      8  C   UNL     1       2.258   5.238  -0.651  1.00  0.00     0.053 C 
BRANCH   8   9
ATOM      9  C   UNL     1       3.471   6.025  -0.266  1.00  0.00     0.041 C 
ATOM     10  O   UNL     1       4.497   5.438   0.169  1.00  0.00    -0.550 OA
ATOM     11  O   UNL     1       3.482   7.406  -0.422  1.00  0.00    -0.550 OA
ENDBRANCH   8   9
ENDBRANCH   7   8
ENDBRANCH   6   7
ENDBRANCH   5   6
ENDBRANCH   4   5
ENDBRANCH   3   4
ENDBRANCH   2   3
ENDBRANCH   1   2
BRANCH   1  12
ATOM     12  C   UNL     1      -1.600   0.746  -1.761  1.00  0.00     0.000 C 
BRANCH  12  13
ATOM     13  C   UNL     1      -1.769  -0.777  -1.866  1.00  0.00    -0.000 C 
BRANCH  13  14
ATOM     14  C   UNL     1      -2.947  -1.303  -1.028  1.00  0.00    -0.000 C 
BRANCH  14  15
ATOM     15  C   UNL     1      -3.327  -2.751  -1.381  1.00  0.00    -0.000 C 
BRANCH  15  16
ATOM     16  C   UNL     1      -3.554  -3.622  -0.133  1.00  0.00    -0.000 C 
BRANCH  16  17
ATOM     17  C   UNL     1      -3.250  -5.107  -0.389  1.00  0.00    -0.000 C 
BRANCH  17  18
ATOM     18  C   UNL     1      -1.843  -5.335  -0.968  1.00  0.00    -0.000 C 
BRANCH  18  19
ATOM     19  C   UNL     1      -0.746  -4.660  -0.131  1.00  0.00    -0.003 C 
ATOM     20  C   UNL     1       0.178  -3.777  -0.970  1.00  0.00     0.004 C 
ENDBRANCH  18  19
ENDBRANCH  17  18
ENDBRANCH  16  17
ENDBRANCH  15  16
ENDBRANCH  14  15
ENDBRANCH  13  14
ENDBRANCH  12  13
ENDBRANCH   1  12
TORSDOF 16
ENDMDL
MODEL 3
REMARK VINA RESULT:    -0.497      4.786      9.260
REMARK INTER + INTRA:          -1.183
REMARK INTER:                  -0.062
REMARK INTRA:                  -1.120
REMARK UNBOUND:                -0.220
REMARK SMILES CCCCCCCCCCCCCCCCCC(=O)[O-]
REMARK SMILES IDX 10 1 11 2 12 3 13 4 14 5 15 6 16 7 17 8 18 9 19 10 20 11
REMARK SMILES IDX 9 12 8 13 7 14 6 15 5 16 4 17 3 18 2 19 1 20
REMARK H PARENT
REMARK Flexibility Score: inf
ROOT
ATOM      1  C   UNL     1       0.391  -1.264  -0.713  1.00  0.00     0.000 C 
ENDROOT
BRANCH   1   2
ATOM      2  C   UNL     1      -0.420  -0.047  -0.231  1.00  0.00     0.000 C 
BRANCH   2   3
ATOM      3  C   UNL     1      -1.549   0.409  -1.178  1.00  0.00     0.000 C 
BRANCH   3   4
ATOM      4  C   UNL     1      -2.241  -0.715  -1.970  1.00  0.00     0.000 C 
BRANCH   4   5
ATOM      5  C   UNL     1      -3.283  -1.478  -1.136  1.00  0.00     0.000 C 
BRANCH   5   6
ATOM      6  C   UNL     1      -3.252  -2.998  -1.384  1.00  0.00     0.000 C 
BRANCH   6   7
ATOM      7  C   UNL     1      -2.456  -3.819  -0.350  1.00  0.00     0.006 C 
BRANCH   7   8
ATOM      8  C   UNL     1      -2.174  -5.271  -0.767  1.00  0.00     0.053 C 
BRANCH   8   9
ATOM      9  C   UNL     1      -3.396  -6.130  -0.666  1.00  0.00     0.041 C 
ATOM     10  O   UNL     1      -3.380  -7.310  -1.104  1.00  0.00    -0.550 OA
ATOM     11  O   UNL     1      -4.543  -5.637  -0.057  1.00  0.00    -0.550 OA
ENDBRANCH   8   9
ENDBRANCH   7   8
ENDBRANCH   6   7
ENDBRANCH   5   6
ENDBRANCH   4   5
ENDBRANCH   3   4
ENDBRANCH   2   3
ENDBRANCH   1   2
BRANCH   1  12
ATOM     12  C   UNL     1       1.458  -0.894  -1.758  1.00  0.00     0.000 C 
BRANCH  12  13
ATOM     13  C   UNL     1       1.722   0.619  -1.820  1.00  0.00    -0.000 C 
BRANCH  13  14
ATOM     14  C   UNL     1       2.962   1.038  -1.011  1.00  0.00    -0.000 C 
BRANCH  14  15
ATOM     15  C   UNL     1       3.340   2.513  -1.226  1.00  0.00    -0.000 C 
BRANCH  15  16
ATOM     16  C   UNL     1       3.223   3.345   0.062  1.00  0.00    -0.000 C 
BRANCH  16  17
ATOM     17  C   UNL     1       3.200   4.857  -0.214  1.00  0.00    -0.000 C 
BRANCH  17  18
ATOM     18  C   UNL     1       1.820   5.356  -0.678  1.00  0.00    -0.000 C 
BRANCH  18  19
ATOM     19  C   UNL     1       0.670   4.746   0.138  1.00  0.00    -0.003 C 
ATOM     20  C   UNL     1      -0.058   3.630  -0.609  1.00  0.00     0.004 C 
ENDBRANCH  18  19
ENDBRANCH  17  18
ENDBRANCH  16  17
ENDBRANCH  15  16
ENDBRANCH  14  15
ENDBRANCH  13  14
ENDBRANCH  12  13
ENDBRANCH   1  12
TORSDOF 16
ENDMDL
MODEL 4
REMARK VINA RESULT:    -0.452      4.832      9.621
REMARK INTER + INTRA:          -1.095
REMARK INTER:                  -0.979
REMARK INTRA:                  -0.117
REMARK UNBOUND:                -0.220
REMARK SMILES CCCCCCCCCCCCCCCCCC(=O)[O-]
REMARK SMILES IDX 10 1 11 2 12 3 13 4 14 5 15 6 16 7 17 8 18 9 19 10 20 11
REMARK SMILES IDX 9 12 8 13 7 14 6 15 5 16 4 17 3 18 2 19 1 20
REMARK H PARENT
REMARK Flexibility Score: inf
ROOT
ATOM      1  C   UNL     1      -0.102  -0.553   0.170  1.00  0.00     0.000 C 
ENDROOT
BRANCH   1   2
ATOM      2  C   UNL     1      -0.202  -1.355  -1.141  1.00  0.00     0.000 C 
BRANCH   2   3
ATOM      3  C   UNL     1      -1.481  -1.109  -1.969  1.00  0.00     0.000 C 
BRANCH   3   4
ATOM      4  C   UNL     1      -2.703  -0.627  -1.167  1.00  0.00     0.000 C 
BRANCH   4   5
ATOM      5  C   UNL     1      -3.453  -1.777  -0.473  1.00  0.00     0.000 C 
BRANCH   5   6
ATOM      6  C   UNL     1      -3.257  -3.131  -1.178  1.00  0.00     0.000 C 
BRANCH   6   7
ATOM      7  C   UNL     1      -2.538  -4.211  -0.344  1.00  0.00     0.006 C 
BRANCH   7   8
ATOM      8  C   UNL     1      -2.480  -5.596  -1.007  1.00  0.00     0.053 C 
BRANCH   8   9
ATOM      9  C   UNL     1      -3.625  -6.466  -0.587  1.00  0.00     0.041 C 
ATOM     10  O   UNL     1      -3.536  -7.719  -0.677  1.00  0.00    -0.550 OA
ATOM     11  O   UNL     1      -4.777  -5.894  -0.064  1.00  0.00    -0.550 OA
ENDBRANCH   8   9
ENDBRANCH   7   8
ENDBRANCH   6   7
ENDBRANCH   5   6
ENDBRANCH   4   5
ENDBRANCH   3   4
ENDBRANCH   2   3
ENDBRANCH   1   2
BRANCH   1  12
ATOM     12  C   UNL     1       0.006   0.964  -0.065  1.00  0.00     0.000 C 
BRANCH  12  13
ATOM     13  C   UNL     1       0.421   1.308  -1.504  1.00  0.00    -0.000 C 
BRANCH  13  14
ATOM     14  C   UNL     1       1.792   0.721  -1.883  1.00  0.00    -0.000 C 
BRANCH  14  15
ATOM     15  C   UNL     1       2.909   1.154  -0.919  1.00  0.00    -0.000 C 
BRANCH  15  16
ATOM     16  C   UNL     1       3.294   2.633  -1.087  1.00  0.00    -0.000 C 
BRANCH  16  17
ATOM     17  C   UNL     1       2.644   3.535  -0.025  1.00  0.00    -0.000 C 
BRANCH  17  18
ATOM     18  C   UNL     1       1.870   4.714  -0.640  1.00  0.00    -0.000 C 
BRANCH  18  19
ATOM     19  C   UNL     1       2.741   5.968  -0.806  1.00  0.00    -0.003 C 
ATOM     20  C   UNL     1       4.062   5.874  -0.044  1.00  0.00     0.004 C 
ENDBRANCH  18  19
ENDBRANCH  17  18
ENDBRANCH  16  17
ENDBRANCH  15  16
ENDBRANCH  14  15
ENDBRANCH  13  14
ENDBRANCH  12  13
ENDBRANCH   1  12
TORSDOF 16
ENDMDL
MODEL 5
REMARK VINA RESULT:    -0.158      1.195      2.289
REMARK INTER + INTRA:          -0.526
REMARK INTER:                   0.847
REMARK INTRA:                  -1.373
REMARK UNBOUND:                -0.220
REMARK SMILES CCCCCCCCCCCCCCCCCC(=O)[O-]
REMARK SMILES IDX 10 1 11 2 12 3 13 4 14 5 15 6 16 7 17 8 18 9 19 10 20 11
REMARK SMILES IDX 9 12 8 13 7 14 6 15 5 16 4 17 3 18 2 19 1 20
REMARK H PARENT
REMARK Flexibility Score: inf
ROOT
ATOM      1  C   UNL     1      -1.263   0.509  -1.461  1.00  0.00     0.000 C 
ENDROOT
BRANCH   1   2
ATOM      2  C   UNL     1      -0.446   0.180  -0.198  1.00  0.00     0.000 C 
BRANCH   2   3
ATOM      3  C   UNL     1       1.011  -0.259  -0.452  1.00  0.00     0.000 C 
BRANCH   3   4
ATOM      4  C   UNL     1       1.486  -0.159  -1.913  1.00  0.00     0.000 C 
BRANCH   4   5
ATOM      5  C   UNL     1       2.252   1.141  -2.205  1.00  0.00     0.000 C 
BRANCH   5   6
ATOM      6  C   UNL     1       2.840   1.787  -0.937  1.00  0.00     0.000 C 
BRANCH   6   7
ATOM      7  C   UNL     1       2.305   3.195  -0.605  1.00  0.00     0.006 C 
BRANCH   7   8
ATOM      8  C   UNL     1       3.279   4.076   0.194  1.00  0.00     0.053 C 
BRANCH   8   9
ATOM      9  C   UNL     1       3.335   5.474  -0.339  1.00  0.00     0.041 C 
ATOM     10  O   UNL     1       2.380   5.932  -1.020  1.00  0.00    -0.550 OA
ATOM     11  O   UNL     1       4.427   6.284  -0.054  1.00  0.00    -0.550 OA
ENDBRANCH   8   9
ENDBRANCH   7   8
ENDBRANCH   6   7
ENDBRANCH   5   6
ENDBRANCH   4   5
ENDBRANCH   3   4
ENDBRANCH   2   3
ENDBRANCH   1   2
BRANCH   1  12
ATOM     12  C   UNL     1      -2.026  -0.708  -2.012  1.00  0.00     0.000 C 
BRANCH  12  13
ATOM     13  C   UNL     1      -2.892  -1.393  -0.943  1.00  0.00    -0.000 C 
BRANCH  13  14
ATOM     14  C   UNL     1      -3.366  -2.793  -1.371  1.00  0.00    -0.000 C 
BRANCH  14  15
ATOM     15  C   UNL     1      -3.752  -3.680  -0.176  1.00  0.00    -0.000 C 
BRANCH  15  16
ATOM     16  C   UNL     1      -3.406  -5.161  -0.405  1.00  0.00    -0.000 C 
BRANCH  16  17
ATOM     17  C   UNL     1      -2.007  -5.352  -1.015  1.00  0.00    -0.000 C 
BRANCH  17  18
ATOM     18  C   UNL     1      -0.881  -5.190   0.020  1.00  0.00    -0.000 C 
BRANCH  18  19
ATOM     19  C   UNL     1      -0.333  -3.755   0.074  1.00  0.00    -0.003 C 
ATOM     20  C   UNL     1       0.353  -3.336  -1.226  1.00  0.00     0.004 C 
ENDBRANCH  18  19
ENDBRANCH  17  18
ENDBRANCH  16  17
ENDBRANCH  15  16
ENDBRANCH  14  15
ENDBRANCH  13  14
ENDBRANCH  12  13
ENDBRANCH   1  12
TORSDOF 16
ENDMDL
MODEL 6
REMARK VINA RESULT:     0.316      4.650      9.453
REMARK INTER + INTRA:           0.391
REMARK INTER:                  -0.131
REMARK INTRA:                   0.522
REMARK UNBOUND:                -0.220
REMARK SMILES CCCCCCCCCCCCCCCCCC(=O)[O-]
REMARK SMILES IDX 10 1 11 2 12 3 13 4 14 5 15 6 16 7 17 8 18 9 19 10 20 11
REMARK SMILES IDX 9 12 8 13 7 14 6 15 5 16 4 17 3 18 2 19 1 20
REMARK H PARENT
REMARK Flexibility Score: inf
ROOT
ATOM      1  C   UNL     1       1.328  -0.807  -1.833  1.00  0.00     0.000 C 
ENDROOT
BRANCH   1   2
ATOM      2  C   UNL     1       0.505  -1.105  -0.566  1.00  0.00     0.000 C 
BRANCH   2   3
ATOM      3  C   UNL     1      -0.685  -0.156  -0.315  1.00  0.00     0.000 C 
BRANCH   3   4
ATOM      4  C   UNL     1      -1.499   0.229  -1.564  1.00  0.00     0.000 C 
BRANCH   4   5
ATOM      5  C   UNL     1      -2.234  -0.968  -2.189  1.00  0.00     0.000 C 
BRANCH   5   6
ATOM      6  C   UNL     1      -3.006  -1.805  -1.153  1.00  0.00     0.000 C 
BRANCH   6   7
ATOM      7  C   UNL     1      -2.533  -3.265  -1.001  1.00  0.00     0.006 C 
BRANCH   7   8
ATOM      8  C   UNL     1      -3.458  -4.150  -0.150  1.00  0.00     0.053 C 
BRANCH   8   9
ATOM      9  C   UNL     1      -3.389  -5.589  -0.560  1.00  0.00     0.041 C 
ATOM     10  O   UNL     1      -2.334  -6.055  -1.065  1.00  0.00    -0.550 OA
ATOM     11  O   UNL     1      -4.480  -6.423  -0.353  1.00  0.00    -0.550 OA
ENDBRANCH   8   9
ENDBRANCH   7   8
ENDBRANCH   6   7
ENDBRANCH   5   6
ENDBRANCH   4   5
ENDBRANCH   3   4
ENDBRANCH   2   3
ENDBRANCH   1   2
BRANCH   1  12
ATOM     12  C   UNL     1       1.622   0.693  -2.014  1.00  0.00     0.000 C 
BRANCH  12  13
ATOM     13  C   UNL     1       2.781   1.176  -1.129  1.00  0.00    -0.000 C 
BRANCH  13  14
ATOM     14  C   UNL     1       2.472   2.507  -0.420  1.00  0.00    -0.000 C 
BRANCH  14  15
ATOM     15  C   UNL     1       0.967   2.720  -0.190  1.00  0.00    -0.000 C 
BRANCH  15  16
ATOM     16  C   UNL     1       0.572   4.206  -0.217  1.00  0.00    -0.000 C 
BRANCH  16  17
ATOM     17  C   UNL     1       1.687   5.103  -0.778  1.00  0.00    -0.000 C 
BRANCH  17  18
ATOM     18  C   UNL     1       3.061   4.804  -0.152  1.00  0.00    -0.000 C 
BRANCH  18  19
ATOM     19  C   UNL     1       3.993   6.025  -0.167  1.00  0.00    -0.003 C 
ATOM     20  C   UNL     1       3.250   7.332  -0.441  1.00  0.00     0.004 C 
ENDBRANCH  18  19
ENDBRANCH  17  18
ENDBRANCH  16  17
ENDBRANCH  15  16
ENDBRANCH  14  15
ENDBRANCH  13  14
ENDBRANCH  12  13
ENDBRANCH   1  12
TORSDOF 16
ENDMDL
MODEL 7
REMARK VINA RESULT:     0.377      4.687      8.850
REMARK INTER + INTRA:           0.511
REMARK INTER:                   1.003
REMARK INTRA:                  -0.493
REMARK UNBOUND:                -0.220
REMARK SMILES CCCCCCCCCCCCCCCCCC(=O)[O-]
REMARK SMILES IDX 10 1 11 2 12 3 13 4 14 5 15 6 16 7 17 8 18 9 19 10 20 11
REMARK SMILES IDX 9 12 8 13 7 14 6 15 5 16 4 17 3 18 2 19 1 20
REMARK H PARENT
REMARK Flexibility Score: inf
ROOT
ATOM      1  C   UNL     1      -0.632   1.344  -0.619  1.00  0.00     0.000 C 
ENDROOT
BRANCH   1   2
ATOM      2  C   UNL     1      -0.311  -0.027   0.005  1.00  0.00     0.000 C 
BRANCH   2   3
ATOM      3  C   UNL     1      -0.480  -1.236  -0.939  1.00  0.00     0.000 C 
BRANCH   3   4
ATOM      4  C   UNL     1      -1.576  -1.091  -2.010  1.00  0.00     0.000 C 
BRANCH   4   5
ATOM      5  C   UNL     1      -2.954  -0.761  -1.412  1.00  0.00     0.000 C 
BRANCH   5   6
ATOM      6  C   UNL     1      -3.619  -1.974  -0.736  1.00  0.00     0.000 C 
BRANCH   6   7
ATOM      7  C   UNL     1      -2.980  -3.341  -1.056  1.00  0.00     0.006 C 
BRANCH   7   8
ATOM      8  C   UNL     1      -3.208  -4.419   0.015  1.00  0.00     0.053 C 
BRANCH   8   9
ATOM      9  C   UNL     1      -3.427  -5.771  -0.589  1.00  0.00     0.041 C 
ATOM     10  O   UNL     1      -2.547  -6.285  -1.328  1.00  0.00    -0.550 OA
ATOM     11  O   UNL     1      -4.588  -6.479  -0.307  1.00  0.00    -0.550 OA
ENDBRANCH   8   9
ENDBRANCH   7   8
ENDBRANCH   6   7
ENDBRANCH   5   6
ENDBRANCH   4   5
ENDBRANCH   3   4
ENDBRANCH   2   3
ENDBRANCH   1   2
BRANCH   1  12
ATOM     12  C   UNL     1       0.015   2.513   0.144  1.00  0.00     0.000 C 
BRANCH  12  13
ATOM     13  C   UNL     1       0.021   3.816  -0.671  1.00  0.00    -0.000 C 
BRANCH  13  14
ATOM     14  C   UNL     1       0.816   4.941   0.015  1.00  0.00    -0.000 C 
BRANCH  14  15
ATOM     15  C   UNL     1       2.195   5.168  -0.626  1.00  0.00    -0.000 C 
BRANCH  15  16
ATOM     16  C   UNL     1       3.213   4.083  -0.235  1.00  0.00    -0.000 C 
BRANCH  16  17
ATOM     17  C   UNL     1       3.179   2.873  -1.183  1.00  0.00    -0.000 C 
BRANCH  17  18
ATOM     18  C   UNL     1       3.346   1.534  -0.444  1.00  0.00    -0.000 C 
BRANCH  18  19
ATOM     19  C   UNL     1       2.715   0.359  -1.207  1.00  0.00    -0.003 C 
ATOM     20  C   UNL     1       2.006   0.798  -2.487  1.00  0.00     0.004 C 
ENDBRANCH  18  19
ENDBRANCH  17  18
ENDBRANCH  16  17
ENDBRANCH  15  16
ENDBRANCH  14  15
ENDBRANCH  13  14
ENDBRANCH  12  13
ENDBRANCH   1  12
TORSDOF 16
ENDMDL
MODEL 8
REMARK VINA RESULT:     0.553      1.715      2.755
REMARK INTER + INTRA:           0.850
REMARK INTER:                   1.136
REMARK INTRA:                  -0.286
REMARK UNBOUND:                -0.220
REMARK SMILES CCCCCCCCCCCCCCCCCC(=O)[O-]
REMARK SMILES IDX 10 1 11 2 12 3 13 4 14 5 15 6 16 7 17 8 18 9 19 10 20 11
REMARK SMILES IDX 9 12 8 13 7 14 6 15 5 16 4 17 3 18 2 19 1 20
REMARK H PARENT
REMARK Flexibility Score: inf
ROOT
ATOM      1  C   UNL     1       0.528  -0.340  -0.449  1.00  0.00     0.000 C 
ENDROOT
BRANCH   1   2
ATOM      2  C   UNL     1       0.446   1.055  -1.096  1.00  0.00     0.000 C 
BRANCH   2   3
ATOM      3  C   UNL     1      -0.340   2.110  -0.291  1.00  0.00     0.000 C 
BRANCH   3   4
ATOM      4  C   UNL     1      -0.276   3.546  -0.844  1.00  0.00     0.000 C 
BRANCH   4   5
ATOM      5  C   UNL     1       0.561   4.488   0.037  1.00  0.00     0.000 C 
BRANCH   5   6
ATOM      6  C   UNL     1       1.679   5.202  -0.744  1.00  0.00     0.000 C 
BRANCH   6   7
ATOM      7  C   UNL     1       3.116   4.798  -0.357  1.00  0.00     0.006 C 
BRANCH   7   8
ATOM      8  C   UNL     1       3.235   3.415   0.302  1.00  0.00     0.053 C 
BRANCH   8   9
ATOM      9  C   UNL     1       3.328   2.317  -0.711  1.00  0.00     0.041 C 
ATOM     10  O   UNL     1       3.048   2.542  -1.918  1.00  0.00    -0.550 OA
ATOM     11  O   UNL     1       3.757   1.052  -0.329  1.00  0.00    -0.550 OA
ENDBRANCH   8   9
ENDBRANCH   7   8
ENDBRANCH   6   7
ENDBRANCH   5   6
ENDBRANCH   4   5
ENDBRANCH   3   4
ENDBRANCH   2   3
ENDBRANCH   1   2
BRANCH   1  12
ATOM     12  C   UNL     1      -0.137  -1.434  -1.302  1.00  0.00     0.000 C 
BRANCH  12  13
ATOM     13  C   UNL     1      -1.488  -0.988  -1.883  1.00  0.00    -0.000 C 
BRANCH  13  14
ATOM     14  C   UNL     1      -2.500  -0.592  -0.793  1.00  0.00    -0.000 C 
BRANCH  14  15
ATOM     15  C   UNL     1      -3.629  -1.623  -0.630  1.00  0.00    -0.000 C 
BRANCH  15  16
ATOM     16  C   UNL     1      -3.291  -2.975  -1.282  1.00  0.00    -0.000 C 
BRANCH  16  17
ATOM     17  C   UNL     1      -3.378  -4.146  -0.288  1.00  0.00    -0.000 C 
BRANCH  17  18
ATOM     18  C   UNL     1      -2.656  -5.407  -0.793  1.00  0.00    -0.000 C 
BRANCH  18  19
ATOM     19  C   UNL     1      -1.128  -5.250  -0.794  1.00  0.00    -0.003 C 
ATOM     20  C   UNL     1      -0.648  -4.138   0.138  1.00  0.00     0.004 C 
ENDBRANCH  18  19
ENDBRANCH  17  18
ENDBRANCH  16  17
ENDBRANCH  15  16
ENDBRANCH  14  15
ENDBRANCH  13  14
ENDBRANCH  12  13
ENDBRANCH   1  12
TORSDOF 16
ENDMDL
MODEL 9
REMARK VINA RESULT:     0.581      1.370      2.094
REMARK INTER + INTRA:           0.906
REMARK INTER:                   0.371
REMARK INTRA:                   0.535
REMARK UNBOUND:                -0.220
REMARK SMILES CCCCCCCCCCCCCCCCCC(=O)[O-]
REMARK SMILES IDX 10 1 11 2 12 3 13 4 14 5 15 6 16 7 17 8 18 9 19 10 20 11
REMARK SMILES IDX 9 12 8 13 7 14 6 15 5 16 4 17 3 18 2 19 1 20
REMARK H PARENT
REMARK Flexibility Score: inf
ROOT
ATOM      1  C   UNL     1      -1.679   0.789  -1.801  1.00  0.00     0.000 C 
ENDROOT
BRANCH   1   2
ATOM      2  C   UNL     1      -0.584   1.141  -0.776  1.00  0.00     0.000 C 
BRANCH   2   3
ATOM      3  C   UNL     1       0.293  -0.043  -0.316  1.00  0.00     0.000 C 
BRANCH   3   4
ATOM      4  C   UNL     1       1.619  -0.218  -1.078  1.00  0.00     0.000 C 
BRANCH   4   5
ATOM      5  C   UNL     1       1.813   0.830  -2.186  1.00  0.00     0.000 C 
BRANCH   5   6
ATOM      6  C   UNL     1       2.839   1.915  -1.812  1.00  0.00     0.000 C 
BRANCH   6   7
ATOM      7  C   UNL     1       2.961   2.216  -0.304  1.00  0.00     0.006 C 
BRANCH   7   8
ATOM      8  C   UNL     1       3.298   3.677   0.031  1.00  0.00     0.053 C 
BRANCH   8   9
ATOM      9  C   UNL     1       2.213   4.615  -0.403  1.00  0.00     0.041 C 
ATOM     10  O   UNL     1       2.497   5.660  -1.045  1.00  0.00    -0.550 OA
ATOM     11  O   UNL     1       0.885   4.315  -0.128  1.00  0.00    -0.550 OA
ENDBRANCH   8   9
ENDBRANCH   7   8
ENDBRANCH   6   7
ENDBRANCH   5   6
ENDBRANCH   4   5
ENDBRANCH   3   4
ENDBRANCH   2   3
ENDBRANCH   1   2
BRANCH   1  12
ATOM     12  C   UNL     1      -1.743  -0.716  -2.112  1.00  0.00     0.000 C 
BRANCH  12  13
ATOM     13  C   UNL     1      -2.986  -1.389  -1.507  1.00  0.00    -0.000 C 
BRANCH  13  14
ATOM     14  C   UNL     1      -2.662  -2.733  -0.830  1.00  0.00    -0.000 C 
BRANCH  14  15
ATOM     15  C   UNL     1      -1.183  -2.854  -0.429  1.00  0.00    -0.000 C 
BRANCH  15  16
ATOM     16  C   UNL     1      -0.676  -4.306  -0.475  1.00  0.00    -0.000 C 
BRANCH  16  17
ATOM     17  C   UNL     1      -1.774  -5.300  -0.888  1.00  0.00    -0.000 C 
BRANCH  17  18
ATOM     18  C   UNL     1      -3.154  -4.933  -0.312  1.00  0.00    -0.000 C 
BRANCH  18  19
ATOM     19  C   UNL     1      -4.128  -6.121  -0.318  1.00  0.00    -0.003 C 
ATOM     20  C   UNL     1      -3.472  -7.420  -0.785  1.00  0.00     0.004 C 
ENDBRANCH  18  19
ENDBRANCH  17  18
ENDBRANCH  16  17
ENDBRANCH  15  16
ENDBRANCH  14  15
ENDBRANCH  13  14
ENDBRANCH  12  13
ENDBRANCH   1  12
TORSDOF 16
ENDMDL
