MODEL 1
REMARK VINA RESULT:     0.318      0.000      0.000
REMARK INTER + INTRA:           3.394
REMARK INTER:                   0.578
REMARK INTRA:                   2.815
REMARK UNBOUND:                 2.815
REMARK SMILES CCCCCCCCCCCCCCCC(=O)[O-]
REMARK SMILES IDX 9 1 10 2 11 3 12 4 13 5 14 6 15 7 16 8 17 9 18 10 8 11 7 12
REMARK SMILES IDX 6 13 5 14 4 15 3 16 2 17 1 18
REMARK H PARENT
REMARK Flexibility Score: inf
ROOT
ATOM      1  C   UNL     1     -29.240 -19.808 -24.168  1.00  0.00     0.000 C 
ENDROOT
BRANCH   1   2
ATOM      2  C   UNL     1     -28.315 -21.032 -24.228  1.00  0.00     0.000 C 
BRANCH   2   3
ATOM      3  C   UNL     1     -27.751 -21.423 -22.850  1.00  0.00     0.000 C 
BRANCH   3   4
ATOM      4  C   UNL     1     -28.801 -21.546 -21.728  1.00  0.00     0.000 C 
BRANCH   4   5
ATOM      5  C   UNL     1     -28.269 -22.102 -20.392  1.00  0.00     0.000 C 
BRANCH   5   6
ATOM      6  C   UNL     1     -29.237 -21.964 -19.201  1.00  0.00     0.006 C 
BRANCH   6   7
ATOM      7  C   UNL     1     -28.538 -22.125 -17.845  1.00  0.00     0.053 C 
BRANCH   7   8
ATOM      8  C   UNL     1     -27.174 -21.512 -17.886  1.00  0.00     0.041 C 
ATOM      9  O   UNL     1     -26.210 -22.071 -17.298  1.00  0.00    -0.550 OA
ATOM     10  O   UNL     1     -26.976 -20.299 -18.532  1.00  0.00    -0.550 OA
ENDBRANCH   7   8
ENDBRANCH   6   7
ENDBRANCH   5   6
ENDBRANCH   4   5
ENDBRANCH   3   4
ENDBRANCH   2   3
ENDBRANCH   1   2
BRANCH   1  11
ATOM     11  C   UNL     1     -29.902 -19.553 -25.527  1.00  0.00     0.000 C 
BRANCH  11  12
ATOM     12  C   UNL     1     -30.098 -20.863 -26.299  1.00  0.00    -0.000 C 
BRANCH  12  13
ATOM     13  C   UNL     1     -31.142 -21.755 -25.617  1.00  0.00    -0.000 C 
BRANCH  13  14
ATOM     14  C   UNL     1     -31.794 -21.028 -24.430  1.00  0.00    -0.000 C 
BRANCH  14  15
ATOM     15  C   UNL     1     -31.508 -21.714 -23.084  1.00  0.00    -0.000 C 
BRANCH  15  16
ATOM     16  C   UNL     1     -32.110 -20.951 -21.892  1.00  0.00    -0.000 C 
BRANCH  16  17
ATOM     17  C   UNL     1     -32.354 -19.466 -22.207  1.00  0.00    -0.003 C 
ATOM     18  C   UNL     1     -32.820 -19.234 -23.644  1.00  0.00     0.004 C 
ENDBRANCH  16  17
ENDBRANCH  15  16
ENDBRANCH  14  15
ENDBRANCH  13  14
ENDBRANCH  12  13
ENDBRANCH  11  12
ENDBRANCH   1  11
TORSDOF 14
ENDMDL
MODEL 2
REMARK VINA RESULT:     0.388      1.971      2.624
REMARK INTER + INTRA:           3.520
REMARK INTER:                   2.991
REMARK INTRA:                   0.529
REMARK UNBOUND:                 2.815
REMARK SMILES CCCCCCCCCCCCCCCC(=O)[O-]
REMARK SMILES IDX 9 1 10 2 11 3 12 4 13 5 14 6 15 7 16 8 17 9 18 10 8 11 7 12
REMARK SMILES IDX 6 13 5 14 4 15 3 16 2 17 1 18
REMARK H PARENT
REMARK Flexibility Score: inf
ROOT
ATOM      1  C   UNL     1     -27.811 -20.901 -23.642  1.00  0.00     0.000 C 
ENDROOT
BRANCH   1   2
ATOM      2  C   UNL     1     -27.527 -21.952 -22.560  1.00  0.00     0.000 C 
BRANCH   2   3
ATOM      3  C   UNL     1     -28.695 -22.125 -21.573  1.00  0.00     0.000 C 
BRANCH   3   4
ATOM      4  C   UNL     1     -28.299 -22.100 -20.084  1.00  0.00     0.000 C 
BRANCH   4   5
ATOM      5  C   UNL     1     -29.408 -21.639 -19.118  1.00  0.00     0.000 C 
BRANCH   5   6
ATOM      6  C   UNL     1     -29.150 -21.958 -17.633  1.00  0.00     0.006 C 
BRANCH   6   7
ATOM      7  C   UNL     1     -30.445 -22.107 -16.823  1.00  0.00     0.053 C 
BRANCH   7   8
ATOM      8  C   UNL     1     -30.160 -21.992 -15.360  1.00  0.00     0.041 C 
ATOM      9  O   UNL     1     -28.983 -22.124 -14.931  1.00  0.00    -0.550 OA
ATOM     10  O   UNL     1     -31.200 -21.790 -14.462  1.00  0.00    -0.550 OA
ENDBRANCH   7   8
ENDBRANCH   6   7
ENDBRANCH   5   6
ENDBRANCH   4   5
ENDBRANCH   3   4
ENDBRANCH   2   3
ENDBRANCH   1   2
BRANCH   1  11
ATOM     11  C   UNL     1     -29.317 -20.768 -23.896  1.00  0.00     0.000 C 
BRANCH  11  12
ATOM     12  C   UNL     1     -29.883 -22.041 -24.535  1.00  0.00    -0.000 C 
BRANCH  12  13
ATOM     13  C   UNL     1     -30.940 -21.703 -25.594  1.00  0.00    -0.000 C 
BRANCH  13  14
ATOM     14  C   UNL     1     -30.927 -20.203 -25.925  1.00  0.00    -0.000 C 
BRANCH  14  15
ATOM     15  C   UNL     1     -31.161 -19.320 -24.688  1.00  0.00    -0.000 C 
BRANCH  15  16
ATOM     16  C   UNL     1     -32.548 -19.535 -24.062  1.00  0.00    -0.000 C 
BRANCH  16  17
ATOM     17  C   UNL     1     -32.526 -19.420 -22.529  1.00  0.00    -0.003 C 
ATOM     18  C   UNL     1     -32.128 -20.727 -21.842  1.00  0.00     0.004 C 
ENDBRANCH  16  17
ENDBRANCH  15  16
ENDBRANCH  14  15
ENDBRANCH  13  14
ENDBRANCH  12  13
ENDBRANCH  11  12
ENDBRANCH   1  11
TORSDOF 14
ENDMDL
MODEL 3
REMARK VINA RESULT:     0.409      2.109      5.914
REMARK INTER + INTRA:           3.558
REMARK INTER:                   4.160
REMARK INTRA:                  -0.601
REMARK UNBOUND:                 2.815
REMARK SMILES CCCCCCCCCCCCCCCC(=O)[O-]
REMARK SMILES IDX 9 1 10 2 11 3 12 4 13 5 14 6 15 7 16 8 17 9 18 10 8 11 7 12
REMARK SMILES IDX 6 13 5 14 4 15 3 16 2 17 1 18
REMARK H PARENT
REMARK Flexibility Score: inf
ROOT
ATOM      1  C   UNL     1     -32.088 -19.514 -21.832  1.00  0.00     0.000 C 
ENDROOT
BRANCH   1   2
ATOM      2  C   UNL     1     -32.083 -18.649 -23.101  1.00  0.00     0.000 C 
BRANCH   2   3
ATOM      3  C   UNL     1     -32.092 -19.484 -24.394  1.00  0.00     0.000 C 
BRANCH   3   4
ATOM      4  C   UNL     1     -30.868 -19.280 -25.308  1.00  0.00     0.000 C 
BRANCH   4   5
ATOM      5  C   UNL     1     -30.690 -20.341 -26.412  1.00  0.00     0.000 C 
BRANCH   5   6
ATOM      6  C   UNL     1     -29.607 -21.398 -26.129  1.00  0.00     0.006 C 
BRANCH   6   7
ATOM      7  C   UNL     1     -29.569 -21.831 -24.657  1.00  0.00     0.053 C 
BRANCH   7   8
ATOM      8  C   UNL     1     -28.388 -21.227 -23.966  1.00  0.00     0.041 C 
ATOM      9  O   UNL     1     -28.039 -20.044 -24.225  1.00  0.00    -0.550 OA
ATOM     10  O   UNL     1     -27.642 -21.985 -23.073  1.00  0.00    -0.550 OA
ENDBRANCH   7   8
ENDBRANCH   6   7
ENDBRANCH   5   6
ENDBRANCH   4   5
ENDBRANCH   3   4
ENDBRANCH   2   3
ENDBRANCH   1   2
BRANCH   1  11
ATOM     11  C   UNL     1     -32.639 -20.915 -22.125  1.00  0.00     0.000 C 
BRANCH  11  12
ATOM     12  C   UNL     1     -31.554 -21.983 -21.942  1.00  0.00    -0.000 C 
BRANCH  12  13
ATOM     13  C   UNL     1     -31.049 -22.013 -20.494  1.00  0.00    -0.000 C 
BRANCH  13  14
ATOM     14  C   UNL     1     -29.513 -22.053 -20.449  1.00  0.00    -0.000 C 
BRANCH  14  15
ATOM     15  C   UNL     1     -28.958 -21.965 -19.018  1.00  0.00    -0.000 C 
BRANCH  15  16
ATOM     16  C   UNL     1     -27.427 -21.827 -18.985  1.00  0.00    -0.000 C 
BRANCH  16  17
ATOM     17  C   UNL     1     -26.840 -22.125 -17.596  1.00  0.00    -0.003 C 
ATOM     18  C   UNL     1     -27.897 -22.123 -16.492  1.00  0.00     0.004 C 
ENDBRANCH  16  17
ENDBRANCH  15  16
ENDBRANCH  14  15
ENDBRANCH  13  14
ENDBRANCH  12  13
ENDBRANCH  11  12
ENDBRANCH   1  11
TORSDOF 14
ENDMDL
MODEL 4
REMARK VINA RESULT:     0.457      2.288      5.598
REMARK INTER + INTRA:           3.646
REMARK INTER:                   1.215
REMARK INTRA:                   2.431
REMARK UNBOUND:                 2.815
REMARK SMILES CCCCCCCCCCCCCCCC(=O)[O-]
REMARK SMILES IDX 9 1 10 2 11 3 12 4 13 5 14 6 15 7 16 8 17 9 18 10 8 11 7 12
REMARK SMILES IDX 6 13 5 14 4 15 3 16 2 17 1 18
REMARK H PARENT
REMARK Flexibility Score: inf
ROOT
ATOM      1  C   UNL     1     -29.128 -19.708 -24.381  1.00  0.00     0.000 C 
ENDROOT
BRANCH   1   2
ATOM      2  C   UNL     1     -30.110 -19.341 -25.502  1.00  0.00     0.000 C 
BRANCH   2   3
ATOM      3  C   UNL     1     -29.972 -20.246 -26.739  1.00  0.00     0.000 C 
BRANCH   3   4
ATOM      4  C   UNL     1     -30.304 -21.731 -26.499  1.00  0.00     0.000 C 
BRANCH   4   5
ATOM      5  C   UNL     1     -31.563 -21.993 -25.649  1.00  0.00     0.000 C 
BRANCH   5   6
ATOM      6  C   UNL     1     -31.439 -21.595 -24.166  1.00  0.00     0.006 C 
BRANCH   6   7
ATOM      7  C   UNL     1     -32.299 -20.378 -23.803  1.00  0.00     0.053 C 
BRANCH   7   8
ATOM      8  C   UNL     1     -32.207 -20.094 -22.337  1.00  0.00     0.041 C 
ATOM      9  O   UNL     1     -32.414 -18.929 -21.904  1.00  0.00    -0.550 OA
ATOM     10  O   UNL     1     -31.845 -21.103 -21.454  1.00  0.00    -0.550 OA
ENDBRANCH   7   8
ENDBRANCH   6   7
ENDBRANCH   5   6
ENDBRANCH   4   5
ENDBRANCH   3   4
ENDBRANCH   2   3
ENDBRANCH   1   2
BRANCH   1  11
ATOM     11  C   UNL     1     -28.535 -21.104 -24.606  1.00  0.00     0.000 C 
BRANCH  11  12
ATOM     12  C   UNL     1     -27.785 -21.591 -23.361  1.00  0.00    -0.000 C 
BRANCH  12  13
ATOM     13  C   UNL     1     -28.763 -21.984 -22.247  1.00  0.00    -0.000 C 
BRANCH  13  14
ATOM     14  C   UNL     1     -28.100 -21.867 -20.866  1.00  0.00    -0.000 C 
BRANCH  14  15
ATOM     15  C   UNL     1     -28.524 -20.598 -20.109  1.00  0.00    -0.000 C 
BRANCH  15  16
ATOM     16  C   UNL     1     -28.234 -20.684 -18.601  1.00  0.00    -0.000 C 
BRANCH  16  17
ATOM     17  C   UNL     1     -27.814 -22.096 -18.163  1.00  0.00    -0.003 C 
ATOM     18  C   UNL     1     -26.441 -22.125 -17.492  1.00  0.00     0.004 C 
ENDBRANCH  16  17
ENDBRANCH  15  16
ENDBRANCH  14  15
ENDBRANCH  13  14
ENDBRANCH  12  13
ENDBRANCH  11  12
ENDBRANCH   1  11
TORSDOF 14
ENDMDL
MODEL 5
REMARK VINA RESULT:     0.492      2.786      3.853
REMARK INTER + INTRA:           3.710
REMARK INTER:                   4.490
REMARK INTRA:                  -0.780
REMARK UNBOUND:                 2.815
REMARK SMILES CCCCCCCCCCCCCCCC(=O)[O-]
REMARK SMILES IDX 9 1 10 2 11 3 12 4 13 5 14 6 15 7 16 8 17 9 18 10 8 11 7 12
REMARK SMILES IDX 6 13 5 14 4 15 3 16 2 17 1 18
REMARK H PARENT
REMARK Flexibility Score: inf
ROOT
ATOM      1  C   UNL     1     -28.710 -21.388 -21.229  1.00  0.00     0.000 C 
ENDROOT
BRANCH   1   2
ATOM      2  C   UNL     1     -27.921 -22.116 -20.131  1.00  0.00     0.000 C 
BRANCH   2   3
ATOM      3  C   UNL     1     -27.822 -21.305 -18.828  1.00  0.00     0.000 C 
BRANCH   3   4
ATOM      4  C   UNL     1     -27.998 -22.125 -17.535  1.00  0.00     0.000 C 
BRANCH   4   5
ATOM      5  C   UNL     1     -29.410 -22.082 -16.918  1.00  0.00     0.000 C 
BRANCH   5   6
ATOM      6  C   UNL     1     -29.448 -21.848 -15.397  1.00  0.00     0.006 C 
BRANCH   6   7
ATOM      7  C   UNL     1     -30.836 -22.092 -14.791  1.00  0.00     0.053 C 
BRANCH   7   8
ATOM      8  C   UNL     1     -31.412 -20.811 -14.275  1.00  0.00     0.041 C 
ATOM      9  O   UNL     1     -32.594 -20.486 -14.565  1.00  0.00    -0.550 OA
ATOM     10  O   UNL     1     -30.628 -19.953 -13.515  1.00  0.00    -0.550 OA
ENDBRANCH   7   8
ENDBRANCH   6   7
ENDBRANCH   5   6
ENDBRANCH   4   5
ENDBRANCH   3   4
ENDBRANCH   2   3
ENDBRANCH   1   2
BRANCH   1  11
ATOM     11  C   UNL     1     -27.880 -21.265 -22.512  1.00  0.00     0.000 C 
BRANCH  11  12
ATOM     12  C   UNL     1     -28.661 -21.782 -23.725  1.00  0.00    -0.000 C 
BRANCH  12  13
ATOM     13  C   UNL     1     -29.558 -20.685 -24.312  1.00  0.00    -0.000 C 
BRANCH  13  14
ATOM     14  C   UNL     1     -30.757 -21.294 -25.055  1.00  0.00    -0.000 C 
BRANCH  14  15
ATOM     15  C   UNL     1     -31.959 -21.553 -24.132  1.00  0.00    -0.000 C 
BRANCH  15  16
ATOM     16  C   UNL     1     -31.979 -20.617 -22.912  1.00  0.00    -0.000 C 
BRANCH  16  17
ATOM     17  C   UNL     1     -32.679 -19.281 -23.207  1.00  0.00    -0.003 C 
ATOM     18  C   UNL     1     -32.356 -18.202 -22.173  1.00  0.00     0.004 C 
ENDBRANCH  16  17
ENDBRANCH  15  16
ENDBRANCH  14  15
ENDBRANCH  13  14
ENDBRANCH  12  13
ENDBRANCH  11  12
ENDBRANCH   1  11
TORSDOF 14
ENDMDL
MODEL 6
REMARK VINA RESULT:     1.327      2.122      5.141
REMARK INTER + INTRA:           5.229
REMARK INTER:                   3.800
REMARK INTRA:                   1.429
REMARK UNBOUND:                 2.815
REMARK SMILES CCCCCCCCCCCCCCCC(=O)[O-]
REMARK SMILES IDX 9 1 10 2 11 3 12 4 13 5 14 6 15 7 16 8 17 9 18 10 8 11 7 12
REMARK SMILES IDX 6 13 5 14 4 15 3 16 2 17 1 18
REMARK H PARENT
REMARK Flexibility Score: inf
ROOT
ATOM      1  C   UNL     1     -31.007 -21.724 -25.659  1.00  0.00     0.000 C 
ENDROOT
BRANCH   1   2
ATOM      2  C   UNL     1     -30.652 -20.502 -26.517  1.00  0.00     0.000 C 
BRANCH   2   3
ATOM      3  C   UNL     1     -31.080 -19.172 -25.870  1.00  0.00     0.000 C 
BRANCH   3   4
ATOM      4  C   UNL     1     -31.197 -19.204 -24.334  1.00  0.00     0.000 C 
BRANCH   4   5
ATOM      5  C   UNL     1     -32.410 -18.451 -23.753  1.00  0.00     0.000 C 
BRANCH   5   6
ATOM      6  C   UNL     1     -33.126 -19.170 -22.594  1.00  0.00     0.006 C 
BRANCH   6   7
ATOM      7  C   UNL     1     -32.791 -20.665 -22.524  1.00  0.00     0.053 C 
BRANCH   7   8
ATOM      8  C   UNL     1     -31.602 -20.892 -21.646  1.00  0.00     0.041 C 
ATOM      9  O   UNL     1     -30.733 -19.990 -21.510  1.00  0.00    -0.550 OA
ATOM     10  O   UNL     1     -31.425 -22.118 -21.017  1.00  0.00    -0.550 OA
ENDBRANCH   7   8
ENDBRANCH   6   7
ENDBRANCH   5   6
ENDBRANCH   4   5
ENDBRANCH   3   4
ENDBRANCH   2   3
ENDBRANCH   1   2
BRANCH   1  11
ATOM     11  C   UNL     1     -30.009 -21.896 -24.508  1.00  0.00     0.000 C 
BRANCH  11  12
ATOM     12  C   UNL     1     -28.881 -20.861 -24.598  1.00  0.00    -0.000 C 
BRANCH  12  13
ATOM     13  C   UNL     1     -27.948 -20.956 -23.384  1.00  0.00    -0.000 C 
BRANCH  13  14
ATOM     14  C   UNL     1     -28.351 -22.125 -22.472  1.00  0.00    -0.000 C 
BRANCH  14  15
ATOM     15  C   UNL     1     -27.617 -22.104 -21.121  1.00  0.00    -0.000 C 
BRANCH  15  16
ATOM     16  C   UNL     1     -28.502 -21.586 -19.975  1.00  0.00    -0.000 C 
BRANCH  16  17
ATOM     17  C   UNL     1     -27.686 -20.915 -18.858  1.00  0.00    -0.003 C 
ATOM     18  C   UNL     1     -27.138 -21.917 -17.841  1.00  0.00     0.004 C 
ENDBRANCH  16  17
ENDBRANCH  15  16
ENDBRANCH  14  15
ENDBRANCH  13  14
ENDBRANCH  12  13
ENDBRANCH  11  12
ENDBRANCH   1  11
TORSDOF 14
ENDMDL
MODEL 7
REMARK VINA RESULT:     1.607      3.096      6.746
REMARK INTER + INTRA:           5.738
REMARK INTER:                   5.698
REMARK INTRA:                   0.040
REMARK UNBOUND:                 2.815
REMARK SMILES CCCCCCCCCCCCCCCC(=O)[O-]
REMARK SMILES IDX 9 1 10 2 11 3 12 4 13 5 14 6 15 7 16 8 17 9 18 10 8 11 7 12
REMARK SMILES IDX 6 13 5 14 4 15 3 16 2 17 1 18
REMARK H PARENT
REMARK Flexibility Score: inf
ROOT
ATOM      1  C   UNL     1     -28.572 -21.274 -21.274  1.00  0.00     0.000 C 
ENDROOT
BRANCH   1   2
ATOM      2  C   UNL     1     -29.419 -21.682 -22.487  1.00  0.00     0.000 C 
BRANCH   2   3
ATOM      3  C   UNL     1     -28.644 -21.598 -23.813  1.00  0.00     0.000 C 
BRANCH   3   4
ATOM      4  C   UNL     1     -28.697 -20.226 -24.512  1.00  0.00     0.000 C 
BRANCH   4   5
ATOM      5  C   UNL     1     -30.082 -19.819 -25.055  1.00  0.00     0.000 C 
BRANCH   5   6
ATOM      6  C   UNL     1     -31.263 -20.633 -24.494  1.00  0.00     0.006 C 
BRANCH   6   7
ATOM      7  C   UNL     1     -32.406 -19.746 -23.984  1.00  0.00     0.053 C 
BRANCH   7   8
ATOM      8  C   UNL     1     -32.441 -19.749 -22.489  1.00  0.00     0.041 C 
ATOM      9  O   UNL     1     -32.355 -20.834 -21.855  1.00  0.00    -0.550 OA
ATOM     10  O   UNL     1     -32.617 -18.559 -21.795  1.00  0.00    -0.550 OA
ENDBRANCH   7   8
ENDBRANCH   6   7
ENDBRANCH   5   6
ENDBRANCH   4   5
ENDBRANCH   3   4
ENDBRANCH   2   3
ENDBRANCH   1   2
BRANCH   1  11
ATOM     11  C   UNL     1     -28.959 -22.088 -20.034  1.00  0.00     0.000 C 
BRANCH  11  12
ATOM     12  C   UNL     1     -27.848 -22.047 -18.979  1.00  0.00    -0.000 C 
BRANCH  12  13
ATOM     13  C   UNL     1     -28.273 -21.217 -17.761  1.00  0.00    -0.000 C 
BRANCH  13  14
ATOM     14  C   UNL     1     -28.835 -22.117 -16.650  1.00  0.00    -0.000 C 
BRANCH  14  15
ATOM     15  C   UNL     1     -30.320 -21.848 -16.360  1.00  0.00    -0.000 C 
BRANCH  15  16
ATOM     16  C   UNL     1     -30.639 -21.853 -14.856  1.00  0.00    -0.000 C 
BRANCH  16  17
ATOM     17  C   UNL     1     -31.849 -20.971 -14.508  1.00  0.00    -0.003 C 
ATOM     18  C   UNL     1     -31.734 -20.324 -13.127  1.00  0.00     0.004 C 
ENDBRANCH  16  17
ENDBRANCH  15  16
ENDBRANCH  14  15
ENDBRANCH  13  14
ENDBRANCH  12  13
ENDBRANCH  11  12
ENDBRANCH   1  11
TORSDOF 14
ENDMDL
MODEL 8
REMARK VINA RESULT:     2.662      2.595      6.082
REMARK INTER + INTRA:           7.657
REMARK INTER:                   5.672
REMARK INTRA:                   1.985
REMARK UNBOUND:                 2.815
REMARK SMILES CCCCCCCCCCCCCCCC(=O)[O-]
REMARK SMILES IDX 9 1 10 2 11 3 12 4 13 5 14 6 15 7 16 8 17 9 18 10 8 11 7 12
REMARK SMILES IDX 6 13 5 14 4 15 3 16 2 17 1 18
REMARK H PARENT
REMARK Flexibility Score: inf
ROOT
ATOM      1  C   UNL     1     -30.495 -21.241 -23.842  1.00  0.00     0.000 C 
ENDROOT
BRANCH   1   2
ATOM      2  C   UNL     1     -30.346 -22.080 -25.119  1.00  0.00     0.000 C 
BRANCH   2   3
ATOM      3  C   UNL     1     -30.609 -21.270 -26.401  1.00  0.00     0.000 C 
BRANCH   3   4
ATOM      4  C   UNL     1     -30.246 -19.775 -26.312  1.00  0.00     0.000 C 
BRANCH   4   5
ATOM      5  C   UNL     1     -30.520 -19.114 -24.946  1.00  0.00     0.000 C 
BRANCH   5   6
ATOM      6  C   UNL     1     -31.969 -19.243 -24.442  1.00  0.00     0.006 C 
BRANCH   6   7
ATOM      7  C   UNL     1     -32.297 -18.254 -23.315  1.00  0.00     0.053 C 
BRANCH   7   8
ATOM      8  C   UNL     1     -32.776 -18.985 -22.102  1.00  0.00     0.041 C 
ATOM      9  O   UNL     1     -32.289 -18.723 -20.971  1.00  0.00    -0.550 OA
ATOM     10  O   UNL     1     -33.725 -19.992 -22.227  1.00  0.00    -0.550 OA
ENDBRANCH   7   8
ENDBRANCH   6   7
ENDBRANCH   5   6
ENDBRANCH   4   5
ENDBRANCH   3   4
ENDBRANCH   2   3
ENDBRANCH   1   2
BRANCH   1  11
ATOM     11  C   UNL     1     -30.911 -22.117 -22.655  1.00  0.00     0.000 C 
BRANCH  11  12
ATOM     12  C   UNL     1     -30.216 -21.665 -21.366  1.00  0.00    -0.000 C 
BRANCH  12  13
ATOM     13  C   UNL     1     -28.792 -21.173 -21.651  1.00  0.00    -0.000 C 
BRANCH  13  14
ATOM     14  C   UNL     1     -27.849 -21.513 -20.486  1.00  0.00    -0.000 C 
BRANCH  14  15
ATOM     15  C   UNL     1     -28.588 -22.119 -19.282  1.00  0.00    -0.000 C 
BRANCH  15  16
ATOM     16  C   UNL     1     -28.247 -21.410 -17.961  1.00  0.00    -0.000 C 
BRANCH  16  17
ATOM     17  C   UNL     1     -27.093 -22.092 -17.208  1.00  0.00    -0.003 C 
ATOM     18  C   UNL     1     -25.795 -22.125 -18.016  1.00  0.00     0.004 C 
ENDBRANCH  16  17
ENDBRANCH  15  16
ENDBRANCH  14  15
ENDBRANCH  13  14
ENDBRANCH  12  13
ENDBRANCH  11  12
ENDBRANCH   1  11
TORSDOF 14
ENDMDL
