MODEL 1
REMARK VINA RESULT:     4.895      0.000      0.000
REMARK INTER + INTRA:           7.623
REMARK INTER:                   6.755
REMARK INTRA:                   0.867
REMARK UNBOUND:                 0.867
REMARK SMILES CC[C@@H](CC[C@H](C)[C@H]1CC[C@@H]2C3=CC[C@@H]4C[C@H](O)CC[C@]4(C)[C@H]3CC[C@@]21C)C(C)C
REMARK SMILES IDX 5 1 4 2 3 3 2 4 1 5 28 6 29 7 30 8 6 9 7 10 8 11 9 12 26 13
REMARK SMILES IDX 10 14 11 15 25 16 27 17 12 18 24 19 23 20 13 21 21 22 14 23
REMARK SMILES IDX 15 24 20 25 22 26 16 27 19 28 17 29 18 30
REMARK H PARENT 18 31
REMARK Flexibility Score: inf
ROOT
ATOM      1  C   UNL     1     135.139 121.816 139.003  1.00  0.00     0.004 C 
ENDROOT
BRANCH   1   2
ATOM      2  C   UNL     1     136.513 122.119 138.362  1.00  0.00     0.004 C 
BRANCH   2   3
ATOM      3  C   UNL     1     137.394 123.109 139.187  1.00  0.00    -0.009 C 
BRANCH   3   4
ATOM      4  C   UNL     1     138.197 124.065 138.263  1.00  0.00     0.000 C 
ATOM      5  C   UNL     1     138.751 123.369 137.018  1.00  0.00     0.004 C 
ENDBRANCH   3   4
BRANCH   3   6
ATOM      6  C   UNL     1     138.345 122.406 140.212  1.00  0.00    -0.014 C 
ATOM      7  C   UNL     1     139.411 123.357 140.772  1.00  0.00     0.007 C 
ATOM      8  C   UNL     1     137.615 121.690 141.365  1.00  0.00     0.007 C 
ENDBRANCH   3   6
ENDBRANCH   2   3
ENDBRANCH   1   2
BRANCH   1   9
ATOM      9  C   UNL     1     134.174 123.042 139.046  1.00  0.00    -0.011 C 
ATOM     10  C   UNL     1     134.555 124.122 138.012  1.00  0.00     0.008 C 
BRANCH   9  11
ATOM     11  C   UNL     1     133.902 123.637 140.477  1.00  0.00    -0.002 C 
ATOM     12  C   UNL     1     133.488 122.525 141.474  1.00  0.00     0.005 C 
ATOM     13  C   UNL     1     134.993 124.501 141.220  1.00  0.00    -0.023 C 
ATOM     14  C   UNL     1     134.309 122.708 142.746  1.00  0.00     0.009 C 
ATOM     15  C   UNL     1     135.507 123.556 142.337  1.00  0.00     0.021 C 
ATOM     16  C   UNL     1     134.294 125.774 141.831  1.00  0.00     0.008 C 
ATOM     17  C   UNL     1     136.176 124.979 140.343  1.00  0.00     0.012 C 
ATOM     18  C   UNL     1     136.155 124.329 143.474  1.00  0.00    -0.067 C 
ATOM     19  C   UNL     1     135.075 126.470 142.971  1.00  0.00     0.009 C 
ATOM     20  C   UNL     1     135.360 125.457 144.099  1.00  0.00     0.021 C 
ATOM     21  C   UNL     1     137.497 124.348 143.550  1.00  0.00    -0.027 C 
ATOM     22  C   UNL     1     136.007 125.992 145.448  1.00  0.00    -0.023 C 
ATOM     23  C   UNL     1     138.207 125.551 144.087  1.00  0.00     0.031 C 
ATOM     24  C   UNL     1     137.596 126.046 145.408  1.00  0.00     0.002 C 
ATOM     25  C   UNL     1     135.531 125.022 146.582  1.00  0.00     0.010 C 
ATOM     26  C   UNL     1     135.454 127.404 145.776  1.00  0.00     0.012 C 
ATOM     27  C   UNL     1     138.276 125.310 146.589  1.00  0.00     0.036 C 
ATOM     28  C   UNL     1     136.143 125.302 147.968  1.00  0.00     0.032 C 
ATOM     29  C   UNL     1     137.631 125.700 147.922  1.00  0.00     0.114 C 
BRANCH  29  30
ATOM     30  O   UNL     1     138.311 125.079 148.982  1.00  0.00    -0.393 OA
ATOM     31  H   UNL     1     138.916 125.761 149.377  1.00  0.00     0.210 HD
ENDBRANCH  29  30
ENDBRANCH   9  11
ENDBRANCH   1   9
TORSDOF 7
ENDMDL
MODEL 2
REMARK VINA RESULT:     5.867      0.389      1.481
REMARK INTER + INTRA:           8.964
REMARK INTER:                   8.177
REMARK INTRA:                   0.787
REMARK UNBOUND:                 0.867
REMARK SMILES CC[C@@H](CC[C@H](C)[C@H]1CC[C@@H]2C3=CC[C@@H]4C[C@H](O)CC[C@]4(C)[C@H]3CC[C@@]21C)C(C)C
REMARK SMILES IDX 5 1 4 2 3 3 2 4 1 5 28 6 29 7 30 8 6 9 7 10 8 11 9 12 26 13
REMARK SMILES IDX 10 14 11 15 25 16 27 17 12 18 24 19 23 20 13 21 21 22 14 23
REMARK SMILES IDX 15 24 20 25 22 26 16 27 19 28 17 29 18 30
REMARK H PARENT 18 31
REMARK Flexibility Score: inf
ROOT
ATOM      1  C   UNL     1     135.226 121.885 139.028  1.00  0.00     0.004 C 
ENDROOT
BRANCH   1   2
ATOM      2  C   UNL     1     136.318 122.208 137.982  1.00  0.00     0.004 C 
BRANCH   2   3
ATOM      3  C   UNL     1     137.733 122.454 138.597  1.00  0.00    -0.009 C 
BRANCH   3   4
ATOM      4  C   UNL     1     137.723 122.278 140.139  1.00  0.00     0.000 C 
ATOM      5  C   UNL     1     138.930 122.921 140.824  1.00  0.00     0.004 C 
ENDBRANCH   3   4
BRANCH   3   6
ATOM      6  C   UNL     1     138.360 123.834 138.204  1.00  0.00    -0.014 C 
ATOM      7  C   UNL     1     139.108 123.778 136.865  1.00  0.00     0.007 C 
ATOM      8  C   UNL     1     137.361 125.007 138.206  1.00  0.00     0.007 C 
ENDBRANCH   3   6
ENDBRANCH   2   3
ENDBRANCH   1   2
BRANCH   1   9
ATOM      9  C   UNL     1     134.089 122.950 139.108  1.00  0.00    -0.011 C 
ATOM     10  C   UNL     1     134.209 124.019 138.001  1.00  0.00     0.008 C 
BRANCH   9  11
ATOM     11  C   UNL     1     133.846 123.572 140.532  1.00  0.00    -0.002 C 
ATOM     12  C   UNL     1     133.409 122.487 141.548  1.00  0.00     0.005 C 
ATOM     13  C   UNL     1     134.968 124.415 141.254  1.00  0.00    -0.023 C 
ATOM     14  C   UNL     1     134.246 122.663 142.811  1.00  0.00     0.009 C 
ATOM     15  C   UNL     1     135.464 123.470 142.380  1.00  0.00     0.021 C 
ATOM     16  C   UNL     1     134.311 125.715 141.854  1.00  0.00     0.008 C 
ATOM     17  C   UNL     1     136.156 124.846 140.362  1.00  0.00     0.012 C 
ATOM     18  C   UNL     1     136.143 124.241 143.501  1.00  0.00    -0.067 C 
ATOM     19  C   UNL     1     135.122 126.404 142.978  1.00  0.00     0.009 C 
ATOM     20  C   UNL     1     135.387 125.399 144.117  1.00  0.00     0.021 C 
ATOM     21  C   UNL     1     137.486 124.221 143.566  1.00  0.00    -0.027 C 
ATOM     22  C   UNL     1     136.061 125.933 145.453  1.00  0.00    -0.023 C 
ATOM     23  C   UNL     1     138.235 125.411 144.080  1.00  0.00     0.031 C 
ATOM     24  C   UNL     1     137.650 125.941 145.400  1.00  0.00     0.002 C 
ATOM     25  C   UNL     1     135.567 124.993 146.605  1.00  0.00     0.010 C 
ATOM     26  C   UNL     1     135.552 127.365 145.766  1.00  0.00     0.012 C 
ATOM     27  C   UNL     1     138.319 125.202 146.585  1.00  0.00     0.036 C 
ATOM     28  C   UNL     1     136.198 125.274 147.981  1.00  0.00     0.032 C 
ATOM     29  C   UNL     1     137.696 125.629 147.918  1.00  0.00     0.114 C 
BRANCH  29  30
ATOM     30  O   UNL     1     138.368 125.003 148.980  1.00  0.00    -0.393 OA
ATOM     31  H   UNL     1     137.672 124.630 149.583  1.00  0.00     0.210 HD
ENDBRANCH  29  30
ENDBRANCH   9  11
ENDBRANCH   1   9
TORSDOF 7
ENDMDL
MODEL 3
REMARK VINA RESULT:     5.964      1.206      1.994
REMARK INTER + INTRA:           9.097
REMARK INTER:                   8.864
REMARK INTRA:                   0.233
REMARK UNBOUND:                 0.867
REMARK SMILES CC[C@@H](CC[C@H](C)[C@H]1CC[C@@H]2C3=CC[C@@H]4C[C@H](O)CC[C@]4(C)[C@H]3CC[C@@]21C)C(C)C
REMARK SMILES IDX 5 1 4 2 3 3 2 4 1 5 28 6 29 7 30 8 6 9 7 10 8 11 9 12 26 13
REMARK SMILES IDX 10 14 11 15 25 16 27 17 12 18 24 19 23 20 13 21 21 22 14 23
REMARK SMILES IDX 15 24 20 25 22 26 16 27 19 28 17 29 18 30
REMARK H PARENT 18 31
REMARK Flexibility Score: inf
ROOT
ATOM      1  C   UNL     1     135.836 121.767 137.981  1.00  0.00     0.004 C 
ENDROOT
BRANCH   1   2
ATOM      2  C   UNL     1     136.880 122.843 137.602  1.00  0.00     0.004 C 
BRANCH   2   3
ATOM      3  C   UNL     1     137.515 123.570 138.829  1.00  0.00    -0.009 C 
BRANCH   3   4
ATOM      4  C   UNL     1     137.802 125.065 138.522  1.00  0.00     0.000 C 
ATOM      5  C   UNL     1     136.639 125.987 138.895  1.00  0.00     0.004 C 
ENDBRANCH   3   4
BRANCH   3   6
ATOM      6  C   UNL     1     138.798 122.866 139.386  1.00  0.00    -0.014 C 
ATOM      7  C   UNL     1     139.828 122.571 138.288  1.00  0.00     0.007 C 
ATOM      8  C   UNL     1     139.469 123.609 140.558  1.00  0.00     0.007 C 
ENDBRANCH   3   6
ENDBRANCH   2   3
ENDBRANCH   1   2
BRANCH   1   9
ATOM      9  C   UNL     1     134.622 122.317 138.793  1.00  0.00    -0.011 C 
ATOM     10  C   UNL     1     134.218 123.739 138.349  1.00  0.00     0.008 C 
BRANCH   9  11
ATOM     11  C   UNL     1     134.736 122.176 140.355  1.00  0.00    -0.002 C 
ATOM     12  C   UNL     1     136.071 121.500 140.759  1.00  0.00     0.005 C 
ATOM     13  C   UNL     1     134.583 123.430 141.299  1.00  0.00    -0.023 C 
ATOM     14  C   UNL     1     136.694 122.326 141.879  1.00  0.00     0.009 C 
ATOM     15  C   UNL     1     136.029 123.694 141.791  1.00  0.00     0.021 C 
ATOM     16  C   UNL     1     133.638 123.042 142.499  1.00  0.00     0.008 C 
ATOM     17  C   UNL     1     134.009 124.702 140.630  1.00  0.00     0.012 C 
ATOM     18  C   UNL     1     136.046 124.492 143.085  1.00  0.00    -0.067 C 
ATOM     19  C   UNL     1     133.751 123.952 143.747  1.00  0.00     0.009 C 
ATOM     20  C   UNL     1     135.212 123.977 144.239  1.00  0.00     0.021 C 
ATOM     21  C   UNL     1     136.352 125.800 143.025  1.00  0.00    -0.027 C 
ATOM     22  C   UNL     1     135.534 124.716 145.609  1.00  0.00    -0.023 C 
ATOM     23  C   UNL     1     135.730 126.766 143.984  1.00  0.00     0.031 C 
ATOM     24  C   UNL     1     135.806 126.273 145.438  1.00  0.00     0.002 C 
ATOM     25  C   UNL     1     136.800 124.011 146.205  1.00  0.00     0.010 C 
ATOM     26  C   UNL     1     134.366 124.506 146.609  1.00  0.00     0.012 C 
ATOM     27  C   UNL     1     137.140 126.747 146.066  1.00  0.00     0.036 C 
ATOM     28  C   UNL     1     137.349 124.655 147.492  1.00  0.00     0.032 C 
ATOM     29  C   UNL     1     137.303 126.195 147.486  1.00  0.00     0.114 C 
BRANCH  29  30
ATOM     30  O   UNL     1     138.481 126.698 148.061  1.00  0.00    -0.393 OA
ATOM     31  H   UNL     1     138.410 127.689 148.048  1.00  0.00     0.210 HD
ENDBRANCH  29  30
ENDBRANCH   9  11
ENDBRANCH   1   9
TORSDOF 7
ENDMDL
MODEL 4
REMARK VINA RESULT:     7.399      2.647      4.978
REMARK INTER + INTRA:          11.077
REMARK INTER:                  11.621
REMARK INTRA:                  -0.544
REMARK UNBOUND:                 0.867
REMARK SMILES CC[C@@H](CC[C@H](C)[C@H]1CC[C@@H]2C3=CC[C@@H]4C[C@H](O)CC[C@]4(C)[C@H]3CC[C@@]21C)C(C)C
REMARK SMILES IDX 5 1 4 2 3 3 2 4 1 5 28 6 29 7 30 8 6 9 7 10 8 11 9 12 26 13
REMARK SMILES IDX 10 14 11 15 25 16 27 17 12 18 24 19 23 20 13 21 21 22 14 23
REMARK SMILES IDX 15 24 20 25 22 26 16 27 19 28 17 29 18 30
REMARK H PARENT 18 31
REMARK Flexibility Score: inf
ROOT
ATOM      1  C   UNL     1     133.112 124.720 137.919  1.00  0.00     0.004 C 
ENDROOT
BRANCH   1   2
ATOM      2  C   UNL     1     132.802 125.930 137.007  1.00  0.00     0.004 C 
BRANCH   2   3
ATOM      3  C   UNL     1     131.294 126.068 136.626  1.00  0.00    -0.009 C 
BRANCH   3   4
ATOM      4  C   UNL     1     131.115 126.762 135.248  1.00  0.00     0.000 C 
ATOM      5  C   UNL     1     132.208 126.393 134.244  1.00  0.00     0.004 C 
ENDBRANCH   3   4
BRANCH   3   6
ATOM      6  C   UNL     1     130.428 126.780 137.719  1.00  0.00    -0.014 C 
ATOM      7  C   UNL     1     130.578 128.307 137.682  1.00  0.00     0.007 C 
ATOM      8  C   UNL     1     128.937 126.392 137.697  1.00  0.00     0.007 C 
ENDBRANCH   3   6
ENDBRANCH   2   3
ENDBRANCH   1   2
BRANCH   1   9
ATOM      9  C   UNL     1     134.408 123.945 137.527  1.00  0.00    -0.011 C 
ATOM     10  C   UNL     1     134.100 122.551 136.939  1.00  0.00     0.008 C 
BRANCH   9  11
ATOM     11  C   UNL     1     135.531 123.907 138.629  1.00  0.00    -0.002 C 
ATOM     12  C   UNL     1     136.420 125.174 138.562  1.00  0.00     0.005 C 
ATOM     13  C   UNL     1     135.170 123.710 140.152  1.00  0.00    -0.023 C 
ATOM     14  C   UNL     1     136.567 125.718 139.979  1.00  0.00     0.009 C 
ATOM     15  C   UNL     1     135.411 125.113 140.767  1.00  0.00     0.021 C 
ATOM     16  C   UNL     1     136.155 122.644 140.766  1.00  0.00     0.008 C 
ATOM     17  C   UNL     1     133.722 123.246 140.440  1.00  0.00     0.012 C 
ATOM     18  C   UNL     1     135.638 125.037 142.268  1.00  0.00    -0.067 C 
ATOM     19  C   UNL     1     136.274 122.672 142.309  1.00  0.00     0.009 C 
ATOM     20  C   UNL     1     136.699 124.081 142.771  1.00  0.00     0.021 C 
ATOM     21  C   UNL     1     134.630 125.392 143.085  1.00  0.00    -0.027 C 
ATOM     22  C   UNL     1     137.046 124.299 144.306  1.00  0.00    -0.023 C 
ATOM     23  C   UNL     1     134.458 124.717 144.410  1.00  0.00     0.031 C 
ATOM     24  C   UNL     1     135.775 124.640 145.199  1.00  0.00     0.002 C 
ATOM     25  C   UNL     1     138.076 125.478 144.365  1.00  0.00     0.010 C 
ATOM     26  C   UNL     1     137.747 123.037 144.874  1.00  0.00     0.012 C 
ATOM     27  C   UNL     1     135.935 125.925 146.048  1.00  0.00     0.036 C 
ATOM     28  C   UNL     1     138.461 125.927 145.787  1.00  0.00     0.032 C 
ATOM     29  C   UNL     1     137.282 125.936 146.778  1.00  0.00     0.114 C 
BRANCH  29  30
ATOM     30  O   UNL     1     137.372 127.072 147.598  1.00  0.00    -0.393 OA
ATOM     31  H   UNL     1     136.880 126.864 148.436  1.00  0.00     0.210 HD
ENDBRANCH  29  30
ENDBRANCH   9  11
ENDBRANCH   1   9
TORSDOF 7
ENDMDL
