MODEL 1
REMARK VINA RESULT:    -5.760      0.000      0.000
REMARK INTER + INTRA:          -7.191
REMARK INTER:                  -6.939
REMARK INTRA:                  -0.252
REMARK UNBOUND:                -0.252
REMARK SMILES O=c1c(O)c(-c2ccc(O)cc2O)oc2cc(O)cc(O)c12
REMARK SMILES IDX 5 1 3 2 2 3 1 4 22 5 20 6 19 7 17 8 16 9 15 10 14 11 6 12
REMARK SMILES IDX 8 13 7 14 9 15 11 16 12 17 10 18 13 20 4 22 21 24 18 26
REMARK H PARENT 10 19 13 21 4 23 21 25 18 27
REMARK Flexibility Score: inf
ROOT
ATOM      1  C   UNL     1      36.246  -6.333  52.472  1.00  0.00     0.184 A 
ATOM      2  C   UNL     1      36.606  -5.893  53.756  1.00  0.00     0.208 A 
ATOM      3  C   UNL     1      36.743  -6.838  54.785  1.00  0.00     0.238 A 
ATOM      4  O   UNL     1      37.125  -6.443  55.918  1.00  0.00    -0.285 OA
ATOM      5  C   UNL     1      36.490  -8.206  54.525  1.00  0.00     0.111 A 
ATOM      6  C   UNL     1      36.558  -9.244  55.501  1.00  0.00     0.134 A 
ATOM      7  C   UNL     1      36.408 -10.579  55.103  1.00  0.00     0.093 A 
ATOM      8  C   UNL     1      36.126 -10.907  53.774  1.00  0.00     0.123 A 
ATOM      9  C   UNL     1      36.000  -9.896  52.824  1.00  0.00     0.094 A 
ATOM     10  C   UNL     1      36.181  -8.558  53.184  1.00  0.00     0.146 A 
ATOM     11  O   UNL     1      36.065  -7.628  52.243  1.00  0.00    -0.451 OA
ENDROOT
BRANCH   1  12
ATOM     12  C   UNL     1      36.066  -5.383  51.355  1.00  0.00     0.063 A 
ATOM     13  C   UNL     1      36.962  -3.580  49.987  1.00  0.00     0.047 A 
ATOM     14  C   UNL     1      37.123  -4.526  51.002  1.00  0.00     0.020 A 
ATOM     15  C   UNL     1      35.740  -3.470  49.317  1.00  0.00     0.119 A 
ATOM     16  C   UNL     1      34.681  -4.315  49.661  1.00  0.00     0.093 A 
ATOM     17  C   UNL     1      34.834  -5.276  50.668  1.00  0.00     0.130 A 
BRANCH  15  18
ATOM     18  O   UNL     1      35.566  -2.527  48.306  1.00  0.00    -0.508 OA
ATOM     19  H   UNL     1      34.668  -2.088  48.140  1.00  0.00     0.293 HD
ENDBRANCH  15  18
BRANCH  17  20
ATOM     20  O   UNL     1      33.754  -6.117  50.946  1.00  0.00    -0.507 OA
ATOM     21  H   UNL     1      33.714  -7.083  50.646  1.00  0.00     0.293 HD
ENDBRANCH  17  20
ENDBRANCH   1  12
BRANCH   2  22
ATOM     22  O   UNL     1      36.847  -4.536  53.985  1.00  0.00    -0.502 OA
ATOM     23  H   UNL     1      37.747  -4.189  54.293  1.00  0.00     0.293 HD
ENDBRANCH   2  22
BRANCH   6  24
ATOM     24  O   UNL     1      36.745  -9.019  56.869  1.00  0.00    -0.507 OA
ATOM     25  H   UNL     1      36.134  -9.357  57.596  1.00  0.00     0.293 HD
ENDBRANCH   6  24
BRANCH   8  26
ATOM     26  O   UNL     1      35.961 -12.235  53.391  1.00  0.00    -0.508 OA
ATOM     27  H   UNL     1      35.064 -12.699  53.457  1.00  0.00     0.293 HD
ENDBRANCH   8  26
TORSDOF 6
ENDMDL
MODEL 2
REMARK VINA RESULT:    -4.571      3.956      8.579
REMARK INTER + INTRA:          -5.757
REMARK INTER:                  -5.360
REMARK INTRA:                  -0.398
REMARK UNBOUND:                -0.252
REMARK SMILES O=c1c(O)c(-c2ccc(O)cc2O)oc2cc(O)cc(O)c12
REMARK SMILES IDX 5 1 3 2 2 3 1 4 22 5 20 6 19 7 17 8 16 9 15 10 14 11 6 12
REMARK SMILES IDX 8 13 7 14 9 15 11 16 12 17 10 18 13 20 4 22 21 24 18 26
REMARK H PARENT 10 19 13 21 4 23 21 25 18 27
REMARK Flexibility Score: inf
ROOT
ATOM      1  C   UNL     1      35.590  -3.734  47.797  1.00  0.00     0.184 A 
ATOM      2  C   UNL     1      34.934  -2.611  47.270  1.00  0.00     0.208 A 
ATOM      3  C   UNL     1      34.777  -2.505  45.879  1.00  0.00     0.238 A 
ATOM      4  O   UNL     1      34.135  -1.525  45.417  1.00  0.00    -0.285 OA
ATOM      5  C   UNL     1      35.305  -3.509  45.032  1.00  0.00     0.111 A 
ATOM      6  C   UNL     1      35.240  -3.485  43.607  1.00  0.00     0.134 A 
ATOM      7  C   UNL     1      35.687  -4.593  42.876  1.00  0.00     0.093 A 
ATOM      8  C   UNL     1      36.257  -5.696  43.516  1.00  0.00     0.123 A 
ATOM      9  C   UNL     1      36.377  -5.705  44.903  1.00  0.00     0.094 A 
ATOM     10  C   UNL     1      35.907  -4.630  45.662  1.00  0.00     0.146 A 
ATOM     11  O   UNL     1      36.029  -4.687  46.984  1.00  0.00    -0.451 OA
ENDROOT
BRANCH   1  12
ATOM     12  C   UNL     1      35.804  -3.889  49.251  1.00  0.00     0.063 A 
ATOM     13  C   UNL     1      37.125  -3.375  51.230  1.00  0.00     0.047 A 
ATOM     14  C   UNL     1      36.865  -3.204  49.869  1.00  0.00     0.020 A 
ATOM     15  C   UNL     1      36.333  -4.239  51.993  1.00  0.00     0.119 A 
ATOM     16  C   UNL     1      35.276  -4.926  51.390  1.00  0.00     0.093 A 
ATOM     17  C   UNL     1      34.998  -4.755  50.028  1.00  0.00     0.130 A 
BRANCH  15  18
ATOM     18  O   UNL     1      36.585  -4.421  53.351  1.00  0.00    -0.508 OA
ATOM     19  H   UNL     1      36.817  -3.642  53.956  1.00  0.00     0.293 HD
ENDBRANCH  15  18
BRANCH  17  20
ATOM     20  O   UNL     1      33.909  -5.439  49.485  1.00  0.00    -0.507 OA
ATOM     21  H   UNL     1      34.007  -6.256  48.895  1.00  0.00     0.293 HD
ENDBRANCH  17  20
ENDBRANCH   1  12
BRANCH   2  22
ATOM     22  O   UNL     1      34.426  -1.633  48.130  1.00  0.00    -0.502 OA
ATOM     23  H   UNL     1      33.912  -1.864  48.971  1.00  0.00     0.293 HD
ENDBRANCH   2  22
BRANCH   6  24
ATOM     24  O   UNL     1      34.774  -2.395  42.864  1.00  0.00    -0.507 OA
ATOM     25  H   UNL     1      34.113  -2.457  42.105  1.00  0.00     0.293 HD
ENDBRANCH   6  24
BRANCH   8  26
ATOM     26  O   UNL     1      36.714  -6.787  42.779  1.00  0.00    -0.508 OA
ATOM     27  H   UNL     1      36.246  -7.684  42.816  1.00  0.00     0.293 HD
ENDBRANCH   8  26
TORSDOF 6
ENDMDL
MODEL 3
REMARK VINA RESULT:    -4.186     14.603     18.337
REMARK INTER + INTRA:          -5.294
REMARK INTER:                  -5.615
REMARK INTRA:                   0.321
REMARK UNBOUND:                -0.252
REMARK SMILES O=c1c(O)c(-c2ccc(O)cc2O)oc2cc(O)cc(O)c12
REMARK SMILES IDX 5 1 3 2 2 3 1 4 22 5 20 6 19 7 17 8 16 9 15 10 14 11 6 12
REMARK SMILES IDX 8 13 7 14 9 15 11 16 12 17 10 18 13 20 4 22 21 24 18 26
REMARK H PARENT 10 19 13 21 4 23 21 25 18 27
REMARK Flexibility Score: inf
ROOT
ATOM      1  C   UNL     1      22.896  -2.716  43.236  1.00  0.00     0.184 A 
ATOM      2  C   UNL     1      23.151  -3.909  42.541  1.00  0.00     0.208 A 
ATOM      3  C   UNL     1      22.200  -4.374  41.618  1.00  0.00     0.238 A 
ATOM      4  O   UNL     1      22.462  -5.411  40.954  1.00  0.00    -0.285 OA
ATOM      5  C   UNL     1      20.995  -3.657  41.426  1.00  0.00     0.111 A 
ATOM      6  C   UNL     1      19.943  -4.057  40.548  1.00  0.00     0.134 A 
ATOM      7  C   UNL     1      18.850  -3.206  40.346  1.00  0.00     0.093 A 
ATOM      8  C   UNL     1      18.738  -1.999  41.040  1.00  0.00     0.123 A 
ATOM      9  C   UNL     1      19.731  -1.626  41.943  1.00  0.00     0.094 A 
ATOM     10  C   UNL     1      20.852  -2.437  42.139  1.00  0.00     0.146 A 
ATOM     11  O   UNL     1      21.782  -2.036  42.999  1.00  0.00    -0.451 OA
ENDROOT
BRANCH   1  12
ATOM     12  C   UNL     1      23.850  -2.189  44.234  1.00  0.00     0.063 A 
ATOM     13  C   UNL     1      26.109  -2.149  45.140  1.00  0.00     0.047 A 
ATOM     14  C   UNL     1      25.198  -2.587  44.177  1.00  0.00     0.020 A 
ATOM     15  C   UNL     1      25.686  -1.314  46.179  1.00  0.00     0.119 A 
ATOM     16  C   UNL     1      24.349  -0.914  46.248  1.00  0.00     0.093 A 
ATOM     17  C   UNL     1      23.427  -1.337  45.282  1.00  0.00     0.130 A 
BRANCH  15  18
ATOM     18  O   UNL     1      26.585  -0.875  47.149  1.00  0.00    -0.508 OA
ATOM     19  H   UNL     1      26.355  -0.117  47.780  1.00  0.00     0.293 HD
ENDBRANCH  15  18
BRANCH  17  20
ATOM     20  O   UNL     1      22.112  -0.878  45.379  1.00  0.00    -0.507 OA
ATOM     21  H   UNL     1      21.630  -0.765  46.261  1.00  0.00     0.293 HD
ENDBRANCH  17  20
ENDBRANCH   1  12
BRANCH   2  22
ATOM     22  O   UNL     1      24.348  -4.598  42.753  1.00  0.00    -0.502 OA
ATOM     23  H   UNL     1      24.874  -5.016  41.996  1.00  0.00     0.293 HD
ENDBRANCH   2  22
BRANCH   6  24
ATOM     24  O   UNL     1      19.912  -5.283  39.875  1.00  0.00    -0.507 OA
ATOM     25  H   UNL     1      19.386  -5.465  39.035  1.00  0.00     0.293 HD
ENDBRANCH   6  24
BRANCH   8  26
ATOM     26  O   UNL     1      17.639  -1.166  40.845  1.00  0.00    -0.508 OA
ATOM     27  H   UNL     1      17.310  -0.931  39.916  1.00  0.00     0.293 HD
ENDBRANCH   8  26
TORSDOF 6
ENDMDL
MODEL 4
REMARK VINA RESULT:    -3.521      1.350      1.944
REMARK INTER + INTRA:          -4.493
REMARK INTER:                  -4.265
REMARK INTRA:                  -0.228
REMARK UNBOUND:                -0.252
REMARK SMILES O=c1c(O)c(-c2ccc(O)cc2O)oc2cc(O)cc(O)c12
REMARK SMILES IDX 5 1 3 2 2 3 1 4 22 5 20 6 19 7 17 8 16 9 15 10 14 11 6 12
REMARK SMILES IDX 8 13 7 14 9 15 11 16 12 17 10 18 13 20 4 22 21 24 18 26
REMARK H PARENT 10 19 13 21 4 23 21 25 18 27
REMARK Flexibility Score: inf
ROOT
ATOM      1  C   UNL     1      36.432  -4.867  51.332  1.00  0.00     0.184 A 
ATOM      2  C   UNL     1      36.531  -4.259  52.594  1.00  0.00     0.208 A 
ATOM      3  C   UNL     1      36.702  -5.069  53.728  1.00  0.00     0.238 A 
ATOM      4  O   UNL     1      36.851  -4.515  54.848  1.00  0.00    -0.285 OA
ATOM      5  C   UNL     1      36.743  -6.478  53.588  1.00  0.00     0.111 A 
ATOM      6  C   UNL     1      36.872  -7.397  54.671  1.00  0.00     0.134 A 
ATOM      7  C   UNL     1      37.026  -8.763  54.404  1.00  0.00     0.093 A 
ATOM      8  C   UNL     1      36.988  -9.250  53.095  1.00  0.00     0.123 A 
ATOM      9  C   UNL     1      36.804  -8.367  52.034  1.00  0.00     0.094 A 
ATOM     10  C   UNL     1      36.686  -6.994  52.267  1.00  0.00     0.146 A 
ATOM     11  O   UNL     1      36.526  -6.187  51.224  1.00  0.00    -0.451 OA
ENDROOT
BRANCH   1  12
ATOM     12  C   UNL     1      36.229  -4.067  50.106  1.00  0.00     0.063 A 
ATOM     13  C   UNL     1      36.926  -2.218  48.685  1.00  0.00     0.047 A 
ATOM     14  C   UNL     1      37.125  -3.026  49.807  1.00  0.00     0.020 A 
ATOM     15  C   UNL     1      35.824  -2.434  47.851  1.00  0.00     0.119 A 
ATOM     16  C   UNL     1      34.926  -3.464  48.140  1.00  0.00     0.093 A 
ATOM     17  C   UNL     1      35.121  -4.289  49.255  1.00  0.00     0.130 A 
BRANCH  15  18
ATOM     18  O   UNL     1      35.613  -1.631  46.732  1.00  0.00    -0.508 OA
ATOM     19  H   UNL     1      36.062  -1.828  45.846  1.00  0.00     0.293 HD
ENDBRANCH  15  18
BRANCH  17  20
ATOM     20  O   UNL     1      34.212  -5.326  49.476  1.00  0.00    -0.507 OA
ATOM     21  H   UNL     1      34.137  -5.817  50.358  1.00  0.00     0.293 HD
ENDBRANCH  17  20
ENDBRANCH   1  12
BRANCH   2  22
ATOM     22  O   UNL     1      36.484  -2.867  52.702  1.00  0.00    -0.502 OA
ATOM     23  H   UNL     1      37.075  -2.353  53.344  1.00  0.00     0.293 HD
ENDBRANCH   2  22
BRANCH   6  24
ATOM     24  O   UNL     1      36.831  -7.027  56.020  1.00  0.00    -0.507 OA
ATOM     25  H   UNL     1      36.415  -7.577  56.755  1.00  0.00     0.293 HD
ENDBRANCH   6  24
BRANCH   8  26
ATOM     26  O   UNL     1      37.125 -10.612  52.840  1.00  0.00    -0.508 OA
ATOM     27  H   UNL     1      36.528 -11.090  52.175  1.00  0.00     0.293 HD
ENDBRANCH   8  26
TORSDOF 6
ENDMDL
MODEL 5
REMARK VINA RESULT:    -3.500      2.624      6.529
REMARK INTER + INTRA:          -4.468
REMARK INTER:                  -4.818
REMARK INTRA:                   0.350
REMARK UNBOUND:                -0.252
REMARK SMILES O=c1c(O)c(-c2ccc(O)cc2O)oc2cc(O)cc(O)c12
REMARK SMILES IDX 5 1 3 2 2 3 1 4 22 5 20 6 19 7 17 8 16 9 15 10 14 11 6 12
REMARK SMILES IDX 8 13 7 14 9 15 11 16 12 17 10 18 13 20 4 22 21 24 18 26
REMARK H PARENT 10 19 13 21 4 23 21 25 18 27
REMARK Flexibility Score: inf
ROOT
ATOM      1  C   UNL     1      36.616  -7.146  54.786  1.00  0.00     0.184 A 
ATOM      2  C   UNL     1      36.763  -6.148  53.809  1.00  0.00     0.208 A 
ATOM      3  C   UNL     1      36.927  -4.815  54.217  1.00  0.00     0.238 A 
ATOM      4  O   UNL     1      37.119  -3.935  53.338  1.00  0.00    -0.285 OA
ATOM      5  C   UNL     1      36.912  -4.493  55.596  1.00  0.00     0.111 A 
ATOM      6  C   UNL     1      37.028  -3.172  56.122  1.00  0.00     0.134 A 
ATOM      7  C   UNL     1      37.124  -2.985  57.507  1.00  0.00     0.093 A 
ATOM      8  C   UNL     1      37.041  -4.067  58.387  1.00  0.00     0.123 A 
ATOM      9  C   UNL     1      36.869  -5.355  57.886  1.00  0.00     0.094 A 
ATOM     10  C   UNL     1      36.807  -5.577  56.508  1.00  0.00     0.146 A 
ATOM     11  O   UNL     1      36.657  -6.823  56.073  1.00  0.00    -0.451 OA
ENDROOT
BRANCH   1  12
ATOM     12  C   UNL     1      36.418  -8.562  54.416  1.00  0.00     0.063 A 
ATOM     13  C   UNL     1      35.705 -10.206  52.767  1.00  0.00     0.047 A 
ATOM     14  C   UNL     1      35.954  -8.879  53.126  1.00  0.00     0.020 A 
ATOM     15  C   UNL     1      35.908 -11.234  53.693  1.00  0.00     0.119 A 
ATOM     16  C   UNL     1      36.366 -10.931  54.978  1.00  0.00     0.093 A 
ATOM     17  C   UNL     1      36.631  -9.606  55.347  1.00  0.00     0.130 A 
BRANCH  15  18
ATOM     18  O   UNL     1      35.658 -12.561  53.348  1.00  0.00    -0.508 OA
ATOM     19  H   UNL     1      36.377 -13.147  52.942  1.00  0.00     0.293 HD
ENDBRANCH  15  18
BRANCH  17  20
ATOM     20  O   UNL     1      37.121  -9.364  56.632  1.00  0.00    -0.507 OA
ATOM     21  H   UNL     1      37.261 -10.096  57.317  1.00  0.00     0.293 HD
ENDBRANCH  17  20
ENDBRANCH   1  12
BRANCH   2  22
ATOM     22  O   UNL     1      36.771  -6.494  52.455  1.00  0.00    -0.502 OA
ATOM     23  H   UNL     1      37.622  -6.522  51.908  1.00  0.00     0.293 HD
ENDBRANCH   2  22
BRANCH   6  24
ATOM     24  O   UNL     1      37.028  -2.015  55.336  1.00  0.00    -0.507 OA
ATOM     25  H   UNL     1      36.982  -1.075  55.695  1.00  0.00     0.293 HD
ENDBRANCH   6  24
BRANCH   8  26
ATOM     26  O   UNL     1      37.121  -3.870  59.763  1.00  0.00    -0.508 OA
ATOM     27  H   UNL     1      37.999  -3.956  60.262  1.00  0.00     0.293 HD
ENDBRANCH   8  26
TORSDOF 6
ENDMDL
MODEL 6
REMARK VINA RESULT:    -3.095      2.897      8.025
REMARK INTER + INTRA:          -3.980
REMARK INTER:                  -3.640
REMARK INTRA:                  -0.341
REMARK UNBOUND:                -0.252
REMARK SMILES O=c1c(O)c(-c2ccc(O)cc2O)oc2cc(O)cc(O)c12
REMARK SMILES IDX 5 1 3 2 2 3 1 4 22 5 20 6 19 7 17 8 16 9 15 10 14 11 6 12
REMARK SMILES IDX 8 13 7 14 9 15 11 16 12 17 10 18 13 20 4 22 21 24 18 26
REMARK H PARENT 10 19 13 21 4 23 21 25 18 27
REMARK Flexibility Score: inf
ROOT
ATOM      1  C   UNL     1      35.976  -4.107  49.076  1.00  0.00     0.184 A 
ATOM      2  C   UNL     1      36.416  -2.782  48.932  1.00  0.00     0.208 A 
ATOM      3  C   UNL     1      36.323  -2.168  47.672  1.00  0.00     0.238 A 
ATOM      4  O   UNL     1      36.662  -0.960  47.564  1.00  0.00    -0.285 OA
ATOM      5  C   UNL     1      35.820  -2.898  46.568  1.00  0.00     0.111 A 
ATOM      6  C   UNL     1      35.720  -2.390  45.238  1.00  0.00     0.134 A 
ATOM      7  C   UNL     1      35.093  -3.160  44.250  1.00  0.00     0.093 A 
ATOM      8  C   UNL     1      34.621  -4.445  44.529  1.00  0.00     0.123 A 
ATOM      9  C   UNL     1      34.767  -4.972  45.810  1.00  0.00     0.094 A 
ATOM     10  C   UNL     1      35.355  -4.214  46.826  1.00  0.00     0.146 A 
ATOM     11  O   UNL     1      35.461  -4.751  48.036  1.00  0.00    -0.451 OA
ENDROOT
BRANCH   1  12
ATOM     12  C   UNL     1      36.069  -4.811  50.372  1.00  0.00     0.063 A 
ATOM     13  C   UNL     1      37.125  -6.524  51.742  1.00  0.00     0.047 A 
ATOM     14  C   UNL     1      37.050  -5.803  50.548  1.00  0.00     0.020 A 
ATOM     15  C   UNL     1      36.216  -6.270  52.774  1.00  0.00     0.119 A 
ATOM     16  C   UNL     1      35.236  -5.288  52.610  1.00  0.00     0.093 A 
ATOM     17  C   UNL     1      35.157  -4.550  51.422  1.00  0.00     0.130 A 
BRANCH  15  18
ATOM     18  O   UNL     1      36.279  -6.986  53.968  1.00  0.00    -0.508 OA
ATOM     19  H   UNL     1      37.147  -7.388  54.299  1.00  0.00     0.293 HD
ENDBRANCH  15  18
BRANCH  17  20
ATOM     20  O   UNL     1      34.180  -3.556  51.325  1.00  0.00    -0.507 OA
ATOM     21  H   UNL     1      33.998  -2.888  52.062  1.00  0.00     0.293 HD
ENDBRANCH  17  20
ENDBRANCH   1  12
BRANCH   2  22
ATOM     22  O   UNL     1      36.911  -2.087  50.038  1.00  0.00    -0.502 OA
ATOM     23  H   UNL     1      37.894  -1.871  50.148  1.00  0.00     0.293 HD
ENDBRANCH   2  22
BRANCH   6  24
ATOM     24  O   UNL     1      36.239  -1.156  44.831  1.00  0.00    -0.507 OA
ATOM     25  H   UNL     1      36.136  -0.765  43.908  1.00  0.00     0.293 HD
ENDBRANCH   6  24
BRANCH   8  26
ATOM     26  O   UNL     1      34.014  -5.209  43.536  1.00  0.00    -0.508 OA
ATOM     27  H   UNL     1      33.659  -4.789  42.686  1.00  0.00     0.293 HD
ENDBRANCH   8  26
TORSDOF 6
ENDMDL
