MODEL 1
REMARK VINA RESULT:    12.742      0.000      0.000
REMARK INTER + INTRA:          31.765
REMARK INTER:                  32.109
REMARK INTRA:                  -0.345
REMARK UNBOUND:                -0.345
REMARK SMILES CCCCCCCCCCCCCCCCCCCCCCCCCCCC(=O)[O-]
REMARK SMILES IDX 15 1 16 2 17 3 18 4 19 5 20 6 21 7 22 8 23 9 24 10 25 11
REMARK SMILES IDX 26 12 27 13 28 14 29 15 30 16 14 17 13 18 12 19 11 20 10 21
REMARK SMILES IDX 9 22 8 23 7 24 6 25 5 26 4 27 3 28 2 29 1 30
REMARK H PARENT
REMARK Flexibility Score: inf
ROOT
ATOM      1  C   UNL     1      83.158  14.297 107.085  1.00  0.00     0.000 C 
ENDROOT
BRANCH   1   2
ATOM      2  C   UNL     1      83.840  15.618 106.676  1.00  0.00     0.000 C 
BRANCH   2   3
ATOM      3  C   UNL     1      84.269  16.476 107.876  1.00  0.00     0.000 C 
BRANCH   3   4
ATOM      4  C   UNL     1      84.780  17.868 107.464  1.00  0.00     0.000 C 
BRANCH   4   5
ATOM      5  C   UNL     1      85.106  18.798 108.652  1.00  0.00     0.000 C 
BRANCH   5   6
ATOM      6  C   UNL     1      86.570  19.276 108.645  1.00  0.00     0.000 C 
BRANCH   6   7
ATOM      7  C   UNL     1      86.717  20.747 109.062  1.00  0.00     0.000 C 
BRANCH   7   8
ATOM      8  C   UNL     1      87.170  20.914 110.520  1.00  0.00     0.000 C 
BRANCH   8   9
ATOM      9  C   UNL     1      88.368  21.866 110.613  1.00  0.00     0.000 C 
BRANCH   9  10
ATOM     10  C   UNL     1      88.867  21.988 112.062  1.00  0.00     0.000 C 
BRANCH  10  11
ATOM     11  C   UNL     1      89.947  23.070 112.226  1.00  0.00     0.000 C 
BRANCH  11  12
ATOM     12  C   UNL     1      91.017  22.684 113.263  1.00  0.00     0.006 C 
BRANCH  12  13
ATOM     13  C   UNL     1      90.811  21.265 113.812  1.00  0.00     0.053 C 
BRANCH  13  14
ATOM     14  C   UNL     1      91.155  20.214 112.800  1.00  0.00     0.041 C 
ATOM     15  O   UNL     1      90.355  19.270 112.568  1.00  0.00    -0.550 OA
ATOM     16  O   UNL     1      92.349  20.293 112.092  1.00  0.00    -0.550 OA
ENDBRANCH  13  14
ENDBRANCH  12  13
ENDBRANCH  11  12
ENDBRANCH  10  11
ENDBRANCH   9  10
ENDBRANCH   8   9
ENDBRANCH   7   8
ENDBRANCH   6   7
ENDBRANCH   5   6
ENDBRANCH   4   5
ENDBRANCH   3   4
ENDBRANCH   2   3
ENDBRANCH   1   2
BRANCH   1  17
ATOM     17  C   UNL     1      83.324  13.888 108.561  1.00  0.00     0.000 C 
BRANCH  17  18
ATOM     18  C   UNL     1      84.724  13.336 108.884  1.00  0.00     0.000 C 
BRANCH  18  19
ATOM     19  C   UNL     1      85.606  13.204 107.632  1.00  0.00     0.000 C 
BRANCH  19  20
ATOM     20  C   UNL     1      87.081  13.553 107.902  1.00  0.00     0.000 C 
BRANCH  20  21
ATOM     21  C   UNL     1      87.883  13.758 106.605  1.00  0.00     0.000 C 
BRANCH  21  22
ATOM     22  C   UNL     1      89.023  12.736 106.447  1.00  0.00    -0.000 C 
BRANCH  22  23
ATOM     23  C   UNL     1      88.672  11.599 105.470  1.00  0.00    -0.000 C 
BRANCH  23  24
ATOM     24  C   UNL     1      89.660  10.419 105.465  1.00  0.00    -0.000 C 
BRANCH  24  25
ATOM     25  C   UNL     1      89.707   9.674 106.808  1.00  0.00    -0.000 C 
BRANCH  25  26
ATOM     26  C   UNL     1      90.811   8.610 106.809  1.00  0.00    -0.000 C 
BRANCH  26  27
ATOM     27  C   UNL     1      90.755   7.758 108.085  1.00  0.00    -0.000 C 
BRANCH  27  28
ATOM     28  C   UNL     1      89.337   7.258 108.403  1.00  0.00    -0.000 C 
BRANCH  28  29
ATOM     29  C   UNL     1      89.088   7.098 109.909  1.00  0.00    -0.003 C 
ATOM     30  C   UNL     1      87.632   7.385 110.261  1.00  0.00     0.004 C 
ENDBRANCH  28  29
ENDBRANCH  27  28
ENDBRANCH  26  27
ENDBRANCH  25  26
ENDBRANCH  24  25
ENDBRANCH  23  24
ENDBRANCH  22  23
ENDBRANCH  21  22
ENDBRANCH  20  21
ENDBRANCH  19  20
ENDBRANCH  18  19
ENDBRANCH  17  18
ENDBRANCH   1  17
TORSDOF 26
ENDMDL
MODEL 2
REMARK VINA RESULT:    13.400      0.705      1.478
REMARK INTER + INTRA:          33.423
REMARK INTER:                  33.512
REMARK INTRA:                  -0.088
REMARK UNBOUND:                -0.345
REMARK SMILES CCCCCCCCCCCCCCCCCCCCCCCCCCCC(=O)[O-]
REMARK SMILES IDX 15 1 16 2 17 3 18 4 19 5 20 6 21 7 22 8 23 9 24 10 25 11
REMARK SMILES IDX 26 12 27 13 28 14 29 15 30 16 14 17 13 18 12 19 11 20 10 21
REMARK SMILES IDX 9 22 8 23 7 24 6 25 5 26 4 27 3 28 2 29 1 30
REMARK H PARENT
REMARK Flexibility Score: inf
ROOT
ATOM      1  C   UNL     1      83.269  13.887 108.209  1.00  0.00     0.000 C 
ENDROOT
BRANCH   1   2
ATOM      2  C   UNL     1      83.253  14.514 106.801  1.00  0.00     0.000 C 
BRANCH   2   3
ATOM      3  C   UNL     1      83.384  16.045 106.816  1.00  0.00     0.000 C 
BRANCH   3   4
ATOM      4  C   UNL     1      84.649  16.529 107.546  1.00  0.00     0.000 C 
BRANCH   4   5
ATOM      5  C   UNL     1      84.707  18.057 107.762  1.00  0.00     0.000 C 
BRANCH   5   6
ATOM      6  C   UNL     1      85.563  18.450 108.979  1.00  0.00     0.000 C 
BRANCH   6   7
ATOM      7  C   UNL     1      86.664  19.462 108.629  1.00  0.00     0.000 C 
BRANCH   7   8
ATOM      8  C   UNL     1      86.190  20.921 108.724  1.00  0.00     0.000 C 
BRANCH   8   9
ATOM      9  C   UNL     1      87.197  21.771 109.508  1.00  0.00     0.000 C 
BRANCH   9  10
ATOM     10  C   UNL     1      88.290  20.894 110.138  1.00  0.00     0.000 C 
BRANCH  10  11
ATOM     11  C   UNL     1      88.467  21.159 111.643  1.00  0.00     0.000 C 
BRANCH  11  12
ATOM     12  C   UNL     1      89.177  22.494 111.928  1.00  0.00     0.006 C 
BRANCH  12  13
ATOM     13  C   UNL     1      90.668  22.305 112.241  1.00  0.00     0.053 C 
BRANCH  13  14
ATOM     14  C   UNL     1      91.004  20.876 112.541  1.00  0.00     0.041 C 
ATOM     15  O   UNL     1      90.127  20.103 113.009  1.00  0.00    -0.550 OA
ATOM     16  O   UNL     1      92.280  20.391 112.281  1.00  0.00    -0.550 OA
ENDBRANCH  13  14
ENDBRANCH  12  13
ENDBRANCH  11  12
ENDBRANCH  10  11
ENDBRANCH   9  10
ENDBRANCH   8   9
ENDBRANCH   7   8
ENDBRANCH   6   7
ENDBRANCH   5   6
ENDBRANCH   4   5
ENDBRANCH   3   4
ENDBRANCH   2   3
ENDBRANCH   1   2
BRANCH   1  17
ATOM     17  C   UNL     1      84.663  13.597 108.796  1.00  0.00     0.000 C 
BRANCH  17  18
ATOM     18  C   UNL     1      85.703  13.211 107.729  1.00  0.00     0.000 C 
BRANCH  18  19
ATOM     19  C   UNL     1      87.015  13.997 107.875  1.00  0.00     0.000 C 
BRANCH  19  20
ATOM     20  C   UNL     1      87.958  13.811 106.672  1.00  0.00     0.000 C 
BRANCH  20  21
ATOM     21  C   UNL     1      88.782  12.515 106.767  1.00  0.00     0.000 C 
BRANCH  21  22
ATOM     22  C   UNL     1      89.060  11.888 105.390  1.00  0.00    -0.000 C 
BRANCH  22  23
ATOM     23  C   UNL     1      89.180  10.354 105.447  1.00  0.00    -0.000 C 
BRANCH  23  24
ATOM     24  C   UNL     1      90.169   9.818 106.498  1.00  0.00    -0.000 C 
BRANCH  24  25
ATOM     25  C   UNL     1      90.786   8.468 106.103  1.00  0.00    -0.000 C 
BRANCH  25  26
ATOM     26  C   UNL     1      90.842   7.516 107.303  1.00  0.00    -0.000 C 
BRANCH  26  27
ATOM     27  C   UNL     1      90.258   8.176 108.561  1.00  0.00    -0.000 C 
BRANCH  27  28
ATOM     28  C   UNL     1      89.419   7.204 109.405  1.00  0.00    -0.000 C 
BRANCH  28  29
ATOM     29  C   UNL     1      88.405   7.925 110.305  1.00  0.00    -0.003 C 
ATOM     30  C   UNL     1      87.268   6.992 110.711  1.00  0.00     0.004 C 
ENDBRANCH  28  29
ENDBRANCH  27  28
ENDBRANCH  26  27
ENDBRANCH  25  26
ENDBRANCH  24  25
ENDBRANCH  23  24
ENDBRANCH  22  23
ENDBRANCH  21  22
ENDBRANCH  20  21
ENDBRANCH  19  20
ENDBRANCH  18  19
ENDBRANCH  17  18
ENDBRANCH   1  17
TORSDOF 26
ENDMDL
MODEL 3
REMARK VINA RESULT:    13.614      3.228     10.981
REMARK INTER + INTRA:          33.962
REMARK INTER:                  33.708
REMARK INTRA:                   0.254
REMARK UNBOUND:                -0.345
REMARK SMILES CCCCCCCCCCCCCCCCCCCCCCCCCCCC(=O)[O-]
REMARK SMILES IDX 15 1 16 2 17 3 18 4 19 5 20 6 21 7 22 8 23 9 24 10 25 11
REMARK SMILES IDX 26 12 27 13 28 14 29 15 30 16 14 17 13 18 12 19 11 20 10 21
REMARK SMILES IDX 9 22 8 23 7 24 6 25 5 26 4 27 3 28 2 29 1 30
REMARK H PARENT
REMARK Flexibility Score: inf
ROOT
ATOM      1  C   UNL     1      83.449  14.699 107.239  1.00  0.00     0.000 C 
ENDROOT
BRANCH   1   2
ATOM      2  C   UNL     1      83.721  13.830 108.483  1.00  0.00     0.000 C 
BRANCH   2   3
ATOM      3  C   UNL     1      85.113  13.180 108.477  1.00  0.00     0.000 C 
BRANCH   3   4
ATOM      4  C   UNL     1      86.167  14.031 107.748  1.00  0.00     0.000 C 
BRANCH   4   5
ATOM      5  C   UNL     1      87.509  13.305 107.508  1.00  0.00     0.000 C 
BRANCH   5   6
ATOM      6  C   UNL     1      88.245  13.821 106.258  1.00  0.00     0.000 C 
BRANCH   6   7
ATOM      7  C   UNL     1      89.177  12.768 105.641  1.00  0.00     0.000 C 
BRANCH   7   8
ATOM      8  C   UNL     1      89.051  11.390 106.308  1.00  0.00     0.000 C 
BRANCH   8   9
ATOM      9  C   UNL     1      90.088  10.413 105.742  1.00  0.00     0.000 C 
BRANCH   9  10
ATOM     10  C   UNL     1      89.709   8.958 106.060  1.00  0.00     0.000 C 
BRANCH  10  11
ATOM     11  C   UNL     1      90.905   8.131 106.560  1.00  0.00     0.000 C 
BRANCH  11  12
ATOM     12  C   UNL     1      90.838   7.848 108.071  1.00  0.00     0.006 C 
BRANCH  12  13
ATOM     13  C   UNL     1      89.706   6.875 108.431  1.00  0.00     0.053 C 
BRANCH  13  14
ATOM     14  C   UNL     1      88.756   7.462 109.430  1.00  0.00     0.041 C 
ATOM     15  O   UNL     1      87.672   6.878 109.694  1.00  0.00    -0.550 OA
ATOM     16  O   UNL     1      89.080   8.642 110.090  1.00  0.00    -0.550 OA
ENDBRANCH  13  14
ENDBRANCH  12  13
ENDBRANCH  11  12
ENDBRANCH  10  11
ENDBRANCH   9  10
ENDBRANCH   8   9
ENDBRANCH   7   8
ENDBRANCH   6   7
ENDBRANCH   5   6
ENDBRANCH   4   5
ENDBRANCH   3   4
ENDBRANCH   2   3
ENDBRANCH   1   2
BRANCH   1  17
ATOM     17  C   UNL     1      84.478  15.811 106.962  1.00  0.00     0.000 C 
BRANCH  17  18
ATOM     18  C   UNL     1      84.499  16.903 108.047  1.00  0.00     0.000 C 
BRANCH  18  19
ATOM     19  C   UNL     1      85.788  17.739 108.015  1.00  0.00     0.000 C 
BRANCH  19  20
ATOM     20  C   UNL     1      85.542  19.225 108.334  1.00  0.00     0.000 C 
BRANCH  20  21
ATOM     21  C   UNL     1      86.611  19.808 109.276  1.00  0.00     0.000 C 
BRANCH  21  22
ATOM     22  C   UNL     1      86.750  21.334 109.140  1.00  0.00    -0.000 C 
BRANCH  22  23
ATOM     23  C   UNL     1      88.051  21.871 109.766  1.00  0.00    -0.000 C 
BRANCH  23  24
ATOM     24  C   UNL     1      88.005  22.063 111.292  1.00  0.00    -0.000 C 
BRANCH  24  25
ATOM     25  C   UNL     1      89.174  21.378 112.016  1.00  0.00    -0.000 C 
BRANCH  25  26
ATOM     26  C   UNL     1      90.014  22.398 112.795  1.00  0.00    -0.000 C 
BRANCH  26  27
ATOM     27  C   UNL     1      90.955  21.697 113.785  1.00  0.00    -0.000 C 
BRANCH  27  28
ATOM     28  C   UNL     1      92.237  21.174 113.116  1.00  0.00    -0.000 C 
BRANCH  28  29
ATOM     29  C   UNL     1      91.960  20.068 112.089  1.00  0.00    -0.003 C 
ATOM     30  C   UNL     1      93.258  19.532 111.492  1.00  0.00     0.004 C 
ENDBRANCH  28  29
ENDBRANCH  27  28
ENDBRANCH  26  27
ENDBRANCH  25  26
ENDBRANCH  24  25
ENDBRANCH  23  24
ENDBRANCH  22  23
ENDBRANCH  21  22
ENDBRANCH  20  21
ENDBRANCH  19  20
ENDBRANCH  18  19
ENDBRANCH  17  18
ENDBRANCH   1  17
TORSDOF 26
ENDMDL
MODEL 4
REMARK VINA RESULT:    13.761      0.928      1.317
REMARK INTER + INTRA:          34.333
REMARK INTER:                  34.307
REMARK INTRA:                   0.026
REMARK UNBOUND:                -0.345
REMARK SMILES CCCCCCCCCCCCCCCCCCCCCCCCCCCC(=O)[O-]
REMARK SMILES IDX 15 1 16 2 17 3 18 4 19 5 20 6 21 7 22 8 23 9 24 10 25 11
REMARK SMILES IDX 26 12 27 13 28 14 29 15 30 16 14 17 13 18 12 19 11 20 10 21
REMARK SMILES IDX 9 22 8 23 7 24 6 25 5 26 4 27 3 28 2 29 1 30
REMARK H PARENT
REMARK Flexibility Score: inf
ROOT
ATOM      1  C   UNL     1      83.433  15.189 106.752  1.00  0.00     0.000 C 
ENDROOT
BRANCH   1   2
ATOM      2  C   UNL     1      84.040  16.102 107.837  1.00  0.00     0.000 C 
BRANCH   2   3
ATOM      3  C   UNL     1      84.999  17.162 107.272  1.00  0.00     0.000 C 
BRANCH   3   4
ATOM      4  C   UNL     1      84.846  18.531 107.957  1.00  0.00     0.000 C 
BRANCH   4   5
ATOM      5  C   UNL     1      85.961  18.856 108.975  1.00  0.00     0.000 C 
BRANCH   5   6
ATOM      6  C   UNL     1      86.659  20.196 108.679  1.00  0.00     0.000 C 
BRANCH   6   7
ATOM      7  C   UNL     1      86.694  21.129 109.898  1.00  0.00     0.000 C 
BRANCH   7   8
ATOM      8  C   UNL     1      88.112  21.606 110.248  1.00  0.00     0.000 C 
BRANCH   8   9
ATOM      9  C   UNL     1      88.230  21.911 111.746  1.00  0.00     0.000 C 
BRANCH   9  10
ATOM     10  C   UNL     1      89.195  23.079 111.999  1.00  0.00     0.000 C 
BRANCH  10  11
ATOM     11  C   UNL     1      90.644  22.614 112.215  1.00  0.00     0.000 C 
BRANCH  11  12
ATOM     12  C   UNL     1      90.785  21.658 113.414  1.00  0.00     0.006 C 
BRANCH  12  13
ATOM     13  C   UNL     1      90.818  20.185 112.983  1.00  0.00     0.053 C 
BRANCH  13  14
ATOM     14  C   UNL     1      92.078  19.841 112.248  1.00  0.00     0.041 C 
ATOM     15  O   UNL     1      92.605  18.706 112.388  1.00  0.00    -0.550 OA
ATOM     16  O   UNL     1      92.657  20.766 111.387  1.00  0.00    -0.550 OA
ENDBRANCH  13  14
ENDBRANCH  12  13
ENDBRANCH  11  12
ENDBRANCH  10  11
ENDBRANCH   9  10
ENDBRANCH   8   9
ENDBRANCH   7   8
ENDBRANCH   6   7
ENDBRANCH   5   6
ENDBRANCH   4   5
ENDBRANCH   3   4
ENDBRANCH   2   3
ENDBRANCH   1   2
BRANCH   1  17
ATOM     17  C   UNL     1      82.919  13.821 107.241  1.00  0.00     0.000 C 
BRANCH  17  18
ATOM     18  C   UNL     1      84.051  12.841 107.599  1.00  0.00     0.000 C 
BRANCH  18  19
ATOM     19  C   UNL     1      84.916  13.343 108.766  1.00  0.00     0.000 C 
BRANCH  19  20
ATOM     20  C   UNL     1      86.225  14.004 108.296  1.00  0.00     0.000 C 
BRANCH  20  21
ATOM     21  C   UNL     1      86.839  13.290 107.079  1.00  0.00     0.000 C 
BRANCH  21  22
ATOM     22  C   UNL     1      88.342  13.577 106.920  1.00  0.00    -0.000 C 
BRANCH  22  23
ATOM     23  C   UNL     1      89.030  12.620 105.931  1.00  0.00    -0.000 C 
BRANCH  23  24
ATOM     24  C   UNL     1      89.095  11.151 106.387  1.00  0.00    -0.000 C 
BRANCH  24  25
ATOM     25  C   UNL     1      89.506  10.193 105.258  1.00  0.00    -0.000 C 
BRANCH  25  26
ATOM     26  C   UNL     1      90.195   8.944 105.819  1.00  0.00    -0.000 C 
BRANCH  26  27
ATOM     27  C   UNL     1      90.346   9.034 107.345  1.00  0.00    -0.000 C 
BRANCH  27  28
ATOM     28  C   UNL     1      91.163   7.871 107.929  1.00  0.00    -0.000 C 
BRANCH  28  29
ATOM     29  C   UNL     1      90.299   6.876 108.717  1.00  0.00    -0.003 C 
ATOM     30  C   UNL     1      89.093   7.570 109.343  1.00  0.00     0.004 C 
ENDBRANCH  28  29
ENDBRANCH  27  28
ENDBRANCH  26  27
ENDBRANCH  25  26
ENDBRANCH  24  25
ENDBRANCH  23  24
ENDBRANCH  22  23
ENDBRANCH  21  22
ENDBRANCH  20  21
ENDBRANCH  19  20
ENDBRANCH  18  19
ENDBRANCH  17  18
ENDBRANCH   1  17
TORSDOF 26
ENDMDL
MODEL 5
REMARK VINA RESULT:    13.942      3.368     10.720
REMARK INTER + INTRA:          34.789
REMARK INTER:                  34.255
REMARK INTRA:                   0.534
REMARK UNBOUND:                -0.345
REMARK SMILES CCCCCCCCCCCCCCCCCCCCCCCCCCCC(=O)[O-]
REMARK SMILES IDX 15 1 16 2 17 3 18 4 19 5 20 6 21 7 22 8 23 9 24 10 25 11
REMARK SMILES IDX 26 12 27 13 28 14 29 15 30 16 14 17 13 18 12 19 11 20 10 21
REMARK SMILES IDX 9 22 8 23 7 24 6 25 5 26 4 27 3 28 2 29 1 30
REMARK H PARENT
REMARK Flexibility Score: inf
ROOT
ATOM      1  C   UNL     1      83.097  15.261 106.932  1.00  0.00     0.000 C 
ENDROOT
BRANCH   1   2
ATOM      2  C   UNL     1      83.133  13.723 107.039  1.00  0.00     0.000 C 
BRANCH   2   3
ATOM      3  C   UNL     1      83.575  13.221 108.422  1.00  0.00     0.000 C 
BRANCH   3   4
ATOM      4  C   UNL     1      84.719  14.055 109.024  1.00  0.00     0.000 C 
BRANCH   4   5
ATOM      5  C   UNL     1      86.124  13.458 108.794  1.00  0.00     0.000 C 
BRANCH   5   6
ATOM      6  C   UNL     1      86.795  13.999 107.517  1.00  0.00     0.000 C 
BRANCH   6   7
ATOM      7  C   UNL     1      88.288  13.650 107.438  1.00  0.00     0.000 C 
BRANCH   7   8
ATOM      8  C   UNL     1      88.721  13.180 106.040  1.00  0.00     0.000 C 
BRANCH   8   9
ATOM      9  C   UNL     1      88.410  11.691 105.846  1.00  0.00     0.000 C 
BRANCH   9  10
ATOM     10  C   UNL     1      89.567  10.814 106.349  1.00  0.00     0.000 C 
BRANCH  10  11
ATOM     11  C   UNL     1      89.876   9.641 105.402  1.00  0.00     0.000 C 
BRANCH  11  12
ATOM     12  C   UNL     1      90.752   8.563 106.064  1.00  0.00     0.006 C 
BRANCH  12  13
ATOM     13  C   UNL     1      89.948   7.655 107.004  1.00  0.00     0.053 C 
BRANCH  13  14
ATOM     14  C   UNL     1      90.566   7.566 108.367  1.00  0.00     0.041 C 
ATOM     15  O   UNL     1      89.892   7.859 109.389  1.00  0.00    -0.550 OA
ATOM     16  O   UNL     1      91.879   7.133 108.509  1.00  0.00    -0.550 OA
ENDBRANCH  13  14
ENDBRANCH  12  13
ENDBRANCH  11  12
ENDBRANCH  10  11
ENDBRANCH   9  10
ENDBRANCH   8   9
ENDBRANCH   7   8
ENDBRANCH   6   7
ENDBRANCH   5   6
ENDBRANCH   4   5
ENDBRANCH   3   4
ENDBRANCH   2   3
ENDBRANCH   1   2
BRANCH   1  17
ATOM     17  C   UNL     1      84.467  15.965 106.959  1.00  0.00     0.000 C 
BRANCH  17  18
ATOM     18  C   UNL     1      84.591  17.009 108.084  1.00  0.00     0.000 C 
BRANCH  18  19
ATOM     19  C   UNL     1      85.009  18.391 107.559  1.00  0.00     0.000 C 
BRANCH  19  20
ATOM     20  C   UNL     1      85.923  19.149 108.540  1.00  0.00     0.000 C 
BRANCH  20  21
ATOM     21  C   UNL     1      85.885  20.672 108.320  1.00  0.00     0.000 C 
BRANCH  21  22
ATOM     22  C   UNL     1      86.996  21.409 109.089  1.00  0.00    -0.000 C 
BRANCH  22  23
ATOM     23  C   UNL     1      87.240  20.820 110.490  1.00  0.00    -0.000 C 
BRANCH  23  24
ATOM     24  C   UNL     1      88.666  21.015 111.037  1.00  0.00    -0.000 C 
BRANCH  24  25
ATOM     25  C   UNL     1      88.795  22.254 111.936  1.00  0.00    -0.000 C 
BRANCH  25  26
ATOM     26  C   UNL     1      90.256  22.710 112.039  1.00  0.00    -0.000 C 
BRANCH  26  27
ATOM     27  C   UNL     1      90.845  22.372 113.416  1.00  0.00    -0.000 C 
BRANCH  27  28
ATOM     28  C   UNL     1      91.098  20.867 113.599  1.00  0.00    -0.000 C 
BRANCH  28  29
ATOM     29  C   UNL     1      91.299  20.134 112.265  1.00  0.00    -0.003 C 
ATOM     30  C   UNL     1      92.780  19.912 111.976  1.00  0.00     0.004 C 
ENDBRANCH  28  29
ENDBRANCH  27  28
ENDBRANCH  26  27
ENDBRANCH  25  26
ENDBRANCH  24  25
ENDBRANCH  23  24
ENDBRANCH  22  23
ENDBRANCH  21  22
ENDBRANCH  20  21
ENDBRANCH  19  20
ENDBRANCH  18  19
ENDBRANCH  17  18
ENDBRANCH   1  17
TORSDOF 26
ENDMDL
MODEL 6
REMARK VINA RESULT:    14.344      1.202      2.208
REMARK INTER + INTRA:          35.802
REMARK INTER:                  35.254
REMARK INTRA:                   0.548
REMARK UNBOUND:                -0.345
REMARK SMILES CCCCCCCCCCCCCCCCCCCCCCCCCCCC(=O)[O-]
REMARK SMILES IDX 15 1 16 2 17 3 18 4 19 5 20 6 21 7 22 8 23 9 24 10 25 11
REMARK SMILES IDX 26 12 27 13 28 14 29 15 30 16 14 17 13 18 12 19 11 20 10 21
REMARK SMILES IDX 9 22 8 23 7 24 6 25 5 26 4 27 3 28 2 29 1 30
REMARK H PARENT
REMARK Flexibility Score: inf
ROOT
ATOM      1  C   UNL     1      82.746  14.844 107.051  1.00  0.00     0.000 C 
ENDROOT
BRANCH   1   2
ATOM      2  C   UNL     1      83.860  15.855 106.714  1.00  0.00     0.000 C 
BRANCH   2   3
ATOM      3  C   UNL     1      84.335  16.663 107.931  1.00  0.00     0.000 C 
BRANCH   3   4
ATOM      4  C   UNL     1      85.054  17.966 107.540  1.00  0.00     0.000 C 
BRANCH   4   5
ATOM      5  C   UNL     1      85.466  18.845 108.742  1.00  0.00     0.000 C 
BRANCH   5   6
ATOM      6  C   UNL     1      86.239  20.106 108.314  1.00  0.00     0.000 C 
BRANCH   6   7
ATOM      7  C   UNL     1      86.376  21.132 109.448  1.00  0.00     0.000 C 
BRANCH   7   8
ATOM      8  C   UNL     1      87.832  21.551 109.705  1.00  0.00     0.000 C 
BRANCH   8   9
ATOM      9  C   UNL     1      88.377  20.878 110.971  1.00  0.00     0.000 C 
BRANCH   9  10
ATOM     10  C   UNL     1      88.407  21.861 112.151  1.00  0.00     0.000 C 
BRANCH  10  11
ATOM     11  C   UNL     1      89.416  23.003 111.946  1.00  0.00     0.000 C 
BRANCH  11  12
ATOM     12  C   UNL     1      90.873  22.545 112.138  1.00  0.00     0.006 C 
BRANCH  12  13
ATOM     13  C   UNL     1      91.014  21.509 113.262  1.00  0.00     0.053 C 
BRANCH  13  14
ATOM     14  C   UNL     1      91.290  20.136 112.730  1.00  0.00     0.041 C 
ATOM     15  O   UNL     1      90.472  19.200 112.934  1.00  0.00    -0.550 OA
ATOM     16  O   UNL     1      92.438  19.894 111.985  1.00  0.00    -0.550 OA
ENDBRANCH  13  14
ENDBRANCH  12  13
ENDBRANCH  11  12
ENDBRANCH  10  11
ENDBRANCH   9  10
ENDBRANCH   8   9
ENDBRANCH   7   8
ENDBRANCH   6   7
ENDBRANCH   5   6
ENDBRANCH   4   5
ENDBRANCH   3   4
ENDBRANCH   2   3
ENDBRANCH   1   2
BRANCH   1  17
ATOM     17  C   UNL     1      83.218  13.413 107.375  1.00  0.00     0.000 C 
BRANCH  17  18
ATOM     18  C   UNL     1      82.854  12.964 108.802  1.00  0.00     0.000 C 
BRANCH  18  19
ATOM     19  C   UNL     1      83.413  13.911 109.876  1.00  0.00     0.000 C 
BRANCH  19  20
ATOM     20  C   UNL     1      84.890  14.274 109.640  1.00  0.00     0.000 C 
BRANCH  20  21
ATOM     21  C   UNL     1      85.561  13.359 108.600  1.00  0.00     0.000 C 
BRANCH  21  22
ATOM     22  C   UNL     1      86.600  14.101 107.741  1.00  0.00    -0.000 C 
BRANCH  22  23
ATOM     23  C   UNL     1      87.742  13.185 107.264  1.00  0.00    -0.000 C 
BRANCH  23  24
ATOM     24  C   UNL     1      88.630  13.777 106.156  1.00  0.00    -0.000 C 
BRANCH  24  25
ATOM     25  C   UNL     1      89.369  12.702 105.345  1.00  0.00    -0.000 C 
BRANCH  25  26
ATOM     26  C   UNL     1      88.926  11.295 105.763  1.00  0.00    -0.000 C 
BRANCH  26  27
ATOM     27  C   UNL     1      90.082  10.292 105.637  1.00  0.00    -0.000 C 
BRANCH  27  28
ATOM     28  C   UNL     1      89.805   8.973 106.377  1.00  0.00    -0.000 C 
BRANCH  28  29
ATOM     29  C   UNL     1      91.079   8.152 106.622  1.00  0.00    -0.003 C 
ATOM     30  C   UNL     1      91.146   7.652 108.062  1.00  0.00     0.004 C 
ENDBRANCH  28  29
ENDBRANCH  27  28
ENDBRANCH  26  27
ENDBRANCH  25  26
ENDBRANCH  24  25
ENDBRANCH  23  24
ENDBRANCH  22  23
ENDBRANCH  21  22
ENDBRANCH  20  21
ENDBRANCH  19  20
ENDBRANCH  18  19
ENDBRANCH  17  18
ENDBRANCH   1  17
TORSDOF 26
ENDMDL
