MODEL 1
REMARK VINA RESULT:    -2.201      0.000      0.000
REMARK INTER + INTRA:          -6.177
REMARK INTER:                  -4.774
REMARK INTRA:                  -1.403
REMARK UNBOUND:                -1.403
REMARK SMILES CCCCCCCCCCCCCCCCCCCCCC(=O)[O-]
REMARK SMILES IDX 12 1 11 2 10 3 9 4 8 5 7 6 6 7 5 8 4 9 3 10 2 11 1 12 13 13
REMARK SMILES IDX 14 14 15 15 16 16 17 17 18 18 19 19 20 20 21 21 22 22 23 23
REMARK SMILES IDX 24 24
REMARK H PARENT
REMARK Flexibility Score: inf
ROOT
ATOM      1  C   UNL     1     -15.639   9.884   7.995  1.00  0.00     0.000 C 
ENDROOT
BRANCH   1   2
ATOM      2  C   UNL     1     -15.716   9.691   6.470  1.00  0.00     0.000 C 
BRANCH   2   3
ATOM      3  C   UNL     1     -14.469  10.153   5.687  1.00  0.00     0.000 C 
BRANCH   3   4
ATOM      4  C   UNL     1     -14.314   9.547   4.280  1.00  0.00    -0.000 C 
BRANCH   4   5
ATOM      5  C   UNL     1     -13.022   9.997   3.575  1.00  0.00    -0.000 C 
BRANCH   5   6
ATOM      6  C   UNL     1     -13.169  10.035   2.045  1.00  0.00    -0.000 C 
BRANCH   6   7
ATOM      7  C   UNL     1     -13.920   8.813   1.488  1.00  0.00    -0.000 C 
BRANCH   7   8
ATOM      8  C   UNL     1     -13.159   8.134   0.330  1.00  0.00    -0.000 C 
BRANCH   8   9
ATOM      9  C   UNL     1     -13.690   6.732  -0.026  1.00  0.00    -0.000 C 
BRANCH   9  10
ATOM     10  C   UNL     1     -15.218   6.568   0.083  1.00  0.00    -0.000 C 
BRANCH  10  11
ATOM     11  C   UNL     1     -15.765   5.235  -0.461  1.00  0.00    -0.003 C 
ATOM     12  C   UNL     1     -14.913   4.658  -1.589  1.00  0.00     0.004 C 
ENDBRANCH  10  11
ENDBRANCH   9  10
ENDBRANCH   8   9
ENDBRANCH   7   8
ENDBRANCH   6   7
ENDBRANCH   5   6
ENDBRANCH   4   5
ENDBRANCH   3   4
ENDBRANCH   2   3
ENDBRANCH   1   2
BRANCH   1  13
ATOM     13  C   UNL     1     -17.020   9.899   8.666  1.00  0.00     0.000 C 
BRANCH  13  14
ATOM     14  C   UNL     1     -17.106  11.015   9.718  1.00  0.00     0.000 C 
BRANCH  14  15
ATOM     15  C   UNL     1     -16.552  10.586  11.086  1.00  0.00     0.000 C 
BRANCH  15  16
ATOM     16  C   UNL     1     -16.631  11.709  12.133  1.00  0.00     0.000 C 
BRANCH  16  17
ATOM     17  C   UNL     1     -15.243  12.215  12.560  1.00  0.00     0.000 C 
BRANCH  17  18
ATOM     18  C   UNL     1     -15.009  13.690  12.189  1.00  0.00     0.000 C 
BRANCH  18  19
ATOM     19  C   UNL     1     -13.687  13.913  11.433  1.00  0.00     0.000 C 
BRANCH  19  20
ATOM     20  C   UNL     1     -13.844  14.244   9.938  1.00  0.00     0.006 C 
BRANCH  20  21
ATOM     21  C   UNL     1     -14.451  13.089   9.129  1.00  0.00     0.053 C 
BRANCH  21  22
ATOM     22  C   UNL     1     -14.312  13.345   7.661  1.00  0.00     0.041 C 
ATOM     23  O   UNL     1     -15.314  13.249   6.904  1.00  0.00    -0.550 OA
ATOM     24  O   UNL     1     -13.068  13.651   7.123  1.00  0.00    -0.550 OA
ENDBRANCH  21  22
ENDBRANCH  20  21
ENDBRANCH  19  20
ENDBRANCH  18  19
ENDBRANCH  17  18
ENDBRANCH  16  17
ENDBRANCH  15  16
ENDBRANCH  14  15
ENDBRANCH  13  14
ENDBRANCH   1  13
TORSDOF 20
ENDMDL
MODEL 2
REMARK VINA RESULT:    -1.663      3.605     10.436
REMARK INTER + INTRA:          -5.011
REMARK INTER:                  -3.586
REMARK INTRA:                  -1.425
REMARK UNBOUND:                -1.403
REMARK SMILES CCCCCCCCCCCCCCCCCCCCCC(=O)[O-]
REMARK SMILES IDX 12 1 11 2 10 3 9 4 8 5 7 6 6 7 5 8 4 9 3 10 2 11 1 12 13 13
REMARK SMILES IDX 14 14 15 15 16 16 17 17 18 18 19 19 20 20 21 21 22 22 23 23
REMARK SMILES IDX 24 24
REMARK H PARENT
REMARK Flexibility Score: inf
ROOT
ATOM      1  C   UNL     1     -15.402  10.257   6.653  1.00  0.00     0.000 C 
ENDROOT
BRANCH   1   2
ATOM      2  C   UNL     1     -16.831  10.589   7.116  1.00  0.00     0.000 C 
BRANCH   2   3
ATOM      3  C   UNL     1     -16.925  11.352   8.454  1.00  0.00     0.000 C 
BRANCH   3   4
ATOM      4  C   UNL     1     -17.018  10.468   9.711  1.00  0.00    -0.000 C 
BRANCH   4   5
ATOM      5  C   UNL     1     -16.394  11.127  10.954  1.00  0.00    -0.000 C 
BRANCH   5   6
ATOM      6  C   UNL     1     -16.975  12.522  11.236  1.00  0.00    -0.000 C 
BRANCH   6   7
ATOM      7  C   UNL     1     -15.973  13.453  11.940  1.00  0.00    -0.000 C 
BRANCH   7   8
ATOM      8  C   UNL     1     -14.516  13.181  11.509  1.00  0.00    -0.000 C 
BRANCH   8   9
ATOM      9  C   UNL     1     -14.095  13.932  10.232  1.00  0.00    -0.000 C 
BRANCH   9  10
ATOM     10  C   UNL     1     -14.123  13.091   8.942  1.00  0.00    -0.000 C 
BRANCH  10  11
ATOM     11  C   UNL     1     -13.473  13.763   7.719  1.00  0.00    -0.003 C 
ATOM     12  C   UNL     1     -14.141  13.376   6.401  1.00  0.00     0.004 C 
ENDBRANCH  10  11
ENDBRANCH   9  10
ENDBRANCH   8   9
ENDBRANCH   7   8
ENDBRANCH   6   7
ENDBRANCH   5   6
ENDBRANCH   4   5
ENDBRANCH   3   4
ENDBRANCH   2   3
ENDBRANCH   1   2
BRANCH   1  13
ATOM     13  C   UNL     1     -15.365   9.521   5.306  1.00  0.00     0.000 C 
BRANCH  13  14
ATOM     14  C   UNL     1     -14.088   9.866   4.527  1.00  0.00     0.000 C 
BRANCH  14  15
ATOM     15  C   UNL     1     -13.997   9.134   3.179  1.00  0.00     0.000 C 
BRANCH  15  16
ATOM     16  C   UNL     1     -13.321   9.984   2.090  1.00  0.00     0.000 C 
BRANCH  16  17
ATOM     17  C   UNL     1     -12.778   9.132   0.931  1.00  0.00     0.000 C 
BRANCH  17  18
ATOM     18  C   UNL     1     -13.729   7.987   0.540  1.00  0.00     0.000 C 
BRANCH  18  19
ATOM     19  C   UNL     1     -13.052   6.923  -0.342  1.00  0.00     0.000 C 
BRANCH  19  20
ATOM     20  C   UNL     1     -13.981   5.796  -0.826  1.00  0.00     0.006 C 
BRANCH  20  21
ATOM     21  C   UNL     1     -15.377   5.854  -0.190  1.00  0.00     0.053 C 
BRANCH  21  22
ATOM     22  C   UNL     1     -16.213   4.702  -0.649  1.00  0.00     0.041 C 
ATOM     23  O   UNL     1     -17.080   4.203   0.117  1.00  0.00    -0.550 OA
ATOM     24  O   UNL     1     -16.008   4.152  -1.908  1.00  0.00    -0.550 OA
ENDBRANCH  21  22
ENDBRANCH  20  21
ENDBRANCH  19  20
ENDBRANCH  18  19
ENDBRANCH  17  18
ENDBRANCH  16  17
ENDBRANCH  15  16
ENDBRANCH  14  15
ENDBRANCH  13  14
ENDBRANCH   1  13
TORSDOF 20
ENDMDL
MODEL 3
REMARK VINA RESULT:    -1.655      1.428      2.131
REMARK INTER + INTRA:          -4.992
REMARK INTER:                  -3.555
REMARK INTRA:                  -1.437
REMARK UNBOUND:                -1.403
REMARK SMILES CCCCCCCCCCCCCCCCCCCCCC(=O)[O-]
REMARK SMILES IDX 12 1 11 2 10 3 9 4 8 5 7 6 6 7 5 8 4 9 3 10 2 11 1 12 13 13
REMARK SMILES IDX 14 14 15 15 16 16 17 17 18 18 19 19 20 20 21 21 22 22 23 23
REMARK SMILES IDX 24 24
REMARK H PARENT
REMARK Flexibility Score: inf
ROOT
ATOM      1  C   UNL     1     -15.316  10.209   7.978  1.00  0.00     0.000 C 
ENDROOT
BRANCH   1   2
ATOM      2  C   UNL     1     -15.083  10.644   6.520  1.00  0.00     0.000 C 
BRANCH   2   3
ATOM      3  C   UNL     1     -14.670   9.511   5.557  1.00  0.00     0.000 C 
BRANCH   3   4
ATOM      4  C   UNL     1     -13.712   9.925   4.426  1.00  0.00    -0.000 C 
BRANCH   4   5
ATOM      5  C   UNL     1     -14.107   9.333   3.061  1.00  0.00    -0.000 C 
BRANCH   5   6
ATOM      6  C   UNL     1     -13.078   9.647   1.962  1.00  0.00    -0.000 C 
BRANCH   6   7
ATOM      7  C   UNL     1     -13.204   8.715   0.745  1.00  0.00    -0.000 C 
BRANCH   7   8
ATOM      8  C   UNL     1     -14.523   7.914   0.754  1.00  0.00    -0.000 C 
BRANCH   8   9
ATOM      9  C   UNL     1     -14.436   6.564   0.017  1.00  0.00    -0.000 C 
BRANCH   9  10
ATOM     10  C   UNL     1     -15.733   5.732   0.025  1.00  0.00    -0.000 C 
BRANCH  10  11
ATOM     11  C   UNL     1     -15.864   4.731  -1.138  1.00  0.00    -0.003 C 
ATOM     12  C   UNL     1     -14.554   4.517  -1.892  1.00  0.00     0.004 C 
ENDBRANCH  10  11
ENDBRANCH   9  10
ENDBRANCH   8   9
ENDBRANCH   7   8
ENDBRANCH   6   7
ENDBRANCH   5   6
ENDBRANCH   4   5
ENDBRANCH   3   4
ENDBRANCH   2   3
ENDBRANCH   1   2
BRANCH   1  13
ATOM     13  C   UNL     1     -16.759   9.754   8.242  1.00  0.00     0.000 C 
BRANCH  13  14
ATOM     14  C   UNL     1     -16.805   8.260   8.593  1.00  0.00     0.000 C 
BRANCH  14  15
ATOM     15  C   UNL     1     -16.044   7.929   9.887  1.00  0.00     0.000 C 
BRANCH  15  16
ATOM     16  C   UNL     1     -16.873   8.219  11.149  1.00  0.00     0.000 C 
BRANCH  16  17
ATOM     17  C   UNL     1     -16.150   9.162  12.125  1.00  0.00     0.000 C 
BRANCH  17  18
ATOM     18  C   UNL     1     -16.583  10.630  11.962  1.00  0.00     0.000 C 
BRANCH  18  19
ATOM     19  C   UNL     1     -15.740  11.599  12.811  1.00  0.00     0.000 C 
BRANCH  19  20
ATOM     20  C   UNL     1     -15.124  12.774  12.032  1.00  0.00     0.006 C 
BRANCH  20  21
ATOM     21  C   UNL     1     -15.103  12.543  10.515  1.00  0.00     0.053 C 
BRANCH  21  22
ATOM     22  C   UNL     1     -14.334  13.626   9.827  1.00  0.00     0.041 C 
ATOM     23  O   UNL     1     -14.013  13.504   8.615  1.00  0.00    -0.550 OA
ATOM     24  O   UNL     1     -13.937  14.754  10.536  1.00  0.00    -0.550 OA
ENDBRANCH  21  22
ENDBRANCH  20  21
ENDBRANCH  19  20
ENDBRANCH  18  19
ENDBRANCH  17  18
ENDBRANCH  16  17
ENDBRANCH  15  16
ENDBRANCH  14  15
ENDBRANCH  13  14
ENDBRANCH   1  13
TORSDOF 20
ENDMDL
MODEL 4
REMARK VINA RESULT:    -1.653      3.188      9.993
REMARK INTER + INTRA:          -4.989
REMARK INTER:                  -3.340
REMARK INTRA:                  -1.649
REMARK UNBOUND:                -1.403
REMARK SMILES CCCCCCCCCCCCCCCCCCCCCC(=O)[O-]
REMARK SMILES IDX 12 1 11 2 10 3 9 4 8 5 7 6 6 7 5 8 4 9 3 10 2 11 1 12 13 13
REMARK SMILES IDX 14 14 15 15 16 16 17 17 18 18 19 19 20 20 21 21 22 22 23 23
REMARK SMILES IDX 24 24
REMARK H PARENT
REMARK Flexibility Score: inf
ROOT
ATOM      1  C   UNL     1     -15.529   8.946   8.571  1.00  0.00     0.000 C 
ENDROOT
BRANCH   1   2
ATOM      2  C   UNL     1     -16.884   8.623   9.225  1.00  0.00     0.000 C 
BRANCH   2   3
ATOM      3  C   UNL     1     -16.824   7.614  10.391  1.00  0.00     0.000 C 
BRANCH   3   4
ATOM      4  C   UNL     1     -17.030   8.215  11.793  1.00  0.00    -0.000 C 
BRANCH   4   5
ATOM      5  C   UNL     1     -15.729   8.763  12.407  1.00  0.00    -0.000 C 
BRANCH   5   6
ATOM      6  C   UNL     1     -15.881  10.205  12.919  1.00  0.00    -0.000 C 
BRANCH   6   7
ATOM      7  C   UNL     1     -16.479  11.151  11.863  1.00  0.00    -0.000 C 
BRANCH   7   8
ATOM      8  C   UNL     1     -16.032  12.615  12.068  1.00  0.00    -0.000 C 
BRANCH   8   9
ATOM      9  C   UNL     1     -14.614  12.756  12.654  1.00  0.00    -0.000 C 
BRANCH   9  10
ATOM     10  C   UNL     1     -13.688  13.722  11.892  1.00  0.00    -0.000 C 
BRANCH  10  11
ATOM     11  C   UNL     1     -14.341  14.429  10.689  1.00  0.00    -0.003 C 
ATOM     12  C   UNL     1     -14.114  13.694   9.370  1.00  0.00     0.004 C 
ENDBRANCH  10  11
ENDBRANCH   9  10
ENDBRANCH   8   9
ENDBRANCH   7   8
ENDBRANCH   6   7
ENDBRANCH   5   6
ENDBRANCH   4   5
ENDBRANCH   3   4
ENDBRANCH   2   3
ENDBRANCH   1   2
BRANCH   1  13
ATOM     13  C   UNL     1     -15.311  10.451   8.360  1.00  0.00     0.000 C 
BRANCH  13  14
ATOM     14  C   UNL     1     -15.550  10.839   6.893  1.00  0.00     0.000 C 
BRANCH  14  15
ATOM     15  C   UNL     1     -15.104   9.746   5.909  1.00  0.00     0.000 C 
BRANCH  15  16
ATOM     16  C   UNL     1     -13.923  10.190   5.030  1.00  0.00     0.000 C 
BRANCH  16  17
ATOM     17  C   UNL     1     -13.814   9.371   3.733  1.00  0.00     0.000 C 
BRANCH  17  18
ATOM     18  C   UNL     1     -13.015  10.099   2.637  1.00  0.00     0.000 C 
BRANCH  18  19
ATOM     19  C   UNL     1     -13.063   9.373   1.281  1.00  0.00     0.000 C 
BRANCH  19  20
ATOM     20  C   UNL     1     -14.250   8.409   1.105  1.00  0.00     0.006 C 
BRANCH  20  21
ATOM     21  C   UNL     1     -13.885   7.149   0.308  1.00  0.00     0.053 C 
BRANCH  21  22
ATOM     22  C   UNL     1     -15.119   6.400  -0.087  1.00  0.00     0.041 C 
ATOM     23  O   UNL     1     -15.036   5.394  -0.840  1.00  0.00    -0.550 OA
ATOM     24  O   UNL     1     -16.365   6.838   0.343  1.00  0.00    -0.550 OA
ENDBRANCH  21  22
ENDBRANCH  20  21
ENDBRANCH  19  20
ENDBRANCH  18  19
ENDBRANCH  17  18
ENDBRANCH  16  17
ENDBRANCH  15  16
ENDBRANCH  14  15
ENDBRANCH  13  14
ENDBRANCH   1  13
TORSDOF 20
ENDMDL
MODEL 5
REMARK VINA RESULT:    -1.589      5.367      7.342
REMARK INTER + INTRA:          -4.849
REMARK INTER:                  -4.071
REMARK INTRA:                  -0.778
REMARK UNBOUND:                -1.403
REMARK SMILES CCCCCCCCCCCCCCCCCCCCCC(=O)[O-]
REMARK SMILES IDX 12 1 11 2 10 3 9 4 8 5 7 6 6 7 5 8 4 9 3 10 2 11 1 12 13 13
REMARK SMILES IDX 14 14 15 15 16 16 17 17 18 18 19 19 20 20 21 21 22 22 23 23
REMARK SMILES IDX 24 24
REMARK H PARENT
REMARK Flexibility Score: inf
ROOT
ATOM      1  C   UNL     1     -14.411  12.277   7.433  1.00  0.00     0.000 C 
ENDROOT
BRANCH   1   2
ATOM      2  C   UNL     1     -15.166  11.442   8.483  1.00  0.00     0.000 C 
BRANCH   2   3
ATOM      3  C   UNL     1     -15.028   9.913   8.325  1.00  0.00     0.000 C 
BRANCH   3   4
ATOM      4  C   UNL     1     -16.337   9.116   8.471  1.00  0.00    -0.000 C 
BRANCH   4   5
ATOM      5  C   UNL     1     -17.125   9.485   9.741  1.00  0.00    -0.000 C 
BRANCH   5   6
ATOM      6  C   UNL     1     -16.937   8.458  10.869  1.00  0.00    -0.000 C 
BRANCH   6   7
ATOM      7  C   UNL     1     -16.438   7.096  10.357  1.00  0.00    -0.000 C 
BRANCH   7   8
ATOM      8  C   UNL     1     -14.910   6.934  10.516  1.00  0.00    -0.000 C 
BRANCH   8   9
ATOM      9  C   UNL     1     -14.432   6.956  11.980  1.00  0.00    -0.000 C 
BRANCH   9  10
ATOM     10  C   UNL     1     -14.065   5.579  12.565  1.00  0.00    -0.000 C 
BRANCH  10  11
ATOM     11  C   UNL     1     -15.074   4.457  12.259  1.00  0.00    -0.003 C 
ATOM     12  C   UNL     1     -16.499   4.804  12.685  1.00  0.00     0.004 C 
ENDBRANCH  10  11
ENDBRANCH   9  10
ENDBRANCH   8   9
ENDBRANCH   7   8
ENDBRANCH   6   7
ENDBRANCH   5   6
ENDBRANCH   4   5
ENDBRANCH   3   4
ENDBRANCH   2   3
ENDBRANCH   1   2
BRANCH   1  13
ATOM     13  C   UNL     1     -15.330  13.227   6.652  1.00  0.00     0.000 C 
BRANCH  13  14
ATOM     14  C   UNL     1     -16.788  13.084   7.115  1.00  0.00     0.000 C 
BRANCH  14  15
ATOM     15  C   UNL     1     -17.125  13.998   8.304  1.00  0.00     0.000 C 
BRANCH  15  16
ATOM     16  C   UNL     1     -17.111  13.248   9.647  1.00  0.00     0.000 C 
BRANCH  16  17
ATOM     17  C   UNL     1     -16.422  14.052  10.763  1.00  0.00     0.000 C 
BRANCH  17  18
ATOM     18  C   UNL     1     -14.963  14.405  10.425  1.00  0.00     0.000 C 
BRANCH  18  19
ATOM     19  C   UNL     1     -14.009  14.201  11.616  1.00  0.00     0.000 C 
BRANCH  19  20
ATOM     20  C   UNL     1     -14.670  13.639  12.887  1.00  0.00     0.006 C 
BRANCH  20  21
ATOM     21  C   UNL     1     -14.370  12.151  13.111  1.00  0.00     0.053 C 
BRANCH  21  22
ATOM     22  C   UNL     1     -15.634  11.351  13.096  1.00  0.00     0.041 C 
ATOM     23  O   UNL     1     -15.588  10.092  13.125  1.00  0.00    -0.550 OA
ATOM     24  O   UNL     1     -16.863  11.994  13.009  1.00  0.00    -0.550 OA
ENDBRANCH  21  22
ENDBRANCH  20  21
ENDBRANCH  19  20
ENDBRANCH  18  19
ENDBRANCH  17  18
ENDBRANCH  16  17
ENDBRANCH  15  16
ENDBRANCH  14  15
ENDBRANCH  13  14
ENDBRANCH   1  13
TORSDOF 20
ENDMDL
MODEL 6
REMARK VINA RESULT:    -1.544      2.431      4.012
REMARK INTER + INTRA:          -4.753
REMARK INTER:                  -3.304
REMARK INTRA:                  -1.449
REMARK UNBOUND:                -1.403
REMARK SMILES CCCCCCCCCCCCCCCCCCCCCC(=O)[O-]
REMARK SMILES IDX 12 1 11 2 10 3 9 4 8 5 7 6 6 7 5 8 4 9 3 10 2 11 1 12 13 13
REMARK SMILES IDX 14 14 15 15 16 16 17 17 18 18 19 19 20 20 21 21 22 22 23 23
REMARK SMILES IDX 24 24
REMARK H PARENT
REMARK Flexibility Score: inf
ROOT
ATOM      1  C   UNL     1     -14.485  12.937   7.279  1.00  0.00     0.000 C 
ENDROOT
BRANCH   1   2
ATOM      2  C   UNL     1     -15.725  12.103   7.645  1.00  0.00     0.000 C 
BRANCH   2   3
ATOM      3  C   UNL     1     -15.515  10.574   7.628  1.00  0.00     0.000 C 
BRANCH   3   4
ATOM      4  C   UNL     1     -15.634   9.909   6.244  1.00  0.00    -0.000 C 
BRANCH   4   5
ATOM      5  C   UNL     1     -14.308   9.915   5.462  1.00  0.00    -0.000 C 
BRANCH   5   6
ATOM      6  C   UNL     1     -14.491   9.514   3.989  1.00  0.00    -0.000 C 
BRANCH   6   7
ATOM      7  C   UNL     1     -13.169   9.519   3.202  1.00  0.00    -0.000 C 
BRANCH   7   8
ATOM      8  C   UNL     1     -13.375   9.875   1.714  1.00  0.00    -0.000 C 
BRANCH   8   9
ATOM      9  C   UNL     1     -12.939   8.762   0.742  1.00  0.00    -0.000 C 
BRANCH   9  10
ATOM     10  C   UNL     1     -14.009   7.692   0.456  1.00  0.00    -0.000 C 
BRANCH  10  11
ATOM     11  C   UNL     1     -13.509   6.477  -0.348  1.00  0.00    -0.003 C 
ATOM     12  C   UNL     1     -14.618   5.478  -0.670  1.00  0.00     0.004 C 
ENDBRANCH  10  11
ENDBRANCH   9  10
ENDBRANCH   8   9
ENDBRANCH   7   8
ENDBRANCH   6   7
ENDBRANCH   5   6
ENDBRANCH   4   5
ENDBRANCH   3   4
ENDBRANCH   2   3
ENDBRANCH   1   2
BRANCH   1  13
ATOM     13  C   UNL     1     -13.865  13.650   8.490  1.00  0.00     0.000 C 
BRANCH  13  14
ATOM     14  C   UNL     1     -14.799  13.575   9.706  1.00  0.00     0.000 C 
BRANCH  14  15
ATOM     15  C   UNL     1     -14.036  13.453  11.035  1.00  0.00     0.000 C 
BRANCH  15  16
ATOM     16  C   UNL     1     -14.944  13.018  12.198  1.00  0.00     0.000 C 
BRANCH  16  17
ATOM     17  C   UNL     1     -16.436  13.070  11.831  1.00  0.00     0.000 C 
BRANCH  17  18
ATOM     18  C   UNL     1     -17.119  11.694  11.931  1.00  0.00     0.000 C 
BRANCH  18  19
ATOM     19  C   UNL     1     -16.125  10.524  11.824  1.00  0.00     0.000 C 
BRANCH  19  20
ATOM     20  C   UNL     1     -16.772   9.131  11.729  1.00  0.00     0.006 C 
BRANCH  20  21
ATOM     21  C   UNL     1     -15.805   7.996  12.092  1.00  0.00     0.053 C 
BRANCH  21  22
ATOM     22  C   UNL     1     -15.378   7.255  10.864  1.00  0.00     0.041 C 
ATOM     23  O   UNL     1     -14.760   6.162  10.966  1.00  0.00    -0.550 OA
ATOM     24  O   UNL     1     -15.628   7.791   9.607  1.00  0.00    -0.550 OA
ENDBRANCH  21  22
ENDBRANCH  20  21
ENDBRANCH  19  20
ENDBRANCH  18  19
ENDBRANCH  17  18
ENDBRANCH  16  17
ENDBRANCH  15  16
ENDBRANCH  14  15
ENDBRANCH  13  14
ENDBRANCH   1  13
TORSDOF 20
ENDMDL
MODEL 7
REMARK VINA RESULT:    -1.494      3.701     10.298
REMARK INTER + INTRA:          -4.643
REMARK INTER:                  -3.094
REMARK INTRA:                  -1.549
REMARK UNBOUND:                -1.403
REMARK SMILES CCCCCCCCCCCCCCCCCCCCCC(=O)[O-]
REMARK SMILES IDX 12 1 11 2 10 3 9 4 8 5 7 6 6 7 5 8 4 9 3 10 2 11 1 12 13 13
REMARK SMILES IDX 14 14 15 15 16 16 17 17 18 18 19 19 20 20 21 21 22 22 23 23
REMARK SMILES IDX 24 24
REMARK H PARENT
REMARK Flexibility Score: inf
ROOT
ATOM      1  C   UNL     1     -15.452   9.219   7.962  1.00  0.00     0.000 C 
ENDROOT
BRANCH   1   2
ATOM      2  C   UNL     1     -16.710   8.694   8.677  1.00  0.00     0.000 C 
BRANCH   2   3
ATOM      3  C   UNL     1     -16.794   7.159   8.812  1.00  0.00     0.000 C 
BRANCH   3   4
ATOM      4  C   UNL     1     -16.639   6.615  10.243  1.00  0.00    -0.000 C 
BRANCH   4   5
ATOM      5  C   UNL     1     -15.267   6.938  10.861  1.00  0.00    -0.000 C 
BRANCH   5   6
ATOM      6  C   UNL     1     -15.386   7.648  12.220  1.00  0.00    -0.000 C 
BRANCH   6   7
ATOM      7  C   UNL     1     -16.845   7.916  12.626  1.00  0.00    -0.000 C 
BRANCH   7   8
ATOM      8  C   UNL     1     -17.125   9.418  12.851  1.00  0.00    -0.000 C 
BRANCH   8   9
ATOM      9  C   UNL     1     -16.005  10.342  12.336  1.00  0.00    -0.000 C 
BRANCH   9  10
ATOM     10  C   UNL     1     -16.382  11.205  11.117  1.00  0.00    -0.000 C 
BRANCH  10  11
ATOM     11  C   UNL     1     -16.418  12.721  11.384  1.00  0.00    -0.003 C 
ATOM     12  C   UNL     1     -15.047  13.381  11.255  1.00  0.00     0.004 C 
ENDBRANCH  10  11
ENDBRANCH   9  10
ENDBRANCH   8   9
ENDBRANCH   7   8
ENDBRANCH   6   7
ENDBRANCH   5   6
ENDBRANCH   4   5
ENDBRANCH   3   4
ENDBRANCH   2   3
ENDBRANCH   1   2
BRANCH   1  13
ATOM     13  C   UNL     1     -15.778  10.104   6.751  1.00  0.00     0.000 C 
BRANCH  13  14
ATOM     14  C   UNL     1     -14.503  10.451   5.968  1.00  0.00     0.000 C 
BRANCH  14  15
ATOM     15  C   UNL     1     -14.406   9.702   4.629  1.00  0.00     0.000 C 
BRANCH  15  16
ATOM     16  C   UNL     1     -13.025   9.850   3.969  1.00  0.00     0.000 C 
BRANCH  16  17
ATOM     17  C   UNL     1     -13.121  10.211   2.477  1.00  0.00     0.000 C 
BRANCH  17  18
ATOM     18  C   UNL     1     -13.784   9.102   1.640  1.00  0.00     0.000 C 
BRANCH  18  19
ATOM     19  C   UNL     1     -12.880   8.590   0.505  1.00  0.00     0.000 C 
BRANCH  19  20
ATOM     20  C   UNL     1     -13.249   7.198  -0.038  1.00  0.00     0.006 C 
BRANCH  20  21
ATOM     21  C   UNL     1     -14.713   6.820   0.226  1.00  0.00     0.053 C 
BRANCH  21  22
ATOM     22  C   UNL     1     -15.073   5.567  -0.507  1.00  0.00     0.041 C 
ATOM     23  O   UNL     1     -14.385   5.188  -1.492  1.00  0.00    -0.550 OA
ATOM     24  O   UNL     1     -16.193   4.837  -0.128  1.00  0.00    -0.550 OA
ENDBRANCH  21  22
ENDBRANCH  20  21
ENDBRANCH  19  20
ENDBRANCH  18  19
ENDBRANCH  17  18
ENDBRANCH  16  17
ENDBRANCH  15  16
ENDBRANCH  14  15
ENDBRANCH  13  14
ENDBRANCH   1  13
TORSDOF 20
ENDMDL
MODEL 8
REMARK VINA RESULT:    -1.304      1.425      3.023
REMARK INTER + INTRA:          -4.232
REMARK INTER:                  -2.682
REMARK INTRA:                  -1.550
REMARK UNBOUND:                -1.403
REMARK SMILES CCCCCCCCCCCCCCCCCCCCCC(=O)[O-]
REMARK SMILES IDX 12 1 11 2 10 3 9 4 8 5 7 6 6 7 5 8 4 9 3 10 2 11 1 12 13 13
REMARK SMILES IDX 14 14 15 15 16 16 17 17 18 18 19 19 20 20 21 21 22 22 23 23
REMARK SMILES IDX 24 24
REMARK H PARENT
REMARK Flexibility Score: inf
ROOT
ATOM      1  C   UNL     1     -14.559   9.931   6.002  1.00  0.00     0.000 C 
ENDROOT
BRANCH   1   2
ATOM      2  C   UNL     1     -14.561   9.769   4.471  1.00  0.00     0.000 C 
BRANCH   2   3
ATOM      3  C   UNL     1     -13.165   9.737   3.814  1.00  0.00     0.000 C 
BRANCH   3   4
ATOM      4  C   UNL     1     -13.147   9.990   2.295  1.00  0.00    -0.000 C 
BRANCH   4   5
ATOM      5  C   UNL     1     -13.434   8.720   1.474  1.00  0.00    -0.000 C 
BRANCH   5   6
ATOM      6  C   UNL     1     -12.857   8.797   0.051  1.00  0.00    -0.000 C 
BRANCH   6   7
ATOM      7  C   UNL     1     -12.640   7.409  -0.579  1.00  0.00    -0.000 C 
BRANCH   7   8
ATOM      8  C   UNL     1     -13.553   6.333   0.047  1.00  0.00    -0.000 C 
BRANCH   8   9
ATOM      9  C   UNL     1     -14.571   5.731  -0.940  1.00  0.00    -0.000 C 
BRANCH   9  10
ATOM     10  C   UNL     1     -15.887   5.246  -0.304  1.00  0.00    -0.000 C 
BRANCH  10  11
ATOM     11  C   UNL     1     -17.036   6.271  -0.335  1.00  0.00    -0.003 C 
ATOM     12  C   UNL     1     -16.887   7.366   0.718  1.00  0.00     0.004 C 
ENDBRANCH  10  11
ENDBRANCH   9  10
ENDBRANCH   8   9
ENDBRANCH   7   8
ENDBRANCH   6   7
ENDBRANCH   5   6
ENDBRANCH   4   5
ENDBRANCH   3   4
ENDBRANCH   2   3
ENDBRANCH   1   2
BRANCH   1  13
ATOM     13  C   UNL     1     -15.783  10.697   6.523  1.00  0.00     0.000 C 
BRANCH  13  14
ATOM     14  C   UNL     1     -16.483   9.914   7.644  1.00  0.00     0.000 C 
BRANCH  14  15
ATOM     15  C   UNL     1     -15.535   8.951   8.377  1.00  0.00     0.000 C 
BRANCH  15  16
ATOM     16  C   UNL     1     -16.283   7.982   9.308  1.00  0.00     0.000 C 
BRANCH  16  17
ATOM     17  C   UNL     1     -16.010   8.266  10.795  1.00  0.00     0.000 C 
BRANCH  17  18
ATOM     18  C   UNL     1     -17.010   9.265  11.402  1.00  0.00     0.000 C 
BRANCH  18  19
ATOM     19  C   UNL     1     -16.327  10.518  11.979  1.00  0.00     0.000 C 
BRANCH  19  20
ATOM     20  C   UNL     1     -16.294  11.731  11.033  1.00  0.00     0.006 C 
BRANCH  20  21
ATOM     21  C   UNL     1     -15.183  12.731  11.379  1.00  0.00     0.053 C 
BRANCH  21  22
ATOM     22  C   UNL     1     -14.557  13.275  10.133  1.00  0.00     0.041 C 
ATOM     23  O   UNL     1     -14.384  12.529   9.133  1.00  0.00    -0.550 OA
ATOM     24  O   UNL     1     -14.128  14.596  10.089  1.00  0.00    -0.550 OA
ENDBRANCH  21  22
ENDBRANCH  20  21
ENDBRANCH  19  20
ENDBRANCH  18  19
ENDBRANCH  17  18
ENDBRANCH  16  17
ENDBRANCH  15  16
ENDBRANCH  14  15
ENDBRANCH  13  14
ENDBRANCH   1  13
TORSDOF 20
ENDMDL
