MODEL 1
REMARK VINA RESULT:    -5.296      0.000      0.000
REMARK INTER + INTRA:          -6.490
REMARK INTER:                  -6.224
REMARK INTRA:                  -0.266
REMARK UNBOUND:                -0.266
REMARK SMILES O=c1cc(-c2ccc(O)c(O)c2)oc2cc(O)cc(O)c12
REMARK SMILES IDX 4 1 3 2 2 3 1 4 21 5 19 6 18 7 16 8 15 9 14 10 13 11 5 12
REMARK SMILES IDX 6 13 7 14 8 15 12 16 10 17 9 18 11 20 20 22 17 24
REMARK H PARENT 9 19 11 21 20 23 17 25
REMARK Flexibility Score: inf
ROOT
ATOM      1  C   UNL     1      11.013  -0.254  14.592  1.00  0.00     0.138 A 
ATOM      2  C   UNL     1      11.003   0.530  13.430  1.00  0.00     0.100 A 
ATOM      3  C   UNL     1       9.848   1.228  13.078  1.00  0.00     0.197 A 
ATOM      4  O   UNL     1       9.854   1.877  12.000  1.00  0.00    -0.289 OA
ATOM      5  C   UNL     1       8.708   1.170  13.915  1.00  0.00     0.107 A 
ATOM      6  C   UNL     1       7.485   1.868  13.675  1.00  0.00     0.134 A 
ATOM      7  C   UNL     1       6.391   1.653  14.523  1.00  0.00     0.093 A 
ATOM      8  C   UNL     1       6.494   0.813  15.634  1.00  0.00     0.123 A 
ATOM      9  C   UNL     1       7.697   0.167  15.905  1.00  0.00     0.094 A 
ATOM     10  C   UNL     1       8.796   0.333  15.058  1.00  0.00     0.146 A 
ATOM     11  O   UNL     1       9.920  -0.317  15.344  1.00  0.00    -0.456 OA
ENDROOT
BRANCH   1  12
ATOM     12  C   UNL     1      12.216  -1.015  15.016  1.00  0.00     0.021 A 
ATOM     13  C   UNL     1      12.898  -0.634  16.184  1.00  0.00     0.016 A 
ATOM     14  C   UNL     1      14.028  -1.337  16.608  1.00  0.00     0.051 A 
ATOM     15  C   UNL     1      14.490  -2.438  15.883  1.00  0.00     0.157 A 
ATOM     16  C   UNL     1      12.677  -2.134  14.294  1.00  0.00     0.062 A 
ATOM     17  C   UNL     1      13.812  -2.841  14.722  1.00  0.00     0.158 A 
BRANCH  15  18
ATOM     18  O   UNL     1      15.622  -3.119  16.331  1.00  0.00    -0.504 OA
ATOM     19  H   UNL     1      16.035  -3.880  15.807  1.00  0.00     0.293 HD
ENDBRANCH  15  18
BRANCH  17  20
ATOM     20  O   UNL     1      14.261  -3.946  13.999  1.00  0.00    -0.504 OA
ATOM     21  H   UNL     1      14.747  -4.713  14.449  1.00  0.00     0.293 HD
ENDBRANCH  17  20
ENDBRANCH   1  12
BRANCH   6  22
ATOM     22  O   UNL     1       7.300   2.791  12.642  1.00  0.00    -0.507 OA
ATOM     23  H   UNL     1       7.842   3.629  12.509  1.00  0.00     0.293 HD
ENDBRANCH   6  22
BRANCH   8  24
ATOM     24  O   UNL     1       5.404   0.618  16.481  1.00  0.00    -0.508 OA
ATOM     25  H   UNL     1       4.723  -0.112  16.308  1.00  0.00     0.293 HD
ENDBRANCH   8  24
TORSDOF 5
ENDMDL
MODEL 2
REMARK VINA RESULT:    -5.022      1.442      7.025
REMARK INTER + INTRA:          -6.168
REMARK INTER:                  -5.902
REMARK INTRA:                  -0.266
REMARK UNBOUND:                -0.266
REMARK SMILES O=c1cc(-c2ccc(O)c(O)c2)oc2cc(O)cc(O)c12
REMARK SMILES IDX 4 1 3 2 2 3 1 4 21 5 19 6 18 7 16 8 15 9 14 10 13 11 5 12
REMARK SMILES IDX 6 13 7 14 8 15 12 16 10 17 9 18 11 20 20 22 17 24
REMARK H PARENT 9 19 11 21 20 23 17 25
REMARK Flexibility Score: inf
ROOT
ATOM      1  C   UNL     1       9.655  -0.482  14.742  1.00  0.00     0.138 A 
ATOM      2  C   UNL     1       9.773  -1.404  13.693  1.00  0.00     0.100 A 
ATOM      3  C   UNL     1      10.969  -2.100  13.517  1.00  0.00     0.197 A 
ATOM      4  O   UNL     1      11.062  -2.880  12.533  1.00  0.00    -0.289 OA
ATOM      5  C   UNL     1      12.041  -1.899  14.420  1.00  0.00     0.107 A 
ATOM      6  C   UNL     1      13.295  -2.578  14.360  1.00  0.00     0.134 A 
ATOM      7  C   UNL     1      14.316  -2.222  15.251  1.00  0.00     0.093 A 
ATOM      8  C   UNL     1      14.108  -1.253  16.235  1.00  0.00     0.123 A 
ATOM      9  C   UNL     1      12.872  -0.621  16.334  1.00  0.00     0.094 A 
ATOM     10  C   UNL     1      11.845  -0.929  15.438  1.00  0.00     0.146 A 
ATOM     11  O   UNL     1      10.687  -0.288  15.556  1.00  0.00    -0.456 OA
ENDROOT
BRANCH   1  12
ATOM     12  C   UNL     1       8.405   0.284  14.977  1.00  0.00     0.021 A 
ATOM     13  C   UNL     1       7.657   0.043  16.142  1.00  0.00     0.016 A 
ATOM     14  C   UNL     1       6.480   0.755  16.390  1.00  0.00     0.051 A 
ATOM     15  C   UNL     1       6.037   1.726  15.489  1.00  0.00     0.157 A 
ATOM     16  C   UNL     1       7.961   1.273  14.077  1.00  0.00     0.062 A 
ATOM     17  C   UNL     1       6.781   1.989  14.328  1.00  0.00     0.158 A 
BRANCH  15  18
ATOM     18  O   UNL     1       4.859   2.419  15.764  1.00  0.00    -0.504 OA
ATOM     19  H   UNL     1       4.055   2.379  15.149  1.00  0.00     0.293 HD
ENDBRANCH  15  18
BRANCH  17  20
ATOM     20  O   UNL     1       6.350   2.965  13.430  1.00  0.00    -0.504 OA
ATOM     21  H   UNL     1       5.864   2.723  12.574  1.00  0.00     0.293 HD
ENDBRANCH  17  20
ENDBRANCH   1  12
BRANCH   6  22
ATOM     22  O   UNL     1      13.582  -3.617  13.469  1.00  0.00    -0.507 OA
ATOM     23  H   UNL     1      14.274  -4.334  13.617  1.00  0.00     0.293 HD
ENDBRANCH   6  22
BRANCH   8  24
ATOM     24  O   UNL     1      15.124  -0.917  17.127  1.00  0.00    -0.508 OA
ATOM     25  H   UNL     1      15.848  -1.581  17.381  1.00  0.00     0.293 HD
ENDBRANCH   8  24
TORSDOF 5
ENDMDL
MODEL 3
REMARK VINA RESULT:    -4.954     10.960     11.939
REMARK INTER + INTRA:          -6.089
REMARK INTER:                  -5.780
REMARK INTRA:                  -0.309
REMARK UNBOUND:                -0.266
REMARK SMILES O=c1cc(-c2ccc(O)c(O)c2)oc2cc(O)cc(O)c12
REMARK SMILES IDX 4 1 3 2 2 3 1 4 21 5 19 6 18 7 16 8 15 9 14 10 13 11 5 12
REMARK SMILES IDX 6 13 7 14 8 15 12 16 10 17 9 18 11 20 20 22 17 24
REMARK H PARENT 9 19 11 21 20 23 17 25
REMARK Flexibility Score: inf
ROOT
ATOM      1  C   UNL     1      13.950   8.217  22.236  1.00  0.00     0.138 A 
ATOM      2  C   UNL     1      12.695   8.251  22.860  1.00  0.00     0.100 A 
ATOM      3  C   UNL     1      11.570   7.794  22.173  1.00  0.00     0.197 A 
ATOM      4  O   UNL     1      10.450   7.890  22.740  1.00  0.00    -0.289 OA
ATOM      5  C   UNL     1      11.708   7.265  20.867  1.00  0.00     0.107 A 
ATOM      6  C   UNL     1      10.637   6.738  20.084  1.00  0.00     0.134 A 
ATOM      7  C   UNL     1      10.882   6.334  18.765  1.00  0.00     0.093 A 
ATOM      8  C   UNL     1      12.167   6.383  18.223  1.00  0.00     0.123 A 
ATOM      9  C   UNL     1      13.228   6.848  18.995  1.00  0.00     0.094 A 
ATOM     10  C   UNL     1      13.011   7.291  20.302  1.00  0.00     0.146 A 
ATOM     11  O   UNL     1      14.048   7.745  20.998  1.00  0.00    -0.456 OA
ENDROOT
BRANCH   1  12
ATOM     12  C   UNL     1      15.180   8.687  22.921  1.00  0.00     0.021 A 
ATOM     13  C   UNL     1      15.074   9.629  23.960  1.00  0.00     0.016 A 
ATOM     14  C   UNL     1      16.216  10.083  24.626  1.00  0.00     0.051 A 
ATOM     15  C   UNL     1      17.479   9.598  24.276  1.00  0.00     0.157 A 
ATOM     16  C   UNL     1      16.454   8.192  22.581  1.00  0.00     0.062 A 
ATOM     17  C   UNL     1      17.600   8.647  23.251  1.00  0.00     0.158 A 
BRANCH  15  18
ATOM     18  O   UNL     1      18.599  10.071  24.958  1.00  0.00    -0.504 OA
ATOM     19  H   UNL     1      19.292  10.660  24.512  1.00  0.00     0.293 HD
ENDBRANCH  15  18
BRANCH  17  20
ATOM     20  O   UNL     1      18.856   8.150  22.905  1.00  0.00    -0.504 OA
ATOM     21  H   UNL     1      19.162   7.229  23.196  1.00  0.00     0.293 HD
ENDBRANCH  17  20
ENDBRANCH   1  12
BRANCH   6  22
ATOM     22  O   UNL     1       9.331   6.570  20.554  1.00  0.00    -0.507 OA
ATOM     23  H   UNL     1       8.561   6.215  20.012  1.00  0.00     0.293 HD
ENDBRANCH   6  22
BRANCH   8  24
ATOM     24  O   UNL     1      12.403   5.963  16.915  1.00  0.00    -0.508 OA
ATOM     25  H   UNL     1      12.467   6.625  16.149  1.00  0.00     0.293 HD
ENDBRANCH   8  24
TORSDOF 5
ENDMDL
MODEL 4
REMARK VINA RESULT:    -4.787      1.657      7.149
REMARK INTER + INTRA:          -5.893
REMARK INTER:                  -5.626
REMARK INTRA:                  -0.266
REMARK UNBOUND:                -0.266
REMARK SMILES O=c1cc(-c2ccc(O)c(O)c2)oc2cc(O)cc(O)c12
REMARK SMILES IDX 4 1 3 2 2 3 1 4 21 5 19 6 18 7 16 8 15 9 14 10 13 11 5 12
REMARK SMILES IDX 6 13 7 14 8 15 12 16 10 17 9 18 11 20 20 22 17 24
REMARK H PARENT 9 19 11 21 20 23 17 25
REMARK Flexibility Score: inf
ROOT
ATOM      1  C   UNL     1      10.250  -0.646  14.596  1.00  0.00     0.138 A 
ATOM      2  C   UNL     1      11.333  -0.392  15.448  1.00  0.00     0.100 A 
ATOM      3  C   UNL     1      12.487  -1.168  15.347  1.00  0.00     0.197 A 
ATOM      4  O   UNL     1      13.421  -0.952  16.164  1.00  0.00    -0.289 OA
ATOM      5  C   UNL     1      12.572  -2.181  14.361  1.00  0.00     0.107 A 
ATOM      6  C   UNL     1      13.712  -3.012  14.142  1.00  0.00     0.134 A 
ATOM      7  C   UNL     1      13.640  -4.047  13.202  1.00  0.00     0.093 A 
ATOM      8  C   UNL     1      12.492  -4.243  12.432  1.00  0.00     0.123 A 
ATOM      9  C   UNL     1      11.392  -3.407  12.602  1.00  0.00     0.094 A 
ATOM     10  C   UNL     1      11.420  -2.387  13.557  1.00  0.00     0.146 A 
ATOM     11  O   UNL     1      10.342  -1.623  13.700  1.00  0.00    -0.456 OA
ENDROOT
BRANCH   1  12
ATOM     12  C   UNL     1       8.998   0.150  14.658  1.00  0.00     0.021 A 
ATOM     13  C   UNL     1       8.766   1.147  13.694  1.00  0.00     0.016 A 
ATOM     14  C   UNL     1       7.594   1.906  13.725  1.00  0.00     0.051 A 
ATOM     15  C   UNL     1       6.629   1.678  14.710  1.00  0.00     0.157 A 
ATOM     16  C   UNL     1       8.017  -0.085  15.641  1.00  0.00     0.062 A 
ATOM     17  C   UNL     1       6.839   0.677  15.671  1.00  0.00     0.158 A 
BRANCH  15  18
ATOM     18  O   UNL     1       5.469   2.453  14.716  1.00  0.00    -0.504 OA
ATOM     19  H   UNL     1       4.545   2.039  14.712  1.00  0.00     0.293 HD
ENDBRANCH  15  18
BRANCH  17  20
ATOM     20  O   UNL     1       5.874   0.436  16.649  1.00  0.00    -0.504 OA
ATOM     21  H   UNL     1       5.105   1.076  16.806  1.00  0.00     0.293 HD
ENDBRANCH  17  20
ENDBRANCH   1  12
BRANCH   6  22
ATOM     22  O   UNL     1      14.936  -2.852  14.800  1.00  0.00    -0.507 OA
ATOM     23  H   UNL     1      15.485  -2.008  14.804  1.00  0.00     0.293 HD
ENDBRANCH   6  22
BRANCH   8  24
ATOM     24  O   UNL     1      12.436  -5.266  11.487  1.00  0.00    -0.508 OA
ATOM     25  H   UNL     1      11.695  -5.309  10.795  1.00  0.00     0.293 HD
ENDBRANCH   8  24
TORSDOF 5
ENDMDL
MODEL 5
REMARK VINA RESULT:    -4.775      1.522      3.292
REMARK INTER + INTRA:          -5.878
REMARK INTER:                  -5.615
REMARK INTRA:                  -0.263
REMARK UNBOUND:                -0.266
REMARK SMILES O=c1cc(-c2ccc(O)c(O)c2)oc2cc(O)cc(O)c12
REMARK SMILES IDX 4 1 3 2 2 3 1 4 21 5 19 6 18 7 16 8 15 9 14 10 13 11 5 12
REMARK SMILES IDX 6 13 7 14 8 15 12 16 10 17 9 18 11 20 20 22 17 24
REMARK H PARENT 9 19 11 21 20 23 17 25
REMARK Flexibility Score: inf
ROOT
ATOM      1  C   UNL     1      10.856   0.034  14.539  1.00  0.00     0.138 A 
ATOM      2  C   UNL     1       9.565  -0.188  15.037  1.00  0.00     0.100 A 
ATOM      3  C   UNL     1       8.508   0.606  14.591  1.00  0.00     0.197 A 
ATOM      4  O   UNL     1       7.371   0.419  15.099  1.00  0.00    -0.289 OA
ATOM      5  C   UNL     1       8.739   1.604  13.614  1.00  0.00     0.107 A 
ATOM      6  C   UNL     1       7.733   2.451  13.060  1.00  0.00     0.134 A 
ATOM      7  C   UNL     1       8.100   3.469  12.171  1.00  0.00     0.093 A 
ATOM      8  C   UNL     1       9.429   3.633  11.773  1.00  0.00     0.123 A 
ATOM      9  C   UNL     1      10.411   2.781  12.268  1.00  0.00     0.094 A 
ATOM     10  C   UNL     1      10.082   1.778  13.183  1.00  0.00     0.146 A 
ATOM     11  O   UNL     1      11.053   0.997  13.646  1.00  0.00    -0.456 OA
ENDROOT
BRANCH   1  12
ATOM     12  C   UNL     1      12.017  -0.783  14.976  1.00  0.00     0.021 A 
ATOM     13  C   UNL     1      12.381  -1.918  14.231  1.00  0.00     0.016 A 
ATOM     14  C   UNL     1      13.473  -2.700  14.616  1.00  0.00     0.051 A 
ATOM     15  C   UNL     1      14.226  -2.358  15.742  1.00  0.00     0.157 A 
ATOM     16  C   UNL     1      12.787  -0.435  16.103  1.00  0.00     0.062 A 
ATOM     17  C   UNL     1      13.884  -1.219  16.488  1.00  0.00     0.158 A 
BRANCH  15  18
ATOM     18  O   UNL     1      15.310  -3.159  16.102  1.00  0.00    -0.504 OA
ATOM     19  H   UNL     1      15.248  -3.847  16.843  1.00  0.00     0.293 HD
ENDBRANCH  15  18
BRANCH  17  20
ATOM     20  O   UNL     1      14.639  -0.866  17.607  1.00  0.00    -0.504 OA
ATOM     21  H   UNL     1      15.494  -1.354  17.847  1.00  0.00     0.293 HD
ENDBRANCH  17  20
ENDBRANCH   1  12
BRANCH   6  22
ATOM     22  O   UNL     1       6.366   2.323  13.328  1.00  0.00    -0.507 OA
ATOM     23  H   UNL     1       5.759   3.073  13.616  1.00  0.00     0.293 HD
ENDBRANCH   6  22
BRANCH   8  24
ATOM     24  O   UNL     1       9.782   4.639  10.875  1.00  0.00    -0.508 OA
ATOM     25  H   UNL     1       9.104   5.315  10.542  1.00  0.00     0.293 HD
ENDBRANCH   8  24
TORSDOF 5
ENDMDL
MODEL 6
REMARK VINA RESULT:    -4.620      7.439      9.691
REMARK INTER + INTRA:          -5.696
REMARK INTER:                  -5.401
REMARK INTRA:                  -0.296
REMARK UNBOUND:                -0.266
REMARK SMILES O=c1cc(-c2ccc(O)c(O)c2)oc2cc(O)cc(O)c12
REMARK SMILES IDX 4 1 3 2 2 3 1 4 21 5 19 6 18 7 16 8 15 9 14 10 13 11 5 12
REMARK SMILES IDX 6 13 7 14 8 15 12 16 10 17 9 18 11 20 20 22 17 24
REMARK H PARENT 9 19 11 21 20 23 17 25
REMARK Flexibility Score: inf
ROOT
ATOM      1  C   UNL     1      11.094  -4.981  20.645  1.00  0.00     0.138 A 
ATOM      2  C   UNL     1      12.175  -5.784  20.254  1.00  0.00     0.100 A 
ATOM      3  C   UNL     1      12.032  -7.171  20.234  1.00  0.00     0.197 A 
ATOM      4  O   UNL     1      13.037  -7.867  19.933  1.00  0.00    -0.289 OA
ATOM      5  C   UNL     1      10.788  -7.757  20.572  1.00  0.00     0.107 A 
ATOM      6  C   UNL     1      10.515  -9.158  20.555  1.00  0.00     0.134 A 
ATOM      7  C   UNL     1       9.274  -9.624  21.006  1.00  0.00     0.093 A 
ATOM      8  C   UNL     1       8.277  -8.738  21.419  1.00  0.00     0.123 A 
ATOM      9  C   UNL     1       8.515  -7.366  21.392  1.00  0.00     0.094 A 
ATOM     10  C   UNL     1       9.755  -6.871  20.981  1.00  0.00     0.146 A 
ATOM     11  O   UNL     1       9.947  -5.556  20.988  1.00  0.00    -0.456 OA
ENDROOT
BRANCH   1  12
ATOM     12  C   UNL     1      11.190  -3.500  20.681  1.00  0.00     0.021 A 
ATOM     13  C   UNL     1      10.161  -2.756  21.284  1.00  0.00     0.016 A 
ATOM     14  C   UNL     1      10.230  -1.362  21.337  1.00  0.00     0.051 A 
ATOM     15  C   UNL     1      11.329  -0.686  20.802  1.00  0.00     0.157 A 
ATOM     16  C   UNL     1      12.303  -2.816  20.154  1.00  0.00     0.062 A 
ATOM     17  C   UNL     1      12.372  -1.415  20.209  1.00  0.00     0.158 A 
BRANCH  15  18
ATOM     18  O   UNL     1      11.369   0.706  20.869  1.00  0.00    -0.504 OA
ATOM     19  H   UNL     1      11.456   1.200  21.749  1.00  0.00     0.293 HD
ENDBRANCH  15  18
BRANCH  17  20
ATOM     20  O   UNL     1      13.478  -0.748  19.683  1.00  0.00    -0.504 OA
ATOM     21  H   UNL     1      13.862   0.077  20.128  1.00  0.00     0.293 HD
ENDBRANCH  17  20
ENDBRANCH   1  12
BRANCH   6  22
ATOM     22  O   UNL     1      11.410 -10.125  20.088  1.00  0.00    -0.507 OA
ATOM     23  H   UNL     1      12.268 -10.390  20.544  1.00  0.00     0.293 HD
ENDBRANCH   6  22
BRANCH   8  24
ATOM     24  O   UNL     1       7.039  -9.211  21.851  1.00  0.00    -0.508 OA
ATOM     25  H   UNL     1       6.561  -8.797  22.644  1.00  0.00     0.293 HD
ENDBRANCH   8  24
TORSDOF 5
ENDMDL
MODEL 7
REMARK VINA RESULT:    -4.610      1.380      2.126
REMARK INTER + INTRA:          -5.684
REMARK INTER:                  -5.373
REMARK INTRA:                  -0.311
REMARK UNBOUND:                -0.266
REMARK SMILES O=c1cc(-c2ccc(O)c(O)c2)oc2cc(O)cc(O)c12
REMARK SMILES IDX 4 1 3 2 2 3 1 4 21 5 19 6 18 7 16 8 15 9 14 10 13 11 5 12
REMARK SMILES IDX 6 13 7 14 8 15 12 16 10 17 9 18 11 20 20 22 17 24
REMARK H PARENT 9 19 11 21 20 23 17 25
REMARK Flexibility Score: inf
ROOT
ATOM      1  C   UNL     1      10.678  -0.819  13.341  1.00  0.00     0.138 A 
ATOM      2  C   UNL     1      10.214   0.051  12.345  1.00  0.00     0.100 A 
ATOM      3  C   UNL     1       9.069   0.814  12.573  1.00  0.00     0.197 A 
ATOM      4  O   UNL     1       8.646   1.543  11.638  1.00  0.00    -0.289 OA
ATOM      5  C   UNL     1       8.405   0.733  13.821  1.00  0.00     0.107 A 
ATOM      6  C   UNL     1       7.249   1.489  14.180  1.00  0.00     0.134 A 
ATOM      7  C   UNL     1       6.622   1.249  15.409  1.00  0.00     0.093 A 
ATOM      8  C   UNL     1       7.143   0.323  16.316  1.00  0.00     0.123 A 
ATOM      9  C   UNL     1       8.299  -0.383  15.997  1.00  0.00     0.094 A 
ATOM     10  C   UNL     1       8.928  -0.192  14.764  1.00  0.00     0.146 A 
ATOM     11  O   UNL     1      10.019  -0.901  14.492  1.00  0.00    -0.456 OA
ENDROOT
BRANCH   1  12
ATOM     12  C   UNL     1      11.893  -1.651  13.153  1.00  0.00     0.021 A 
ATOM     13  C   UNL     1      12.357  -1.910  11.851  1.00  0.00     0.016 A 
ATOM     14  C   UNL     1      13.502  -2.685  11.647  1.00  0.00     0.051 A 
ATOM     15  C   UNL     1      14.209  -3.204  12.734  1.00  0.00     0.157 A 
ATOM     16  C   UNL     1      12.616  -2.166  14.247  1.00  0.00     0.062 A 
ATOM     17  C   UNL     1      13.767  -2.943  14.040  1.00  0.00     0.158 A 
BRANCH  15  18
ATOM     18  O   UNL     1      15.347  -3.975  12.497  1.00  0.00    -0.504 OA
ATOM     19  H   UNL     1      15.461  -4.901  12.890  1.00  0.00     0.293 HD
ENDBRANCH  15  18
BRANCH  17  20
ATOM     20  O   UNL     1      14.474  -3.448  15.131  1.00  0.00    -0.504 OA
ATOM     21  H   UNL     1      14.005  -3.910  15.901  1.00  0.00     0.293 HD
ENDBRANCH  17  20
ENDBRANCH   1  12
BRANCH   6  22
ATOM     22  O   UNL     1       6.692   2.494  13.384  1.00  0.00    -0.507 OA
ATOM     23  H   UNL     1       7.102   2.858  12.538  1.00  0.00     0.293 HD
ENDBRANCH   6  22
BRANCH   8  24
ATOM     24  O   UNL     1       6.521   0.103  17.544  1.00  0.00    -0.508 OA
ATOM     25  H   UNL     1       6.763   0.646  18.365  1.00  0.00     0.293 HD
ENDBRANCH   8  24
TORSDOF 5
ENDMDL
MODEL 8
REMARK VINA RESULT:    -4.566     13.594     14.875
REMARK INTER + INTRA:          -5.632
REMARK INTER:                  -5.367
REMARK INTRA:                  -0.265
REMARK UNBOUND:                -0.266
REMARK SMILES O=c1cc(-c2ccc(O)c(O)c2)oc2cc(O)cc(O)c12
REMARK SMILES IDX 4 1 3 2 2 3 1 4 21 5 19 6 18 7 16 8 15 9 14 10 13 11 5 12
REMARK SMILES IDX 6 13 7 14 8 15 12 16 10 17 9 18 11 20 20 22 17 24
REMARK H PARENT 9 19 11 21 20 23 17 25
REMARK Flexibility Score: inf
ROOT
ATOM      1  C   UNL     1      11.979   8.202  25.639  1.00  0.00     0.138 A 
ATOM      2  C   UNL     1      10.630   8.559  25.772  1.00  0.00     0.100 A 
ATOM      3  C   UNL     1       9.940   8.224  26.937  1.00  0.00     0.197 A 
ATOM      4  O   UNL     1       8.715   8.508  27.002  1.00  0.00    -0.289 OA
ATOM      5  C   UNL     1      10.614   7.560  27.990  1.00  0.00     0.107 A 
ATOM      6  C   UNL     1      10.021   7.199  29.238  1.00  0.00     0.134 A 
ATOM      7  C   UNL     1      10.763   6.456  30.164  1.00  0.00     0.093 A 
ATOM      8  C   UNL     1      12.093   6.113  29.913  1.00  0.00     0.123 A 
ATOM      9  C   UNL     1      12.696   6.503  28.721  1.00  0.00     0.094 A 
ATOM     10  C   UNL     1      11.972   7.215  27.761  1.00  0.00     0.146 A 
ATOM     11  O   UNL     1      12.581   7.552  26.629  1.00  0.00    -0.456 OA
ENDROOT
BRANCH   1  12
ATOM     12  C   UNL     1      12.763   8.536  24.424  1.00  0.00     0.021 A 
ATOM     13  C   UNL     1      13.397   9.787  24.333  1.00  0.00     0.016 A 
ATOM     14  C   UNL     1      14.147  10.124  23.203  1.00  0.00     0.051 A 
ATOM     15  C   UNL     1      14.287   9.216  22.150  1.00  0.00     0.157 A 
ATOM     16  C   UNL     1      12.918   7.619  23.366  1.00  0.00     0.062 A 
ATOM     17  C   UNL     1      13.672   7.957  22.232  1.00  0.00     0.158 A 
BRANCH  15  18
ATOM     18  O   UNL     1      15.040   9.582  21.035  1.00  0.00    -0.504 OA
ATOM     19  H   UNL     1      16.016   9.328  20.938  1.00  0.00     0.293 HD
ENDBRANCH  15  18
BRANCH  17  20
ATOM     20  O   UNL     1      13.818   7.041  21.189  1.00  0.00    -0.504 OA
ATOM     21  H   UNL     1      13.547   7.269  20.240  1.00  0.00     0.293 HD
ENDBRANCH  17  20
ENDBRANCH   1  12
BRANCH   6  22
ATOM     22  O   UNL     1       8.726   7.560  29.623  1.00  0.00    -0.507 OA
ATOM     23  H   UNL     1       8.147   8.235  29.150  1.00  0.00     0.293 HD
ENDBRANCH   6  22
BRANCH   8  24
ATOM     24  O   UNL     1      12.828   5.387  30.849  1.00  0.00    -0.508 OA
ATOM     25  H   UNL     1      13.825   5.533  30.969  1.00  0.00     0.293 HD
ENDBRANCH   8  24
TORSDOF 5
ENDMDL
MODEL 9
REMARK VINA RESULT:    -4.506      6.128     10.729
REMARK INTER + INTRA:          -5.562
REMARK INTER:                  -5.296
REMARK INTRA:                  -0.266
REMARK UNBOUND:                -0.266
REMARK SMILES O=c1cc(-c2ccc(O)c(O)c2)oc2cc(O)cc(O)c12
REMARK SMILES IDX 4 1 3 2 2 3 1 4 21 5 19 6 18 7 16 8 15 9 14 10 13 11 5 12
REMARK SMILES IDX 6 13 7 14 8 15 12 16 10 17 9 18 11 20 20 22 17 24
REMARK H PARENT 9 19 11 21 20 23 17 25
REMARK Flexibility Score: inf
ROOT
ATOM      1  C   UNL     1      13.253  -4.738  20.224  1.00  0.00     0.138 A 
ATOM      2  C   UNL     1      12.835  -5.812  19.427  1.00  0.00     0.100 A 
ATOM      3  C   UNL     1      13.553  -7.007  19.448  1.00  0.00     0.197 A 
ATOM      4  O   UNL     1      13.185  -7.934  18.679  1.00  0.00    -0.289 OA
ATOM      5  C   UNL     1      14.676  -7.140  20.300  1.00  0.00     0.107 A 
ATOM      6  C   UNL     1      15.465  -8.323  20.430  1.00  0.00     0.134 A 
ATOM      7  C   UNL     1      16.613  -8.302  21.232  1.00  0.00     0.093 A 
ATOM      8  C   UNL     1      16.967  -7.160  21.953  1.00  0.00     0.123 A 
ATOM      9  C   UNL     1      16.177  -6.017  21.873  1.00  0.00     0.094 A 
ATOM     10  C   UNL     1      15.045  -5.995  21.054  1.00  0.00     0.146 A 
ATOM     11  O   UNL     1      14.329  -4.877  20.992  1.00  0.00    -0.456 OA
ENDROOT
BRANCH   1  12
ATOM     12  C   UNL     1      12.525  -3.444  20.244  1.00  0.00     0.021 A 
ATOM     13  C   UNL     1      13.000  -2.372  19.469  1.00  0.00     0.016 A 
ATOM     14  C   UNL     1      12.329  -1.146  19.464  1.00  0.00     0.051 A 
ATOM     15  C   UNL     1      11.168  -0.973  20.221  1.00  0.00     0.157 A 
ATOM     16  C   UNL     1      11.346  -3.268  20.995  1.00  0.00     0.062 A 
ATOM     17  C   UNL     1      10.672  -2.038  20.989  1.00  0.00     0.158 A 
BRANCH  15  18
ATOM     18  O   UNL     1      10.521   0.263  20.196  1.00  0.00    -0.504 OA
ATOM     19  H   UNL     1      10.300   0.771  21.043  1.00  0.00     0.293 HD
ENDBRANCH  15  18
BRANCH  17  20
ATOM     20  O   UNL     1       9.506  -1.874  21.737  1.00  0.00    -0.504 OA
ATOM     21  H   UNL     1       8.625  -1.627  21.302  1.00  0.00     0.293 HD
ENDBRANCH  17  20
ENDBRANCH   1  12
BRANCH   6  22
ATOM     22  O   UNL     1      15.157  -9.542  19.817  1.00  0.00    -0.507 OA
ATOM     23  H   UNL     1      15.707  -9.985  19.099  1.00  0.00     0.293 HD
ENDBRANCH   6  22
BRANCH   8  24
ATOM     24  O   UNL     1      18.103  -7.153  22.762  1.00  0.00    -0.508 OA
ATOM     25  H   UNL     1      18.746  -6.369  22.765  1.00  0.00     0.293 HD
ENDBRANCH   8  24
TORSDOF 5
ENDMDL
