MODEL 1
REMARK VINA RESULT:    -4.285      0.000      0.000
REMARK INTER + INTRA:          -6.069
REMARK INTER:                  -5.287
REMARK INTRA:                  -0.782
REMARK UNBOUND:                -0.782
REMARK SMILES C=CC(=C)CCC=C(C)C
REMARK SMILES IDX 5 1 6 2 7 3 9 4 8 5 10 6 3 7 4 8 2 9 1 10
REMARK H PARENT
REMARK Flexibility Score: inf
ROOT
ATOM      1  C   UNL     1      -0.513   2.583  14.834  1.00  0.00     0.039 C 
ENDROOT
BRANCH   1   2
ATOM      2  C   UNL     1       0.107   2.624  13.433  1.00  0.00     0.032 C 
BRANCH   2   3
ATOM      3  C   UNL     1      -0.725   3.473  12.505  1.00  0.00    -0.028 C 
ATOM      4  C   UNL     1      -1.277   1.560  10.986  1.00  0.00     0.039 C 
ATOM      5  C   UNL     1      -1.374   3.005  11.416  1.00  0.00    -0.080 C 
ATOM      6  C   UNL     1      -2.201   3.967  10.604  1.00  0.00     0.039 C 
ENDBRANCH   2   3
ENDBRANCH   1   2
BRANCH   1   7
ATOM      7  C   UNL     1      -1.743   1.703  14.852  1.00  0.00    -0.055 C 
ATOM      8  C   UNL     1      -2.940   2.263  15.053  1.00  0.00     0.012 C 
BRANCH   7   9
ATOM      9  C   UNL     1      -1.673   0.239  14.606  1.00  0.00    -0.005 C 
ATOM     10  C   UNL     1      -2.566  -0.440  13.884  1.00  0.00     0.009 C 
ENDBRANCH   7   9
ENDBRANCH   1   7
TORSDOF 4
ENDMDL
MODEL 2
REMARK VINA RESULT:    -4.242      1.174      2.446
REMARK INTER + INTRA:          -6.016
REMARK INTER:                  -5.363
REMARK INTRA:                  -0.653
REMARK UNBOUND:                -0.782
REMARK SMILES C=CC(=C)CCC=C(C)C
REMARK SMILES IDX 5 1 6 2 7 3 9 4 8 5 10 6 3 7 4 8 2 9 1 10
REMARK H PARENT
REMARK Flexibility Score: inf
ROOT
ATOM      1  C   UNL     1      -1.336   0.220  12.085  1.00  0.00     0.039 C 
ENDROOT
BRANCH   1   2
ATOM      2  C   UNL     1      -0.625   1.550  11.813  1.00  0.00     0.032 C 
BRANCH   2   3
ATOM      3  C   UNL     1      -1.507   2.472  11.009  1.00  0.00    -0.028 C 
ATOM      4  C   UNL     1      -1.302   4.358  12.643  1.00  0.00     0.039 C 
ATOM      5  C   UNL     1      -1.800   3.745  11.355  1.00  0.00    -0.080 C 
ATOM      6  C   UNL     1      -2.665   4.561  10.430  1.00  0.00     0.039 C 
ENDBRANCH   2   3
ENDBRANCH   1   2
BRANCH   1   7
ATOM      7  C   UNL     1      -1.568   0.028  13.568  1.00  0.00    -0.055 C 
ATOM      8  C   UNL     1      -1.624  -1.214  14.062  1.00  0.00     0.012 C 
BRANCH   7   9
ATOM      9  C   UNL     1      -1.688   1.174  14.506  1.00  0.00    -0.005 C 
ATOM     10  C   UNL     1      -2.844   1.754  14.832  1.00  0.00     0.009 C 
ENDBRANCH   7   9
ENDBRANCH   1   7
TORSDOF 4
ENDMDL
MODEL 3
REMARK VINA RESULT:    -4.022      1.542      3.142
REMARK INTER + INTRA:          -5.744
REMARK INTER:                  -5.151
REMARK INTRA:                  -0.593
REMARK UNBOUND:                -0.782
REMARK SMILES C=CC(=C)CCC=C(C)C
REMARK SMILES IDX 5 1 6 2 7 3 9 4 8 5 10 6 3 7 4 8 2 9 1 10
REMARK H PARENT
REMARK Flexibility Score: inf
ROOT
ATOM      1  C   UNL     1      -2.151   1.176  14.465  1.00  0.00     0.039 C 
ENDROOT
BRANCH   1   2
ATOM      2  C   UNL     1      -1.025   1.928  15.183  1.00  0.00     0.032 C 
BRANCH   2   3
ATOM      3  C   UNL     1      -1.318   3.406  15.235  1.00  0.00    -0.028 C 
ATOM      4  C   UNL     1       0.356   3.966  13.459  1.00  0.00     0.039 C 
ATOM      5  C   UNL     1      -0.725   4.331  14.449  1.00  0.00    -0.080 C 
ATOM      6  C   UNL     1      -1.149   5.771  14.588  1.00  0.00     0.039 C 
ENDBRANCH   2   3
ENDBRANCH   1   2
BRANCH   1   7
ATOM      7  C   UNL     1      -1.594   0.053  13.618  1.00  0.00    -0.055 C 
ATOM      8  C   UNL     1      -1.659  -1.201  14.078  1.00  0.00     0.012 C 
BRANCH   7   9
ATOM      9  C   UNL     1      -1.019   0.289  12.268  1.00  0.00    -0.005 C 
ATOM     10  C   UNL     1      -1.354   1.313  11.483  1.00  0.00     0.009 C 
ENDBRANCH   7   9
ENDBRANCH   1   7
TORSDOF 4
ENDMDL
MODEL 4
REMARK VINA RESULT:    -3.953      0.955      3.769
REMARK INTER + INTRA:          -5.659
REMARK INTER:                  -4.812
REMARK INTRA:                  -0.847
REMARK UNBOUND:                -0.782
REMARK SMILES C=CC(=C)CCC=C(C)C
REMARK SMILES IDX 5 1 6 2 7 3 9 4 8 5 10 6 3 7 4 8 2 9 1 10
REMARK H PARENT
REMARK Flexibility Score: inf
ROOT
ATOM      1  C   UNL     1       0.039   3.834  12.921  1.00  0.00     0.039 C 
ENDROOT
BRANCH   1   2
ATOM      2  C   UNL     1      -0.223   3.236  14.308  1.00  0.00     0.032 C 
BRANCH   2   3
ATOM      3  C   UNL     1      -0.623   1.787  14.198  1.00  0.00    -0.028 C 
ATOM      4  C   UNL     1      -2.960   2.203  14.996  1.00  0.00     0.039 C 
ATOM      5  C   UNL     1      -1.856   1.310  14.479  1.00  0.00    -0.080 C 
ATOM      6  C   UNL     1      -2.120  -0.160  14.284  1.00  0.00     0.039 C 
ENDBRANCH   2   3
ENDBRANCH   1   2
BRANCH   1   7
ATOM      7  C   UNL     1      -1.259   4.056  12.178  1.00  0.00    -0.055 C 
ATOM      8  C   UNL     1      -2.131   4.955  12.646  1.00  0.00     0.012 C 
BRANCH   7   9
ATOM      9  C   UNL     1      -1.581   3.343  10.914  1.00  0.00    -0.005 C 
ATOM     10  C   UNL     1      -1.429   2.029  10.739  1.00  0.00     0.009 C 
ENDBRANCH   7   9
ENDBRANCH   1   7
TORSDOF 4
ENDMDL
MODEL 5
REMARK VINA RESULT:    -3.939      1.210      4.341
REMARK INTER + INTRA:          -5.643
REMARK INTER:                  -5.037
REMARK INTRA:                  -0.606
REMARK UNBOUND:                -0.782
REMARK SMILES C=CC(=C)CCC=C(C)C
REMARK SMILES IDX 5 1 6 2 7 3 9 4 8 5 10 6 3 7 4 8 2 9 1 10
REMARK H PARENT
REMARK Flexibility Score: inf
ROOT
ATOM      1  C   UNL     1      -1.494   2.460  10.760  1.00  0.00     0.039 C 
ENDROOT
BRANCH   1   2
ATOM      2  C   UNL     1      -0.502   1.898  11.785  1.00  0.00     0.032 C 
BRANCH   2   3
ATOM      3  C   UNL     1      -0.992   0.583  12.337  1.00  0.00    -0.028 C 
ATOM      4  C   UNL     1      -1.338   1.494  14.644  1.00  0.00     0.039 C 
ATOM      5  C   UNL     1      -1.395   0.392  13.612  1.00  0.00    -0.080 C 
ATOM      6  C   UNL     1      -1.898  -0.972  14.011  1.00  0.00     0.039 C 
ENDBRANCH   2   3
ENDBRANCH   1   2
BRANCH   1   7
ATOM      7  C   UNL     1      -1.950   3.846  11.156  1.00  0.00    -0.055 C 
ATOM      8  C   UNL     1      -2.978   4.403  10.507  1.00  0.00     0.012 C 
BRANCH   7   9
ATOM      9  C   UNL     1      -1.326   4.595  12.278  1.00  0.00    -0.005 C 
ATOM     10  C   UNL     1      -1.970   4.944  13.392  1.00  0.00     0.009 C 
ENDBRANCH   7   9
ENDBRANCH   1   7
TORSDOF 4
ENDMDL
MODEL 6
REMARK VINA RESULT:    -3.899      1.281      2.449
REMARK INTER + INTRA:          -5.593
REMARK INTER:                  -4.809
REMARK INTRA:                  -0.784
REMARK UNBOUND:                -0.782
REMARK SMILES C=CC(=C)CCC=C(C)C
REMARK SMILES IDX 5 1 6 2 7 3 9 4 8 5 10 6 3 7 4 8 2 9 1 10
REMARK H PARENT
REMARK Flexibility Score: inf
ROOT
ATOM      1  C   UNL     1      -0.534   1.698  12.523  1.00  0.00     0.039 C 
ENDROOT
BRANCH   1   2
ATOM      2  C   UNL     1      -0.298   2.863  11.556  1.00  0.00     0.032 C 
BRANCH   2   3
ATOM      3  C   UNL     1      -1.574   3.230  10.841  1.00  0.00    -0.028 C 
ATOM      4  C   UNL     1      -1.993   5.239  12.276  1.00  0.00     0.039 C 
ATOM      5  C   UNL     1      -2.334   4.308  11.136  1.00  0.00    -0.080 C 
ATOM      6  C   UNL     1      -3.565   4.570  10.307  1.00  0.00     0.039 C 
ENDBRANCH   2   3
ENDBRANCH   1   2
BRANCH   1   7
ATOM      7  C   UNL     1      -0.630   2.194  13.949  1.00  0.00    -0.055 C 
ATOM      8  C   UNL     1       0.299   3.039  14.407  1.00  0.00     0.012 C 
BRANCH   7   9
ATOM      9  C   UNL     1      -1.751   1.812  14.847  1.00  0.00    -0.005 C 
ATOM     10  C   UNL     1      -2.920   2.452  14.895  1.00  0.00     0.009 C 
ENDBRANCH   7   9
ENDBRANCH   1   7
TORSDOF 4
ENDMDL
MODEL 7
REMARK VINA RESULT:    -3.865      1.358      4.094
REMARK INTER + INTRA:          -5.551
REMARK INTER:                  -4.937
REMARK INTRA:                  -0.614
REMARK UNBOUND:                -0.782
REMARK SMILES C=CC(=C)CCC=C(C)C
REMARK SMILES IDX 5 1 6 2 7 3 9 4 8 5 10 6 3 7 4 8 2 9 1 10
REMARK H PARENT
REMARK Flexibility Score: inf
ROOT
ATOM      1  C   UNL     1       0.103   2.551  12.052  1.00  0.00     0.039 C 
ENDROOT
BRANCH   1   2
ATOM      2  C   UNL     1      -1.204   1.790  11.802  1.00  0.00     0.032 C 
BRANCH   2   3
ATOM      3  C   UNL     1      -1.112   0.383  12.337  1.00  0.00    -0.028 C 
ATOM      4  C   UNL     1      -2.201   0.968  14.516  1.00  0.00     0.039 C 
ATOM      5  C   UNL     1      -1.578  -0.007  13.544  1.00  0.00    -0.080 C 
ATOM      6  C   UNL     1      -1.451  -1.459  13.929  1.00  0.00     0.039 C 
ENDBRANCH   2   3
ENDBRANCH   1   2
BRANCH   1   7
ATOM      7  C   UNL     1      -0.161   3.840  12.800  1.00  0.00    -0.055 C 
ATOM      8  C   UNL     1      -0.674   4.882  12.138  1.00  0.00     0.012 C 
BRANCH   7   9
ATOM      9  C   UNL     1       0.087   3.973  14.259  1.00  0.00    -0.005 C 
ATOM     10  C   UNL     1      -0.843   4.338  15.143  1.00  0.00     0.009 C 
ENDBRANCH   7   9
ENDBRANCH   1   7
TORSDOF 4
ENDMDL
MODEL 8
REMARK VINA RESULT:    -3.815      1.352      2.181
REMARK INTER + INTRA:          -5.489
REMARK INTER:                  -4.826
REMARK INTRA:                  -0.663
REMARK UNBOUND:                -0.782
REMARK SMILES C=CC(=C)CCC=C(C)C
REMARK SMILES IDX 5 1 6 2 7 3 9 4 8 5 10 6 3 7 4 8 2 9 1 10
REMARK H PARENT
REMARK Flexibility Score: inf
ROOT
ATOM      1  C   UNL     1      -2.194   2.779  14.528  1.00  0.00     0.039 C 
ENDROOT
BRANCH   1   2
ATOM      2  C   UNL     1      -1.705   3.950  13.668  1.00  0.00     0.032 C 
BRANCH   2   3
ATOM      3  C   UNL     1      -2.737   4.320  12.633  1.00  0.00    -0.028 C 
ATOM      4  C   UNL     1      -1.060   4.476  10.780  1.00  0.00     0.039 C 
ATOM      5  C   UNL     1      -2.467   4.535  11.327  1.00  0.00    -0.080 C 
ATOM      6  C   UNL     1      -3.611   4.860  10.400  1.00  0.00     0.039 C 
ENDBRANCH   2   3
ENDBRANCH   1   2
BRANCH   1   7
ATOM      7  C   UNL     1      -1.710   1.461  13.967  1.00  0.00    -0.055 C 
ATOM      8  C   UNL     1      -2.186   0.321  14.480  1.00  0.00     0.012 C 
BRANCH   7   9
ATOM      9  C   UNL     1      -0.755   1.386  12.831  1.00  0.00    -0.005 C 
ATOM     10  C   UNL     1      -1.045   0.843  11.648  1.00  0.00     0.009 C 
ENDBRANCH   7   9
ENDBRANCH   1   7
TORSDOF 4
ENDMDL
MODEL 9
REMARK VINA RESULT:    -3.627      1.395      4.203
REMARK INTER + INTRA:          -5.257
REMARK INTER:                  -4.713
REMARK INTRA:                  -0.544
REMARK UNBOUND:                -0.782
REMARK SMILES C=CC(=C)CCC=C(C)C
REMARK SMILES IDX 5 1 6 2 7 3 9 4 8 5 10 6 3 7 4 8 2 9 1 10
REMARK H PARENT
REMARK Flexibility Score: inf
ROOT
ATOM      1  C   UNL     1      -0.811   4.445  12.633  1.00  0.00     0.039 C 
ENDROOT
BRANCH   1   2
ATOM      2  C   UNL     1       0.058   3.186  12.731  1.00  0.00     0.032 C 
BRANCH   2   3
ATOM      3  C   UNL     1      -0.630   2.125  13.552  1.00  0.00    -0.028 C 
ATOM      4  C   UNL     1      -1.103   0.668  11.570  1.00  0.00     0.039 C 
ATOM      5  C   UNL     1      -1.134   0.976  13.049  1.00  0.00    -0.080 C 
ATOM      6  C   UNL     1      -1.760  -0.011  13.999  1.00  0.00     0.039 C 
ENDBRANCH   2   3
ENDBRANCH   1   2
BRANCH   1   7
ATOM      7  C   UNL     1      -1.303   4.650  11.218  1.00  0.00    -0.055 C 
ATOM      8  C   UNL     1      -0.594   5.423  10.388  1.00  0.00     0.012 C 
BRANCH   7   9
ATOM      9  C   UNL     1      -2.526   3.983  10.699  1.00  0.00    -0.005 C 
ATOM     10  C   UNL     1      -3.624   4.633  10.313  1.00  0.00     0.009 C 
ENDBRANCH   7   9
ENDBRANCH   1   7
TORSDOF 4
ENDMDL
