MODEL 1
REMARK VINA RESULT:    93.503      0.000      0.000
REMARK INTER + INTRA:         101.539
REMARK INTER:                 101.703
REMARK INTRA:                  -0.163
REMARK UNBOUND:                -0.163
REMARK SMILES C[C@H]1[C@@H](C)CC[C@@]2(C(=O)[O-])CC[C@]3(C)C(=CC[C@H]4[C@]5(C)CC[C@H](O)C(C)(C)[C@@H]5CC[C@@]43C)[C@@H]12
REMARK SMILES IDX 7 1 6 2 11 3 33 4 5 5 12 6 15 7 2 8 3 9 13 10 16 11 1 12
REMARK SMILES IDX 4 13 14 14 31 15 17 16 18 17 30 18 32 19 19 20 29 21 28 22
REMARK SMILES IDX 21 23 20 24 25 25 22 26 23 27 26 28 27 29 8 30 9 31 10 32
REMARK SMILES IDX 24 33
REMARK H PARENT 24 34
REMARK Flexibility Score: inf
ROOT
ATOM      1  C   UNL     1      -6.100 -49.851  -0.832  1.00  0.00     0.017 C 
ATOM      2  C   UNL     1      -6.652 -48.370  -0.754  1.00  0.00     0.014 C 
ATOM      3  C   UNL     1      -4.565 -49.863  -0.810  1.00  0.00     0.014 C 
ATOM      4  C   UNL     1      -6.701 -50.811   0.286  1.00  0.00     0.030 C 
ATOM      5  C   UNL     1      -7.063 -47.988   0.675  1.00  0.00     0.004 C 
ATOM      6  C   UNL     1      -3.937 -49.671   0.571  1.00  0.00     0.013 C 
ATOM      7  C   UNL     1      -5.780 -51.154   1.463  1.00  0.00    -0.063 C 
ATOM      8  C   UNL     1      -8.130 -50.342   0.711  1.00  0.00    -0.003 C 
ATOM      9  C   UNL     1      -8.222 -48.892   1.220  1.00  0.00    -0.011 C 
ATOM     10  C   UNL     1      -4.286 -50.837   1.554  1.00  0.00    -0.006 C 
ATOM     11  C   UNL     1      -6.173 -52.125   2.322  1.00  0.00    -0.027 C 
ATOM     12  C   UNL     1      -9.026 -51.441   1.378  1.00  0.00     0.008 C 
ATOM     13  C   UNL     1      -8.384 -48.718   2.745  1.00  0.00     0.008 C 
ATOM     14  C   UNL     1      -3.586 -52.124   0.945  1.00  0.00     0.017 C 
ATOM     15  C   UNL     1      -3.867 -50.541   3.152  1.00  0.00    -0.020 C 
ATOM     16  C   UNL     1      -6.293 -51.640   3.713  1.00  0.00     0.032 C 
ATOM     17  C   UNL     1      -5.150 -50.671   4.117  1.00  0.00     0.006 C 
ATOM     18  C   UNL     1      -3.372 -49.078   3.431  1.00  0.00     0.008 C 
ATOM     19  C   UNL     1      -2.614 -51.433   3.505  1.00  0.00     0.012 C 
ATOM     20  C   UNL     1      -4.890 -50.645   5.680  1.00  0.00    -0.025 C 
ATOM     21  C   UNL     1      -3.282 -48.671   4.972  1.00  0.00     0.005 C 
ATOM     22  C   UNL     1      -3.636 -49.754   6.051  1.00  0.00     0.003 C 
ATOM     23  C   UNL     1      -6.213 -50.107   6.337  1.00  0.00     0.010 C 
ATOM     24  C   UNL     1      -4.638 -52.125   6.150  1.00  0.00     0.012 C 
ATOM     25  C   UNL     1      -3.534 -49.251   7.568  1.00  0.00    -0.006 C 
ATOM     26  C   UNL     1      -6.118 -49.580   7.758  1.00  0.00     0.033 C 
ATOM     27  C   UNL     1      -4.738 -49.811   8.409  1.00  0.00     0.120 C 
ATOM     28  C   UNL     1      -2.207 -49.792   8.182  1.00  0.00     0.014 C 
ATOM     29  C   UNL     1      -3.502 -47.708   7.722  1.00  0.00     0.014 C 
ENDROOT
BRANCH   1  30
ATOM     30  C   UNL     1      -6.444 -50.402  -2.217  1.00  0.00     0.048 C 
ATOM     31  O   UNL     1      -6.821 -51.589  -2.360  1.00  0.00    -0.550 OA
ATOM     32  O   UNL     1      -6.569 -49.541  -3.304  1.00  0.00    -0.550 OA
ENDBRANCH   1  30
BRANCH  27  33
ATOM     33  O   UNL     1      -4.706 -49.330   9.750  1.00  0.00    -0.393 OA
ATOM     34  H   UNL     1      -3.766 -49.220  10.048  1.00  0.00     0.210 HD
ENDBRANCH  27  33
TORSDOF 2
ENDMDL
