MODEL 1
REMARK VINA RESULT:    -5.416      0.000      0.000
REMARK INTER + INTRA:          -6.481
REMARK INTER:                  -6.207
REMARK INTRA:                  -0.274
REMARK UNBOUND:                -0.274
REMARK SMILES O=C([O-])C=Cc1ccc(O)cc1
REMARK SMILES IDX 6 1 7 2 12 3 8 4 11 5 9 6 5 7 4 8 2 9 1 10 3 11 10 12
REMARK H PARENT 10 13
REMARK Flexibility Score: inf
ROOT
ATOM      1  C   UNL     1      10.810   9.411  14.014  1.00  0.00    -0.025 A 
ATOM      2  C   UNL     1      10.278   9.563  15.306  1.00  0.00     0.012 A 
ATOM      3  C   UNL     1       9.938   9.323  12.919  1.00  0.00     0.012 A 
ATOM      4  C   UNL     1       8.894   9.573  15.502  1.00  0.00     0.047 A 
ATOM      5  C   UNL     1       8.554   9.334  13.117  1.00  0.00     0.047 A 
ATOM      6  C   UNL     1       8.028   9.454  14.407  1.00  0.00     0.115 A 
ENDROOT
BRANCH   1   7
ATOM      7  C   UNL     1      12.268   9.451  13.776  1.00  0.00     0.010 C 
ATOM      8  C   UNL     1      12.996  10.564  13.589  1.00  0.00     0.025 C 
BRANCH   8   9
ATOM      9  C   UNL     1      12.516  11.949  13.765  1.00  0.00     0.064 C 
ATOM     10  O   UNL     1      12.184  12.660  12.780  1.00  0.00    -0.545 OA
ATOM     11  O   UNL     1      12.362  12.454  15.048  1.00  0.00    -0.545 OA
ENDBRANCH   8   9
ENDBRANCH   1   7
BRANCH   6  12
ATOM     12  O   UNL     1       6.647   9.461  14.590  1.00  0.00    -0.508 OA
ATOM     13  H   UNL     1       6.085   8.637  14.412  1.00  0.00     0.293 HD
ENDBRANCH   6  12
TORSDOF 3
ENDMDL
MODEL 2
REMARK VINA RESULT:    -5.382      0.091      1.401
REMARK INTER + INTRA:          -6.442
REMARK INTER:                  -6.173
REMARK INTRA:                  -0.269
REMARK UNBOUND:                -0.274
REMARK SMILES O=C([O-])C=Cc1ccc(O)cc1
REMARK SMILES IDX 6 1 7 2 12 3 8 4 11 5 9 6 5 7 4 8 2 9 1 10 3 11 10 12
REMARK H PARENT 10 13
REMARK Flexibility Score: inf
ROOT
ATOM      1  C   UNL     1      10.736   9.502  13.955  1.00  0.00    -0.025 A 
ATOM      2  C   UNL     1       9.845   9.349  12.879  1.00  0.00     0.012 A 
ATOM      3  C   UNL     1      10.228   9.593  15.260  1.00  0.00     0.012 A 
ATOM      4  C   UNL     1       8.464   9.341  13.103  1.00  0.00     0.047 A 
ATOM      5  C   UNL     1       8.847   9.584  15.482  1.00  0.00     0.047 A 
ATOM      6  C   UNL     1       7.962   9.463  14.405  1.00  0.00     0.115 A 
ENDROOT
BRANCH   1   7
ATOM      7  C   UNL     1      12.199   9.460  13.750  1.00  0.00     0.010 C 
ATOM      8  C   UNL     1      12.991  10.531  13.582  1.00  0.00     0.025 C 
BRANCH   8   9
ATOM      9  C   UNL     1      12.586  11.940  13.749  1.00  0.00     0.064 C 
ATOM     10  O   UNL     1      12.360  12.681  12.757  1.00  0.00    -0.545 OA
ATOM     11  O   UNL     1      12.384  12.438  15.028  1.00  0.00    -0.545 OA
ENDBRANCH   8   9
ENDBRANCH   1   7
BRANCH   6  12
ATOM     12  O   UNL     1       6.589   9.457  14.641  1.00  0.00    -0.508 OA
ATOM     13  H   UNL     1       6.038  10.306  14.579  1.00  0.00     0.293 HD
ENDBRANCH   6  12
TORSDOF 3
ENDMDL
MODEL 3
REMARK VINA RESULT:    -5.072      2.392      2.961
REMARK INTER + INTRA:          -6.087
REMARK INTER:                  -5.973
REMARK INTRA:                  -0.114
REMARK UNBOUND:                -0.274
REMARK SMILES O=C([O-])C=Cc1ccc(O)cc1
REMARK SMILES IDX 6 1 7 2 12 3 8 4 11 5 9 6 5 7 4 8 2 9 1 10 3 11 10 12
REMARK H PARENT 10 13
REMARK Flexibility Score: inf
ROOT
ATOM      1  C   UNL     1      11.695  10.227  13.423  1.00  0.00    -0.025 A 
ATOM      2  C   UNL     1      11.624  11.578  13.804  1.00  0.00     0.012 A 
ATOM      3  C   UNL     1      10.778   9.312  13.962  1.00  0.00     0.012 A 
ATOM      4  C   UNL     1      10.684  11.994  14.752  1.00  0.00     0.047 A 
ATOM      5  C   UNL     1       9.838   9.731  14.909  1.00  0.00     0.047 A 
ATOM      6  C   UNL     1       9.791  11.070  15.310  1.00  0.00     0.115 A 
ENDROOT
BRANCH   1   7
ATOM      7  C   UNL     1      12.644   9.773  12.385  1.00  0.00     0.010 C 
ATOM      8  C   UNL     1      13.919   9.413  12.601  1.00  0.00     0.025 C 
BRANCH   8   9
ATOM      9  C   UNL     1      14.553   9.231  13.922  1.00  0.00     0.064 C 
ATOM     10  O   UNL     1      14.615  10.171  14.757  1.00  0.00    -0.545 OA
ATOM     11  O   UNL     1      15.030   7.977  14.276  1.00  0.00    -0.545 OA
ENDBRANCH   8   9
ENDBRANCH   1   7
BRANCH   6  12
ATOM     12  O   UNL     1       8.851  11.473  16.256  1.00  0.00    -0.508 OA
ATOM     13  H   UNL     1       7.960  11.871  15.981  1.00  0.00     0.293 HD
ENDBRANCH   6  12
TORSDOF 3
ENDMDL
MODEL 4
REMARK VINA RESULT:    -5.040      2.270      3.069
REMARK INTER + INTRA:          -6.051
REMARK INTER:                  -5.761
REMARK INTRA:                  -0.290
REMARK UNBOUND:                -0.274
REMARK SMILES O=C([O-])C=Cc1ccc(O)cc1
REMARK SMILES IDX 6 1 7 2 12 3 8 4 11 5 9 6 5 7 4 8 2 9 1 10 3 11 10 12
REMARK H PARENT 10 13
REMARK Flexibility Score: inf
ROOT
ATOM      1  C   UNL     1      12.154  10.258  13.762  1.00  0.00    -0.025 A 
ATOM      2  C   UNL     1      11.970  11.626  14.028  1.00  0.00     0.012 A 
ATOM      3  C   UNL     1      11.204   9.335  14.224  1.00  0.00     0.012 A 
ATOM      4  C   UNL     1      10.878  12.055  14.790  1.00  0.00     0.047 A 
ATOM      5  C   UNL     1      10.114   9.766  14.986  1.00  0.00     0.047 A 
ATOM      6  C   UNL     1       9.950  11.125  15.275  1.00  0.00     0.115 A 
ENDROOT
BRANCH   1   7
ATOM      7  C   UNL     1      13.269   9.786  12.915  1.00  0.00     0.010 C 
ATOM      8  C   UNL     1      13.209   9.589  11.588  1.00  0.00     0.025 C 
BRANCH   8   9
ATOM      9  C   UNL     1      12.089   9.975  10.708  1.00  0.00     0.064 C 
ATOM     10  O   UNL     1      11.247   9.129  10.307  1.00  0.00    -0.545 OA
ATOM     11  O   UNL     1      11.921  11.310  10.372  1.00  0.00    -0.545 OA
ENDBRANCH   8   9
ENDBRANCH   1   7
BRANCH   6  12
ATOM     12  O   UNL     1       8.860  11.540  16.036  1.00  0.00    -0.508 OA
ATOM     13  H   UNL     1       8.168  12.180  15.664  1.00  0.00     0.293 HD
ENDBRANCH   6  12
TORSDOF 3
ENDMDL
MODEL 5
REMARK VINA RESULT:    -4.995      2.365      2.986
REMARK INTER + INTRA:          -5.999
REMARK INTER:                  -5.886
REMARK INTRA:                  -0.113
REMARK UNBOUND:                -0.274
REMARK SMILES O=C([O-])C=Cc1ccc(O)cc1
REMARK SMILES IDX 6 1 7 2 12 3 8 4 11 5 9 6 5 7 4 8 2 9 1 10 3 11 10 12
REMARK H PARENT 10 13
REMARK Flexibility Score: inf
ROOT
ATOM      1  C   UNL     1      11.667  10.352  13.264  1.00  0.00    -0.025 A 
ATOM      2  C   UNL     1      10.833   9.373  13.831  1.00  0.00     0.012 A 
ATOM      3  C   UNL     1      11.613  11.666  13.752  1.00  0.00     0.012 A 
ATOM      4  C   UNL     1       9.922   9.718  14.835  1.00  0.00     0.047 A 
ATOM      5  C   UNL     1      10.701  12.009  14.755  1.00  0.00     0.047 A 
ATOM      6  C   UNL     1       9.851  11.039  15.296  1.00  0.00     0.115 A 
ENDROOT
BRANCH   1   7
ATOM      7  C   UNL     1      12.674  10.001  12.241  1.00  0.00     0.010 C 
ATOM      8  C   UNL     1      13.942   9.638  12.490  1.00  0.00     0.025 C 
BRANCH   8   9
ATOM      9  C   UNL     1      14.511   9.348  13.820  1.00  0.00     0.064 C 
ATOM     10  O   UNL     1      14.540  10.220  14.727  1.00  0.00    -0.545 OA
ATOM     11  O   UNL     1      14.963   8.066  14.098  1.00  0.00    -0.545 OA
ENDBRANCH   8   9
ENDBRANCH   1   7
BRANCH   6  12
ATOM     12  O   UNL     1       8.947  11.396  16.294  1.00  0.00    -0.508 OA
ATOM     13  H   UNL     1       7.946  11.347  16.143  1.00  0.00     0.293 HD
ENDBRANCH   6  12
TORSDOF 3
ENDMDL
MODEL 6
REMARK VINA RESULT:    -4.896      2.431      4.695
REMARK INTER + INTRA:          -5.886
REMARK INTER:                  -5.605
REMARK INTRA:                  -0.281
REMARK UNBOUND:                -0.274
REMARK SMILES O=C([O-])C=Cc1ccc(O)cc1
REMARK SMILES IDX 6 1 7 2 12 3 8 4 11 5 9 6 5 7 4 8 2 9 1 10 3 11 10 12
REMARK H PARENT 10 13
REMARK Flexibility Score: inf
ROOT
ATOM      1  C   UNL     1      11.818  11.102  14.112  1.00  0.00    -0.025 A 
ATOM      2  C   UNL     1      12.991  10.777  14.816  1.00  0.00     0.012 A 
ATOM      3  C   UNL     1      11.612  10.559  12.835  1.00  0.00     0.012 A 
ATOM      4  C   UNL     1      13.964   9.964  14.227  1.00  0.00     0.047 A 
ATOM      5  C   UNL     1      12.587   9.746  12.248  1.00  0.00     0.047 A 
ATOM      6  C   UNL     1      13.766   9.450  12.939  1.00  0.00     0.115 A 
ENDROOT
BRANCH   1   7
ATOM      7  C   UNL     1      10.752  11.915  14.733  1.00  0.00     0.010 C 
ATOM      8  C   UNL     1       9.674  11.430  15.368  1.00  0.00     0.025 C 
BRANCH   8   9
ATOM      9  C   UNL     1       9.443  10.015  15.720  1.00  0.00     0.064 C 
ATOM     10  O   UNL     1       9.957   9.500  16.747  1.00  0.00    -0.545 OA
ATOM     11  O   UNL     1       8.586   9.255  14.937  1.00  0.00    -0.545 OA
ENDBRANCH   8   9
ENDBRANCH   1   7
BRANCH   6  12
ATOM     12  O   UNL     1      14.729   8.640  12.342  1.00  0.00    -0.508 OA
ATOM     13  H   UNL     1      14.597   8.258  11.412  1.00  0.00     0.293 HD
ENDBRANCH   6  12
TORSDOF 3
ENDMDL
MODEL 7
REMARK VINA RESULT:    -4.850      2.492      5.111
REMARK INTER + INTRA:          -5.833
REMARK INTER:                  -5.547
REMARK INTRA:                  -0.287
REMARK UNBOUND:                -0.274
REMARK SMILES O=C([O-])C=Cc1ccc(O)cc1
REMARK SMILES IDX 6 1 7 2 12 3 8 4 11 5 9 6 5 7 4 8 2 9 1 10 3 11 10 12
REMARK H PARENT 10 13
REMARK Flexibility Score: inf
ROOT
ATOM      1  C   UNL     1      12.404  10.800  13.926  1.00  0.00    -0.025 A 
ATOM      2  C   UNL     1      12.430  10.241  12.636  1.00  0.00     0.012 A 
ATOM      3  C   UNL     1      13.483  10.573  14.793  1.00  0.00     0.012 A 
ATOM      4  C   UNL     1      13.495   9.425  12.243  1.00  0.00     0.047 A 
ATOM      5  C   UNL     1      14.547   9.757  14.398  1.00  0.00     0.047 A 
ATOM      6  C   UNL     1      14.554   9.177  13.125  1.00  0.00     0.115 A 
ENDROOT
BRANCH   1   7
ATOM      7  C   UNL     1      11.317  11.709  14.345  1.00  0.00     0.010 C 
ATOM      8  C   UNL     1      10.164  11.329  14.918  1.00  0.00     0.025 C 
BRANCH   8   9
ATOM      9  C   UNL     1       9.844   9.970  15.397  1.00  0.00     0.064 C 
ATOM     10  O   UNL     1       9.926   9.665  16.615  1.00  0.00    -0.545 OA
ATOM     11  O   UNL     1       9.376   9.027  14.492  1.00  0.00    -0.545 OA
ENDBRANCH   8   9
ENDBRANCH   1   7
BRANCH   6  12
ATOM     12  O   UNL     1      15.620   8.365  12.745  1.00  0.00    -0.508 OA
ATOM     13  H   UNL     1      16.481   8.336  13.279  1.00  0.00     0.293 HD
ENDBRANCH   6  12
TORSDOF 3
ENDMDL
MODEL 8
REMARK VINA RESULT:    -4.578      2.066      4.574
REMARK INTER + INTRA:          -5.521
REMARK INTER:                  -5.468
REMARK INTRA:                  -0.054
REMARK UNBOUND:                -0.274
REMARK SMILES O=C([O-])C=Cc1ccc(O)cc1
REMARK SMILES IDX 6 1 7 2 12 3 8 4 11 5 9 6 5 7 4 8 2 9 1 10 3 11 10 12
REMARK H PARENT 10 13
REMARK Flexibility Score: inf
ROOT
ATOM      1  C   UNL     1      11.140   9.762  13.050  1.00  0.00    -0.025 A 
ATOM      2  C   UNL     1      12.174   9.394  13.928  1.00  0.00     0.012 A 
ATOM      3  C   UNL     1      11.454  10.455  11.871  1.00  0.00     0.012 A 
ATOM      4  C   UNL     1      13.495   9.760  13.653  1.00  0.00     0.047 A 
ATOM      5  C   UNL     1      12.776  10.820  11.599  1.00  0.00     0.047 A 
ATOM      6  C   UNL     1      13.799  10.478  12.489  1.00  0.00     0.115 A 
ENDROOT
BRANCH   1   7
ATOM      7  C   UNL     1       9.744   9.341  13.292  1.00  0.00     0.010 C 
ATOM      8  C   UNL     1       9.056   9.542  14.427  1.00  0.00     0.025 C 
BRANCH   8   9
ATOM      9  C   UNL     1       9.495  10.369  15.568  1.00  0.00     0.064 C 
ATOM     10  O   UNL     1       9.949   9.850  16.621  1.00  0.00    -0.545 OA
ATOM     11  O   UNL     1       9.471  11.752  15.449  1.00  0.00    -0.545 OA
ENDBRANCH   8   9
ENDBRANCH   1   7
BRANCH   6  12
ATOM     12  O   UNL     1      15.111  10.850  12.206  1.00  0.00    -0.508 OA
ATOM     13  H   UNL     1      15.410  11.817  12.257  1.00  0.00     0.293 HD
ENDBRANCH   6  12
TORSDOF 3
ENDMDL
MODEL 9
REMARK VINA RESULT:    -4.548      2.067      4.465
REMARK INTER + INTRA:          -5.487
REMARK INTER:                  -5.257
REMARK INTRA:                  -0.230
REMARK UNBOUND:                -0.274
REMARK SMILES O=C([O-])C=Cc1ccc(O)cc1
REMARK SMILES IDX 6 1 7 2 12 3 8 4 11 5 9 6 5 7 4 8 2 9 1 10 3 11 10 12
REMARK H PARENT 10 13
REMARK Flexibility Score: inf
ROOT
ATOM      1  C   UNL     1      11.642  10.383  13.036  1.00  0.00    -0.025 A 
ATOM      2  C   UNL     1      12.024  11.706  13.318  1.00  0.00     0.012 A 
ATOM      3  C   UNL     1      11.589   9.954  11.701  1.00  0.00     0.012 A 
ATOM      4  C   UNL     1      12.297  12.599  12.276  1.00  0.00     0.047 A 
ATOM      5  C   UNL     1      11.861  10.848  10.661  1.00  0.00     0.047 A 
ATOM      6  C   UNL     1      12.211  12.172  10.944  1.00  0.00     0.115 A 
ENDROOT
BRANCH   1   7
ATOM      7  C   UNL     1      11.401   9.408  14.119  1.00  0.00     0.010 C 
ATOM      8  C   UNL     1      10.344   9.410  14.946  1.00  0.00     0.025 C 
BRANCH   8   9
ATOM      9  C   UNL     1       9.148  10.264  14.817  1.00  0.00     0.064 C 
ATOM     10  O   UNL     1       8.116   9.865  14.215  1.00  0.00    -0.545 OA
ATOM     11  O   UNL     1       9.136  11.508  15.431  1.00  0.00    -0.545 OA
ENDBRANCH   8   9
ENDBRANCH   1   7
BRANCH   6  12
ATOM     12  O   UNL     1      12.479  13.052   9.898  1.00  0.00    -0.508 OA
ATOM     13  H   UNL     1      11.875  13.842   9.703  1.00  0.00     0.293 HD
ENDBRANCH   6  12
TORSDOF 3
ENDMDL
