MODEL 1
REMARK VINA RESULT:    11.075      0.000      0.000
REMARK INTER + INTRA:          29.765
REMARK INTER:                  29.203
REMARK INTRA:                   0.562
REMARK UNBOUND:                 0.562
REMARK SMILES CCCCCCCCCCCCCCCCCCCCCCCCCCCCCC(=O)[O-]
REMARK SMILES IDX 16 1 17 2 18 3 19 4 20 5 21 6 22 7 23 8 24 9 25 10 26 11
REMARK SMILES IDX 27 12 28 13 29 14 30 15 31 16 32 17 15 18 14 19 13 20 12 21
REMARK SMILES IDX 11 22 10 23 9 24 8 25 7 26 6 27 5 28 4 29 3 30 2 31 1 32
REMARK H PARENT
REMARK Flexibility Score: inf
ROOT
ATOM      1  C   UNL     1       3.687 -34.587  21.736  1.00  0.00     0.000 C 
ENDROOT
BRANCH   1   2
ATOM      2  C   UNL     1       4.512 -35.383  22.759  1.00  0.00     0.000 C 
BRANCH   2   3
ATOM      3  C   UNL     1       5.062 -36.700  22.186  1.00  0.00     0.000 C 
BRANCH   3   4
ATOM      4  C   UNL     1       4.502 -37.942  22.901  1.00  0.00     0.000 C 
BRANCH   4   5
ATOM      5  C   UNL     1       5.034 -38.085  24.336  1.00  0.00     0.000 C 
BRANCH   5   6
ATOM      6  C   UNL     1       5.117 -36.737  25.075  1.00  0.00     0.000 C 
BRANCH   6   7
ATOM      7  C   UNL     1       3.984 -36.557  26.098  1.00  0.00     0.000 C 
BRANCH   7   8
ATOM      8  C   UNL     1       3.369 -37.896  26.538  1.00  0.00     0.000 C 
BRANCH   8   9
ATOM      9  C   UNL     1       2.252 -37.718  27.585  1.00  0.00     0.000 C 
BRANCH   9  10
ATOM     10  C   UNL     1       1.608 -36.317  27.594  1.00  0.00     0.000 C 
BRANCH  10  11
ATOM     11  C   UNL     1       2.247 -35.338  28.599  1.00  0.00     0.000 C 
BRANCH  11  12
ATOM     12  C   UNL     1       1.415 -34.056  28.775  1.00  0.00     0.000 C 
BRANCH  12  13
ATOM     13  C   UNL     1       0.137 -34.284  29.598  1.00  0.00     0.006 C 
BRANCH  13  14
ATOM     14  C   UNL     1      -0.826 -33.092  29.538  1.00  0.00     0.053 C 
BRANCH  14  15
ATOM     15  C   UNL     1      -2.239 -33.557  29.366  1.00  0.00     0.041 C 
ATOM     16  O   UNL     1      -2.518 -34.419  28.491  1.00  0.00    -0.550 OA
ATOM     17  O   UNL     1      -3.245 -33.047  30.177  1.00  0.00    -0.550 OA
ENDBRANCH  14  15
ENDBRANCH  13  14
ENDBRANCH  12  13
ENDBRANCH  11  12
ENDBRANCH  10  11
ENDBRANCH   9  10
ENDBRANCH   8   9
ENDBRANCH   7   8
ENDBRANCH   6   7
ENDBRANCH   5   6
ENDBRANCH   4   5
ENDBRANCH   3   4
ENDBRANCH   2   3
ENDBRANCH   1   2
BRANCH   1  18
ATOM     18  C   UNL     1       3.708 -35.259  20.354  1.00  0.00     0.000 C 
BRANCH  18  19
ATOM     19  C   UNL     1       5.046 -35.047  19.615  1.00  0.00     0.000 C 
BRANCH  19  20
ATOM     20  C   UNL     1       4.902 -34.375  18.236  1.00  0.00     0.000 C 
BRANCH  20  21
ATOM     21  C   UNL     1       4.172 -35.212  17.170  1.00  0.00     0.000 C 
BRANCH  21  22
ATOM     22  C   UNL     1       3.944 -36.691  17.537  1.00  0.00     0.000 C 
BRANCH  22  23
ATOM     23  C   UNL     1       4.500 -37.690  16.501  1.00  0.00     0.000 C 
BRANCH  23  24
ATOM     24  C   UNL     1       3.563 -37.871  15.297  1.00  0.00    -0.000 C 
BRANCH  24  25
ATOM     25  C   UNL     1       3.819 -36.801  14.225  1.00  0.00    -0.000 C 
BRANCH  25  26
ATOM     26  C   UNL     1       2.724 -35.718  14.185  1.00  0.00    -0.000 C 
BRANCH  26  27
ATOM     27  C   UNL     1       1.416 -36.090  14.908  1.00  0.00    -0.000 C 
BRANCH  27  28
ATOM     28  C   UNL     1       1.188 -35.361  16.244  1.00  0.00    -0.000 C 
BRANCH  28  29
ATOM     29  C   UNL     1       0.373 -36.185  17.265  1.00  0.00    -0.000 C 
BRANCH  29  30
ATOM     30  C   UNL     1       1.060 -37.511  17.624  1.00  0.00    -0.000 C 
BRANCH  30  31
ATOM     31  C   UNL     1       0.843 -37.862  19.101  1.00  0.00    -0.003 C 
ATOM     32  C   UNL     1       2.168 -37.892  19.861  1.00  0.00     0.004 C 
ENDBRANCH  30  31
ENDBRANCH  29  30
ENDBRANCH  28  29
ENDBRANCH  27  28
ENDBRANCH  26  27
ENDBRANCH  25  26
ENDBRANCH  24  25
ENDBRANCH  23  24
ENDBRANCH  22  23
ENDBRANCH  21  22
ENDBRANCH  20  21
ENDBRANCH  19  20
ENDBRANCH  18  19
ENDBRANCH   1  18
TORSDOF 28
ENDMDL
MODEL 2
REMARK VINA RESULT:    11.829      1.450      2.050
REMARK INTER + INTRA:          31.753
REMARK INTER:                  29.758
REMARK INTRA:                   1.996
REMARK UNBOUND:                 0.562
REMARK SMILES CCCCCCCCCCCCCCCCCCCCCCCCCCCCCC(=O)[O-]
REMARK SMILES IDX 16 1 17 2 18 3 19 4 20 5 21 6 22 7 23 8 24 9 25 10 26 11
REMARK SMILES IDX 27 12 28 13 29 14 30 15 31 16 32 17 15 18 14 19 13 20 12 21
REMARK SMILES IDX 11 22 10 23 9 24 8 25 7 26 6 27 5 28 4 29 3 30 2 31 1 32
REMARK H PARENT
REMARK Flexibility Score: inf
ROOT
ATOM      1  C   UNL     1       3.069 -35.035  22.552  1.00  0.00     0.000 C 
ENDROOT
BRANCH   1   2
ATOM      2  C   UNL     1       4.220 -35.789  23.237  1.00  0.00     0.000 C 
BRANCH   2   3
ATOM      3  C   UNL     1       5.118 -36.540  22.239  1.00  0.00     0.000 C 
BRANCH   3   4
ATOM      4  C   UNL     1       4.340 -37.560  21.389  1.00  0.00     0.000 C 
BRANCH   4   5
ATOM      5  C   UNL     1       4.426 -38.987  21.957  1.00  0.00     0.000 C 
BRANCH   5   6
ATOM      6  C   UNL     1       5.118 -39.038  23.331  1.00  0.00     0.000 C 
BRANCH   6   7
ATOM      7  C   UNL     1       4.125 -38.893  24.495  1.00  0.00     0.000 C 
BRANCH   7   8
ATOM      8  C   UNL     1       4.717 -38.119  25.684  1.00  0.00     0.000 C 
BRANCH   8   9
ATOM      9  C   UNL     1       3.667 -37.258  26.413  1.00  0.00     0.000 C 
BRANCH   9  10
ATOM     10  C   UNL     1       2.660 -38.066  27.257  1.00  0.00     0.000 C 
BRANCH  10  11
ATOM     11  C   UNL     1       1.190 -37.658  27.041  1.00  0.00     0.000 C 
BRANCH  11  12
ATOM     12  C   UNL     1       0.953 -36.161  27.304  1.00  0.00     0.000 C 
BRANCH  12  13
ATOM     13  C   UNL     1       1.331 -35.741  28.734  1.00  0.00     0.006 C 
BRANCH  13  14
ATOM     14  C   UNL     1       1.945 -34.336  28.795  1.00  0.00     0.053 C 
BRANCH  14  15
ATOM     15  C   UNL     1       1.399 -33.568  29.959  1.00  0.00     0.041 C 
ATOM     16  O   UNL     1       0.350 -32.884  29.829  1.00  0.00    -0.550 OA
ATOM     17  O   UNL     1       2.045 -33.615  31.188  1.00  0.00    -0.550 OA
ENDBRANCH  14  15
ENDBRANCH  13  14
ENDBRANCH  12  13
ENDBRANCH  11  12
ENDBRANCH  10  11
ENDBRANCH   9  10
ENDBRANCH   8   9
ENDBRANCH   7   8
ENDBRANCH   6   7
ENDBRANCH   5   6
ENDBRANCH   4   5
ENDBRANCH   3   4
ENDBRANCH   2   3
ENDBRANCH   1   2
BRANCH   1  18
ATOM     18  C   UNL     1       3.217 -35.056  21.023  1.00  0.00     0.000 C 
BRANCH  18  19
ATOM     19  C   UNL     1       4.692 -35.131  20.574  1.00  0.00     0.000 C 
BRANCH  19  20
ATOM     20  C   UNL     1       5.026 -34.234  19.366  1.00  0.00     0.000 C 
BRANCH  20  21
ATOM     21  C   UNL     1       4.846 -34.895  17.988  1.00  0.00     0.000 C 
BRANCH  21  22
ATOM     22  C   UNL     1       3.759 -35.985  17.917  1.00  0.00     0.000 C 
BRANCH  22  23
ATOM     23  C   UNL     1       4.262 -37.342  17.382  1.00  0.00     0.000 C 
BRANCH  23  24
ATOM     24  C   UNL     1       3.548 -37.766  16.090  1.00  0.00    -0.000 C 
BRANCH  24  25
ATOM     25  C   UNL     1       4.070 -36.977  14.880  1.00  0.00    -0.000 C 
BRANCH  25  26
ATOM     26  C   UNL     1       3.219 -35.732  14.563  1.00  0.00    -0.000 C 
BRANCH  26  27
ATOM     27  C   UNL     1       1.700 -35.922  14.738  1.00  0.00    -0.000 C 
BRANCH  27  28
ATOM     28  C   UNL     1       1.119 -35.316  16.027  1.00  0.00    -0.000 C 
BRANCH  28  29
ATOM     29  C   UNL     1       0.407 -36.348  16.928  1.00  0.00    -0.000 C 
BRANCH  29  30
ATOM     30  C   UNL     1       0.879 -36.271  18.388  1.00  0.00    -0.000 C 
BRANCH  30  31
ATOM     31  C   UNL     1       0.541 -37.560  19.146  1.00  0.00    -0.003 C 
ATOM     32  C   UNL     1       1.697 -38.557  19.082  1.00  0.00     0.004 C 
ENDBRANCH  30  31
ENDBRANCH  29  30
ENDBRANCH  28  29
ENDBRANCH  27  28
ENDBRANCH  26  27
ENDBRANCH  25  26
ENDBRANCH  24  25
ENDBRANCH  23  24
ENDBRANCH  22  23
ENDBRANCH  21  22
ENDBRANCH  20  21
ENDBRANCH  19  20
ENDBRANCH  18  19
ENDBRANCH   1  18
TORSDOF 28
ENDMDL
MODEL 3
REMARK VINA RESULT:    12.300      2.826     10.664
REMARK INTER + INTRA:          32.997
REMARK INTER:                  31.570
REMARK INTRA:                   1.427
REMARK UNBOUND:                 0.562
REMARK SMILES CCCCCCCCCCCCCCCCCCCCCCCCCCCCCC(=O)[O-]
REMARK SMILES IDX 16 1 17 2 18 3 19 4 20 5 21 6 22 7 23 8 24 9 25 10 26 11
REMARK SMILES IDX 27 12 28 13 29 14 30 15 31 16 32 17 15 18 14 19 13 20 12 21
REMARK SMILES IDX 11 22 10 23 9 24 8 25 7 26 6 27 5 28 4 29 3 30 2 31 1 32
REMARK H PARENT
REMARK Flexibility Score: inf
ROOT
ATOM      1  C   UNL     1       4.222 -37.946  21.945  1.00  0.00     0.000 C 
ENDROOT
BRANCH   1   2
ATOM      2  C   UNL     1       5.113 -36.703  21.791  1.00  0.00     0.000 C 
BRANCH   2   3
ATOM      3  C   UNL     1       4.314 -35.437  21.439  1.00  0.00     0.000 C 
BRANCH   3   4
ATOM      4  C   UNL     1       5.044 -34.531  20.432  1.00  0.00     0.000 C 
BRANCH   4   5
ATOM      5  C   UNL     1       5.077 -35.130  19.017  1.00  0.00     0.000 C 
BRANCH   5   6
ATOM      6  C   UNL     1       4.474 -36.546  18.958  1.00  0.00     0.000 C 
BRANCH   6   7
ATOM      7  C   UNL     1       4.490 -37.132  17.537  1.00  0.00     0.000 C 
BRANCH   7   8
ATOM      8  C   UNL     1       4.449 -36.045  16.451  1.00  0.00     0.000 C 
BRANCH   8   9
ATOM      9  C   UNL     1       4.086 -36.608  15.063  1.00  0.00     0.000 C 
BRANCH   9  10
ATOM     10  C   UNL     1       2.627 -36.351  14.636  1.00  0.00     0.000 C 
BRANCH  10  11
ATOM     11  C   UNL     1       1.840 -35.441  15.601  1.00  0.00     0.000 C 
BRANCH  11  12
ATOM     12  C   UNL     1       1.017 -36.246  16.621  1.00  0.00     0.000 C 
BRANCH  12  13
ATOM     13  C   UNL     1       1.845 -37.327  17.335  1.00  0.00     0.006 C 
BRANCH  13  14
ATOM     14  C   UNL     1       1.398 -37.553  18.785  1.00  0.00     0.053 C 
BRANCH  14  15
ATOM     15  C   UNL     1      -0.055 -37.911  18.844  1.00  0.00     0.041 C 
ATOM     16  O   UNL     1      -0.454 -39.009  18.375  1.00  0.00    -0.550 OA
ATOM     17  O   UNL     1      -0.964 -37.036  19.424  1.00  0.00    -0.550 OA
ENDBRANCH  14  15
ENDBRANCH  13  14
ENDBRANCH  12  13
ENDBRANCH  11  12
ENDBRANCH  10  11
ENDBRANCH   9  10
ENDBRANCH   8   9
ENDBRANCH   7   8
ENDBRANCH   6   7
ENDBRANCH   5   6
ENDBRANCH   4   5
ENDBRANCH   3   4
ENDBRANCH   2   3
ENDBRANCH   1   2
BRANCH   1  18
ATOM     18  C   UNL     1       4.962 -39.080  22.671  1.00  0.00     0.000 C 
BRANCH  18  19
ATOM     19  C   UNL     1       5.063 -38.839  24.192  1.00  0.00     0.000 C 
BRANCH  19  20
ATOM     20  C   UNL     1       4.795 -37.381  24.616  1.00  0.00     0.000 C 
BRANCH  20  21
ATOM     21  C   UNL     1       5.085 -37.064  26.093  1.00  0.00     0.000 C 
BRANCH  21  22
ATOM     22  C   UNL     1       4.104 -37.685  27.106  1.00  0.00     0.000 C 
BRANCH  22  23
ATOM     23  C   UNL     1       2.761 -38.129  26.490  1.00  0.00     0.000 C 
BRANCH  23  24
ATOM     24  C   UNL     1       1.560 -37.396  27.107  1.00  0.00    -0.000 C 
BRANCH  24  25
ATOM     25  C   UNL     1       1.919 -35.948  27.474  1.00  0.00    -0.000 C 
BRANCH  25  26
ATOM     26  C   UNL     1       1.568 -35.594  28.932  1.00  0.00    -0.000 C 
BRANCH  26  27
ATOM     27  C   UNL     1       1.969 -34.173  29.369  1.00  0.00    -0.000 C 
BRANCH  27  28
ATOM     28  C   UNL     1       0.788 -33.220  29.625  1.00  0.00    -0.000 C 
BRANCH  28  29
ATOM     29  C   UNL     1      -0.588 -33.921  29.600  1.00  0.00    -0.000 C 
BRANCH  29  30
ATOM     30  C   UNL     1      -1.719 -32.971  29.179  1.00  0.00    -0.000 C 
BRANCH  30  31
ATOM     31  C   UNL     1      -2.384 -32.330  30.403  1.00  0.00    -0.003 C 
ATOM     32  C   UNL     1      -2.232 -30.810  30.381  1.00  0.00     0.004 C 
ENDBRANCH  30  31
ENDBRANCH  29  30
ENDBRANCH  28  29
ENDBRANCH  27  28
ENDBRANCH  26  27
ENDBRANCH  25  26
ENDBRANCH  24  25
ENDBRANCH  23  24
ENDBRANCH  22  23
ENDBRANCH  21  22
ENDBRANCH  20  21
ENDBRANCH  19  20
ENDBRANCH  18  19
ENDBRANCH   1  18
TORSDOF 28
ENDMDL
MODEL 4
REMARK VINA RESULT:    12.328      1.242      2.933
REMARK INTER + INTRA:          33.071
REMARK INTER:                  33.118
REMARK INTRA:                  -0.048
REMARK UNBOUND:                 0.562
REMARK SMILES CCCCCCCCCCCCCCCCCCCCCCCCCCCCCC(=O)[O-]
REMARK SMILES IDX 16 1 17 2 18 3 19 4 20 5 21 6 22 7 23 8 24 9 25 10 26 11
REMARK SMILES IDX 27 12 28 13 29 14 30 15 31 16 32 17 15 18 14 19 13 20 12 21
REMARK SMILES IDX 11 22 10 23 9 24 8 25 7 26 6 27 5 28 4 29 3 30 2 31 1 32
REMARK H PARENT
REMARK Flexibility Score: inf
ROOT
ATOM      1  C   UNL     1       4.239 -38.731  22.522  1.00  0.00     0.000 C 
ENDROOT
BRANCH   1   2
ATOM      2  C   UNL     1       4.916 -39.606  23.589  1.00  0.00     0.000 C 
BRANCH   2   3
ATOM      3  C   UNL     1       5.112 -38.871  24.925  1.00  0.00     0.000 C 
BRANCH   3   4
ATOM      4  C   UNL     1       4.746 -37.378  24.844  1.00  0.00     0.000 C 
BRANCH   4   5
ATOM      5  C   UNL     1       4.234 -36.824  26.183  1.00  0.00     0.000 C 
BRANCH   5   6
ATOM      6  C   UNL     1       3.043 -37.624  26.741  1.00  0.00     0.000 C 
BRANCH   6   7
ATOM      7  C   UNL     1       1.821 -36.737  27.024  1.00  0.00     0.000 C 
BRANCH   7   8
ATOM      8  C   UNL     1       1.743 -36.292  28.494  1.00  0.00     0.000 C 
BRANCH   8   9
ATOM      9  C   UNL     1       2.118 -34.810  28.685  1.00  0.00     0.000 C 
BRANCH   9  10
ATOM     10  C   UNL     1       1.301 -34.083  29.773  1.00  0.00     0.000 C 
BRANCH  10  11
ATOM     11  C   UNL     1      -0.014 -33.463  29.261  1.00  0.00     0.000 C 
BRANCH  11  12
ATOM     12  C   UNL     1      -1.237 -34.340  29.580  1.00  0.00     0.000 C 
BRANCH  12  13
ATOM     13  C   UNL     1      -2.310 -34.289  28.480  1.00  0.00     0.006 C 
BRANCH  13  14
ATOM     14  C   UNL     1      -3.730 -34.155  29.045  1.00  0.00     0.053 C 
BRANCH  14  15
ATOM     15  C   UNL     1      -3.746 -34.435  30.516  1.00  0.00     0.041 C 
ATOM     16  O   UNL     1      -2.953 -35.281  31.007  1.00  0.00    -0.550 OA
ATOM     17  O   UNL     1      -4.629 -33.753  31.344  1.00  0.00    -0.550 OA
ENDBRANCH  14  15
ENDBRANCH  13  14
ENDBRANCH  12  13
ENDBRANCH  11  12
ENDBRANCH  10  11
ENDBRANCH   9  10
ENDBRANCH   8   9
ENDBRANCH   7   8
ENDBRANCH   6   7
ENDBRANCH   5   6
ENDBRANCH   4   5
ENDBRANCH   3   4
ENDBRANCH   2   3
ENDBRANCH   1   2
BRANCH   1  18
ATOM     18  C   UNL     1       4.941 -38.862  21.161  1.00  0.00     0.000 C 
BRANCH  18  19
ATOM     19  C   UNL     1       4.938 -37.540  20.366  1.00  0.00     0.000 C 
BRANCH  19  20
ATOM     20  C   UNL     1       5.125 -36.282  21.237  1.00  0.00     0.000 C 
BRANCH  20  21
ATOM     21  C   UNL     1       4.409 -35.018  20.729  1.00  0.00     0.000 C 
BRANCH  21  22
ATOM     22  C   UNL     1       5.042 -34.358  19.489  1.00  0.00     0.000 C 
BRANCH  22  23
ATOM     23  C   UNL     1       4.760 -35.101  18.167  1.00  0.00     0.000 C 
BRANCH  23  24
ATOM     24  C   UNL     1       4.014 -34.227  17.147  1.00  0.00    -0.000 C 
BRANCH  24  25
ATOM     25  C   UNL     1       2.808 -34.969  16.554  1.00  0.00    -0.000 C 
BRANCH  25  26
ATOM     26  C   UNL     1       3.010 -35.360  15.078  1.00  0.00    -0.000 C 
BRANCH  26  27
ATOM     27  C   UNL     1       2.793 -36.852  14.765  1.00  0.00    -0.000 C 
BRANCH  27  28
ATOM     28  C   UNL     1       3.679 -37.816  15.575  1.00  0.00    -0.000 C 
BRANCH  28  29
ATOM     29  C   UNL     1       3.236 -37.973  17.045  1.00  0.00    -0.000 C 
BRANCH  29  30
ATOM     30  C   UNL     1       1.793 -37.500  17.273  1.00  0.00    -0.000 C 
BRANCH  30  31
ATOM     31  C   UNL     1       1.184 -38.165  18.514  1.00  0.00    -0.003 C 
ATOM     32  C   UNL     1       0.867 -37.131  19.593  1.00  0.00     0.004 C 
ENDBRANCH  30  31
ENDBRANCH  29  30
ENDBRANCH  28  29
ENDBRANCH  27  28
ENDBRANCH  26  27
ENDBRANCH  25  26
ENDBRANCH  24  25
ENDBRANCH  23  24
ENDBRANCH  22  23
ENDBRANCH  21  22
ENDBRANCH  20  21
ENDBRANCH  19  20
ENDBRANCH  18  19
ENDBRANCH   1  18
TORSDOF 28
ENDMDL
MODEL 5
REMARK VINA RESULT:    12.888      4.415     11.897
REMARK INTER + INTRA:          34.546
REMARK INTER:                  35.384
REMARK INTRA:                  -0.838
REMARK UNBOUND:                 0.562
REMARK SMILES CCCCCCCCCCCCCCCCCCCCCCCCCCCCCC(=O)[O-]
REMARK SMILES IDX 16 1 17 2 18 3 19 4 20 5 21 6 22 7 23 8 24 9 25 10 26 11
REMARK SMILES IDX 27 12 28 13 29 14 30 15 31 16 32 17 15 18 14 19 13 20 12 21
REMARK SMILES IDX 11 22 10 23 9 24 8 25 7 26 6 27 5 28 4 29 3 30 2 31 1 32
REMARK H PARENT
REMARK Flexibility Score: inf
ROOT
ATOM      1  C   UNL     1       5.098 -37.965  24.616  1.00  0.00     0.000 C 
ENDROOT
BRANCH   1   2
ATOM      2  C   UNL     1       5.093 -37.137  23.322  1.00  0.00     0.000 C 
BRANCH   2   3
ATOM      3  C   UNL     1       4.930 -35.629  23.580  1.00  0.00     0.000 C 
BRANCH   3   4
ATOM      4  C   UNL     1       4.753 -34.818  22.284  1.00  0.00     0.000 C 
BRANCH   4   5
ATOM      5  C   UNL     1       5.120 -35.626  21.029  1.00  0.00     0.000 C 
BRANCH   5   6
ATOM      6  C   UNL     1       4.690 -34.927  19.727  1.00  0.00     0.000 C 
BRANCH   6   7
ATOM      7  C   UNL     1       4.544 -35.909  18.554  1.00  0.00     0.000 C 
BRANCH   7   8
ATOM      8  C   UNL     1       4.458 -37.373  19.017  1.00  0.00     0.000 C 
BRANCH   8   9
ATOM      9  C   UNL     1       3.230 -37.640  19.910  1.00  0.00     0.000 C 
BRANCH   9  10
ATOM     10  C   UNL     1       2.008 -36.755  19.589  1.00  0.00     0.000 C 
BRANCH  10  11
ATOM     11  C   UNL     1       0.720 -37.548  19.291  1.00  0.00     0.000 C 
BRANCH  11  12
ATOM     12  C   UNL     1       0.581 -37.897  17.799  1.00  0.00     0.000 C 
BRANCH  12  13
ATOM     13  C   UNL     1       1.886 -37.690  17.015  1.00  0.00     0.006 C 
BRANCH  13  14
ATOM     14  C   UNL     1       1.809 -36.509  16.039  1.00  0.00     0.053 C 
BRANCH  14  15
ATOM     15  C   UNL     1       2.975 -36.520  15.099  1.00  0.00     0.041 C 
ATOM     16  O   UNL     1       3.386 -35.443  14.590  1.00  0.00    -0.550 OA
ATOM     17  O   UNL     1       3.612 -37.716  14.793  1.00  0.00    -0.550 OA
ENDBRANCH  14  15
ENDBRANCH  13  14
ENDBRANCH  12  13
ENDBRANCH  11  12
ENDBRANCH  10  11
ENDBRANCH   9  10
ENDBRANCH   8   9
ENDBRANCH   7   8
ENDBRANCH   6   7
ENDBRANCH   5   6
ENDBRANCH   4   5
ENDBRANCH   3   4
ENDBRANCH   2   3
ENDBRANCH   1   2
BRANCH   1  18
ATOM     18  C   UNL     1       4.937 -37.070  25.855  1.00  0.00     0.000 C 
BRANCH  18  19
ATOM     19  C   UNL     1       3.869 -37.603  26.832  1.00  0.00     0.000 C 
BRANCH  19  20
ATOM     20  C   UNL     1       2.527 -36.848  26.768  1.00  0.00     0.000 C 
BRANCH  20  21
ATOM     21  C   UNL     1       1.941 -36.431  28.128  1.00  0.00     0.000 C 
BRANCH  21  22
ATOM     22  C   UNL     1       0.869 -35.325  28.073  1.00  0.00     0.000 C 
BRANCH  22  23
ATOM     23  C   UNL     1       1.210 -34.075  28.911  1.00  0.00     0.000 C 
BRANCH  23  24
ATOM     24  C   UNL     1       0.042 -33.626  29.801  1.00  0.00    -0.000 C 
BRANCH  24  25
ATOM     25  C   UNL     1      -1.284 -33.632  29.025  1.00  0.00    -0.000 C 
BRANCH  25  26
ATOM     26  C   UNL     1      -2.518 -33.685  29.946  1.00  0.00    -0.000 C 
BRANCH  26  27
ATOM     27  C   UNL     1      -2.725 -32.439  30.827  1.00  0.00    -0.000 C 
BRANCH  27  28
ATOM     28  C   UNL     1      -3.707 -31.401  30.256  1.00  0.00    -0.000 C 
BRANCH  28  29
ATOM     29  C   UNL     1      -3.308 -29.941  30.561  1.00  0.00    -0.000 C 
BRANCH  29  30
ATOM     30  C   UNL     1      -3.285 -29.067  29.298  1.00  0.00    -0.000 C 
BRANCH  30  31
ATOM     31  C   UNL     1      -3.687 -27.623  29.620  1.00  0.00    -0.003 C 
ATOM     32  C   UNL     1      -3.396 -26.694  28.443  1.00  0.00     0.004 C 
ENDBRANCH  30  31
ENDBRANCH  29  30
ENDBRANCH  28  29
ENDBRANCH  27  28
ENDBRANCH  26  27
ENDBRANCH  25  26
ENDBRANCH  24  25
ENDBRANCH  23  24
ENDBRANCH  22  23
ENDBRANCH  21  22
ENDBRANCH  20  21
ENDBRANCH  19  20
ENDBRANCH  18  19
ENDBRANCH   1  18
TORSDOF 28
ENDMDL
MODEL 6
REMARK VINA RESULT:    13.184      1.217      2.100
REMARK INTER + INTRA:          35.327
REMARK INTER:                  30.676
REMARK INTRA:                   4.651
REMARK UNBOUND:                 0.562
REMARK SMILES CCCCCCCCCCCCCCCCCCCCCCCCCCCCCC(=O)[O-]
REMARK SMILES IDX 16 1 17 2 18 3 19 4 20 5 21 6 22 7 23 8 24 9 25 10 26 11
REMARK SMILES IDX 27 12 28 13 29 14 30 15 31 16 32 17 15 18 14 19 13 20 12 21
REMARK SMILES IDX 11 22 10 23 9 24 8 25 7 26 6 27 5 28 4 29 3 30 2 31 1 32
REMARK H PARENT
REMARK Flexibility Score: inf
ROOT
ATOM      1  C   UNL     1       4.526 -35.772  22.890  1.00  0.00     0.000 C 
ENDROOT
BRANCH   1   2
ATOM      2  C   UNL     1       5.024 -37.128  22.366  1.00  0.00     0.000 C 
BRANCH   2   3
ATOM      3  C   UNL     1       4.667 -38.295  23.301  1.00  0.00     0.000 C 
BRANCH   3   4
ATOM      4  C   UNL     1       4.948 -37.981  24.781  1.00  0.00     0.000 C 
BRANCH   4   5
ATOM      5  C   UNL     1       4.963 -36.471  25.070  1.00  0.00     0.000 C 
BRANCH   5   6
ATOM      6  C   UNL     1       4.229 -36.108  26.373  1.00  0.00     0.000 C 
BRANCH   6   7
ATOM      7  C   UNL     1       3.409 -37.282  26.931  1.00  0.00     0.000 C 
BRANCH   7   8
ATOM      8  C   UNL     1       1.959 -36.886  27.258  1.00  0.00     0.000 C 
BRANCH   8   9
ATOM      9  C   UNL     1       1.840 -35.431  27.751  1.00  0.00     0.000 C 
BRANCH   9  10
ATOM     10  C   UNL     1       2.132 -35.244  29.253  1.00  0.00     0.000 C 
BRANCH  10  11
ATOM     11  C   UNL     1       1.049 -34.448  30.009  1.00  0.00     0.000 C 
BRANCH  11  12
ATOM     12  C   UNL     1       0.154 -33.633  29.060  1.00  0.00     0.000 C 
BRANCH  12  13
ATOM     13  C   UNL     1      -1.320 -34.065  29.115  1.00  0.00     0.006 C 
BRANCH  13  14
ATOM     14  C   UNL     1      -2.190 -33.099  29.930  1.00  0.00     0.053 C 
BRANCH  14  15
ATOM     15  C   UNL     1      -1.559 -31.743  29.997  1.00  0.00     0.041 C 
ATOM     16  O   UNL     1      -2.266 -30.709  29.863  1.00  0.00    -0.550 OA
ATOM     17  O   UNL     1      -0.193 -31.621  30.218  1.00  0.00    -0.550 OA
ENDBRANCH  14  15
ENDBRANCH  13  14
ENDBRANCH  12  13
ENDBRANCH  11  12
ENDBRANCH  10  11
ENDBRANCH   9  10
ENDBRANCH   8   9
ENDBRANCH   7   8
ENDBRANCH   6   7
ENDBRANCH   5   6
ENDBRANCH   4   5
ENDBRANCH   3   4
ENDBRANCH   2   3
ENDBRANCH   1   2
BRANCH   1  18
ATOM     18  C   UNL     1       4.421 -34.738  21.758  1.00  0.00     0.000 C 
BRANCH  18  19
ATOM     19  C   UNL     1       4.702 -35.352  20.370  1.00  0.00     0.000 C 
BRANCH  19  20
ATOM     20  C   UNL     1       4.791 -34.318  19.231  1.00  0.00     0.000 C 
BRANCH  20  21
ATOM     21  C   UNL     1       5.123 -34.894  17.844  1.00  0.00     0.000 C 
BRANCH  21  22
ATOM     22  C   UNL     1       3.906 -35.266  16.976  1.00  0.00     0.000 C 
BRANCH  22  23
ATOM     23  C   UNL     1       4.156 -36.443  16.010  1.00  0.00     0.000 C 
BRANCH  23  24
ATOM     24  C   UNL     1       3.661 -36.151  14.586  1.00  0.00    -0.000 C 
BRANCH  24  25
ATOM     25  C   UNL     1       2.143 -36.360  14.470  1.00  0.00    -0.000 C 
BRANCH  25  26
ATOM     26  C   UNL     1       1.367 -35.806  15.681  1.00  0.00    -0.000 C 
BRANCH  26  27
ATOM     27  C   UNL     1       1.025 -36.847  16.763  1.00  0.00    -0.000 C 
BRANCH  27  28
ATOM     28  C   UNL     1       1.613 -36.548  18.154  1.00  0.00    -0.000 C 
BRANCH  28  29
ATOM     29  C   UNL     1       1.420 -37.698  19.166  1.00  0.00    -0.000 C 
BRANCH  29  30
ATOM     30  C   UNL     1       2.613 -37.838  20.124  1.00  0.00    -0.000 C 
BRANCH  30  31
ATOM     31  C   UNL     1       3.808 -38.496  19.423  1.00  0.00    -0.003 C 
ATOM     32  C   UNL     1       5.125 -37.859  19.864  1.00  0.00     0.004 C 
ENDBRANCH  30  31
ENDBRANCH  29  30
ENDBRANCH  28  29
ENDBRANCH  27  28
ENDBRANCH  26  27
ENDBRANCH  25  26
ENDBRANCH  24  25
ENDBRANCH  23  24
ENDBRANCH  22  23
ENDBRANCH  21  22
ENDBRANCH  20  21
ENDBRANCH  19  20
ENDBRANCH  18  19
ENDBRANCH   1  18
TORSDOF 28
ENDMDL
MODEL 7
REMARK VINA RESULT:    13.421      3.070     11.150
REMARK INTER + INTRA:          35.952
REMARK INTER:                  35.001
REMARK INTRA:                   0.951
REMARK UNBOUND:                 0.562
REMARK SMILES CCCCCCCCCCCCCCCCCCCCCCCCCCCCCC(=O)[O-]
REMARK SMILES IDX 16 1 17 2 18 3 19 4 20 5 21 6 22 7 23 8 24 9 25 10 26 11
REMARK SMILES IDX 27 12 28 13 29 14 30 15 31 16 32 17 15 18 14 19 13 20 12 21
REMARK SMILES IDX 11 22 10 23 9 24 8 25 7 26 6 27 5 28 4 29 3 30 2 31 1 32
REMARK H PARENT
REMARK Flexibility Score: inf
ROOT
ATOM      1  C   UNL     1       4.539 -37.199  22.809  1.00  0.00     0.000 C 
ENDROOT
BRANCH   1   2
ATOM      2  C   UNL     1       4.945 -37.734  21.426  1.00  0.00     0.000 C 
BRANCH   2   3
ATOM      3  C   UNL     1       5.120 -36.617  20.383  1.00  0.00     0.000 C 
BRANCH   3   4
ATOM      4  C   UNL     1       5.104 -35.211  21.007  1.00  0.00     0.000 C 
BRANCH   4   5
ATOM      5  C   UNL     1       4.996 -34.099  19.951  1.00  0.00     0.000 C 
BRANCH   5   6
ATOM      6  C   UNL     1       5.036 -34.643  18.511  1.00  0.00     0.000 C 
BRANCH   6   7
ATOM      7  C   UNL     1       4.070 -33.899  17.576  1.00  0.00     0.000 C 
BRANCH   7   8
ATOM      8  C   UNL     1       3.418 -34.829  16.539  1.00  0.00     0.000 C 
BRANCH   8   9
ATOM      9  C   UNL     1       4.433 -35.781  15.877  1.00  0.00     0.000 C 
BRANCH   9  10
ATOM     10  C   UNL     1       4.157 -36.065  14.386  1.00  0.00     0.000 C 
BRANCH  10  11
ATOM     11  C   UNL     1       3.222 -37.265  14.138  1.00  0.00     0.000 C 
BRANCH  11  12
ATOM     12  C   UNL     1       3.245 -38.274  15.300  1.00  0.00     0.000 C 
BRANCH  12  13
ATOM     13  C   UNL     1       3.027 -37.610  16.669  1.00  0.00     0.006 C 
BRANCH  13  14
ATOM     14  C   UNL     1       1.597 -37.794  17.195  1.00  0.00     0.053 C 
BRANCH  14  15
ATOM     15  C   UNL     1       1.545 -37.585  18.676  1.00  0.00     0.041 C 
ATOM     16  O   UNL     1       0.438 -37.593  19.277  1.00  0.00    -0.550 OA
ATOM     17  O   UNL     1       2.718 -37.391  19.394  1.00  0.00    -0.550 OA
ENDBRANCH  14  15
ENDBRANCH  13  14
ENDBRANCH  12  13
ENDBRANCH  11  12
ENDBRANCH  10  11
ENDBRANCH   9  10
ENDBRANCH   8   9
ENDBRANCH   7   8
ENDBRANCH   6   7
ENDBRANCH   5   6
ENDBRANCH   4   5
ENDBRANCH   3   4
ENDBRANCH   2   3
ENDBRANCH   1   2
BRANCH   1  18
ATOM     18  C   UNL     1       4.472 -38.328  23.849  1.00  0.00     0.000 C 
BRANCH  18  19
ATOM     19  C   UNL     1       5.124 -37.933  25.191  1.00  0.00     0.000 C 
BRANCH  19  20
ATOM     20  C   UNL     1       4.899 -36.461  25.589  1.00  0.00     0.000 C 
BRANCH  20  21
ATOM     21  C   UNL     1       3.976 -36.243  26.801  1.00  0.00     0.000 C 
BRANCH  21  22
ATOM     22  C   UNL     1       2.748 -37.170  26.869  1.00  0.00     0.000 C 
BRANCH  22  23
ATOM     23  C   UNL     1       1.600 -36.631  27.749  1.00  0.00     0.000 C 
BRANCH  23  24
ATOM     24  C   UNL     1       2.030 -35.432  28.608  1.00  0.00    -0.000 C 
BRANCH  24  25
ATOM     25  C   UNL     1       0.823 -34.779  29.297  1.00  0.00    -0.000 C 
BRANCH  25  26
ATOM     26  C   UNL     1       0.839 -33.241  29.206  1.00  0.00    -0.000 C 
BRANCH  26  27
ATOM     27  C   UNL     1      -0.470 -32.551  29.632  1.00  0.00    -0.000 C 
BRANCH  27  28
ATOM     28  C   UNL     1      -1.646 -33.508  29.899  1.00  0.00    -0.000 C 
BRANCH  28  29
ATOM     29  C   UNL     1      -3.029 -32.832  29.782  1.00  0.00    -0.000 C 
BRANCH  29  30
ATOM     30  C   UNL     1      -4.182 -33.838  29.920  1.00  0.00    -0.000 C 
BRANCH  30  31
ATOM     31  C   UNL     1      -4.059 -34.963  28.885  1.00  0.00    -0.003 C 
ATOM     32  C   UNL     1      -4.616 -34.529  27.530  1.00  0.00     0.004 C 
ENDBRANCH  30  31
ENDBRANCH  29  30
ENDBRANCH  28  29
ENDBRANCH  27  28
ENDBRANCH  26  27
ENDBRANCH  25  26
ENDBRANCH  24  25
ENDBRANCH  23  24
ENDBRANCH  22  23
ENDBRANCH  21  22
ENDBRANCH  20  21
ENDBRANCH  19  20
ENDBRANCH  18  19
ENDBRANCH   1  18
TORSDOF 28
ENDMDL
MODEL 8
REMARK VINA RESULT:    14.006      1.326      2.991
REMARK INTER + INTRA:          37.494
REMARK INTER:                  36.470
REMARK INTRA:                   1.024
REMARK UNBOUND:                 0.562
REMARK SMILES CCCCCCCCCCCCCCCCCCCCCCCCCCCCCC(=O)[O-]
REMARK SMILES IDX 16 1 17 2 18 3 19 4 20 5 21 6 22 7 23 8 24 9 25 10 26 11
REMARK SMILES IDX 27 12 28 13 29 14 30 15 31 16 32 17 15 18 14 19 13 20 12 21
REMARK SMILES IDX 11 22 10 23 9 24 8 25 7 26 6 27 5 28 4 29 3 30 2 31 1 32
REMARK H PARENT
REMARK Flexibility Score: inf
ROOT
ATOM      1  C   UNL     1       4.028 -39.105  22.674  1.00  0.00     0.000 C 
ENDROOT
BRANCH   1   2
ATOM      2  C   UNL     1       4.645 -40.142  23.626  1.00  0.00     0.000 C 
BRANCH   2   3
ATOM      3  C   UNL     1       5.082 -39.533  24.969  1.00  0.00     0.000 C 
BRANCH   3   4
ATOM      4  C   UNL     1       5.124 -37.995  24.940  1.00  0.00     0.000 C 
BRANCH   4   5
ATOM      5  C   UNL     1       4.571 -37.367  26.231  1.00  0.00     0.000 C 
BRANCH   5   6
ATOM      6  C   UNL     1       3.699 -38.344  27.040  1.00  0.00     0.000 C 
BRANCH   6   7
ATOM      7  C   UNL     1       2.295 -37.785  27.319  1.00  0.00     0.000 C 
BRANCH   7   8
ATOM      8  C   UNL     1       2.311 -36.279  27.629  1.00  0.00     0.000 C 
BRANCH   8   9
ATOM      9  C   UNL     1       0.896 -35.698  27.817  1.00  0.00     0.000 C 
BRANCH   9  10
ATOM     10  C   UNL     1       0.866 -34.295  28.455  1.00  0.00     0.000 C 
BRANCH  10  11
ATOM     11  C   UNL     1       2.044 -34.013  29.409  1.00  0.00     0.000 C 
BRANCH  11  12
ATOM     12  C   UNL     1       1.578 -33.744  30.850  1.00  0.00     0.000 C 
BRANCH  12  13
ATOM     13  C   UNL     1       0.614 -32.551  30.952  1.00  0.00     0.006 C 
BRANCH  13  14
ATOM     14  C   UNL     1      -0.545 -32.640  29.951  1.00  0.00     0.053 C 
BRANCH  14  15
ATOM     15  C   UNL     1      -1.449 -31.453  30.077  1.00  0.00     0.041 C 
ATOM     16  O   UNL     1      -1.717 -30.752  29.065  1.00  0.00    -0.550 OA
ATOM     17  O   UNL     1      -2.001 -31.126  31.309  1.00  0.00    -0.550 OA
ENDBRANCH  14  15
ENDBRANCH  13  14
ENDBRANCH  12  13
ENDBRANCH  11  12
ENDBRANCH  10  11
ENDBRANCH   9  10
ENDBRANCH   8   9
ENDBRANCH   7   8
ENDBRANCH   6   7
ENDBRANCH   5   6
ENDBRANCH   4   5
ENDBRANCH   3   4
ENDBRANCH   2   3
ENDBRANCH   1   2
BRANCH   1  18
ATOM     18  C   UNL     1       4.859 -38.957  21.391  1.00  0.00     0.000 C 
BRANCH  18  19
ATOM     19  C   UNL     1       5.125 -37.482  21.026  1.00  0.00     0.000 C 
BRANCH  19  20
ATOM     20  C   UNL     1       5.097 -36.522  22.232  1.00  0.00     0.000 C 
BRANCH  20  21
ATOM     21  C   UNL     1       4.469 -35.144  21.961  1.00  0.00     0.000 C 
BRANCH  21  22
ATOM     22  C   UNL     1       4.922 -34.460  20.656  1.00  0.00     0.000 C 
BRANCH  22  23
ATOM     23  C   UNL     1       4.589 -35.258  19.378  1.00  0.00     0.000 C 
BRANCH  23  24
ATOM     24  C   UNL     1       4.408 -34.353  18.150  1.00  0.00    -0.000 C 
BRANCH  24  25
ATOM     25  C   UNL     1       4.381 -35.174  16.852  1.00  0.00    -0.000 C 
BRANCH  25  26
ATOM     26  C   UNL     1       4.032 -36.656  17.087  1.00  0.00    -0.000 C 
BRANCH  26  27
ATOM     27  C   UNL     1       2.849 -37.185  16.254  1.00  0.00    -0.000 C 
BRANCH  27  28
ATOM     28  C   UNL     1       1.787 -36.128  15.898  1.00  0.00    -0.000 C 
BRANCH  28  29
ATOM     29  C   UNL     1       0.630 -36.049  16.918  1.00  0.00    -0.000 C 
BRANCH  29  30
ATOM     30  C   UNL     1       0.335 -37.407  17.572  1.00  0.00    -0.000 C 
BRANCH  30  31
ATOM     31  C   UNL     1       0.870 -37.454  19.008  1.00  0.00    -0.003 C 
ATOM     32  C   UNL     1       2.364 -37.773  19.031  1.00  0.00     0.004 C 
ENDBRANCH  30  31
ENDBRANCH  29  30
ENDBRANCH  28  29
ENDBRANCH  27  28
ENDBRANCH  26  27
ENDBRANCH  25  26
ENDBRANCH  24  25
ENDBRANCH  23  24
ENDBRANCH  22  23
ENDBRANCH  21  22
ENDBRANCH  20  21
ENDBRANCH  19  20
ENDBRANCH  18  19
ENDBRANCH   1  18
TORSDOF 28
ENDMDL
