MODEL 1
REMARK VINA RESULT:    -4.308      0.000      0.000
REMARK INTER + INTRA:         -10.648
REMARK INTER:                  -7.077
REMARK INTRA:                  -3.571
REMARK UNBOUND:                -3.571
REMARK SMILES C[C@H]1O[C@@H](OC[C@H]2O[C@H](Oc3c(-c4ccc(O)c(O)c4)oc4cc(O)cc(O)c4c3=O)[C@@H](O)[C@H](O)[C@@H]2O)[C@@H](O)[C@@H](O)[C@@H]1O
REMARK SMILES IDX 7 1 36 2 34 3 32 4 9 5 8 6 6 7 5 8 4 9 1 10 2 11 42 12 3 13
REMARK SMILES IDX 40 14 38 15 43 16 41 18 39 20 37 22 35 24 10 26 11 27 12 28
REMARK SMILES IDX 30 29 21 30 29 31 31 32 22 33 27 34 23 35 26 36 24 37 13 38
REMARK SMILES IDX 20 39 14 40 18 41 15 42 16 43 19 44 17 46 28 48 25 50 33 52
REMARK H PARENT 43 17 41 19 39 21 37 23 35 25 19 45 17 47 28 49 25 51 33 53
REMARK Flexibility Score: inf
ROOT
ATOM      1  C   UNL     1     -24.394  48.949  38.590  1.00  0.00     0.180 C 
ATOM      2  C   UNL     1     -23.476  49.332  37.404  1.00  0.00     0.177 C 
ATOM      3  C   UNL     1     -23.073  50.822  37.473  1.00  0.00     0.180 C 
ATOM      4  C   UNL     1     -22.618  51.214  38.894  1.00  0.00     0.214 C 
ATOM      5  C   UNL     1     -23.578  50.670  39.969  1.00  0.00     0.339 C 
ATOM      6  O   UNL     1     -23.792  49.277  39.830  1.00  0.00    -0.332 OA
ENDROOT
BRANCH   1   7
ATOM      7  C   UNL     1     -24.692  47.444  38.592  1.00  0.00     0.198 C 
BRANCH   7   8
ATOM      8  O   UNL     1     -25.803  47.164  37.763  1.00  0.00    -0.347 OA
BRANCH   8   9
ATOM      9  C   UNL     1     -25.490  46.128  36.848  1.00  0.00     0.281 C 
ATOM     10  C   UNL     1     -27.370  48.249  35.516  1.00  0.00     0.041 C 
ATOM     11  C   UNL     1     -26.859  46.884  35.032  1.00  0.00     0.150 C 
ATOM     12  C   UNL     1     -27.874  45.731  35.240  1.00  0.00     0.174 C 
ATOM     13  O   UNL     1     -25.547  46.589  35.502  1.00  0.00    -0.344 OA
ATOM     14  C   UNL     1     -27.842  45.187  36.679  1.00  0.00     0.179 C 
ATOM     15  C   UNL     1     -26.392  44.900  37.088  1.00  0.00     0.202 C 
BRANCH  12  16
ATOM     16  O   UNL     1     -27.569  44.696  34.338  1.00  0.00    -0.388 OA
ATOM     17  H   UNL     1     -28.153  43.927  34.573  1.00  0.00     0.211 HD
ENDBRANCH  12  16
BRANCH  14  18
ATOM     18  O   UNL     1     -28.443  46.109  37.553  1.00  0.00    -0.387 OA
ATOM     19  H   UNL     1     -29.288  46.408  37.127  1.00  0.00     0.211 HD
ENDBRANCH  14  18
BRANCH  15  20
ATOM     20  O   UNL     1     -26.342  44.513  38.438  1.00  0.00    -0.385 OA
ATOM     21  H   UNL     1     -27.067  43.847  38.573  1.00  0.00     0.211 HD
ENDBRANCH  15  20
ENDBRANCH   8   9
ENDBRANCH   7   8
ENDBRANCH   1   7
BRANCH   2  22
ATOM     22  O   UNL     1     -24.125  49.063  36.188  1.00  0.00    -0.387 OA
ATOM     23  H   UNL     1     -24.629  48.219  36.315  1.00  0.00     0.211 HD
ENDBRANCH   2  22
BRANCH   3  24
ATOM     24  O   UNL     1     -24.090  51.677  37.006  1.00  0.00    -0.387 OA
ATOM     25  H   UNL     1     -23.705  52.291  36.333  1.00  0.00     0.211 HD
ENDBRANCH   3  24
BRANCH   5  26
ATOM     26  O   UNL     1     -24.815  51.390  39.974  1.00  0.00    -0.454 OA
BRANCH  26  27
ATOM     27  C   UNL     1     -25.362  51.907  41.152  1.00  0.00     0.214 A 
ATOM     28  C   UNL     1     -26.209  51.133  41.961  1.00  0.00     0.180 A 
ATOM     29  C   UNL     1     -25.023  53.200  41.565  1.00  0.00     0.239 A 
ATOM     30  O   UNL     1     -26.612  51.601  43.134  1.00  0.00    -0.452 OA
ATOM     31  C   UNL     1     -25.517  53.699  42.796  1.00  0.00     0.111 A 
ATOM     32  O   UNL     1     -24.246  53.873  40.840  1.00  0.00    -0.285 OA
ATOM     33  C   UNL     1     -26.299  52.811  43.583  1.00  0.00     0.146 A 
ATOM     34  C   UNL     1     -25.250  55.005  43.309  1.00  0.00     0.134 A 
ATOM     35  C   UNL     1     -26.756  53.193  44.845  1.00  0.00     0.094 A 
ATOM     36  C   UNL     1     -25.694  55.346  44.593  1.00  0.00     0.093 A 
ATOM     37  C   UNL     1     -26.445  54.450  45.359  1.00  0.00     0.123 A 
BRANCH  28  38
ATOM     38  C   UNL     1     -26.677  49.800  41.540  1.00  0.00     0.025 A 
ATOM     39  C   UNL     1     -27.568  49.660  40.464  1.00  0.00     0.062 A 
ATOM     40  C   UNL     1     -26.298  48.665  42.271  1.00  0.00     0.016 A 
ATOM     41  C   UNL     1     -28.064  48.402  40.112  1.00  0.00     0.158 A 
ATOM     42  C   UNL     1     -26.775  47.402  41.908  1.00  0.00     0.051 A 
ATOM     43  C   UNL     1     -27.653  47.263  40.825  1.00  0.00     0.157 A 
BRANCH  41  44
ATOM     44  O   UNL     1     -28.963  48.300  39.049  1.00  0.00    -0.504 OA
ATOM     45  H   UNL     1     -29.714  47.622  39.043  1.00  0.00     0.293 HD
ENDBRANCH  41  44
BRANCH  43  46
ATOM     46  O   UNL     1     -28.117  46.001  40.456  1.00  0.00    -0.504 OA
ATOM     47  H   UNL     1     -27.638  45.156  40.745  1.00  0.00     0.293 HD
ENDBRANCH  43  46
ENDBRANCH  28  38
BRANCH  34  48
ATOM     48  O   UNL     1     -24.578  56.004  42.597  1.00  0.00    -0.507 OA
ATOM     49  H   UNL     1     -24.816  56.310  41.666  1.00  0.00     0.293 HD
ENDBRANCH  34  48
BRANCH  37  50
ATOM     50  O   UNL     1     -26.894  54.804  46.630  1.00  0.00    -0.508 OA
ATOM     51  H   UNL     1     -26.454  55.549  47.158  1.00  0.00     0.293 HD
ENDBRANCH  37  50
ENDBRANCH  26  27
ENDBRANCH   5  26
BRANCH   4  52
ATOM     52  O   UNL     1     -21.335  50.697  39.137  1.00  0.00    -0.384 OA
ATOM     53  H   UNL     1     -20.954  50.441  38.256  1.00  0.00     0.211 HD
ENDBRANCH   4  52
TORSDOF 16
ENDMDL
MODEL 2
REMARK VINA RESULT:    -4.233      3.080      7.650
REMARK INTER + INTRA:         -10.526
REMARK INTER:                  -7.415
REMARK INTRA:                  -3.111
REMARK UNBOUND:                -3.571
REMARK SMILES C[C@H]1O[C@@H](OC[C@H]2O[C@H](Oc3c(-c4ccc(O)c(O)c4)oc4cc(O)cc(O)c4c3=O)[C@@H](O)[C@H](O)[C@@H]2O)[C@@H](O)[C@@H](O)[C@@H]1O
REMARK SMILES IDX 7 1 36 2 34 3 32 4 9 5 8 6 6 7 5 8 4 9 1 10 2 11 42 12 3 13
REMARK SMILES IDX 40 14 38 15 43 16 41 18 39 20 37 22 35 24 10 26 11 27 12 28
REMARK SMILES IDX 30 29 21 30 29 31 31 32 22 33 27 34 23 35 26 36 24 37 13 38
REMARK SMILES IDX 20 39 14 40 18 41 15 42 16 43 19 44 17 46 28 48 25 50 33 52
REMARK H PARENT 43 17 41 19 39 21 37 23 35 25 19 45 17 47 28 49 25 51 33 53
REMARK Flexibility Score: inf
ROOT
ATOM      1  C   UNL     1     -24.791  51.416  41.603  1.00  0.00     0.180 C 
ATOM      2  C   UNL     1     -24.624  51.187  40.080  1.00  0.00     0.177 C 
ATOM      3  C   UNL     1     -25.024  49.746  39.689  1.00  0.00     0.180 C 
ATOM      4  C   UNL     1     -26.364  49.342  40.337  1.00  0.00     0.214 C 
ATOM      5  C   UNL     1     -26.416  49.732  41.827  1.00  0.00     0.339 C 
ATOM      6  O   UNL     1     -26.105  51.099  42.026  1.00  0.00    -0.332 OA
ENDROOT
BRANCH   1   7
ATOM      7  C   UNL     1     -24.514  52.879  41.973  1.00  0.00     0.198 C 
BRANCH   7   8
ATOM      8  O   UNL     1     -24.727  53.083  43.356  1.00  0.00    -0.347 OA
BRANCH   8   9
ATOM      9  C   UNL     1     -25.828  53.951  43.565  1.00  0.00     0.281 C 
ATOM     10  C   UNL     1     -23.254  55.072  44.954  1.00  0.00     0.041 C 
ATOM     11  C   UNL     1     -24.720  55.529  44.989  1.00  0.00     0.150 C 
ATOM     12  C   UNL     1     -25.495  55.037  46.236  1.00  0.00     0.174 C 
ATOM     13  O   UNL     1     -25.399  55.295  43.758  1.00  0.00    -0.344 OA
ATOM     14  C   UNL     1     -25.994  53.591  46.072  1.00  0.00     0.179 C 
ATOM     15  C   UNL     1     -26.710  53.443  44.723  1.00  0.00     0.202 C 
BRANCH  12  16
ATOM     16  O   UNL     1     -26.592  55.891  46.450  1.00  0.00    -0.388 OA
ATOM     17  H   UNL     1     -27.293  55.353  46.905  1.00  0.00     0.211 HD
ENDBRANCH  12  16
BRANCH  14  18
ATOM     18  O   UNL     1     -24.913  52.697  46.174  1.00  0.00    -0.387 OA
ATOM     19  H   UNL     1     -24.495  52.845  47.062  1.00  0.00     0.211 HD
ENDBRANCH  14  18
BRANCH  15  20
ATOM     20  O   UNL     1     -27.065  52.100  44.514  1.00  0.00    -0.385 OA
ATOM     21  H   UNL     1     -26.276  51.652  44.109  1.00  0.00     0.211 HD
ENDBRANCH  15  20
ENDBRANCH   8   9
ENDBRANCH   7   8
ENDBRANCH   1   7
BRANCH   2  22
ATOM     22  O   UNL     1     -23.295  51.440  39.700  1.00  0.00    -0.387 OA
ATOM     23  H   UNL     1     -23.234  51.242  38.730  1.00  0.00     0.211 HD
ENDBRANCH   2  22
BRANCH   3  24
ATOM     24  O   UNL     1     -24.012  48.810  39.976  1.00  0.00    -0.387 OA
ATOM     25  H   UNL     1     -24.380  47.899  39.858  1.00  0.00     0.211 HD
ENDBRANCH   3  24
BRANCH   5  26
ATOM     26  O   UNL     1     -25.575  48.884  42.616  1.00  0.00    -0.454 OA
BRANCH  26  27
ATOM     27  C   UNL     1     -25.996  48.363  43.843  1.00  0.00     0.214 A 
ATOM     28  C   UNL     1     -26.757  47.185  43.909  1.00  0.00     0.180 A 
ATOM     29  C   UNL     1     -25.614  48.993  45.032  1.00  0.00     0.239 A 
ATOM     30  O   UNL     1     -27.036  46.643  45.086  1.00  0.00    -0.452 OA
ATOM     31  C   UNL     1     -25.977  48.425  46.279  1.00  0.00     0.111 A 
ATOM     32  O   UNL     1     -24.913  50.035  44.956  1.00  0.00    -0.285 OA
ATOM     33  C   UNL     1     -26.676  47.188  46.243  1.00  0.00     0.146 A 
ATOM     34  C   UNL     1     -25.656  48.987  47.552  1.00  0.00     0.134 A 
ATOM     35  C   UNL     1     -27.000  46.519  47.424  1.00  0.00     0.094 A 
ATOM     36  C   UNL     1     -25.965  48.275  48.718  1.00  0.00     0.093 A 
ATOM     37  C   UNL     1     -26.636  47.050  48.659  1.00  0.00     0.123 A 
BRANCH  28  38
ATOM     38  C   UNL     1     -27.268  46.523  42.694  1.00  0.00     0.025 A 
ATOM     39  C   UNL     1     -28.433  46.988  42.063  1.00  0.00     0.062 A 
ATOM     40  C   UNL     1     -26.637  45.369  42.211  1.00  0.00     0.016 A 
ATOM     41  C   UNL     1     -28.955  46.317  40.953  1.00  0.00     0.158 A 
ATOM     42  C   UNL     1     -27.143  44.707  41.088  1.00  0.00     0.051 A 
ATOM     43  C   UNL     1     -28.298  45.180  40.450  1.00  0.00     0.157 A 
BRANCH  41  44
ATOM     44  O   UNL     1     -30.125  46.793  40.359  1.00  0.00    -0.504 OA
ATOM     45  H   UNL     1     -30.384  47.770  40.390  1.00  0.00     0.293 HD
ENDBRANCH  41  44
BRANCH  43  46
ATOM     46  O   UNL     1     -28.793  44.528  39.322  1.00  0.00    -0.504 OA
ATOM     47  H   UNL     1     -29.778  44.309  39.228  1.00  0.00     0.293 HD
ENDBRANCH  43  46
ENDBRANCH  28  38
BRANCH  34  48
ATOM     48  O   UNL     1     -25.059  50.240  47.727  1.00  0.00    -0.507 OA
ATOM     49  H   UNL     1     -24.251  50.420  48.302  1.00  0.00     0.293 HD
ENDBRANCH  34  48
BRANCH  37  50
ATOM     50  O   UNL     1     -26.950  46.356  49.826  1.00  0.00    -0.508 OA
ATOM     51  H   UNL     1     -27.905  46.284  50.158  1.00  0.00     0.293 HD
ENDBRANCH  37  50
ENDBRANCH  26  27
ENDBRANCH   5  26
BRANCH   4  52
ATOM     52  O   UNL     1     -27.422  49.982  39.670  1.00  0.00    -0.384 OA
ATOM     53  H   UNL     1     -27.971  49.270  39.249  1.00  0.00     0.211 HD
ENDBRANCH   4  52
TORSDOF 16
ENDMDL
MODEL 3
REMARK VINA RESULT:    -4.196      2.395      9.106
REMARK INTER + INTRA:         -10.465
REMARK INTER:                  -7.493
REMARK INTRA:                  -2.972
REMARK UNBOUND:                -3.571
REMARK SMILES C[C@H]1O[C@@H](OC[C@H]2O[C@H](Oc3c(-c4ccc(O)c(O)c4)oc4cc(O)cc(O)c4c3=O)[C@@H](O)[C@H](O)[C@@H]2O)[C@@H](O)[C@@H](O)[C@@H]1O
REMARK SMILES IDX 7 1 36 2 34 3 32 4 9 5 8 6 6 7 5 8 4 9 1 10 2 11 42 12 3 13
REMARK SMILES IDX 40 14 38 15 43 16 41 18 39 20 37 22 35 24 10 26 11 27 12 28
REMARK SMILES IDX 30 29 21 30 29 31 31 32 22 33 27 34 23 35 26 36 24 37 13 38
REMARK SMILES IDX 20 39 14 40 18 41 15 42 16 43 19 44 17 46 28 48 25 50 33 52
REMARK H PARENT 43 17 41 19 39 21 37 23 35 25 19 45 17 47 28 49 25 51 33 53
REMARK Flexibility Score: inf
ROOT
ATOM      1  C   UNL     1     -25.602  49.413  45.235  1.00  0.00     0.180 C 
ATOM      2  C   UNL     1     -25.866  48.172  46.122  1.00  0.00     0.177 C 
ATOM      3  C   UNL     1     -26.434  47.003  45.286  1.00  0.00     0.180 C 
ATOM      4  C   UNL     1     -25.629  46.803  43.985  1.00  0.00     0.214 C 
ATOM      5  C   UNL     1     -25.357  48.142  43.273  1.00  0.00     0.339 C 
ATOM      6  O   UNL     1     -24.763  49.090  44.140  1.00  0.00    -0.332 OA
ENDROOT
BRANCH   1   7
ATOM      7  C   UNL     1     -24.923  50.530  46.039  1.00  0.00     0.198 C 
BRANCH   7   8
ATOM      8  O   UNL     1     -25.633  51.743  45.888  1.00  0.00    -0.347 OA
BRANCH   8   9
ATOM      9  C   UNL     1     -25.572  52.189  44.544  1.00  0.00     0.281 C 
ATOM     10  C   UNL     1     -23.613  53.838  46.347  1.00  0.00     0.041 C 
ATOM     11  C   UNL     1     -24.039  54.000  44.880  1.00  0.00     0.150 C 
ATOM     12  C   UNL     1     -25.152  55.058  44.669  1.00  0.00     0.174 C 
ATOM     13  O   UNL     1     -24.301  52.753  44.242  1.00  0.00    -0.344 OA
ATOM     14  C   UNL     1     -26.550  54.492  44.970  1.00  0.00     0.179 C 
ATOM     15  C   UNL     1     -26.734  53.156  44.239  1.00  0.00     0.202 C 
BRANCH  12  16
ATOM     16  O   UNL     1     -25.102  55.504  43.336  1.00  0.00    -0.388 OA
ATOM     17  H   UNL     1     -24.158  55.415  43.037  1.00  0.00     0.211 HD
ENDBRANCH  12  16
BRANCH  14  18
ATOM     18  O   UNL     1     -26.716  54.338  46.358  1.00  0.00    -0.387 OA
ATOM     19  H   UNL     1     -25.827  54.107  46.734  1.00  0.00     0.211 HD
ENDBRANCH  14  18
BRANCH  15  20
ATOM     20  O   UNL     1     -27.961  52.576  44.599  1.00  0.00    -0.385 OA
ATOM     21  H   UNL     1     -27.763  51.655  44.916  1.00  0.00     0.211 HD
ENDBRANCH  15  20
ENDBRANCH   8   9
ENDBRANCH   7   8
ENDBRANCH   1   7
BRANCH   2  22
ATOM     22  O   UNL     1     -26.756  48.502  47.158  1.00  0.00    -0.387 OA
ATOM     23  H   UNL     1     -27.553  47.923  47.044  1.00  0.00     0.211 HD
ENDBRANCH   2  22
BRANCH   3  24
ATOM     24  O   UNL     1     -27.809  47.149  45.022  1.00  0.00    -0.387 OA
ATOM     25  H   UNL     1     -28.280  46.337  45.335  1.00  0.00     0.211 HD
ENDBRANCH   3  24
BRANCH   5  26
ATOM     26  O   UNL     1     -26.547  48.660  42.668  1.00  0.00    -0.454 OA
BRANCH  26  27
ATOM     27  C   UNL     1     -26.892  48.361  41.346  1.00  0.00     0.214 A 
ATOM     28  C   UNL     1     -26.211  48.948  40.268  1.00  0.00     0.180 A 
ATOM     29  C   UNL     1     -27.897  47.423  41.086  1.00  0.00     0.239 A 
ATOM     30  O   UNL     1     -26.471  48.554  39.029  1.00  0.00    -0.452 OA
ATOM     31  C   UNL     1     -28.197  47.064  39.749  1.00  0.00     0.111 A 
ATOM     32  O   UNL     1     -28.482  46.890  42.064  1.00  0.00    -0.285 OA
ATOM     33  C   UNL     1     -27.398  47.651  38.731  1.00  0.00     0.146 A 
ATOM     34  C   UNL     1     -29.209  46.132  39.366  1.00  0.00     0.134 A 
ATOM     35  C   UNL     1     -27.571  47.290  37.394  1.00  0.00     0.094 A 
ATOM     36  C   UNL     1     -29.336  45.766  38.020  1.00  0.00     0.093 A 
ATOM     37  C   UNL     1     -28.526  46.341  37.036  1.00  0.00     0.123 A 
BRANCH  28  38
ATOM     38  C   UNL     1     -25.206  50.008  40.469  1.00  0.00     0.025 A 
ATOM     39  C   UNL     1     -25.601  51.318  40.781  1.00  0.00     0.062 A 
ATOM     40  C   UNL     1     -23.847  49.729  40.266  1.00  0.00     0.016 A 
ATOM     41  C   UNL     1     -24.650  52.337  40.903  1.00  0.00     0.158 A 
ATOM     42  C   UNL     1     -22.892  50.739  40.409  1.00  0.00     0.051 A 
ATOM     43  C   UNL     1     -23.286  52.044  40.734  1.00  0.00     0.157 A 
BRANCH  41  44
ATOM     44  O   UNL     1     -25.077  53.633  41.195  1.00  0.00    -0.504 OA
ATOM     45  H   UNL     1     -26.011  53.829  41.529  1.00  0.00     0.293 HD
ENDBRANCH  41  44
BRANCH  43  46
ATOM     46  O   UNL     1     -22.331  53.047  40.889  1.00  0.00    -0.504 OA
ATOM     47  H   UNL     1     -21.959  53.286  41.800  1.00  0.00     0.293 HD
ENDBRANCH  43  46
ENDBRANCH  28  38
BRANCH  34  48
ATOM     48  O   UNL     1     -30.124  45.560  40.256  1.00  0.00    -0.507 OA
ATOM     49  H   UNL     1     -30.070  44.620  40.615  1.00  0.00     0.293 HD
ENDBRANCH  34  48
BRANCH  37  50
ATOM     50  O   UNL     1     -28.669  45.979  35.698  1.00  0.00    -0.508 OA
ATOM     51  H   UNL     1     -28.576  46.660  34.953  1.00  0.00     0.293 HD
ENDBRANCH  37  50
ENDBRANCH  26  27
ENDBRANCH   5  26
BRANCH   4  52
ATOM     52  O   UNL     1     -24.398  46.196  44.281  1.00  0.00    -0.384 OA
ATOM     53  H   UNL     1     -23.810  46.902  44.658  1.00  0.00     0.211 HD
ENDBRANCH   4  52
TORSDOF 16
ENDMDL
MODEL 4
REMARK VINA RESULT:    -4.164      2.747      9.341
REMARK INTER + INTRA:         -10.412
REMARK INTER:                  -7.329
REMARK INTRA:                  -3.083
REMARK UNBOUND:                -3.571
REMARK SMILES C[C@H]1O[C@@H](OC[C@H]2O[C@H](Oc3c(-c4ccc(O)c(O)c4)oc4cc(O)cc(O)c4c3=O)[C@@H](O)[C@H](O)[C@@H]2O)[C@@H](O)[C@@H](O)[C@@H]1O
REMARK SMILES IDX 7 1 36 2 34 3 32 4 9 5 8 6 6 7 5 8 4 9 1 10 2 11 42 12 3 13
REMARK SMILES IDX 40 14 38 15 43 16 41 18 39 20 37 22 35 24 10 26 11 27 12 28
REMARK SMILES IDX 30 29 21 30 29 31 31 32 22 33 27 34 23 35 26 36 24 37 13 38
REMARK SMILES IDX 20 39 14 40 18 41 15 42 16 43 19 44 17 46 28 48 25 50 33 52
REMARK H PARENT 43 17 41 19 39 21 37 23 35 25 19 45 17 47 28 49 25 51 33 53
REMARK Flexibility Score: inf
ROOT
ATOM      1  C   UNL     1     -24.512  49.966  45.080  1.00  0.00     0.180 C 
ATOM      2  C   UNL     1     -24.517  49.496  46.556  1.00  0.00     0.177 C 
ATOM      3  C   UNL     1     -25.441  48.271  46.744  1.00  0.00     0.180 C 
ATOM      4  C   UNL     1     -25.195  47.212  45.649  1.00  0.00     0.214 C 
ATOM      5  C   UNL     1     -25.109  47.850  44.249  1.00  0.00     0.339 C 
ATOM      6  O   UNL     1     -24.166  48.906  44.207  1.00  0.00    -0.332 OA
ENDROOT
BRANCH   1   7
ATOM      7  C   UNL     1     -23.501  51.102  44.869  1.00  0.00     0.198 C 
BRANCH   7   8
ATOM      8  O   UNL     1     -24.171  52.291  44.500  1.00  0.00    -0.347 OA
BRANCH   8   9
ATOM      9  C   UNL     1     -24.170  53.215  45.575  1.00  0.00     0.281 C 
ATOM     10  C   UNL     1     -27.060  52.863  44.420  1.00  0.00     0.041 C 
ATOM     11  C   UNL     1     -26.485  53.828  45.467  1.00  0.00     0.150 C 
ATOM     12  C   UNL     1     -26.147  55.231  44.901  1.00  0.00     0.174 C 
ATOM     13  O   UNL     1     -25.433  53.247  46.232  1.00  0.00    -0.344 OA
ATOM     14  C   UNL     1     -24.782  55.253  44.191  1.00  0.00     0.179 C 
ATOM     15  C   UNL     1     -23.722  54.609  45.093  1.00  0.00     0.202 C 
BRANCH  12  16
ATOM     16  O   UNL     1     -26.140  56.154  45.962  1.00  0.00    -0.388 OA
ATOM     17  H   UNL     1     -25.207  56.196  46.303  1.00  0.00     0.211 HD
ENDBRANCH  12  16
BRANCH  14  18
ATOM     18  O   UNL     1     -24.873  54.583  42.958  1.00  0.00    -0.387 OA
ATOM     19  H   UNL     1     -25.325  53.716  43.129  1.00  0.00     0.211 HD
ENDBRANCH  14  18
BRANCH  15  20
ATOM     20  O   UNL     1     -22.499  54.520  44.408  1.00  0.00    -0.385 OA
ATOM     21  H   UNL     1     -22.085  53.655  44.668  1.00  0.00     0.211 HD
ENDBRANCH  15  20
ENDBRANCH   8   9
ENDBRANCH   7   8
ENDBRANCH   1   7
BRANCH   2  22
ATOM     22  O   UNL     1     -24.931  50.546  47.393  1.00  0.00    -0.387 OA
ATOM     23  H   UNL     1     -24.945  51.366  46.836  1.00  0.00     0.211 HD
ENDBRANCH   2  22
BRANCH   3  24
ATOM     24  O   UNL     1     -26.801  48.629  46.816  1.00  0.00    -0.387 OA
ATOM     25  H   UNL     1     -26.975  49.036  47.701  1.00  0.00     0.211 HD
ENDBRANCH   3  24
BRANCH   5  26
ATOM     26  O   UNL     1     -26.396  48.280  43.794  1.00  0.00    -0.454 OA
BRANCH  26  27
ATOM     27  C   UNL     1     -26.980  47.760  42.635  1.00  0.00     0.214 A 
ATOM     28  C   UNL     1     -26.668  48.280  41.369  1.00  0.00     0.180 A 
ATOM     29  C   UNL     1     -27.852  46.670  42.726  1.00  0.00     0.239 A 
ATOM     30  O   UNL     1     -27.135  47.688  40.278  1.00  0.00    -0.452 OA
ATOM     31  C   UNL     1     -28.386  46.094  41.547  1.00  0.00     0.111 A 
ATOM     32  O   UNL     1     -28.104  46.202  43.867  1.00  0.00    -0.285 OA
ATOM     33  C   UNL     1     -27.946  46.637  40.310  1.00  0.00     0.146 A 
ATOM     34  C   UNL     1     -29.294  44.992  41.520  1.00  0.00     0.134 A 
ATOM     35  C   UNL     1     -28.358  46.077  39.100  1.00  0.00     0.094 A 
ATOM     36  C   UNL     1     -29.663  44.431  40.291  1.00  0.00     0.093 A 
ATOM     37  C   UNL     1     -29.202  44.969  39.085  1.00  0.00     0.123 A 
BRANCH  28  38
ATOM     38  C   UNL     1     -25.829  49.482  41.209  1.00  0.00     0.025 A 
ATOM     39  C   UNL     1     -26.397  50.764  41.268  1.00  0.00     0.062 A 
ATOM     40  C   UNL     1     -24.466  49.347  40.912  1.00  0.00     0.016 A 
ATOM     41  C   UNL     1     -25.612  51.900  41.047  1.00  0.00     0.158 A 
ATOM     42  C   UNL     1     -23.673  50.480  40.712  1.00  0.00     0.051 A 
ATOM     43  C   UNL     1     -24.239  51.761  40.785  1.00  0.00     0.157 A 
BRANCH  41  44
ATOM     44  O   UNL     1     -26.212  53.159  41.094  1.00  0.00    -0.504 OA
ATOM     45  H   UNL     1     -25.751  53.960  41.504  1.00  0.00     0.293 HD
ENDBRANCH  41  44
BRANCH  43  46
ATOM     46  O   UNL     1     -23.444  52.891  40.599  1.00  0.00    -0.504 OA
ATOM     47  H   UNL     1     -23.071  53.130  39.688  1.00  0.00     0.293 HD
ENDBRANCH  43  46
ENDBRANCH  28  38
BRANCH  34  48
ATOM     48  O   UNL     1     -29.877  44.430  42.661  1.00  0.00    -0.507 OA
ATOM     49  H   UNL     1     -29.418  43.787  43.287  1.00  0.00     0.293 HD
ENDBRANCH  34  48
BRANCH  37  50
ATOM     50  O   UNL     1     -29.585  44.412  37.867  1.00  0.00    -0.508 OA
ATOM     51  H   UNL     1     -30.496  43.983  37.744  1.00  0.00     0.293 HD
ENDBRANCH  37  50
ENDBRANCH  26  27
ENDBRANCH   5  26
BRANCH   4  52
ATOM     52  O   UNL     1     -23.991  46.538  45.908  1.00  0.00    -0.384 OA
ATOM     53  H   UNL     1     -24.226  45.689  46.367  1.00  0.00     0.211 HD
ENDBRANCH   4  52
TORSDOF 16
ENDMDL
MODEL 5
REMARK VINA RESULT:    -4.138      3.217      7.836
REMARK INTER + INTRA:         -10.369
REMARK INTER:                  -8.004
REMARK INTRA:                  -2.365
REMARK UNBOUND:                -3.571
REMARK SMILES C[C@H]1O[C@@H](OC[C@H]2O[C@H](Oc3c(-c4ccc(O)c(O)c4)oc4cc(O)cc(O)c4c3=O)[C@@H](O)[C@H](O)[C@@H]2O)[C@@H](O)[C@@H](O)[C@@H]1O
REMARK SMILES IDX 7 1 36 2 34 3 32 4 9 5 8 6 6 7 5 8 4 9 1 10 2 11 42 12 3 13
REMARK SMILES IDX 40 14 38 15 43 16 41 18 39 20 37 22 35 24 10 26 11 27 12 28
REMARK SMILES IDX 30 29 21 30 29 31 31 32 22 33 27 34 23 35 26 36 24 37 13 38
REMARK SMILES IDX 20 39 14 40 18 41 15 42 16 43 19 44 17 46 28 48 25 50 33 52
REMARK H PARENT 43 17 41 19 39 21 37 23 35 25 19 45 17 47 28 49 25 51 33 53
REMARK Flexibility Score: inf
ROOT
ATOM      1  C   UNL     1     -24.302  50.355  42.196  1.00  0.00     0.180 C 
ATOM      2  C   UNL     1     -24.139  50.411  40.657  1.00  0.00     0.177 C 
ATOM      3  C   UNL     1     -24.962  49.296  39.972  1.00  0.00     0.180 C 
ATOM      4  C   UNL     1     -26.393  49.224  40.545  1.00  0.00     0.214 C 
ATOM      5  C   UNL     1     -26.393  49.286  42.084  1.00  0.00     0.339 C 
ATOM      6  O   UNL     1     -25.669  50.403  42.567  1.00  0.00    -0.332 OA
ENDROOT
BRANCH   1   7
ATOM      7  C   UNL     1     -23.588  51.536  42.867  1.00  0.00     0.198 C 
BRANCH   7   8
ATOM      8  O   UNL     1     -24.380  52.054  43.918  1.00  0.00    -0.347 OA
BRANCH   8   9
ATOM      9  C   UNL     1     -24.563  53.450  43.759  1.00  0.00     0.281 C 
ATOM     10  C   UNL     1     -24.744  52.647  46.781  1.00  0.00     0.041 C 
ATOM     11  C   UNL     1     -25.008  53.975  46.055  1.00  0.00     0.150 C 
ATOM     12  C   UNL     1     -26.507  54.238  45.765  1.00  0.00     0.174 C 
ATOM     13  O   UNL     1     -24.160  54.162  44.924  1.00  0.00    -0.344 OA
ATOM     14  C   UNL     1     -26.989  53.500  44.504  1.00  0.00     0.179 C 
ATOM     15  C   UNL     1     -26.015  53.766  43.348  1.00  0.00     0.202 C 
BRANCH  12  16
ATOM     16  O   UNL     1     -26.698  55.622  45.602  1.00  0.00    -0.388 OA
ATOM     17  H   UNL     1     -25.886  56.070  45.959  1.00  0.00     0.211 HD
ENDBRANCH  12  16
BRANCH  14  18
ATOM     18  O   UNL     1     -27.100  52.124  44.768  1.00  0.00    -0.387 OA
ATOM     19  H   UNL     1     -26.257  51.842  45.210  1.00  0.00     0.211 HD
ENDBRANCH  14  18
BRANCH  15  20
ATOM     20  O   UNL     1     -26.383  53.004  42.227  1.00  0.00    -0.385 OA
ATOM     21  H   UNL     1     -27.115  53.498  41.771  1.00  0.00     0.211 HD
ENDBRANCH  15  20
ENDBRANCH   8   9
ENDBRANCH   7   8
ENDBRANCH   1   7
BRANCH   2  22
ATOM     22  O   UNL     1     -22.783  50.291  40.313  1.00  0.00    -0.387 OA
ATOM     23  H   UNL     1     -22.698  50.600  39.375  1.00  0.00     0.211 HD
ENDBRANCH   2  22
BRANCH   3  24
ATOM     24  O   UNL     1     -24.322  48.043  40.029  1.00  0.00    -0.387 OA
ATOM     25  H   UNL     1     -24.127  47.744  39.106  1.00  0.00     0.211 HD
ENDBRANCH   3  24
BRANCH   5  26
ATOM     26  O   UNL     1     -25.912  48.064  42.654  1.00  0.00    -0.454 OA
BRANCH  26  27
ATOM     27  C   UNL     1     -26.608  47.400  43.669  1.00  0.00     0.214 A 
ATOM     28  C   UNL     1     -27.522  46.376  43.373  1.00  0.00     0.180 A 
ATOM     29  C   UNL     1     -26.357  47.722  45.007  1.00  0.00     0.239 A 
ATOM     30  O   UNL     1     -28.072  45.678  44.356  1.00  0.00    -0.452 OA
ATOM     31  C   UNL     1     -27.005  46.999  46.039  1.00  0.00     0.111 A 
ATOM     32  O   UNL     1     -25.519  48.627  45.256  1.00  0.00    -0.285 OA
ATOM     33  C   UNL     1     -27.849  45.927  45.641  1.00  0.00     0.146 A 
ATOM     34  C   UNL     1     -26.837  47.249  47.435  1.00  0.00     0.134 A 
ATOM     35  C   UNL     1     -28.462  45.112  46.595  1.00  0.00     0.094 A 
ATOM     36  C   UNL     1     -27.439  46.393  48.367  1.00  0.00     0.093 A 
ATOM     37  C   UNL     1     -28.249  45.332  47.954  1.00  0.00     0.123 A 
BRANCH  28  38
ATOM     38  C   UNL     1     -27.898  46.050  41.986  1.00  0.00     0.025 A 
ATOM     39  C   UNL     1     -28.801  46.861  41.280  1.00  0.00     0.062 A 
ATOM     40  C   UNL     1     -27.419  44.875  41.390  1.00  0.00     0.016 A 
ATOM     41  C   UNL     1     -29.211  46.512  39.990  1.00  0.00     0.158 A 
ATOM     42  C   UNL     1     -27.809  44.534  40.092  1.00  0.00     0.051 A 
ATOM     43  C   UNL     1     -28.700  45.352  39.383  1.00  0.00     0.157 A 
BRANCH  41  44
ATOM     44  O   UNL     1     -30.125  47.329  39.323  1.00  0.00    -0.504 OA
ATOM     45  H   UNL     1     -30.123  48.335  39.427  1.00  0.00     0.293 HD
ENDBRANCH  41  44
BRANCH  43  46
ATOM     46  O   UNL     1     -29.077  45.017  38.084  1.00  0.00    -0.504 OA
ATOM     47  H   UNL     1     -28.389  44.880  37.353  1.00  0.00     0.293 HD
ENDBRANCH  43  46
ENDBRANCH  28  38
BRANCH  34  48
ATOM     48  O   UNL     1     -26.116  48.329  47.956  1.00  0.00    -0.507 OA
ATOM     49  H   UNL     1     -25.989  48.519  48.938  1.00  0.00     0.293 HD
ENDBRANCH  34  48
BRANCH  37  50
ATOM     50  O   UNL     1     -28.853  44.494  48.889  1.00  0.00    -0.508 OA
ATOM     51  H   UNL     1     -29.858  44.363  48.911  1.00  0.00     0.293 HD
ENDBRANCH  37  50
ENDBRANCH  26  27
ENDBRANCH   5  26
BRANCH   4  52
ATOM     52  O   UNL     1     -27.151  50.299  40.053  1.00  0.00    -0.384 OA
ATOM     53  H   UNL     1     -26.594  50.760  39.373  1.00  0.00     0.211 HD
ENDBRANCH   4  52
TORSDOF 16
ENDMDL
MODEL 6
REMARK VINA RESULT:    -4.043      3.166      9.098
REMARK INTER + INTRA:         -10.213
REMARK INTER:                  -7.024
REMARK INTRA:                  -3.189
REMARK UNBOUND:                -3.571
REMARK SMILES C[C@H]1O[C@@H](OC[C@H]2O[C@H](Oc3c(-c4ccc(O)c(O)c4)oc4cc(O)cc(O)c4c3=O)[C@@H](O)[C@H](O)[C@@H]2O)[C@@H](O)[C@@H](O)[C@@H]1O
REMARK SMILES IDX 7 1 36 2 34 3 32 4 9 5 8 6 6 7 5 8 4 9 1 10 2 11 42 12 3 13
REMARK SMILES IDX 40 14 38 15 43 16 41 18 39 20 37 22 35 24 10 26 11 27 12 28
REMARK SMILES IDX 30 29 21 30 29 31 31 32 22 33 27 34 23 35 26 36 24 37 13 38
REMARK SMILES IDX 20 39 14 40 18 41 15 42 16 43 19 44 17 46 28 48 25 50 33 52
REMARK H PARENT 43 17 41 19 39 21 37 23 35 25 19 45 17 47 28 49 25 51 33 53
REMARK Flexibility Score: inf
ROOT
ATOM      1  C   UNL     1     -24.052  54.642  43.599  1.00  0.00     0.180 C 
ATOM      2  C   UNL     1     -23.776  55.053  42.132  1.00  0.00     0.177 C 
ATOM      3  C   UNL     1     -23.943  53.848  41.178  1.00  0.00     0.180 C 
ATOM      4  C   UNL     1     -25.243  53.073  41.479  1.00  0.00     0.214 C 
ATOM      5  C   UNL     1     -25.427  52.835  42.990  1.00  0.00     0.339 C 
ATOM      6  O   UNL     1     -25.327  54.038  43.730  1.00  0.00    -0.332 OA
ENDROOT
BRANCH   1   7
ATOM      7  C   UNL     1     -24.008  55.862  44.529  1.00  0.00     0.198 C 
BRANCH   7   8
ATOM      8  O   UNL     1     -24.340  55.483  45.850  1.00  0.00    -0.347 OA
BRANCH   8   9
ATOM      9  C   UNL     1     -25.485  56.189  46.296  1.00  0.00     0.281 C 
ATOM     10  C   UNL     1     -23.146  56.455  48.362  1.00  0.00     0.041 C 
ATOM     11  C   UNL     1     -24.618  56.890  48.418  1.00  0.00     0.150 C 
ATOM     12  C   UNL     1     -25.531  55.899  49.184  1.00  0.00     0.174 C 
ATOM     13  O   UNL     1     -25.127  57.275  47.143  1.00  0.00    -0.344 OA
ATOM     14  C   UNL     1     -25.958  54.711  48.305  1.00  0.00     0.179 C 
ATOM     15  C   UNL     1     -26.491  55.228  46.963  1.00  0.00     0.202 C 
BRANCH  12  16
ATOM     16  O   UNL     1     -26.673  56.591  49.627  1.00  0.00    -0.388 OA
ATOM     17  H   UNL     1     -26.977  56.142  50.461  1.00  0.00     0.211 HD
ENDBRANCH  12  16
BRANCH  14  18
ATOM     18  O   UNL     1     -24.871  53.839  48.118  1.00  0.00    -0.387 OA
ATOM     19  H   UNL     1     -24.482  54.045  47.228  1.00  0.00     0.211 HD
ENDBRANCH  14  18
BRANCH  15  20
ATOM     20  O   UNL     1     -26.774  54.148  46.111  1.00  0.00    -0.385 OA
ATOM     21  H   UNL     1     -26.061  54.132  45.419  1.00  0.00     0.211 HD
ENDBRANCH  15  20
ENDBRANCH   8   9
ENDBRANCH   7   8
ENDBRANCH   1   7
BRANCH   2  22
ATOM     22  O   UNL     1     -22.480  55.582  42.017  1.00  0.00    -0.387 OA
ATOM     23  H   UNL     1     -22.202  55.454  41.074  1.00  0.00     0.211 HD
ENDBRANCH   2  22
BRANCH   3  24
ATOM     24  O   UNL     1     -22.823  52.995  41.187  1.00  0.00    -0.387 OA
ATOM     25  H   UNL     1     -22.396  53.042  42.079  1.00  0.00     0.211 HD
ENDBRANCH   3  24
BRANCH   5  26
ATOM     26  O   UNL     1     -24.514  51.846  43.476  1.00  0.00    -0.454 OA
BRANCH  26  27
ATOM     27  C   UNL     1     -24.940  50.775  44.268  1.00  0.00     0.214 A 
ATOM     28  C   UNL     1     -25.358  49.566  43.690  1.00  0.00     0.180 A 
ATOM     29  C   UNL     1     -24.904  50.886  45.662  1.00  0.00     0.239 A 
ATOM     30  O   UNL     1     -25.636  48.525  44.464  1.00  0.00    -0.452 OA
ATOM     31  C   UNL     1     -25.264  49.777  46.467  1.00  0.00     0.111 A 
ATOM     32  O   UNL     1     -24.505  51.969  46.164  1.00  0.00    -0.285 OA
ATOM     33  C   UNL     1     -25.594  48.571  45.790  1.00  0.00     0.146 A 
ATOM     34  C   UNL     1     -25.279  49.780  47.895  1.00  0.00     0.134 A 
ATOM     35  C   UNL     1     -25.881  47.408  46.507  1.00  0.00     0.094 A 
ATOM     36  C   UNL     1     -25.538  48.589  48.585  1.00  0.00     0.093 A 
ATOM     37  C   UNL     1     -25.841  47.409  47.899  1.00  0.00     0.123 A 
BRANCH  28  38
ATOM     38  C   UNL     1     -25.506  49.413  42.231  1.00  0.00     0.025 A 
ATOM     39  C   UNL     1     -26.718  49.730  41.598  1.00  0.00     0.062 A 
ATOM     40  C   UNL     1     -24.457  48.869  41.477  1.00  0.00     0.016 A 
ATOM     41  C   UNL     1     -26.878  49.518  40.225  1.00  0.00     0.158 A 
ATOM     42  C   UNL     1     -24.606  48.676  40.101  1.00  0.00     0.051 A 
ATOM     43  C   UNL     1     -25.812  49.006  39.467  1.00  0.00     0.157 A 
BRANCH  41  44
ATOM     44  O   UNL     1     -28.102  49.825  39.629  1.00  0.00    -0.504 OA
ATOM     45  H   UNL     1     -28.164  50.325  38.752  1.00  0.00     0.293 HD
ENDBRANCH  41  44
BRANCH  43  46
ATOM     46  O   UNL     1     -25.953  48.826  38.092  1.00  0.00    -0.504 OA
ATOM     47  H   UNL     1     -26.384  49.533  37.508  1.00  0.00     0.293 HD
ENDBRANCH  43  46
ENDBRANCH  28  38
BRANCH  34  48
ATOM     48  O   UNL     1     -25.070  50.920  48.678  1.00  0.00    -0.507 OA
ATOM     49  H   UNL     1     -25.607  51.771  48.615  1.00  0.00     0.293 HD
ENDBRANCH  34  48
BRANCH  37  50
ATOM     50  O   UNL     1     -26.110  46.232  48.595  1.00  0.00    -0.508 OA
ATOM     51  H   UNL     1     -25.427  45.485  48.657  1.00  0.00     0.293 HD
ENDBRANCH  37  50
ENDBRANCH  26  27
ENDBRANCH   5  26
BRANCH   4  52
ATOM     52  O   UNL     1     -26.346  53.800  41.003  1.00  0.00    -0.384 OA
ATOM     53  H   UNL     1     -27.117  53.174  40.976  1.00  0.00     0.211 HD
ENDBRANCH   4  52
TORSDOF 16
ENDMDL
MODEL 7
REMARK VINA RESULT:    -4.003      1.585      2.253
REMARK INTER + INTRA:         -10.147
REMARK INTER:                  -7.613
REMARK INTRA:                  -2.534
REMARK UNBOUND:                -3.571
REMARK SMILES C[C@H]1O[C@@H](OC[C@H]2O[C@H](Oc3c(-c4ccc(O)c(O)c4)oc4cc(O)cc(O)c4c3=O)[C@@H](O)[C@H](O)[C@@H]2O)[C@@H](O)[C@@H](O)[C@@H]1O
REMARK SMILES IDX 7 1 36 2 34 3 32 4 9 5 8 6 6 7 5 8 4 9 1 10 2 11 42 12 3 13
REMARK SMILES IDX 40 14 38 15 43 16 41 18 39 20 37 22 35 24 10 26 11 27 12 28
REMARK SMILES IDX 30 29 21 30 29 31 31 32 22 33 27 34 23 35 26 36 24 37 13 38
REMARK SMILES IDX 20 39 14 40 18 41 15 42 16 43 19 44 17 46 28 48 25 50 33 52
REMARK H PARENT 43 17 41 19 39 21 37 23 35 25 19 45 17 47 28 49 25 51 33 53
REMARK Flexibility Score: inf
ROOT
ATOM      1  C   UNL     1     -23.834  49.824  37.706  1.00  0.00     0.180 C 
ATOM      2  C   UNL     1     -22.440  50.450  37.452  1.00  0.00     0.177 C 
ATOM      3  C   UNL     1     -22.095  51.494  38.539  1.00  0.00     0.180 C 
ATOM      4  C   UNL     1     -22.396  50.950  39.952  1.00  0.00     0.214 C 
ATOM      5  C   UNL     1     -23.774  50.263  40.015  1.00  0.00     0.339 C 
ATOM      6  O   UNL     1     -23.918  49.276  39.010  1.00  0.00    -0.332 OA
ENDROOT
BRANCH   1   7
ATOM      7  C   UNL     1     -24.123  48.701  36.701  1.00  0.00     0.198 C 
BRANCH   7   8
ATOM      8  O   UNL     1     -24.892  49.196  35.622  1.00  0.00    -0.347 OA
BRANCH   8   9
ATOM      9  C   UNL     1     -25.772  48.195  35.141  1.00  0.00     0.281 C 
ATOM     10  C   UNL     1     -24.644  49.908  32.774  1.00  0.00     0.041 C 
ATOM     11  C   UNL     1     -25.723  48.817  32.827  1.00  0.00     0.150 C 
ATOM     12  C   UNL     1     -27.168  49.373  32.885  1.00  0.00     0.174 C 
ATOM     13  O   UNL     1     -25.450  47.818  33.806  1.00  0.00    -0.344 OA
ATOM     14  C   UNL     1     -27.571  49.783  34.313  1.00  0.00     0.179 C 
ATOM     15  C   UNL     1     -27.240  48.645  35.287  1.00  0.00     0.202 C 
BRANCH  12  16
ATOM     16  O   UNL     1     -28.051  48.385  32.413  1.00  0.00    -0.388 OA
ATOM     17  H   UNL     1     -27.545  47.835  31.757  1.00  0.00     0.211 HD
ENDBRANCH  12  16
BRANCH  14  18
ATOM     18  O   UNL     1     -26.911  50.970  34.674  1.00  0.00    -0.387 OA
ATOM     19  H   UNL     1     -26.194  51.121  34.005  1.00  0.00     0.211 HD
ENDBRANCH  14  18
BRANCH  15  20
ATOM     20  O   UNL     1     -27.497  49.054  36.607  1.00  0.00    -0.385 OA
ATOM     21  H   UNL     1     -27.100  49.960  36.710  1.00  0.00     0.211 HD
ENDBRANCH  15  20
ENDBRANCH   8   9
ENDBRANCH   7   8
ENDBRANCH   1   7
BRANCH   2  22
ATOM     22  O   UNL     1     -22.407  51.048  36.181  1.00  0.00    -0.387 OA
ATOM     23  H   UNL     1     -22.747  51.972  36.292  1.00  0.00     0.211 HD
ENDBRANCH   2  22
BRANCH   3  24
ATOM     24  O   UNL     1     -22.730  52.731  38.318  1.00  0.00    -0.387 OA
ATOM     25  H   UNL     1     -22.351  53.141  37.502  1.00  0.00     0.211 HD
ENDBRANCH   3  24
BRANCH   5  26
ATOM     26  O   UNL     1     -24.836  51.221  39.963  1.00  0.00    -0.454 OA
BRANCH  26  27
ATOM     27  C   UNL     1     -25.387  51.774  41.123  1.00  0.00     0.214 A 
ATOM     28  C   UNL     1     -26.245  51.028  41.946  1.00  0.00     0.180 A 
ATOM     29  C   UNL     1     -25.042  53.075  41.502  1.00  0.00     0.239 A 
ATOM     30  O   UNL     1     -26.652  51.530  43.104  1.00  0.00    -0.452 OA
ATOM     31  C   UNL     1     -25.540  53.611  42.716  1.00  0.00     0.111 A 
ATOM     32  O   UNL     1     -24.255  53.723  40.764  1.00  0.00    -0.285 OA
ATOM     33  C   UNL     1     -26.334  52.750  43.521  1.00  0.00     0.146 A 
ATOM     34  C   UNL     1     -25.268  54.929  43.195  1.00  0.00     0.134 A 
ATOM     35  C   UNL     1     -26.797  53.169  44.770  1.00  0.00     0.094 A 
ATOM     36  C   UNL     1     -25.719  55.308  44.466  1.00  0.00     0.093 A 
ATOM     37  C   UNL     1     -26.481  54.438  45.250  1.00  0.00     0.123 A 
BRANCH  28  38
ATOM     38  C   UNL     1     -26.718  49.686  41.559  1.00  0.00     0.025 A 
ATOM     39  C   UNL     1     -27.502  49.509  40.408  1.00  0.00     0.062 A 
ATOM     40  C   UNL     1     -26.458  48.588  42.390  1.00  0.00     0.016 A 
ATOM     41  C   UNL     1     -28.009  48.247  40.081  1.00  0.00     0.158 A 
ATOM     42  C   UNL     1     -26.943  47.320  42.055  1.00  0.00     0.051 A 
ATOM     43  C   UNL     1     -27.714  47.142  40.898  1.00  0.00     0.157 A 
BRANCH  41  44
ATOM     44  O   UNL     1     -28.800  48.108  38.941  1.00  0.00    -0.504 OA
ATOM     45  H   UNL     1     -29.163  48.906  38.437  1.00  0.00     0.293 HD
ENDBRANCH  41  44
BRANCH  43  46
ATOM     46  O   UNL     1     -28.186  45.875  40.559  1.00  0.00    -0.504 OA
ATOM     47  H   UNL     1     -28.905  45.750  39.856  1.00  0.00     0.293 HD
ENDBRANCH  43  46
ENDBRANCH  28  38
BRANCH  34  48
ATOM     48  O   UNL     1     -24.586  55.904  42.460  1.00  0.00    -0.507 OA
ATOM     49  H   UNL     1     -25.010  56.721  42.049  1.00  0.00     0.293 HD
ENDBRANCH  34  48
BRANCH  37  50
ATOM     50  O   UNL     1     -26.935  54.829  46.508  1.00  0.00    -0.508 OA
ATOM     51  H   UNL     1     -26.801  54.244  47.325  1.00  0.00     0.293 HD
ENDBRANCH  37  50
ENDBRANCH  26  27
ENDBRANCH   5  26
BRANCH   4  52
ATOM     52  O   UNL     1     -21.413  50.017  40.317  1.00  0.00    -0.384 OA
ATOM     53  H   UNL     1     -20.739  50.005  39.587  1.00  0.00     0.211 HD
ENDBRANCH   4  52
TORSDOF 16
ENDMDL
MODEL 8
REMARK VINA RESULT:    -3.985      4.186      8.794
REMARK INTER + INTRA:         -10.118
REMARK INTER:                  -7.541
REMARK INTRA:                  -2.577
REMARK UNBOUND:                -3.571
REMARK SMILES C[C@H]1O[C@@H](OC[C@H]2O[C@H](Oc3c(-c4ccc(O)c(O)c4)oc4cc(O)cc(O)c4c3=O)[C@@H](O)[C@H](O)[C@@H]2O)[C@@H](O)[C@@H](O)[C@@H]1O
REMARK SMILES IDX 7 1 36 2 34 3 32 4 9 5 8 6 6 7 5 8 4 9 1 10 2 11 42 12 3 13
REMARK SMILES IDX 40 14 38 15 43 16 41 18 39 20 37 22 35 24 10 26 11 27 12 28
REMARK SMILES IDX 30 29 21 30 29 31 31 32 22 33 27 34 23 35 26 36 24 37 13 38
REMARK SMILES IDX 20 39 14 40 18 41 15 42 16 43 19 44 17 46 28 48 25 50 33 52
REMARK H PARENT 43 17 41 19 39 21 37 23 35 25 19 45 17 47 28 49 25 51 33 53
REMARK Flexibility Score: inf
ROOT
ATOM      1  C   UNL     1     -25.228  48.687  46.578  1.00  0.00     0.180 C 
ATOM      2  C   UNL     1     -23.978  49.420  47.125  1.00  0.00     0.177 C 
ATOM      3  C   UNL     1     -23.296  50.254  46.017  1.00  0.00     0.180 C 
ATOM      4  C   UNL     1     -24.329  51.082  45.224  1.00  0.00     0.214 C 
ATOM      5  C   UNL     1     -25.563  50.240  44.845  1.00  0.00     0.339 C 
ATOM      6  O   UNL     1     -26.129  49.597  45.972  1.00  0.00    -0.332 OA
ENDROOT
BRANCH   1   7
ATOM      7  C   UNL     1     -25.975  47.961  47.705  1.00  0.00     0.198 C 
BRANCH   7   8
ATOM      8  O   UNL     1     -27.184  47.413  47.216  1.00  0.00    -0.347 OA
BRANCH   8   9
ATOM      9  C   UNL     1     -27.908  46.794  48.266  1.00  0.00     0.281 C 
ATOM     10  C   UNL     1     -26.465  44.647  46.500  1.00  0.00     0.041 C 
ATOM     11  C   UNL     1     -27.475  44.518  47.650  1.00  0.00     0.150 C 
ATOM     12  C   UNL     1     -28.935  44.308  47.174  1.00  0.00     0.174 C 
ATOM     13  O   UNL     1     -27.329  45.544  48.628  1.00  0.00    -0.344 OA
ATOM     14  C   UNL     1     -29.611  45.634  46.783  1.00  0.00     0.179 C 
ATOM     15  C   UNL     1     -29.400  46.667  47.897  1.00  0.00     0.202 C 
BRANCH  12  16
ATOM     16  O   UNL     1     -29.662  43.697  48.211  1.00  0.00    -0.388 OA
ATOM     17  H   UNL     1     -30.134  42.919  47.813  1.00  0.00     0.211 HD
ENDBRANCH  12  16
BRANCH  14  18
ATOM     18  O   UNL     1     -29.092  46.093  45.560  1.00  0.00    -0.387 OA
ATOM     19  H   UNL     1     -28.430  46.802  45.771  1.00  0.00     0.211 HD
ENDBRANCH  14  18
BRANCH  15  20
ATOM     20  O   UNL     1     -29.913  47.913  47.499  1.00  0.00    -0.385 OA
ATOM     21  H   UNL     1     -30.304  48.336  48.309  1.00  0.00     0.211 HD
ENDBRANCH  15  20
ENDBRANCH   8   9
ENDBRANCH   7   8
ENDBRANCH   1   7
BRANCH   2  22
ATOM     22  O   UNL     1     -23.070  48.489  47.656  1.00  0.00    -0.387 OA
ATOM     23  H   UNL     1     -22.800  47.896  46.909  1.00  0.00     0.211 HD
ENDBRANCH   2  22
BRANCH   3  24
ATOM     24  O   UNL     1     -22.503  49.466  45.160  1.00  0.00    -0.387 OA
ATOM     25  H   UNL     1     -21.559  49.748  45.253  1.00  0.00     0.211 HD
ENDBRANCH   3  24
BRANCH   5  26
ATOM     26  O   UNL     1     -25.253  49.302  43.809  1.00  0.00    -0.454 OA
BRANCH  26  27
ATOM     27  C   UNL     1     -26.179  48.971  42.814  1.00  0.00     0.214 A 
ATOM     28  C   UNL     1     -26.351  49.783  41.682  1.00  0.00     0.180 A 
ATOM     29  C   UNL     1     -26.914  47.785  42.918  1.00  0.00     0.239 A 
ATOM     30  O   UNL     1     -27.140  49.383  40.695  1.00  0.00    -0.452 OA
ATOM     31  C   UNL     1     -27.798  47.410  41.876  1.00  0.00     0.111 A 
ATOM     32  O   UNL     1     -26.732  47.057  43.928  1.00  0.00    -0.285 OA
ATOM     33  C   UNL     1     -27.841  48.255  40.734  1.00  0.00     0.146 A 
ATOM     34  C   UNL     1     -28.607  46.233  41.880  1.00  0.00     0.134 A 
ATOM     35  C   UNL     1     -28.622  47.917  39.627  1.00  0.00     0.094 A 
ATOM     36  C   UNL     1     -29.354  45.905  40.742  1.00  0.00     0.093 A 
ATOM     37  C   UNL     1     -29.367  46.740  39.621  1.00  0.00     0.123 A 
BRANCH  28  38
ATOM     38  C   UNL     1     -25.675  51.087  41.555  1.00  0.00     0.025 A 
ATOM     39  C   UNL     1     -24.423  51.186  40.928  1.00  0.00     0.062 A 
ATOM     40  C   UNL     1     -26.245  52.228  42.137  1.00  0.00     0.016 A 
ATOM     41  C   UNL     1     -23.752  52.412  40.870  1.00  0.00     0.158 A 
ATOM     42  C   UNL     1     -25.589  53.460  42.061  1.00  0.00     0.051 A 
ATOM     43  C   UNL     1     -24.345  53.560  41.423  1.00  0.00     0.157 A 
BRANCH  41  44
ATOM     44  O   UNL     1     -22.500  52.472  40.257  1.00  0.00    -0.504 OA
ATOM     45  H   UNL     1     -21.746  51.848  40.511  1.00  0.00     0.293 HD
ENDBRANCH  41  44
BRANCH  43  46
ATOM     46  O   UNL     1     -23.698  54.791  41.337  1.00  0.00    -0.504 OA
ATOM     47  H   UNL     1     -24.206  55.642  41.125  1.00  0.00     0.293 HD
ENDBRANCH  43  46
ENDBRANCH  28  38
BRANCH  34  48
ATOM     48  O   UNL     1     -28.730  45.372  42.976  1.00  0.00    -0.507 OA
ATOM     49  H   UNL     1     -28.152  44.564  43.144  1.00  0.00     0.293 HD
ENDBRANCH  34  48
BRANCH  37  50
ATOM     50  O   UNL     1     -30.123  46.411  38.499  1.00  0.00    -0.508 OA
ATOM     51  H   UNL     1     -31.089  46.114  38.580  1.00  0.00     0.293 HD
ENDBRANCH  37  50
ENDBRANCH  26  27
ENDBRANCH   5  26
BRANCH   4  52
ATOM     52  O   UNL     1     -24.753  52.173  45.999  1.00  0.00    -0.384 OA
ATOM     53  H   UNL     1     -25.741  52.109  46.073  1.00  0.00     0.211 HD
ENDBRANCH   4  52
TORSDOF 16
ENDMDL
MODEL 9
REMARK VINA RESULT:    -3.947      2.863      8.526
REMARK INTER + INTRA:         -10.055
REMARK INTER:                  -7.414
REMARK INTRA:                  -2.641
REMARK UNBOUND:                -3.571
REMARK SMILES C[C@H]1O[C@@H](OC[C@H]2O[C@H](Oc3c(-c4ccc(O)c(O)c4)oc4cc(O)cc(O)c4c3=O)[C@@H](O)[C@H](O)[C@@H]2O)[C@@H](O)[C@@H](O)[C@@H]1O
REMARK SMILES IDX 7 1 36 2 34 3 32 4 9 5 8 6 6 7 5 8 4 9 1 10 2 11 42 12 3 13
REMARK SMILES IDX 40 14 38 15 43 16 41 18 39 20 37 22 35 24 10 26 11 27 12 28
REMARK SMILES IDX 30 29 21 30 29 31 31 32 22 33 27 34 23 35 26 36 24 37 13 38
REMARK SMILES IDX 20 39 14 40 18 41 15 42 16 43 19 44 17 46 28 48 25 50 33 52
REMARK H PARENT 43 17 41 19 39 21 37 23 35 25 19 45 17 47 28 49 25 51 33 53
REMARK Flexibility Score: inf
ROOT
ATOM      1  C   UNL     1     -23.878  51.058  43.404  1.00  0.00     0.180 C 
ATOM      2  C   UNL     1     -23.368  51.617  42.053  1.00  0.00     0.177 C 
ATOM      3  C   UNL     1     -23.988  50.849  40.864  1.00  0.00     0.180 C 
ATOM      4  C   UNL     1     -25.511  50.673  41.045  1.00  0.00     0.214 C 
ATOM      5  C   UNL     1     -25.865  50.214  42.473  1.00  0.00     0.339 C 
ATOM      6  O   UNL     1     -25.293  51.058  43.456  1.00  0.00    -0.332 OA
ENDROOT
BRANCH   1   7
ATOM      7  C   UNL     1     -23.360  51.899  44.578  1.00  0.00     0.198 C 
BRANCH   7   8
ATOM      8  O   UNL     1     -24.391  52.729  45.076  1.00  0.00    -0.347 OA
BRANCH   8   9
ATOM      9  C   UNL     1     -24.115  54.089  44.789  1.00  0.00     0.281 C 
ATOM     10  C   UNL     1     -25.030  53.752  47.765  1.00  0.00     0.041 C 
ATOM     11  C   UNL     1     -24.756  54.999  46.911  1.00  0.00     0.150 C 
ATOM     12  C   UNL     1     -26.036  55.639  46.316  1.00  0.00     0.174 C 
ATOM     13  O   UNL     1     -23.716  54.797  45.958  1.00  0.00    -0.344 OA
ATOM     14  C   UNL     1     -26.501  54.917  45.039  1.00  0.00     0.179 C 
ATOM     15  C   UNL     1     -25.314  54.750  44.081  1.00  0.00     0.202 C 
BRANCH  12  16
ATOM     16  O   UNL     1     -25.770  56.989  46.023  1.00  0.00    -0.388 OA
ATOM     17  H   UNL     1     -24.941  57.008  45.476  1.00  0.00     0.211 HD
ENDBRANCH  12  16
BRANCH  14  18
ATOM     18  O   UNL     1     -27.065  53.673  45.371  1.00  0.00    -0.387 OA
ATOM     19  H   UNL     1     -27.688  53.827  46.127  1.00  0.00     0.211 HD
ENDBRANCH  14  18
BRANCH  15  20
ATOM     20  O   UNL     1     -25.703  53.991  42.964  1.00  0.00    -0.385 OA
ATOM     21  H   UNL     1     -25.970  54.636  42.257  1.00  0.00     0.211 HD
ENDBRANCH  15  20
ENDBRANCH   8   9
ENDBRANCH   7   8
ENDBRANCH   1   7
BRANCH   2  22
ATOM     22  O   UNL     1     -21.966  51.540  41.999  1.00  0.00    -0.387 OA
ATOM     23  H   UNL     1     -21.701  50.774  42.571  1.00  0.00     0.211 HD
ENDBRANCH   2  22
BRANCH   3  24
ATOM     24  O   UNL     1     -23.353  49.614  40.632  1.00  0.00    -0.387 OA
ATOM     25  H   UNL     1     -23.922  49.074  40.028  1.00  0.00     0.211 HD
ENDBRANCH   3  24
BRANCH   5  26
ATOM     26  O   UNL     1     -25.502  48.846  42.684  1.00  0.00    -0.454 OA
BRANCH  26  27
ATOM     27  C   UNL     1     -26.423  47.903  43.150  1.00  0.00     0.214 A 
ATOM     28  C   UNL     1     -27.244  47.189  42.263  1.00  0.00     0.180 A 
ATOM     29  C   UNL     1     -26.497  47.624  44.519  1.00  0.00     0.239 A 
ATOM     30  O   UNL     1     -28.016  46.212  42.718  1.00  0.00    -0.452 OA
ATOM     31  C   UNL     1     -27.376  46.616  44.987  1.00  0.00     0.111 A 
ATOM     32  O   UNL     1     -25.739  48.257  45.299  1.00  0.00    -0.285 OA
ATOM     33  C   UNL     1     -28.105  45.892  44.004  1.00  0.00     0.146 A 
ATOM     34  C   UNL     1     -27.546  46.257  46.359  1.00  0.00     0.134 A 
ATOM     35  C   UNL     1     -28.932  44.829  44.371  1.00  0.00     0.094 A 
ATOM     36  C   UNL     1     -28.356  45.164  46.691  1.00  0.00     0.093 A 
ATOM     37  C   UNL     1     -29.049  44.453  45.707  1.00  0.00     0.123 A 
BRANCH  28  38
ATOM     38  C   UNL     1     -27.280  47.497  40.822  1.00  0.00     0.025 A 
ATOM     39  C   UNL     1     -26.245  47.072  39.974  1.00  0.00     0.062 A 
ATOM     40  C   UNL     1     -28.311  48.293  40.304  1.00  0.00     0.016 A 
ATOM     41  C   UNL     1     -26.246  47.424  38.621  1.00  0.00     0.158 A 
ATOM     42  C   UNL     1     -28.327  48.629  38.947  1.00  0.00     0.051 A 
ATOM     43  C   UNL     1     -27.300  48.193  38.098  1.00  0.00     0.157 A 
BRANCH  41  44
ATOM     44  O   UNL     1     -25.192  47.002  37.808  1.00  0.00    -0.504 OA
ATOM     45  H   UNL     1     -24.825  47.577  37.062  1.00  0.00     0.293 HD
ENDBRANCH  41  44
BRANCH  43  46
ATOM     46  O   UNL     1     -27.325  48.517  36.743  1.00  0.00    -0.504 OA
ATOM     47  H   UNL     1     -27.082  49.446  36.418  1.00  0.00     0.293 HD
ENDBRANCH  43  46
ENDBRANCH  28  38
BRANCH  34  48
ATOM     48  O   UNL     1     -26.965  46.950  47.426  1.00  0.00    -0.507 OA
ATOM     49  H   UNL     1     -27.169  46.787  48.400  1.00  0.00     0.293 HD
ENDBRANCH  34  48
BRANCH  37  50
ATOM     50  O   UNL     1     -29.862  43.375  46.050  1.00  0.00    -0.508 OA
ATOM     51  H   UNL     1     -30.872  43.463  46.080  1.00  0.00     0.293 HD
ENDBRANCH  37  50
ENDBRANCH  26  27
ENDBRANCH   5  26
BRANCH   4  52
ATOM     52  O   UNL     1     -26.158  51.894  40.794  1.00  0.00    -0.384 OA
ATOM     53  H   UNL     1     -26.265  51.968  39.810  1.00  0.00     0.211 HD
ENDBRANCH   4  52
TORSDOF 16
ENDMDL
