MODEL 1
REMARK VINA RESULT:    -7.167      0.000      0.000
REMARK INTER + INTRA:          -8.380
REMARK INTER:                  -8.424
REMARK INTRA:                   0.044
REMARK UNBOUND:                 0.044
REMARK SMILES O=c1c(O)c(-c2ccc(O)cc2)oc2cc(O)cc(O)c12
REMARK SMILES IDX 5 1 3 2 2 3 1 4 21 5 19 6 18 7 16 8 15 9 14 10 13 11 6 12
REMARK SMILES IDX 7 13 8 14 9 15 12 16 11 17 10 18 4 20 20 22 17 24
REMARK H PARENT 10 19 4 21 20 23 17 25
REMARK Flexibility Score: inf
ROOT
ATOM      1  C   UNL     1       2.353   4.590 -22.134  1.00  0.00     0.180 A 
ATOM      2  C   UNL     1       2.742   5.108 -20.886  1.00  0.00     0.208 A 
ATOM      3  C   UNL     1       2.238   4.516 -19.717  1.00  0.00     0.238 A 
ATOM      4  O   UNL     1       2.531   5.030 -18.607  1.00  0.00    -0.285 OA
ATOM      5  C   UNL     1       1.396   3.381 -19.807  1.00  0.00     0.111 A 
ATOM      6  C   UNL     1       0.863   2.673 -18.686  1.00  0.00     0.134 A 
ATOM      7  C   UNL     1      -0.044   1.628 -18.898  1.00  0.00     0.093 A 
ATOM      8  C   UNL     1      -0.389   1.223 -20.190  1.00  0.00     0.123 A 
ATOM      9  C   UNL     1       0.168   1.871 -21.290  1.00  0.00     0.094 A 
ATOM     10  C   UNL     1       1.047   2.943 -21.111  1.00  0.00     0.146 A 
ATOM     11  O   UNL     1       1.537   3.545 -22.188  1.00  0.00    -0.452 OA
ENDROOT
BRANCH   1  12
ATOM     12  C   UNL     1       2.830   5.169 -23.411  1.00  0.00     0.021 A 
ATOM     13  C   UNL     1       3.273   4.314 -24.434  1.00  0.00     0.016 A 
ATOM     14  C   UNL     1       3.706   4.837 -25.655  1.00  0.00     0.047 A 
ATOM     15  C   UNL     1       3.689   6.217 -25.877  1.00  0.00     0.115 A 
ATOM     16  C   UNL     1       2.796   6.556 -23.646  1.00  0.00     0.016 A 
ATOM     17  C   UNL     1       3.230   7.076 -24.869  1.00  0.00     0.047 A 
BRANCH  15  18
ATOM     18  O   UNL     1       4.125   6.725 -27.098  1.00  0.00    -0.508 OA
ATOM     19  H   UNL     1       4.227   6.131 -27.913  1.00  0.00     0.293 HD
ENDBRANCH  15  18
ENDBRANCH   1  12
BRANCH   2  20
ATOM     20  O   UNL     1       3.635   6.181 -20.816  1.00  0.00    -0.502 OA
ATOM     21  H   UNL     1       3.772   6.720 -19.970  1.00  0.00     0.293 HD
ENDBRANCH   2  20
BRANCH   6  22
ATOM     22  O   UNL     1       1.209   2.936 -17.358  1.00  0.00    -0.507 OA
ATOM     23  H   UNL     1       1.266   2.243 -16.627  1.00  0.00     0.293 HD
ENDBRANCH   6  22
BRANCH   8  24
ATOM     24  O   UNL     1      -1.280   0.172 -20.391  1.00  0.00    -0.508 OA
ATOM     25  H   UNL     1      -2.274   0.334 -20.504  1.00  0.00     0.293 HD
ENDBRANCH   8  24
TORSDOF 5
ENDMDL
MODEL 2
REMARK VINA RESULT:    -6.773      1.769      3.346
REMARK INTER + INTRA:          -7.917
REMARK INTER:                  -7.630
REMARK INTRA:                  -0.287
REMARK UNBOUND:                 0.044
REMARK SMILES O=c1c(O)c(-c2ccc(O)cc2)oc2cc(O)cc(O)c12
REMARK SMILES IDX 5 1 3 2 2 3 1 4 21 5 19 6 18 7 16 8 15 9 14 10 13 11 6 12
REMARK SMILES IDX 7 13 8 14 9 15 12 16 11 17 10 18 4 20 20 22 17 24
REMARK H PARENT 10 19 4 21 20 23 17 25
REMARK Flexibility Score: inf
ROOT
ATOM      1  C   UNL     1       1.042   3.728 -23.312  1.00  0.00     0.180 A 
ATOM      2  C   UNL     1      -0.014   3.030 -23.923  1.00  0.00     0.208 A 
ATOM      3  C   UNL     1      -0.719   2.073 -23.176  1.00  0.00     0.238 A 
ATOM      4  O   UNL     1      -1.614   1.399 -23.751  1.00  0.00    -0.285 OA
ATOM      5  C   UNL     1      -0.397   1.864 -21.813  1.00  0.00     0.111 A 
ATOM      6  C   UNL     1      -1.075   0.952 -20.948  1.00  0.00     0.134 A 
ATOM      7  C   UNL     1      -0.600   0.752 -19.646  1.00  0.00     0.093 A 
ATOM      8  C   UNL     1       0.488   1.479 -19.157  1.00  0.00     0.123 A 
ATOM      9  C   UNL     1       1.122   2.411 -19.975  1.00  0.00     0.094 A 
ATOM     10  C   UNL     1       0.696   2.605 -21.292  1.00  0.00     0.146 A 
ATOM     11  O   UNL     1       1.342   3.488 -22.042  1.00  0.00    -0.452 OA
ENDROOT
BRANCH   1  12
ATOM     12  C   UNL     1       1.841   4.742 -24.039  1.00  0.00     0.021 A 
ATOM     13  C   UNL     1       3.002   4.344 -24.724  1.00  0.00     0.016 A 
ATOM     14  C   UNL     1       3.759   5.279 -25.434  1.00  0.00     0.047 A 
ATOM     15  C   UNL     1       3.360   6.618 -25.484  1.00  0.00     0.115 A 
ATOM     16  C   UNL     1       1.433   6.086 -24.109  1.00  0.00     0.016 A 
ATOM     17  C   UNL     1       2.193   7.019 -24.821  1.00  0.00     0.047 A 
BRANCH  15  18
ATOM     18  O   UNL     1       4.125   7.540 -26.195  1.00  0.00    -0.508 OA
ATOM     19  H   UNL     1       3.772   7.987 -27.033  1.00  0.00     0.293 HD
ENDBRANCH  15  18
ENDBRANCH   1  12
BRANCH   2  20
ATOM     20  O   UNL     1      -0.367   3.304 -25.248  1.00  0.00    -0.502 OA
ATOM     21  H   UNL     1       0.258   3.128 -26.024  1.00  0.00     0.293 HD
ENDBRANCH   2  20
BRANCH   6  22
ATOM     22  O   UNL     1      -2.224   0.241 -21.305  1.00  0.00    -0.507 OA
ATOM     23  H   UNL     1      -2.333  -0.759 -21.230  1.00  0.00     0.293 HD
ENDBRANCH   6  22
BRANCH   8  24
ATOM     24  O   UNL     1       0.944   1.286 -17.855  1.00  0.00    -0.508 OA
ATOM     25  H   UNL     1       1.519   1.977 -17.387  1.00  0.00     0.293 HD
ENDBRANCH   8  24
TORSDOF 5
ENDMDL
MODEL 3
REMARK VINA RESULT:    -6.743      1.330      3.226
REMARK INTER + INTRA:          -7.882
REMARK INTER:                  -7.884
REMARK INTRA:                   0.002
REMARK UNBOUND:                 0.044
REMARK SMILES O=c1c(O)c(-c2ccc(O)cc2)oc2cc(O)cc(O)c12
REMARK SMILES IDX 5 1 3 2 2 3 1 4 21 5 19 6 18 7 16 8 15 9 14 10 13 11 6 12
REMARK SMILES IDX 7 13 8 14 9 15 12 16 11 17 10 18 4 20 20 22 17 24
REMARK H PARENT 10 19 4 21 20 23 17 25
REMARK Flexibility Score: inf
ROOT
ATOM      1  C   UNL     1       2.057   3.866 -22.817  1.00  0.00     0.180 A 
ATOM      2  C   UNL     1       1.295   2.686 -22.779  1.00  0.00     0.208 A 
ATOM      3  C   UNL     1       0.840   2.209 -21.539  1.00  0.00     0.238 A 
ATOM      4  O   UNL     1       0.223   1.113 -21.505  1.00  0.00    -0.285 OA
ATOM      5  C   UNL     1       1.104   2.947 -20.360  1.00  0.00     0.111 A 
ATOM      6  C   UNL     1       0.652   2.582 -19.054  1.00  0.00     0.134 A 
ATOM      7  C   UNL     1       1.063   3.332 -17.947  1.00  0.00     0.093 A 
ATOM      8  C   UNL     1       1.857   4.472 -18.102  1.00  0.00     0.123 A 
ATOM      9  C   UNL     1       2.257   4.868 -19.376  1.00  0.00     0.094 A 
ATOM     10  C   UNL     1       1.895   4.118 -20.498  1.00  0.00     0.146 A 
ATOM     11  O   UNL     1       2.316   4.520 -21.691  1.00  0.00    -0.452 OA
ENDROOT
BRANCH   1  12
ATOM     12  C   UNL     1       2.585   4.424 -24.083  1.00  0.00     0.021 A 
ATOM     13  C   UNL     1       2.405   5.788 -24.366  1.00  0.00     0.016 A 
ATOM     14  C   UNL     1       2.914   6.340 -25.544  1.00  0.00     0.047 A 
ATOM     15  C   UNL     1       3.623   5.543 -26.447  1.00  0.00     0.115 A 
ATOM     16  C   UNL     1       3.317   3.630 -24.986  1.00  0.00     0.016 A 
ATOM     17  C   UNL     1       3.825   4.185 -26.164  1.00  0.00     0.047 A 
BRANCH  15  18
ATOM     18  O   UNL     1       4.124   6.106 -27.618  1.00  0.00    -0.508 OA
ATOM     19  H   UNL     1       3.744   5.866 -28.526  1.00  0.00     0.293 HD
ENDBRANCH  15  18
ENDBRANCH   1  12
BRANCH   2  20
ATOM     20  O   UNL     1       0.981   2.013 -23.963  1.00  0.00    -0.502 OA
ATOM     21  H   UNL     1       0.440   2.440 -24.704  1.00  0.00     0.293 HD
ENDBRANCH   2  20
BRANCH   6  22
ATOM     22  O   UNL     1      -0.215   1.516 -18.796  1.00  0.00    -0.507 OA
ATOM     23  H   UNL     1      -0.698   0.979 -19.501  1.00  0.00     0.293 HD
ENDBRANCH   6  22
BRANCH   8  24
ATOM     24  O   UNL     1       2.248   5.222 -16.995  1.00  0.00    -0.508 OA
ATOM     25  H   UNL     1       2.908   5.986 -17.080  1.00  0.00     0.293 HD
ENDBRANCH   8  24
TORSDOF 5
ENDMDL
MODEL 4
REMARK VINA RESULT:    -6.525      1.996      7.135
REMARK INTER + INTRA:          -7.625
REMARK INTER:                  -7.716
REMARK INTRA:                   0.090
REMARK UNBOUND:                 0.044
REMARK SMILES O=c1c(O)c(-c2ccc(O)cc2)oc2cc(O)cc(O)c12
REMARK SMILES IDX 5 1 3 2 2 3 1 4 21 5 19 6 18 7 16 8 15 9 14 10 13 11 6 12
REMARK SMILES IDX 7 13 8 14 9 15 12 16 11 17 10 18 4 20 20 22 17 24
REMARK H PARENT 10 19 4 21 20 23 17 25
REMARK Flexibility Score: inf
ROOT
ATOM      1  C   UNL     1       1.132   3.374 -22.222  1.00  0.00     0.180 A 
ATOM      2  C   UNL     1       0.221   2.948 -23.203  1.00  0.00     0.208 A 
ATOM      3  C   UNL     1       0.225   3.581 -24.457  1.00  0.00     0.238 A 
ATOM      4  O   UNL     1      -0.642   3.245 -25.304  1.00  0.00    -0.285 OA
ATOM      5  C   UNL     1       1.176   4.594 -24.732  1.00  0.00     0.111 A 
ATOM      6  C   UNL     1       1.301   5.273 -25.983  1.00  0.00     0.134 A 
ATOM      7  C   UNL     1       2.209   6.331 -26.106  1.00  0.00     0.093 A 
ATOM      8  C   UNL     1       3.041   6.694 -25.044  1.00  0.00     0.123 A 
ATOM      9  C   UNL     1       2.966   6.002 -23.838  1.00  0.00     0.094 A 
ATOM     10  C   UNL     1       2.043   4.966 -23.671  1.00  0.00     0.146 A 
ATOM     11  O   UNL     1       1.990   4.348 -22.498  1.00  0.00    -0.452 OA
ENDROOT
BRANCH   1  12
ATOM     12  C   UNL     1       1.178   2.766 -20.872  1.00  0.00     0.021 A 
ATOM     13  C   UNL     1       1.179   3.597 -19.740  1.00  0.00     0.016 A 
ATOM     14  C   UNL     1       1.200   3.045 -18.456  1.00  0.00     0.047 A 
ATOM     15  C   UNL     1       1.204   1.657 -18.286  1.00  0.00     0.115 A 
ATOM     16  C   UNL     1       1.163   1.370 -20.695  1.00  0.00     0.016 A 
ATOM     17  C   UNL     1       1.184   0.821 -19.410  1.00  0.00     0.047 A 
BRANCH  15  18
ATOM     18  O   UNL     1       1.226   1.120 -17.001  1.00  0.00    -0.508 OA
ATOM     19  H   UNL     1       1.570   1.652 -16.210  1.00  0.00     0.293 HD
ENDBRANCH  15  18
ENDBRANCH   1  12
BRANCH   2  20
ATOM     20  O   UNL     1      -0.659   1.895 -22.938  1.00  0.00    -0.502 OA
ATOM     21  H   UNL     1      -0.375   1.062 -22.437  1.00  0.00     0.293 HD
ENDBRANCH   2  20
BRANCH   6  22
ATOM     22  O   UNL     1       0.582   4.933 -27.133  1.00  0.00    -0.507 OA
ATOM     23  H   UNL     1       0.965   4.451 -27.932  1.00  0.00     0.293 HD
ENDBRANCH   6  22
BRANCH   8  24
ATOM     24  O   UNL     1       3.954   7.737 -25.181  1.00  0.00    -0.508 OA
ATOM     25  H   UNL     1       3.856   8.599 -24.656  1.00  0.00     0.293 HD
ENDBRANCH   8  24
TORSDOF 5
ENDMDL
MODEL 5
REMARK VINA RESULT:    -6.508      2.491      3.990
REMARK INTER + INTRA:          -7.605
REMARK INTER:                  -7.319
REMARK INTRA:                  -0.287
REMARK UNBOUND:                 0.044
REMARK SMILES O=c1c(O)c(-c2ccc(O)cc2)oc2cc(O)cc(O)c12
REMARK SMILES IDX 5 1 3 2 2 3 1 4 21 5 19 6 18 7 16 8 15 9 14 10 13 11 6 12
REMARK SMILES IDX 7 13 8 14 9 15 12 16 11 17 10 18 4 20 20 22 17 24
REMARK H PARENT 10 19 4 21 20 23 17 25
REMARK Flexibility Score: inf
ROOT
ATOM      1  C   UNL     1       0.830   2.627 -22.647  1.00  0.00     0.180 A 
ATOM      2  C   UNL     1       0.738   1.262 -22.327  1.00  0.00     0.208 A 
ATOM      3  C   UNL     1       0.940   0.859 -20.996  1.00  0.00     0.238 A 
ATOM      4  O   UNL     1       0.930  -0.371 -20.731  1.00  0.00    -0.285 OA
ATOM      5  C   UNL     1       1.178   1.831 -19.994  1.00  0.00     0.111 A 
ATOM      6  C   UNL     1       1.353   1.540 -18.606  1.00  0.00     0.134 A 
ATOM      7  C   UNL     1       1.688   2.572 -17.722  1.00  0.00     0.093 A 
ATOM      8  C   UNL     1       1.791   3.894 -18.163  1.00  0.00     0.123 A 
ATOM      9  C   UNL     1       1.568   4.196 -19.504  1.00  0.00     0.094 A 
ATOM     10  C   UNL     1       1.270   3.182 -20.419  1.00  0.00     0.146 A 
ATOM     11  O   UNL     1       1.086   3.511 -21.691  1.00  0.00    -0.452 OA
ENDROOT
BRANCH   1  12
ATOM     12  C   UNL     1       0.644   3.127 -24.029  1.00  0.00     0.021 A 
ATOM     13  C   UNL     1      -0.591   3.682 -24.401  1.00  0.00     0.016 A 
ATOM     14  C   UNL     1      -0.783   4.181 -25.693  1.00  0.00     0.047 A 
ATOM     15  C   UNL     1       0.260   4.146 -26.623  1.00  0.00     0.115 A 
ATOM     16  C   UNL     1       1.697   3.113 -24.962  1.00  0.00     0.016 A 
ATOM     17  C   UNL     1       1.502   3.613 -26.253  1.00  0.00     0.047 A 
BRANCH  15  18
ATOM     18  O   UNL     1       0.056   4.645 -27.907  1.00  0.00    -0.508 OA
ATOM     19  H   UNL     1       0.501   4.227 -28.715  1.00  0.00     0.293 HD
ENDBRANCH  15  18
ENDBRANCH   1  12
BRANCH   2  20
ATOM     20  O   UNL     1       0.427   0.325 -23.317  1.00  0.00    -0.502 OA
ATOM     21  H   UNL     1      -0.058  -0.540 -23.114  1.00  0.00     0.293 HD
ENDBRANCH   2  20
BRANCH   6  22
ATOM     22  O   UNL     1       1.186   0.271 -18.045  1.00  0.00    -0.507 OA
ATOM     23  H   UNL     1       0.410  -0.346 -18.232  1.00  0.00     0.293 HD
ENDBRANCH   6  22
BRANCH   8  24
ATOM     24  O   UNL     1       2.108   4.918 -17.273  1.00  0.00    -0.508 OA
ATOM     25  H   UNL     1       3.057   5.261 -17.176  1.00  0.00     0.293 HD
ENDBRANCH   8  24
TORSDOF 5
ENDMDL
MODEL 6
REMARK VINA RESULT:    -6.401      4.695      7.541
REMARK INTER + INTRA:          -7.480
REMARK INTER:                  -7.235
REMARK INTRA:                  -0.245
REMARK UNBOUND:                 0.044
REMARK SMILES O=c1c(O)c(-c2ccc(O)cc2)oc2cc(O)cc(O)c12
REMARK SMILES IDX 5 1 3 2 2 3 1 4 21 5 19 6 18 7 16 8 15 9 14 10 13 11 6 12
REMARK SMILES IDX 7 13 8 14 9 15 12 16 11 17 10 18 4 20 20 22 17 24
REMARK H PARENT 10 19 4 21 20 23 17 25
REMARK Flexibility Score: inf
ROOT
ATOM      1  C   UNL     1      -1.421   0.933 -21.010  1.00  0.00     0.180 A 
ATOM      2  C   UNL     1      -2.335  -0.134 -20.988  1.00  0.00     0.208 A 
ATOM      3  C   UNL     1      -3.319  -0.208 -21.987  1.00  0.00     0.238 A 
ATOM      4  O   UNL     1      -4.179  -1.124 -21.918  1.00  0.00    -0.285 OA
ATOM      5  C   UNL     1      -3.343   0.754 -23.025  1.00  0.00     0.111 A 
ATOM      6  C   UNL     1      -4.269   0.751 -24.114  1.00  0.00     0.134 A 
ATOM      7  C   UNL     1      -4.265   1.813 -25.026  1.00  0.00     0.093 A 
ATOM      8  C   UNL     1      -3.329   2.846 -24.926  1.00  0.00     0.123 A 
ATOM      9  C   UNL     1      -2.388   2.829 -23.900  1.00  0.00     0.094 A 
ATOM     10  C   UNL     1      -2.390   1.803 -22.952  1.00  0.00     0.146 A 
ATOM     11  O   UNL     1      -1.488   1.838 -21.978  1.00  0.00    -0.452 OA
ENDROOT
BRANCH   1  12
ATOM     12  C   UNL     1      -0.364   1.088 -19.983  1.00  0.00     0.021 A 
ATOM     13  C   UNL     1       0.799   0.305 -20.067  1.00  0.00     0.016 A 
ATOM     14  C   UNL     1       1.819   0.449 -19.122  1.00  0.00     0.047 A 
ATOM     15  C   UNL     1       1.698   1.387 -18.093  1.00  0.00     0.115 A 
ATOM     16  C   UNL     1      -0.472   2.044 -18.957  1.00  0.00     0.016 A 
ATOM     17  C   UNL     1       0.550   2.187 -18.014  1.00  0.00     0.047 A 
BRANCH  15  18
ATOM     18  O   UNL     1       2.721   1.520 -17.158  1.00  0.00    -0.508 OA
ATOM     19  H   UNL     1       2.525   1.642 -16.171  1.00  0.00     0.293 HD
ENDBRANCH  15  18
ENDBRANCH   1  12
BRANCH   2  20
ATOM     20  O   UNL     1      -2.247  -1.116 -19.997  1.00  0.00    -0.502 OA
ATOM     21  H   UNL     1      -2.563  -0.961 -19.048  1.00  0.00     0.293 HD
ENDBRANCH   2  20
BRANCH   6  22
ATOM     22  O   UNL     1      -5.186  -0.275 -24.359  1.00  0.00    -0.507 OA
ATOM     23  H   UNL     1      -6.141  -0.287 -24.034  1.00  0.00     0.293 HD
ENDBRANCH   6  22
BRANCH   8  24
ATOM     24  O   UNL     1      -3.322   3.890 -25.847  1.00  0.00    -0.508 OA
ATOM     25  H   UNL     1      -2.654   4.650 -25.782  1.00  0.00     0.293 HD
ENDBRANCH   8  24
TORSDOF 5
ENDMDL
MODEL 7
REMARK VINA RESULT:    -6.339      4.572      7.031
REMARK INTER + INTRA:          -7.407
REMARK INTER:                  -7.122
REMARK INTRA:                  -0.285
REMARK UNBOUND:                 0.044
REMARK SMILES O=c1c(O)c(-c2ccc(O)cc2)oc2cc(O)cc(O)c12
REMARK SMILES IDX 5 1 3 2 2 3 1 4 21 5 19 6 18 7 16 8 15 9 14 10 13 11 6 12
REMARK SMILES IDX 7 13 8 14 9 15 12 16 11 17 10 18 4 20 20 22 17 24
REMARK H PARENT 10 19 4 21 20 23 17 25
REMARK Flexibility Score: inf
ROOT
ATOM      1  C   UNL     1      -1.229   1.245 -20.563  1.00  0.00     0.180 A 
ATOM      2  C   UNL     1      -1.136   1.686 -21.894  1.00  0.00     0.208 A 
ATOM      3  C   UNL     1      -2.225   1.480 -22.757  1.00  0.00     0.238 A 
ATOM      4  O   UNL     1      -2.106   1.811 -23.965  1.00  0.00    -0.285 OA
ATOM      5  C   UNL     1      -3.412   0.886 -22.265  1.00  0.00     0.111 A 
ATOM      6  C   UNL     1      -4.593   0.670 -23.038  1.00  0.00     0.134 A 
ATOM      7  C   UNL     1      -5.671  -0.023 -22.474  1.00  0.00     0.093 A 
ATOM      8  C   UNL     1      -5.635  -0.451 -21.144  1.00  0.00     0.123 A 
ATOM      9  C   UNL     1      -4.510  -0.196 -20.365  1.00  0.00     0.094 A 
ATOM     10  C   UNL     1      -3.403   0.459 -20.911  1.00  0.00     0.146 A 
ATOM     11  O   UNL     1      -2.343   0.662 -20.139  1.00  0.00    -0.452 OA
ENDROOT
BRANCH   1  12
ATOM     12  C   UNL     1      -0.118   1.413 -19.598  1.00  0.00     0.021 A 
ATOM     13  C   UNL     1       0.832   0.388 -19.453  1.00  0.00     0.016 A 
ATOM     14  C   UNL     1       1.901   0.534 -18.565  1.00  0.00     0.047 A 
ATOM     15  C   UNL     1       2.045   1.709 -17.822  1.00  0.00     0.115 A 
ATOM     16  C   UNL     1       0.042   2.601 -18.863  1.00  0.00     0.016 A 
ATOM     17  C   UNL     1       1.113   2.744 -17.975  1.00  0.00     0.047 A 
BRANCH  15  18
ATOM     18  O   UNL     1       3.114   1.841 -16.939  1.00  0.00    -0.508 OA
ATOM     19  H   UNL     1       3.271   2.697 -16.421  1.00  0.00     0.293 HD
ENDBRANCH  15  18
ENDBRANCH   1  12
BRANCH   2  20
ATOM     20  O   UNL     1       0.016   2.339 -22.341  1.00  0.00    -0.502 OA
ATOM     21  H   UNL     1       0.086   3.348 -22.389  1.00  0.00     0.293 HD
ENDBRANCH   2  20
BRANCH   6  22
ATOM     22  O   UNL     1      -4.769   1.133 -24.345  1.00  0.00    -0.507 OA
ATOM     23  H   UNL     1      -4.057   1.584 -24.900  1.00  0.00     0.293 HD
ENDBRANCH   6  22
BRANCH   8  24
ATOM     24  O   UNL     1      -6.719  -1.125 -20.585  1.00  0.00    -0.508 OA
ATOM     25  H   UNL     1      -6.820  -2.130 -20.674  1.00  0.00     0.293 HD
ENDBRANCH   8  24
TORSDOF 5
ENDMDL
MODEL 8
REMARK VINA RESULT:    -6.324      1.762      2.062
REMARK INTER + INTRA:          -7.390
REMARK INTER:                  -7.091
REMARK INTRA:                  -0.299
REMARK UNBOUND:                 0.044
REMARK SMILES O=c1c(O)c(-c2ccc(O)cc2)oc2cc(O)cc(O)c12
REMARK SMILES IDX 5 1 3 2 2 3 1 4 21 5 19 6 18 7 16 8 15 9 14 10 13 11 6 12
REMARK SMILES IDX 7 13 8 14 9 15 12 16 11 17 10 18 4 20 20 22 17 24
REMARK H PARENT 10 19 4 21 20 23 17 25
REMARK Flexibility Score: inf
ROOT
ATOM      1  C   UNL     1       1.791   3.547 -23.670  1.00  0.00     0.180 A 
ATOM      2  C   UNL     1       2.081   3.997 -22.371  1.00  0.00     0.208 A 
ATOM      3  C   UNL     1       1.460   3.370 -21.279  1.00  0.00     0.238 A 
ATOM      4  O   UNL     1       1.668   3.826 -20.125  1.00  0.00    -0.285 OA
ATOM      5  C   UNL     1       0.601   2.266 -21.495  1.00  0.00     0.111 A 
ATOM      6  C   UNL     1      -0.047   1.525 -20.459  1.00  0.00     0.134 A 
ATOM      7  C   UNL     1      -0.959   0.518 -20.797  1.00  0.00     0.093 A 
ATOM      8  C   UNL     1      -1.199   0.181 -22.131  1.00  0.00     0.123 A 
ATOM      9  C   UNL     1      -0.531   0.860 -23.147  1.00  0.00     0.094 A 
ATOM     10  C   UNL     1       0.357   1.896 -22.843  1.00  0.00     0.146 A 
ATOM     11  O   UNL     1       0.956   2.530 -23.844  1.00  0.00    -0.452 OA
ENDROOT
BRANCH   1  12
ATOM     12  C   UNL     1       2.394   4.167 -24.873  1.00  0.00     0.021 A 
ATOM     13  C   UNL     1       3.550   3.602 -25.435  1.00  0.00     0.016 A 
ATOM     14  C   UNL     1       4.124   4.156 -26.582  1.00  0.00     0.047 A 
ATOM     15  C   UNL     1       3.542   5.271 -27.192  1.00  0.00     0.115 A 
ATOM     16  C   UNL     1       1.801   5.277 -25.502  1.00  0.00     0.016 A 
ATOM     17  C   UNL     1       2.377   5.830 -26.649  1.00  0.00     0.047 A 
BRANCH  15  18
ATOM     18  O   UNL     1       4.125   5.815 -28.334  1.00  0.00    -0.508 OA
ATOM     19  H   UNL     1       3.580   6.342 -29.008  1.00  0.00     0.293 HD
ENDBRANCH  15  18
ENDBRANCH   1  12
BRANCH   2  20
ATOM     20  O   UNL     1       2.991   5.039 -22.174  1.00  0.00    -0.502 OA
ATOM     21  H   UNL     1       3.976   4.876 -22.005  1.00  0.00     0.293 HD
ENDBRANCH   2  20
BRANCH   6  22
ATOM     22  O   UNL     1       0.187   1.719 -19.095  1.00  0.00    -0.507 OA
ATOM     23  H   UNL     1      -0.272   1.213 -18.351  1.00  0.00     0.293 HD
ENDBRANCH   6  22
BRANCH   8  24
ATOM     24  O   UNL     1      -2.095  -0.834 -22.458  1.00  0.00    -0.508 OA
ATOM     25  H   UNL     1      -3.055  -0.817 -22.133  1.00  0.00     0.293 HD
ENDBRANCH   8  24
TORSDOF 5
ENDMDL
MODEL 9
REMARK VINA RESULT:    -6.173      3.307      6.622
REMARK INTER + INTRA:          -7.212
REMARK INTER:                  -6.999
REMARK INTRA:                  -0.213
REMARK UNBOUND:                 0.044
REMARK SMILES O=c1c(O)c(-c2ccc(O)cc2)oc2cc(O)cc(O)c12
REMARK SMILES IDX 5 1 3 2 2 3 1 4 21 5 19 6 18 7 16 8 15 9 14 10 13 11 6 12
REMARK SMILES IDX 7 13 8 14 9 15 12 16 11 17 10 18 4 20 20 22 17 24
REMARK H PARENT 10 19 4 21 20 23 17 25
REMARK Flexibility Score: inf
ROOT
ATOM      1  C   UNL     1       0.756   2.895 -22.677  1.00  0.00     0.180 A 
ATOM      2  C   UNL     1       1.734   3.496 -23.488  1.00  0.00     0.208 A 
ATOM      3  C   UNL     1       1.391   3.881 -24.795  1.00  0.00     0.238 A 
ATOM      4  O   UNL     1       2.290   4.349 -25.540  1.00  0.00    -0.285 OA
ATOM      5  C   UNL     1       0.062   3.712 -25.253  1.00  0.00     0.111 A 
ATOM      6  C   UNL     1      -0.409   4.108 -26.543  1.00  0.00     0.134 A 
ATOM      7  C   UNL     1      -1.719   3.795 -26.926  1.00  0.00     0.093 A 
ATOM      8  C   UNL     1      -2.595   3.158 -26.043  1.00  0.00     0.123 A 
ATOM      9  C   UNL     1      -2.162   2.818 -24.764  1.00  0.00     0.094 A 
ATOM     10  C   UNL     1      -0.849   3.082 -24.366  1.00  0.00     0.146 A 
ATOM     11  O   UNL     1      -0.473   2.721 -23.145  1.00  0.00    -0.452 OA
ENDROOT
BRANCH   1  12
ATOM     12  C   UNL     1       1.045   2.449 -21.294  1.00  0.00     0.021 A 
ATOM     13  C   UNL     1       1.178   3.405 -20.273  1.00  0.00     0.016 A 
ATOM     14  C   UNL     1       1.428   3.005 -18.957  1.00  0.00     0.047 A 
ATOM     15  C   UNL     1       1.534   1.648 -18.641  1.00  0.00     0.115 A 
ATOM     16  C   UNL     1       1.132   1.083 -20.967  1.00  0.00     0.016 A 
ATOM     17  C   UNL     1       1.383   0.687 -19.650  1.00  0.00     0.047 A 
BRANCH  15  18
ATOM     18  O   UNL     1       1.785   1.264 -17.327  1.00  0.00    -0.508 OA
ATOM     19  H   UNL     1       1.084   1.364 -16.602  1.00  0.00     0.293 HD
ENDBRANCH  15  18
ENDBRANCH   1  12
BRANCH   2  20
ATOM     20  O   UNL     1       3.020   3.723 -22.991  1.00  0.00    -0.502 OA
ATOM     21  H   UNL     1       3.219   3.770 -22.000  1.00  0.00     0.293 HD
ENDBRANCH   2  20
BRANCH   6  22
ATOM     22  O   UNL     1       0.353   4.827 -27.468  1.00  0.00    -0.507 OA
ATOM     23  H   UNL     1       0.731   4.449 -28.324  1.00  0.00     0.293 HD
ENDBRANCH   6  22
BRANCH   8  24
ATOM     24  O   UNL     1      -3.902   2.866 -26.426  1.00  0.00    -0.508 OA
ATOM     25  H   UNL     1      -4.306   1.949 -26.273  1.00  0.00     0.293 HD
ENDBRANCH   8  24
TORSDOF 5
ENDMDL
