MODEL 1
REMARK VINA RESULT:    -2.932      0.000      0.000
REMARK INTER + INTRA:         -10.224
REMARK INTER:                  -6.361
REMARK INTRA:                  -3.863
REMARK UNBOUND:                -3.863
REMARK SMILES CCCCCCCCCCCCCCCCCCCCCC(=O)[O-]
REMARK SMILES IDX 12 1 11 2 10 3 9 4 8 5 7 6 6 7 5 8 4 9 3 10 2 11 1 12 13 13
REMARK SMILES IDX 14 14 15 15 16 16 17 17 18 18 19 19 20 20 21 21 22 22 23 23
REMARK SMILES IDX 24 24
REMARK H PARENT
REMARK Flexibility Score: inf
ROOT
ATOM      1  C   UNL     1       3.064  73.180  10.424  1.00  0.00     0.000 C 
ENDROOT
BRANCH   1   2
ATOM      2  C   UNL     1       2.369  73.160  11.802  1.00  0.00     0.000 C 
BRANCH   2   3
ATOM      3  C   UNL     1       2.444  71.798  12.520  1.00  0.00     0.000 C 
BRANCH   3   4
ATOM      4  C   UNL     1       1.101  71.058  12.670  1.00  0.00    -0.000 C 
BRANCH   4   5
ATOM      5  C   UNL     1       1.153  69.775  13.522  1.00  0.00    -0.000 C 
BRANCH   5   6
ATOM      6  C   UNL     1       1.640  68.548  12.732  1.00  0.00    -0.000 C 
BRANCH   6   7
ATOM      7  C   UNL     1       2.385  67.531  13.612  1.00  0.00    -0.000 C 
BRANCH   7   8
ATOM      8  C   UNL     1       3.542  66.842  12.863  1.00  0.00    -0.000 C 
BRANCH   8   9
ATOM      9  C   UNL     1       4.485  67.848  12.183  1.00  0.00    -0.000 C 
BRANCH   9  10
ATOM     10  C   UNL     1       5.244  68.721  13.194  1.00  0.00    -0.000 C 
BRANCH  10  11
ATOM     11  C   UNL     1       5.652  70.061  12.565  1.00  0.00    -0.003 C 
ATOM     12  C   UNL     1       5.296  70.105  11.082  1.00  0.00     0.004 C 
ENDBRANCH  10  11
ENDBRANCH   9  10
ENDBRANCH   8   9
ENDBRANCH   7   8
ENDBRANCH   6   7
ENDBRANCH   5   6
ENDBRANCH   4   5
ENDBRANCH   3   4
ENDBRANCH   2   3
ENDBRANCH   1   2
BRANCH   1  13
ATOM     13  C   UNL     1       2.062  73.222   9.258  1.00  0.00     0.000 C 
BRANCH  13  14
ATOM     14  C   UNL     1       1.910  71.862   8.557  1.00  0.00     0.000 C 
BRANCH  14  15
ATOM     15  C   UNL     1       0.571  71.174   8.876  1.00  0.00     0.000 C 
BRANCH  15  16
ATOM     16  C   UNL     1       0.742  69.689   9.235  1.00  0.00     0.000 C 
BRANCH  16  17
ATOM     17  C   UNL     1       2.212  69.241   9.214  1.00  0.00     0.000 C 
BRANCH  17  18
ATOM     18  C   UNL     1       2.313  67.708   9.199  1.00  0.00     0.000 C 
BRANCH  18  19
ATOM     19  C   UNL     1       0.945  67.023   9.352  1.00  0.00     0.000 C 
BRANCH  19  20
ATOM     20  C   UNL     1       1.045  65.489   9.325  1.00  0.00     0.006 C 
BRANCH  20  21
ATOM     21  C   UNL     1       2.404  65.021   9.854  1.00  0.00     0.053 C 
BRANCH  21  22
ATOM     22  C   UNL     1       2.996  63.983   8.951  1.00  0.00     0.041 C 
ATOM     23  O   UNL     1       3.165  62.805   9.364  1.00  0.00    -0.550 OA
ATOM     24  O   UNL     1       3.380  64.320   7.658  1.00  0.00    -0.550 OA
ENDBRANCH  21  22
ENDBRANCH  20  21
ENDBRANCH  19  20
ENDBRANCH  18  19
ENDBRANCH  17  18
ENDBRANCH  16  17
ENDBRANCH  15  16
ENDBRANCH  14  15
ENDBRANCH  13  14
ENDBRANCH   1  13
TORSDOF 20
ENDMDL
MODEL 2
REMARK VINA RESULT:    -2.897      5.711      8.995
REMARK INTER + INTRA:         -10.147
REMARK INTER:                  -6.809
REMARK INTRA:                  -3.338
REMARK UNBOUND:                -3.863
REMARK SMILES CCCCCCCCCCCCCCCCCCCCCC(=O)[O-]
REMARK SMILES IDX 12 1 11 2 10 3 9 4 8 5 7 6 6 7 5 8 4 9 3 10 2 11 1 12 13 13
REMARK SMILES IDX 14 14 15 15 16 16 17 17 18 18 19 19 20 20 21 21 22 22 23 23
REMARK SMILES IDX 24 24
REMARK H PARENT
REMARK Flexibility Score: inf
ROOT
ATOM      1  C   UNL     1       5.356  65.874  15.933  1.00  0.00     0.000 C 
ENDROOT
BRANCH   1   2
ATOM      2  C   UNL     1       5.640  64.569  16.706  1.00  0.00     0.000 C 
BRANCH   2   3
ATOM      3  C   UNL     1       4.410  63.997  17.440  1.00  0.00     0.000 C 
BRANCH   3   4
ATOM      4  C   UNL     1       4.049  62.542  17.084  1.00  0.00    -0.000 C 
BRANCH   4   5
ATOM      5  C   UNL     1       3.767  62.285  15.591  1.00  0.00    -0.000 C 
BRANCH   5   6
ATOM      6  C   UNL     1       2.434  62.893  15.118  1.00  0.00    -0.000 C 
BRANCH   6   7
ATOM      7  C   UNL     1       2.612  63.886  13.958  1.00  0.00    -0.000 C 
BRANCH   7   8
ATOM      8  C   UNL     1       1.768  65.161  14.142  1.00  0.00    -0.000 C 
BRANCH   8   9
ATOM      9  C   UNL     1       1.715  65.627  15.607  1.00  0.00    -0.000 C 
BRANCH   9  10
ATOM     10  C   UNL     1       0.277  65.775  16.126  1.00  0.00    -0.000 C 
BRANCH  10  11
ATOM     11  C   UNL     1      -0.721  65.852  14.963  1.00  0.00    -0.003 C 
ATOM     12  C   UNL     1      -1.744  64.721  15.038  1.00  0.00     0.004 C 
ENDBRANCH  10  11
ENDBRANCH   9  10
ENDBRANCH   8   9
ENDBRANCH   7   8
ENDBRANCH   6   7
ENDBRANCH   5   6
ENDBRANCH   4   5
ENDBRANCH   3   4
ENDBRANCH   2   3
ENDBRANCH   1   2
BRANCH   1  13
ATOM     13  C   UNL     1       5.465  65.692  14.409  1.00  0.00     0.000 C 
BRANCH  13  14
ATOM     14  C   UNL     1       5.080  66.962  13.632  1.00  0.00     0.000 C 
BRANCH  14  15
ATOM     15  C   UNL     1       4.857  68.177  14.550  1.00  0.00     0.000 C 
BRANCH  15  16
ATOM     16  C   UNL     1       3.685  69.058  14.087  1.00  0.00     0.000 C 
BRANCH  16  17
ATOM     17  C   UNL     1       2.562  69.145  15.133  1.00  0.00     0.000 C 
BRANCH  17  18
ATOM     18  C   UNL     1       3.117  68.912  16.547  1.00  0.00     0.000 C 
BRANCH  18  19
ATOM     19  C   UNL     1       2.063  69.141  17.643  1.00  0.00     0.000 C 
BRANCH  19  20
ATOM     20  C   UNL     1       2.673  69.674  18.949  1.00  0.00     0.006 C 
BRANCH  20  21
ATOM     21  C   UNL     1       1.821  70.808  19.527  1.00  0.00     0.053 C 
BRANCH  21  22
ATOM     22  C   UNL     1       2.273  72.134  19.001  1.00  0.00     0.041 C 
ATOM     23  O   UNL     1       1.486  73.118  19.001  1.00  0.00    -0.550 OA
ATOM     24  O   UNL     1       3.558  72.281  18.491  1.00  0.00    -0.550 OA
ENDBRANCH  21  22
ENDBRANCH  20  21
ENDBRANCH  19  20
ENDBRANCH  18  19
ENDBRANCH  17  18
ENDBRANCH  16  17
ENDBRANCH  15  16
ENDBRANCH  14  15
ENDBRANCH  13  14
ENDBRANCH   1  13
TORSDOF 20
ENDMDL
MODEL 3
REMARK VINA RESULT:    -2.895      1.386      3.570
REMARK INTER + INTRA:         -10.144
REMARK INTER:                  -6.474
REMARK INTRA:                  -3.670
REMARK UNBOUND:                -3.863
REMARK SMILES CCCCCCCCCCCCCCCCCCCCCC(=O)[O-]
REMARK SMILES IDX 12 1 11 2 10 3 9 4 8 5 7 6 6 7 5 8 4 9 3 10 2 11 1 12 13 13
REMARK SMILES IDX 14 14 15 15 16 16 17 17 18 18 19 19 20 20 21 21 22 22 23 23
REMARK SMILES IDX 24 24
REMARK H PARENT
REMARK Flexibility Score: inf
ROOT
ATOM      1  C   UNL     1      -0.250  69.265  10.202  1.00  0.00     0.000 C 
ENDROOT
BRANCH   1   2
ATOM      2  C   UNL     1       1.067  70.071  10.227  1.00  0.00     0.000 C 
BRANCH   2   3
ATOM      3  C   UNL     1       0.895  71.560   9.862  1.00  0.00     0.000 C 
BRANCH   3   4
ATOM      4  C   UNL     1       1.629  72.552  10.785  1.00  0.00    -0.000 C 
BRANCH   4   5
ATOM      5  C   UNL     1       2.036  71.988  12.160  1.00  0.00    -0.000 C 
BRANCH   5   6
ATOM      6  C   UNL     1       3.556  72.018  12.396  1.00  0.00    -0.000 C 
BRANCH   6   7
ATOM      7  C   UNL     1       4.361  72.035  11.087  1.00  0.00    -0.000 C 
BRANCH   7   8
ATOM      8  C   UNL     1       5.185  70.749  10.887  1.00  0.00    -0.000 C 
BRANCH   8   9
ATOM      9  C   UNL     1       4.395  69.480  11.248  1.00  0.00    -0.000 C 
BRANCH   9  10
ATOM     10  C   UNL     1       5.265  68.422  11.944  1.00  0.00    -0.000 C 
BRANCH  10  11
ATOM     11  C   UNL     1       5.590  68.840  13.385  1.00  0.00    -0.003 C 
ATOM     12  C   UNL     1       4.330  68.891  14.243  1.00  0.00     0.004 C 
ENDBRANCH  10  11
ENDBRANCH   9  10
ENDBRANCH   8   9
ENDBRANCH   7   8
ENDBRANCH   6   7
ENDBRANCH   5   6
ENDBRANCH   4   5
ENDBRANCH   3   4
ENDBRANCH   2   3
ENDBRANCH   1   2
BRANCH   1  13
ATOM     13  C   UNL     1      -0.334  68.238  11.343  1.00  0.00     0.000 C 
BRANCH  13  14
ATOM     14  C   UNL     1       0.630  68.555  12.498  1.00  0.00     0.000 C 
BRANCH  14  15
ATOM     15  C   UNL     1       1.330  67.300  13.051  1.00  0.00     0.000 C 
BRANCH  15  16
ATOM     16  C   UNL     1       1.308  66.128  12.057  1.00  0.00     0.000 C 
BRANCH  16  17
ATOM     17  C   UNL     1       2.677  65.884  11.401  1.00  0.00     0.000 C 
BRANCH  17  18
ATOM     18  C   UNL     1       2.671  66.357   9.939  1.00  0.00     0.000 C 
BRANCH  18  19
ATOM     19  C   UNL     1       1.457  65.835   9.153  1.00  0.00     0.000 C 
BRANCH  19  20
ATOM     20  C   UNL     1       1.844  65.247   7.787  1.00  0.00     0.006 C 
BRANCH  20  21
ATOM     21  C   UNL     1       3.005  64.258   7.927  1.00  0.00     0.053 C 
BRANCH  21  22
ATOM     22  C   UNL     1       2.553  63.003   8.607  1.00  0.00     0.041 C 
ATOM     23  O   UNL     1       3.234  62.511   9.546  1.00  0.00    -0.550 OA
ATOM     24  O   UNL     1       1.390  62.364   8.193  1.00  0.00    -0.550 OA
ENDBRANCH  21  22
ENDBRANCH  20  21
ENDBRANCH  19  20
ENDBRANCH  18  19
ENDBRANCH  17  18
ENDBRANCH  16  17
ENDBRANCH  15  16
ENDBRANCH  14  15
ENDBRANCH  13  14
ENDBRANCH   1  13
TORSDOF 20
ENDMDL
MODEL 4
REMARK VINA RESULT:    -2.891      8.194     11.320
REMARK INTER + INTRA:         -10.135
REMARK INTER:                  -6.583
REMARK INTRA:                  -3.553
REMARK UNBOUND:                -3.863
REMARK SMILES CCCCCCCCCCCCCCCCCCCCCC(=O)[O-]
REMARK SMILES IDX 12 1 11 2 10 3 9 4 8 5 7 6 6 7 5 8 4 9 3 10 2 11 1 12 13 13
REMARK SMILES IDX 14 14 15 15 16 16 17 17 18 18 19 19 20 20 21 21 22 22 23 23
REMARK SMILES IDX 24 24
REMARK H PARENT
REMARK Flexibility Score: inf
ROOT
ATOM      1  C   UNL     1       6.675  68.257  23.056  1.00  0.00     0.000 C 
ENDROOT
BRANCH   1   2
ATOM      2  C   UNL     1       5.420  69.083  22.704  1.00  0.00     0.000 C 
BRANCH   2   3
ATOM      3  C   UNL     1       4.937  68.898  21.251  1.00  0.00     0.000 C 
BRANCH   3   4
ATOM      4  C   UNL     1       3.464  69.270  20.994  1.00  0.00    -0.000 C 
BRANCH   4   5
ATOM      5  C   UNL     1       2.457  68.684  22.000  1.00  0.00    -0.000 C 
BRANCH   5   6
ATOM      6  C   UNL     1       1.080  68.396  21.375  1.00  0.00    -0.000 C 
BRANCH   6   7
ATOM      7  C   UNL     1       1.092  68.492  19.841  1.00  0.00    -0.000 C 
BRANCH   7   8
ATOM      8  C   UNL     1       0.213  69.644  19.317  1.00  0.00    -0.000 C 
BRANCH   8   9
ATOM      9  C   UNL     1       1.037  70.756  18.647  1.00  0.00    -0.000 C 
BRANCH   9  10
ATOM     10  C   UNL     1       1.018  72.067  19.448  1.00  0.00    -0.000 C 
BRANCH  10  11
ATOM     11  C   UNL     1       2.192  72.971  19.049  1.00  0.00    -0.003 C 
ATOM     12  C   UNL     1       3.359  72.153  18.504  1.00  0.00     0.004 C 
ENDBRANCH  10  11
ENDBRANCH   9  10
ENDBRANCH   8   9
ENDBRANCH   7   8
ENDBRANCH   6   7
ENDBRANCH   5   6
ENDBRANCH   4   5
ENDBRANCH   3   4
ENDBRANCH   2   3
ENDBRANCH   1   2
BRANCH   1  13
ATOM     13  C   UNL     1       7.182  67.419  21.869  1.00  0.00     0.000 C 
BRANCH  13  14
ATOM     14  C   UNL     1       6.770  65.942  21.969  1.00  0.00     0.000 C 
BRANCH  14  15
ATOM     15  C   UNL     1       6.574  65.475  23.423  1.00  0.00     0.000 C 
BRANCH  15  16
ATOM     16  C   UNL     1       5.247  64.727  23.628  1.00  0.00     0.000 C 
BRANCH  16  17
ATOM     17  C   UNL     1       4.039  65.676  23.706  1.00  0.00     0.000 C 
BRANCH  17  18
ATOM     18  C   UNL     1       2.846  65.102  22.927  1.00  0.00     0.000 C 
BRANCH  18  19
ATOM     19  C   UNL     1       3.261  64.473  21.587  1.00  0.00     0.000 C 
BRANCH  19  20
ATOM     20  C   UNL     1       2.986  65.397  20.389  1.00  0.00     0.006 C 
BRANCH  20  21
ATOM     21  C   UNL     1       4.240  65.560  19.525  1.00  0.00     0.053 C 
BRANCH  21  22
ATOM     22  C   UNL     1       3.977  65.116  18.120  1.00  0.00     0.041 C 
ATOM     23  O   UNL     1       3.266  65.820  17.355  1.00  0.00    -0.550 OA
ATOM     24  O   UNL     1       4.502  63.914  17.659  1.00  0.00    -0.550 OA
ENDBRANCH  21  22
ENDBRANCH  20  21
ENDBRANCH  19  20
ENDBRANCH  18  19
ENDBRANCH  17  18
ENDBRANCH  16  17
ENDBRANCH  15  16
ENDBRANCH  14  15
ENDBRANCH  13  14
ENDBRANCH   1  13
TORSDOF 20
ENDMDL
MODEL 5
REMARK VINA RESULT:    -2.869      2.618      4.317
REMARK INTER + INTRA:         -10.086
REMARK INTER:                  -6.834
REMARK INTRA:                  -3.252
REMARK UNBOUND:                -3.863
REMARK SMILES CCCCCCCCCCCCCCCCCCCCCC(=O)[O-]
REMARK SMILES IDX 12 1 11 2 10 3 9 4 8 5 7 6 6 7 5 8 4 9 3 10 2 11 1 12 13 13
REMARK SMILES IDX 14 14 15 15 16 16 17 17 18 18 19 19 20 20 21 21 22 22 23 23
REMARK SMILES IDX 24 24
REMARK H PARENT
REMARK Flexibility Score: inf
ROOT
ATOM      1  C   UNL     1       3.416  70.310   7.956  1.00  0.00     0.000 C 
ENDROOT
BRANCH   1   2
ATOM      2  C   UNL     1       2.436  69.385   8.709  1.00  0.00     0.000 C 
BRANCH   2   3
ATOM      3  C   UNL     1       0.959  69.813   8.592  1.00  0.00     0.000 C 
BRANCH   3   4
ATOM      4  C   UNL     1       0.242  70.076   9.931  1.00  0.00    -0.000 C 
BRANCH   4   5
ATOM      5  C   UNL     1       0.894  69.418  11.162  1.00  0.00    -0.000 C 
BRANCH   5   6
ATOM      6  C   UNL     1       1.538  70.437  12.119  1.00  0.00    -0.000 C 
BRANCH   6   7
ATOM      7  C   UNL     1       3.056  70.238  12.265  1.00  0.00    -0.000 C 
BRANCH   7   8
ATOM      8  C   UNL     1       3.850  71.516  11.936  1.00  0.00    -0.000 C 
BRANCH   8   9
ATOM      9  C   UNL     1       2.946  72.752  11.793  1.00  0.00    -0.000 C 
BRANCH   9  10
ATOM     10  C   UNL     1       3.063  73.411  10.411  1.00  0.00    -0.000 C 
BRANCH  10  11
ATOM     11  C   UNL     1       1.729  73.342   9.655  1.00  0.00    -0.003 C 
ATOM     12  C   UNL     1       1.886  73.817   8.213  1.00  0.00     0.004 C 
ENDBRANCH  10  11
ENDBRANCH   9  10
ENDBRANCH   8   9
ENDBRANCH   7   8
ENDBRANCH   6   7
ENDBRANCH   5   6
ENDBRANCH   4   5
ENDBRANCH   3   4
ENDBRANCH   2   3
ENDBRANCH   1   2
BRANCH   1  13
ATOM     13  C   UNL     1       4.835  70.274   8.549  1.00  0.00     0.000 C 
BRANCH  13  14
ATOM     14  C   UNL     1       5.918  70.053   7.480  1.00  0.00     0.000 C 
BRANCH  14  15
ATOM     15  C   UNL     1       5.331  69.698   6.102  1.00  0.00     0.000 C 
BRANCH  15  16
ATOM     16  C   UNL     1       5.875  68.368   5.555  1.00  0.00     0.000 C 
BRANCH  16  17
ATOM     17  C   UNL     1       4.775  67.490   4.936  1.00  0.00     0.000 C 
BRANCH  17  18
ATOM     18  C   UNL     1       4.484  66.274   5.829  1.00  0.00     0.000 C 
BRANCH  18  19
ATOM     19  C   UNL     1       3.029  66.237   6.323  1.00  0.00     0.000 C 
BRANCH  19  20
ATOM     20  C   UNL     1       2.919  65.902   7.819  1.00  0.00     0.006 C 
BRANCH  20  21
ATOM     21  C   UNL     1       2.742  64.396   8.031  1.00  0.00     0.053 C 
BRANCH  21  22
ATOM     22  C   UNL     1       1.299  64.011   7.923  1.00  0.00     0.041 C 
ATOM     23  O   UNL     1       0.399  64.829   8.251  1.00  0.00    -0.550 OA
ATOM     24  O   UNL     1       0.946  62.741   7.480  1.00  0.00    -0.550 OA
ENDBRANCH  21  22
ENDBRANCH  20  21
ENDBRANCH  19  20
ENDBRANCH  18  19
ENDBRANCH  17  18
ENDBRANCH  16  17
ENDBRANCH  15  16
ENDBRANCH  14  15
ENDBRANCH  13  14
ENDBRANCH   1  13
TORSDOF 20
ENDMDL
MODEL 6
REMARK VINA RESULT:    -2.861      3.212      6.216
REMARK INTER + INTRA:         -10.070
REMARK INTER:                  -6.630
REMARK INTRA:                  -3.440
REMARK UNBOUND:                -3.863
REMARK SMILES CCCCCCCCCCCCCCCCCCCCCC(=O)[O-]
REMARK SMILES IDX 12 1 11 2 10 3 9 4 8 5 7 6 6 7 5 8 4 9 3 10 2 11 1 12 13 13
REMARK SMILES IDX 14 14 15 15 16 16 17 17 18 18 19 19 20 20 21 21 22 22 23 23
REMARK SMILES IDX 24 24
REMARK H PARENT
REMARK Flexibility Score: inf
ROOT
ATOM      1  C   UNL     1       0.857  69.418  11.928  1.00  0.00     0.000 C 
ENDROOT
BRANCH   1   2
ATOM      2  C   UNL     1      -0.146  68.416  12.538  1.00  0.00     0.000 C 
BRANCH   2   3
ATOM      3  C   UNL     1       0.328  67.785  13.863  1.00  0.00     0.000 C 
BRANCH   3   4
ATOM      4  C   UNL     1       1.213  66.532  13.715  1.00  0.00    -0.000 C 
BRANCH   4   5
ATOM      5  C   UNL     1       1.123  65.826  12.349  1.00  0.00    -0.000 C 
BRANCH   5   6
ATOM      6  C   UNL     1       2.464  65.806  11.594  1.00  0.00    -0.000 C 
BRANCH   6   7
ATOM      7  C   UNL     1       2.335  66.291  10.141  1.00  0.00    -0.000 C 
BRANCH   7   8
ATOM      8  C   UNL     1       0.894  66.175   9.608  1.00  0.00    -0.000 C 
BRANCH   8   9
ATOM      9  C   UNL     1       0.755  65.107   8.510  1.00  0.00    -0.000 C 
BRANCH   9  10
ATOM     10  C   UNL     1       2.114  64.569   8.037  1.00  0.00    -0.000 C 
BRANCH  10  11
ATOM     11  C   UNL     1       2.176  63.041   8.172  1.00  0.00    -0.003 C 
ATOM     12  C   UNL     1       3.099  62.625   9.313  1.00  0.00     0.004 C 
ENDBRANCH  10  11
ENDBRANCH   9  10
ENDBRANCH   8   9
ENDBRANCH   7   8
ENDBRANCH   6   7
ENDBRANCH   5   6
ENDBRANCH   4   5
ENDBRANCH   3   4
ENDBRANCH   2   3
ENDBRANCH   1   2
BRANCH   1  13
ATOM     13  C   UNL     1       1.979  69.800  12.909  1.00  0.00     0.000 C 
BRANCH  13  14
ATOM     14  C   UNL     1       3.361  69.308  12.448  1.00  0.00     0.000 C 
BRANCH  14  15
ATOM     15  C   UNL     1       4.471  69.606  13.472  1.00  0.00     0.000 C 
BRANCH  15  16
ATOM     16  C   UNL     1       4.944  68.345  14.213  1.00  0.00     0.000 C 
BRANCH  16  17
ATOM     17  C   UNL     1       4.150  68.084  15.503  1.00  0.00     0.000 C 
BRANCH  17  18
ATOM     18  C   UNL     1       4.059  66.577  15.789  1.00  0.00     0.000 C 
BRANCH  18  19
ATOM     19  C   UNL     1       4.769  65.727  14.722  1.00  0.00     0.000 C 
BRANCH  19  20
ATOM     20  C   UNL     1       4.074  64.378  14.481  1.00  0.00     0.006 C 
BRANCH  20  21
ATOM     21  C   UNL     1       3.309  63.926  15.728  1.00  0.00     0.053 C 
BRANCH  21  22
ATOM     22  C   UNL     1       3.872  62.645  16.261  1.00  0.00     0.041 C 
ATOM     23  O   UNL     1       4.056  61.665  15.491  1.00  0.00    -0.550 OA
ATOM     24  O   UNL     1       4.177  62.525  17.612  1.00  0.00    -0.550 OA
ENDBRANCH  21  22
ENDBRANCH  20  21
ENDBRANCH  19  20
ENDBRANCH  18  19
ENDBRANCH  17  18
ENDBRANCH  16  17
ENDBRANCH  15  16
ENDBRANCH  14  15
ENDBRANCH  13  14
ENDBRANCH   1  13
TORSDOF 20
ENDMDL
MODEL 7
REMARK VINA RESULT:    -2.843      6.552      9.056
REMARK INTER + INTRA:         -10.030
REMARK INTER:                  -6.177
REMARK INTRA:                  -3.854
REMARK UNBOUND:                -3.863
REMARK SMILES CCCCCCCCCCCCCCCCCCCCCC(=O)[O-]
REMARK SMILES IDX 12 1 11 2 10 3 9 4 8 5 7 6 6 7 5 8 4 9 3 10 2 11 1 12 13 13
REMARK SMILES IDX 14 14 15 15 16 16 17 17 18 18 19 19 20 20 21 21 22 22 23 23
REMARK SMILES IDX 24 24
REMARK H PARENT
REMARK Flexibility Score: inf
ROOT
ATOM      1  C   UNL     1       1.674  65.975  16.952  1.00  0.00     0.000 C 
ENDROOT
BRANCH   1   2
ATOM      2  C   UNL     1       2.244  67.408  17.024  1.00  0.00     0.000 C 
BRANCH   2   3
ATOM      3  C   UNL     1       3.719  67.472  17.470  1.00  0.00     0.000 C 
BRANCH   3   4
ATOM      4  C   UNL     1       4.513  66.161  17.306  1.00  0.00    -0.000 C 
BRANCH   4   5
ATOM      5  C   UNL     1       5.055  65.558  18.616  1.00  0.00    -0.000 C 
BRANCH   5   6
ATOM      6  C   UNL     1       4.056  65.658  19.782  1.00  0.00    -0.000 C 
BRANCH   6   7
ATOM      7  C   UNL     1       4.733  66.022  21.114  1.00  0.00    -0.000 C 
BRANCH   7   8
ATOM      8  C   UNL     1       5.508  67.351  21.035  1.00  0.00    -0.000 C 
BRANCH   8   9
ATOM      9  C   UNL     1       4.773  68.505  21.737  1.00  0.00    -0.000 C 
BRANCH   9  10
ATOM     10  C   UNL     1       4.204  69.531  20.745  1.00  0.00    -0.000 C 
BRANCH  10  11
ATOM     11  C   UNL     1       2.697  69.324  20.545  1.00  0.00    -0.003 C 
ATOM     12  C   UNL     1       2.076  68.599  21.736  1.00  0.00     0.004 C 
ENDBRANCH  10  11
ENDBRANCH   9  10
ENDBRANCH   8   9
ENDBRANCH   7   8
ENDBRANCH   6   7
ENDBRANCH   5   6
ENDBRANCH   4   5
ENDBRANCH   3   4
ENDBRANCH   2   3
ENDBRANCH   1   2
BRANCH   1  13
ATOM     13  C   UNL     1       0.602  65.821  15.859  1.00  0.00     0.000 C 
BRANCH  13  14
ATOM     14  C   UNL     1       0.955  64.733  14.832  1.00  0.00     0.000 C 
BRANCH  14  15
ATOM     15  C   UNL     1       2.305  64.987  14.137  1.00  0.00     0.000 C 
BRANCH  15  16
ATOM     16  C   UNL     1       3.306  63.842  14.359  1.00  0.00     0.000 C 
BRANCH  16  17
ATOM     17  C   UNL     1       2.732  62.716  15.234  1.00  0.00     0.000 C 
BRANCH  17  18
ATOM     18  C   UNL     1       3.725  62.326  16.339  1.00  0.00     0.000 C 
BRANCH  18  19
ATOM     19  C   UNL     1       3.142  62.509  17.750  1.00  0.00     0.000 C 
BRANCH  19  20
ATOM     20  C   UNL     1       1.672  62.070  17.845  1.00  0.00     0.006 C 
BRANCH  20  21
ATOM     21  C   UNL     1       0.872  63.028  18.732  1.00  0.00     0.053 C 
BRANCH  21  22
ATOM     22  C   UNL     1      -0.590  62.944  18.419  1.00  0.00     0.041 C 
ATOM     23  O   UNL     1      -0.984  62.951  17.222  1.00  0.00    -0.550 OA
ATOM     24  O   UNL     1      -1.521  62.877  19.449  1.00  0.00    -0.550 OA
ENDBRANCH  21  22
ENDBRANCH  20  21
ENDBRANCH  19  20
ENDBRANCH  18  19
ENDBRANCH  17  18
ENDBRANCH  16  17
ENDBRANCH  15  16
ENDBRANCH  14  15
ENDBRANCH  13  14
ENDBRANCH   1  13
TORSDOF 20
ENDMDL
MODEL 8
REMARK VINA RESULT:    -2.812      5.538      9.048
REMARK INTER + INTRA:          -9.963
REMARK INTER:                  -6.256
REMARK INTRA:                  -3.707
REMARK UNBOUND:                -3.863
REMARK SMILES CCCCCCCCCCCCCCCCCCCCCC(=O)[O-]
REMARK SMILES IDX 12 1 11 2 10 3 9 4 8 5 7 6 6 7 5 8 4 9 3 10 2 11 1 12 13 13
REMARK SMILES IDX 14 14 15 15 16 16 17 17 18 18 19 19 20 20 21 21 22 22 23 23
REMARK SMILES IDX 24 24
REMARK H PARENT
REMARK Flexibility Score: inf
ROOT
ATOM      1  C   UNL     1       6.086  64.364  16.970  1.00  0.00     0.000 C 
ENDROOT
BRANCH   1   2
ATOM      2  C   UNL     1       5.812  62.845  16.988  1.00  0.00     0.000 C 
BRANCH   2   3
ATOM      3  C   UNL     1       4.314  62.480  16.950  1.00  0.00     0.000 C 
BRANCH   3   4
ATOM      4  C   UNL     1       3.747  62.171  15.551  1.00  0.00    -0.000 C 
BRANCH   4   5
ATOM      5  C   UNL     1       2.497  62.981  15.160  1.00  0.00    -0.000 C 
BRANCH   5   6
ATOM      6  C   UNL     1       2.774  64.021  14.059  1.00  0.00    -0.000 C 
BRANCH   6   7
ATOM      7  C   UNL     1       1.661  65.075  13.944  1.00  0.00    -0.000 C 
BRANCH   7   8
ATOM      8  C   UNL     1       1.460  65.862  15.253  1.00  0.00    -0.000 C 
BRANCH   8   9
ATOM      9  C   UNL     1       0.000  65.836  15.737  1.00  0.00    -0.000 C 
BRANCH   9  10
ATOM     10  C   UNL     1      -0.112  65.710  17.264  1.00  0.00    -0.000 C 
BRANCH  10  11
ATOM     11  C   UNL     1       0.231  64.286  17.724  1.00  0.00    -0.003 C 
ATOM     12  C   UNL     1       1.461  64.278  18.627  1.00  0.00     0.004 C 
ENDBRANCH  10  11
ENDBRANCH   9  10
ENDBRANCH   8   9
ENDBRANCH   7   8
ENDBRANCH   6   7
ENDBRANCH   5   6
ENDBRANCH   4   5
ENDBRANCH   3   4
ENDBRANCH   2   3
ENDBRANCH   1   2
BRANCH   1  13
ATOM     13  C   UNL     1       4.960  65.174  17.635  1.00  0.00     0.000 C 
BRANCH  13  14
ATOM     14  C   UNL     1       4.472  66.340  16.759  1.00  0.00     0.000 C 
BRANCH  14  15
ATOM     15  C   UNL     1       5.494  66.741  15.679  1.00  0.00     0.000 C 
BRANCH  15  16
ATOM     16  C   UNL     1       4.824  67.174  14.365  1.00  0.00     0.000 C 
BRANCH  16  17
ATOM     17  C   UNL     1       4.522  68.680  14.323  1.00  0.00     0.000 C 
BRANCH  17  18
ATOM     18  C   UNL     1       3.023  68.929  14.099  1.00  0.00     0.000 C 
BRANCH  18  19
ATOM     19  C   UNL     1       2.466  70.045  14.997  1.00  0.00     0.000 C 
BRANCH  19  20
ATOM     20  C   UNL     1       1.877  69.509  16.312  1.00  0.00     0.006 C 
BRANCH  20  21
ATOM     21  C   UNL     1       2.844  69.736  17.477  1.00  0.00     0.053 C 
BRANCH  21  22
ATOM     22  C   UNL     1       2.490  70.984  18.226  1.00  0.00     0.041 C 
ATOM     23  O   UNL     1       3.371  71.852  18.464  1.00  0.00    -0.550 OA
ATOM     24  O   UNL     1       1.190  71.181  18.677  1.00  0.00    -0.550 OA
ENDBRANCH  21  22
ENDBRANCH  20  21
ENDBRANCH  19  20
ENDBRANCH  18  19
ENDBRANCH  17  18
ENDBRANCH  16  17
ENDBRANCH  15  16
ENDBRANCH  14  15
ENDBRANCH  13  14
ENDBRANCH   1  13
TORSDOF 20
ENDMDL
MODEL 9
REMARK VINA RESULT:    -2.810      5.467      8.629
REMARK INTER + INTRA:          -9.958
REMARK INTER:                  -5.963
REMARK INTRA:                  -3.996
REMARK UNBOUND:                -3.863
REMARK SMILES CCCCCCCCCCCCCCCCCCCCCC(=O)[O-]
REMARK SMILES IDX 12 1 11 2 10 3 9 4 8 5 7 6 6 7 5 8 4 9 3 10 2 11 1 12 13 13
REMARK SMILES IDX 14 14 15 15 16 16 17 17 18 18 19 19 20 20 21 21 22 22 23 23
REMARK SMILES IDX 24 24
REMARK H PARENT
REMARK Flexibility Score: inf
ROOT
ATOM      1  C   UNL     1       0.981  66.496  16.849  1.00  0.00     0.000 C 
ENDROOT
BRANCH   1   2
ATOM      2  C   UNL     1       2.411  66.751  17.374  1.00  0.00     0.000 C 
BRANCH   2   3
ATOM      3  C   UNL     1       3.250  65.469  17.548  1.00  0.00     0.000 C 
BRANCH   3   4
ATOM      4  C   UNL     1       4.659  65.516  16.925  1.00  0.00    -0.000 C 
BRANCH   4   5
ATOM      5  C   UNL     1       4.854  66.580  15.828  1.00  0.00    -0.000 C 
BRANCH   5   6
ATOM      6  C   UNL     1       4.915  65.981  14.412  1.00  0.00    -0.000 C 
BRANCH   6   7
ATOM      7  C   UNL     1       3.779  66.481  13.505  1.00  0.00    -0.000 C 
BRANCH   7   8
ATOM      8  C   UNL     1       2.930  65.328  12.938  1.00  0.00    -0.000 C 
BRANCH   8   9
ATOM      9  C   UNL     1       3.132  64.012  13.708  1.00  0.00    -0.000 C 
BRANCH   9  10
ATOM     10  C   UNL     1       1.935  63.666  14.607  1.00  0.00    -0.000 C 
BRANCH  10  11
ATOM     11  C   UNL     1       2.283  62.519  15.566  1.00  0.00    -0.003 C 
ATOM     12  C   UNL     1       3.768  62.175  15.500  1.00  0.00     0.004 C 
ENDBRANCH  10  11
ENDBRANCH   9  10
ENDBRANCH   8   9
ENDBRANCH   7   8
ENDBRANCH   6   7
ENDBRANCH   5   6
ENDBRANCH   4   5
ENDBRANCH   3   4
ENDBRANCH   2   3
ENDBRANCH   1   2
BRANCH   1  13
ATOM     13  C   UNL     1       0.756  67.080  15.444  1.00  0.00     0.000 C 
BRANCH  13  14
ATOM     14  C   UNL     1       0.705  68.617  15.443  1.00  0.00     0.000 C 
BRANCH  14  15
ATOM     15  C   UNL     1       1.691  69.244  14.441  1.00  0.00     0.000 C 
BRANCH  15  16
ATOM     16  C   UNL     1       2.549  70.352  15.074  1.00  0.00     0.000 C 
BRANCH  16  17
ATOM     17  C   UNL     1       2.968  70.024  16.516  1.00  0.00     0.000 C 
BRANCH  17  18
ATOM     18  C   UNL     1       2.616  71.183  17.461  1.00  0.00     0.000 C 
BRANCH  18  19
ATOM     19  C   UNL     1       2.299  70.709  18.888  1.00  0.00     0.000 C 
BRANCH  19  20
ATOM     20  C   UNL     1       0.816  70.882  19.254  1.00  0.00     0.006 C 
BRANCH  20  21
ATOM     21  C   UNL     1       0.005  69.650  18.842  1.00  0.00     0.053 C 
BRANCH  21  22
ATOM     22  C   UNL     1      -0.418  68.866  20.046  1.00  0.00     0.041 C 
ATOM     23  O   UNL     1       0.147  67.775  20.322  1.00  0.00    -0.550 OA
ATOM     24  O   UNL     1      -1.450  69.330  20.853  1.00  0.00    -0.550 OA
ENDBRANCH  21  22
ENDBRANCH  20  21
ENDBRANCH  19  20
ENDBRANCH  18  19
ENDBRANCH  17  18
ENDBRANCH  16  17
ENDBRANCH  15  16
ENDBRANCH  14  15
ENDBRANCH  13  14
ENDBRANCH   1  13
TORSDOF 20
ENDMDL
