MODEL 1
REMARK VINA RESULT:    -3.410      0.000      0.000
REMARK INTER + INTRA:          -7.925
REMARK INTER:                  -6.200
REMARK INTRA:                  -1.725
REMARK UNBOUND:                -1.725
REMARK SMILES CCCCCCCCCCCCCCCC(=O)[O-]
REMARK SMILES IDX 9 1 10 2 11 3 12 4 13 5 14 6 15 7 16 8 17 9 18 10 8 11 7 12
REMARK SMILES IDX 6 13 5 14 4 15 3 16 2 17 1 18
REMARK H PARENT
REMARK Flexibility Score: inf
ROOT
ATOM      1  C   UNL     1      10.320 -17.515  -2.516  1.00  0.00     0.000 C 
ENDROOT
BRANCH   1   2
ATOM      2  C   UNL     1      10.562 -18.855  -3.235  1.00  0.00     0.000 C 
BRANCH   2   3
ATOM      3  C   UNL     1      11.735 -18.858  -4.237  1.00  0.00     0.000 C 
BRANCH   3   4
ATOM      4  C   UNL     1      11.340 -19.057  -5.711  1.00  0.00     0.000 C 
BRANCH   4   5
ATOM      5  C   UNL     1      10.969 -17.739  -6.412  1.00  0.00     0.000 C 
BRANCH   5   6
ATOM      6  C   UNL     1       9.496 -17.700  -6.852  1.00  0.00     0.006 C 
BRANCH   6   7
ATOM      7  C   UNL     1       9.224 -18.570  -8.087  1.00  0.00     0.053 C 
BRANCH   7   8
ATOM      8  C   UNL     1       7.809 -18.402  -8.542  1.00  0.00     0.041 C 
ATOM      9  O   UNL     1       7.492 -18.650  -9.735  1.00  0.00    -0.550 OA
ATOM     10  O   UNL     1       6.828 -18.019  -7.635  1.00  0.00    -0.550 OA
ENDBRANCH   7   8
ENDBRANCH   6   7
ENDBRANCH   5   6
ENDBRANCH   4   5
ENDBRANCH   3   4
ENDBRANCH   2   3
ENDBRANCH   1   2
BRANCH   1  11
ATOM     11  C   UNL     1       9.707 -16.447  -3.434  1.00  0.00     0.000 C 
BRANCH  11  12
ATOM     12  C   UNL     1      10.392 -15.090  -3.233  1.00  0.00    -0.000 C 
BRANCH  12  13
ATOM     13  C   UNL     1      11.092 -14.632  -4.521  1.00  0.00    -0.000 C 
BRANCH  13  14
ATOM     14  C   UNL     1      12.533 -15.153  -4.631  1.00  0.00    -0.000 C 
BRANCH  14  15
ATOM     15  C   UNL     1      13.268 -15.150  -3.280  1.00  0.00    -0.000 C 
BRANCH  15  16
ATOM     16  C   UNL     1      14.307 -16.277  -3.170  1.00  0.00    -0.000 C 
BRANCH  16  17
ATOM     17  C   UNL     1      14.257 -17.248  -4.359  1.00  0.00    -0.003 C 
ATOM     18  C   UNL     1      15.452 -18.197  -4.343  1.00  0.00     0.004 C 
ENDBRANCH  16  17
ENDBRANCH  15  16
ENDBRANCH  14  15
ENDBRANCH  13  14
ENDBRANCH  12  13
ENDBRANCH  11  12
ENDBRANCH   1  11
TORSDOF 14
ENDMDL
MODEL 2
REMARK VINA RESULT:    -3.374      3.067      6.068
REMARK INTER + INTRA:          -7.861
REMARK INTER:                  -6.573
REMARK INTRA:                  -1.288
REMARK UNBOUND:                -1.725
REMARK SMILES CCCCCCCCCCCCCCCC(=O)[O-]
REMARK SMILES IDX 9 1 10 2 11 3 12 4 13 5 14 6 15 7 16 8 17 9 18 10 8 11 7 12
REMARK SMILES IDX 6 13 5 14 4 15 3 16 2 17 1 18
REMARK H PARENT
REMARK Flexibility Score: inf
ROOT
ATOM      1  C   UNL     1       9.776 -18.003  -2.176  1.00  0.00     0.000 C 
ENDROOT
BRANCH   1   2
ATOM      2  C   UNL     1      10.324 -16.648  -2.657  1.00  0.00     0.000 C 
BRANCH   2   3
ATOM      3  C   UNL     1       9.520 -15.981  -3.792  1.00  0.00     0.000 C 
BRANCH   3   4
ATOM      4  C   UNL     1      10.021 -14.591  -4.224  1.00  0.00     0.000 C 
BRANCH   4   5
ATOM      5  C   UNL     1      10.903 -14.641  -5.483  1.00  0.00     0.000 C 
BRANCH   5   6
ATOM      6  C   UNL     1      12.309 -15.191  -5.197  1.00  0.00     0.006 C 
BRANCH   6   7
ATOM      7  C   UNL     1      12.844 -14.765  -3.823  1.00  0.00     0.053 C 
BRANCH   7   8
ATOM      8  C   UNL     1      13.854 -15.750  -3.327  1.00  0.00     0.041 C 
ATOM      9  O   UNL     1      14.433 -15.565  -2.225  1.00  0.00    -0.550 OA
ATOM     10  O   UNL     1      14.119 -16.901  -4.059  1.00  0.00    -0.550 OA
ENDBRANCH   7   8
ENDBRANCH   6   7
ENDBRANCH   5   6
ENDBRANCH   4   5
ENDBRANCH   3   4
ENDBRANCH   2   3
ENDBRANCH   1   2
BRANCH   1  11
ATOM     11  C   UNL     1      10.621 -19.193  -2.657  1.00  0.00     0.000 C 
BRANCH  11  12
ATOM     12  C   UNL     1      11.545 -18.781  -3.810  1.00  0.00    -0.000 C 
BRANCH  12  13
ATOM     13  C   UNL     1      11.060 -19.373  -5.141  1.00  0.00    -0.000 C 
BRANCH  13  14
ATOM     14  C   UNL     1      11.298 -18.432  -6.332  1.00  0.00    -0.000 C 
BRANCH  14  15
ATOM     15  C   UNL     1      10.000 -17.778  -6.837  1.00  0.00    -0.000 C 
BRANCH  15  16
ATOM     16  C   UNL     1       9.356 -18.558  -7.994  1.00  0.00    -0.000 C 
BRANCH  16  17
ATOM     17  C   UNL     1       7.844 -18.312  -8.105  1.00  0.00    -0.003 C 
ATOM     18  C   UNL     1       7.355 -18.539  -9.533  1.00  0.00     0.004 C 
ENDBRANCH  16  17
ENDBRANCH  15  16
ENDBRANCH  14  15
ENDBRANCH  13  14
ENDBRANCH  12  13
ENDBRANCH  11  12
ENDBRANCH   1  11
TORSDOF 14
ENDMDL
MODEL 3
REMARK VINA RESULT:    -3.336      3.234      6.030
REMARK INTER + INTRA:          -7.792
REMARK INTER:                  -6.125
REMARK INTRA:                  -1.666
REMARK UNBOUND:                -1.725
REMARK SMILES CCCCCCCCCCCCCCCC(=O)[O-]
REMARK SMILES IDX 9 1 10 2 11 3 12 4 13 5 14 6 15 7 16 8 17 9 18 10 8 11 7 12
REMARK SMILES IDX 6 13 5 14 4 15 3 16 2 17 1 18
REMARK H PARENT
REMARK Flexibility Score: inf
ROOT
ATOM      1  C   UNL     1       9.663 -16.646  -3.506  1.00  0.00     0.000 C 
ENDROOT
BRANCH   1   2
ATOM      2  C   UNL     1      10.110 -15.173  -3.466  1.00  0.00     0.000 C 
BRANCH   2   3
ATOM      3  C   UNL     1      10.714 -14.637  -4.780  1.00  0.00     0.000 C 
BRANCH   3   4
ATOM      4  C   UNL     1      12.227 -14.360  -4.743  1.00  0.00     0.000 C 
BRANCH   4   5
ATOM      5  C   UNL     1      12.966 -15.224  -3.708  1.00  0.00     0.000 C 
BRANCH   5   6
ATOM      6  C   UNL     1      13.662 -16.439  -4.343  1.00  0.00     0.006 C 
BRANCH   6   7
ATOM      7  C   UNL     1      14.879 -16.913  -3.536  1.00  0.00     0.053 C 
BRANCH   7   8
ATOM      8  C   UNL     1      15.436 -18.171  -4.122  1.00  0.00     0.041 C 
ATOM      9  O   UNL     1      14.769 -18.829  -4.962  1.00  0.00    -0.550 OA
ATOM     10  O   UNL     1      16.715 -18.591  -3.778  1.00  0.00    -0.550 OA
ENDBRANCH   7   8
ENDBRANCH   6   7
ENDBRANCH   5   6
ENDBRANCH   4   5
ENDBRANCH   3   4
ENDBRANCH   2   3
ENDBRANCH   1   2
BRANCH   1  11
ATOM     11  C   UNL     1      10.241 -17.476  -2.349  1.00  0.00     0.000 C 
BRANCH  11  12
ATOM     12  C   UNL     1      10.577 -18.900  -2.809  1.00  0.00    -0.000 C 
BRANCH  12  13
ATOM     13  C   UNL     1      11.605 -18.882  -3.949  1.00  0.00    -0.000 C 
BRANCH  13  14
ATOM     14  C   UNL     1      11.004 -19.303  -5.299  1.00  0.00    -0.000 C 
BRANCH  14  15
ATOM     15  C   UNL     1      11.161 -18.220  -6.380  1.00  0.00    -0.000 C 
BRANCH  15  16
ATOM     16  C   UNL     1       9.814 -17.765  -6.962  1.00  0.00    -0.000 C 
BRANCH  16  17
ATOM     17  C   UNL     1       9.329 -18.666  -8.108  1.00  0.00    -0.003 C 
ATOM     18  C   UNL     1       7.864 -18.392  -8.438  1.00  0.00     0.004 C 
ENDBRANCH  16  17
ENDBRANCH  15  16
ENDBRANCH  14  15
ENDBRANCH  13  14
ENDBRANCH  12  13
ENDBRANCH  11  12
ENDBRANCH   1  11
TORSDOF 14
ENDMDL
MODEL 4
REMARK VINA RESULT:    -3.327      4.734      7.176
REMARK INTER + INTRA:          -7.774
REMARK INTER:                  -6.475
REMARK INTRA:                  -1.300
REMARK UNBOUND:                -1.725
REMARK SMILES CCCCCCCCCCCCCCCC(=O)[O-]
REMARK SMILES IDX 9 1 10 2 11 3 12 4 13 5 14 6 15 7 16 8 17 9 18 10 8 11 7 12
REMARK SMILES IDX 6 13 5 14 4 15 3 16 2 17 1 18
REMARK H PARENT
REMARK Flexibility Score: inf
ROOT
ATOM      1  C   UNL     1      13.087 -18.893  -4.573  1.00  0.00     0.000 C 
ENDROOT
BRANCH   1   2
ATOM      2  C   UNL     1      14.309 -17.957  -4.558  1.00  0.00     0.000 C 
BRANCH   2   3
ATOM      3  C   UNL     1      15.671 -18.655  -4.752  1.00  0.00     0.000 C 
BRANCH   3   4
ATOM      4  C   UNL     1      16.660 -18.503  -3.582  1.00  0.00     0.000 C 
BRANCH   4   5
ATOM      5  C   UNL     1      17.735 -19.603  -3.564  1.00  0.00     0.000 C 
BRANCH   5   6
ATOM      6  C   UNL     1      17.479 -20.660  -2.478  1.00  0.00     0.006 C 
BRANCH   6   7
ATOM      7  C   UNL     1      17.587 -22.095  -3.012  1.00  0.00     0.053 C 
BRANCH   7   8
ATOM      8  C   UNL     1      16.798 -23.032  -2.153  1.00  0.00     0.041 C 
ATOM      9  O   UNL     1      15.645 -23.396  -2.503  1.00  0.00    -0.550 OA
ATOM     10  O   UNL     1      17.357 -23.544  -0.988  1.00  0.00    -0.550 OA
ENDBRANCH   7   8
ENDBRANCH   6   7
ENDBRANCH   5   6
ENDBRANCH   4   5
ENDBRANCH   3   4
ENDBRANCH   2   3
ENDBRANCH   1   2
BRANCH   1  11
ATOM     11  C   UNL     1      12.023 -18.468  -5.596  1.00  0.00     0.000 C 
BRANCH  11  12
ATOM     12  C   UNL     1      10.665 -18.248  -4.919  1.00  0.00    -0.000 C 
BRANCH  12  13
ATOM     13  C   UNL     1      10.765 -18.468  -3.402  1.00  0.00    -0.000 C 
BRANCH  13  14
ATOM     14  C   UNL     1      10.165 -17.308  -2.592  1.00  0.00    -0.000 C 
BRANCH  14  15
ATOM     15  C   UNL     1      10.357 -15.946  -3.281  1.00  0.00    -0.000 C 
BRANCH  15  16
ATOM     16  C   UNL     1      11.827 -15.498  -3.308  1.00  0.00    -0.000 C 
BRANCH  16  17
ATOM     17  C   UNL     1      12.211 -14.806  -4.624  1.00  0.00    -0.003 C 
ATOM     18  C   UNL     1      10.988 -14.193  -5.299  1.00  0.00     0.004 C 
ENDBRANCH  16  17
ENDBRANCH  15  16
ENDBRANCH  14  15
ENDBRANCH  13  14
ENDBRANCH  12  13
ENDBRANCH  11  12
ENDBRANCH   1  11
TORSDOF 14
ENDMDL
MODEL 5
REMARK VINA RESULT:    -3.305      3.483      5.933
REMARK INTER + INTRA:          -7.734
REMARK INTER:                  -6.888
REMARK INTRA:                  -0.846
REMARK UNBOUND:                -1.725
REMARK SMILES CCCCCCCCCCCCCCCC(=O)[O-]
REMARK SMILES IDX 9 1 10 2 11 3 12 4 13 5 14 6 15 7 16 8 17 9 18 10 8 11 7 12
REMARK SMILES IDX 6 13 5 14 4 15 3 16 2 17 1 18
REMARK H PARENT
REMARK Flexibility Score: inf
ROOT
ATOM      1  C   UNL     1      14.000 -17.628  -4.455  1.00  0.00     0.000 C 
ENDROOT
BRANCH   1   2
ATOM      2  C   UNL     1      14.369 -16.437  -3.553  1.00  0.00     0.000 C 
BRANCH   2   3
ATOM      3  C   UNL     1      13.283 -15.349  -3.425  1.00  0.00     0.000 C 
BRANCH   3   4
ATOM      4  C   UNL     1      12.314 -15.246  -4.617  1.00  0.00     0.000 C 
BRANCH   4   5
ATOM      5  C   UNL     1      10.926 -14.721  -4.213  1.00  0.00     0.000 C 
BRANCH   5   6
ATOM      6  C   UNL     1       9.888 -15.847  -4.074  1.00  0.00     0.006 C 
BRANCH   6   7
ATOM      7  C   UNL     1      10.418 -17.204  -4.557  1.00  0.00     0.053 C 
BRANCH   7   8
ATOM      8  C   UNL     1      10.617 -18.129  -3.398  1.00  0.00     0.041 C 
ATOM      9  O   UNL     1      11.245 -19.209  -3.549  1.00  0.00    -0.550 OA
ATOM     10  O   UNL     1      10.151 -17.774  -2.138  1.00  0.00    -0.550 OA
ENDBRANCH   7   8
ENDBRANCH   6   7
ENDBRANCH   5   6
ENDBRANCH   4   5
ENDBRANCH   3   4
ENDBRANCH   2   3
ENDBRANCH   1   2
BRANCH   1  11
ATOM     11  C   UNL     1      15.175 -18.591  -4.683  1.00  0.00     0.000 C 
BRANCH  11  12
ATOM     12  C   UNL     1      16.337 -18.275  -3.734  1.00  0.00    -0.000 C 
BRANCH  12  13
ATOM     13  C   UNL     1      17.486 -19.277  -3.919  1.00  0.00    -0.000 C 
BRANCH  13  14
ATOM     14  C   UNL     1      17.798 -20.066  -2.638  1.00  0.00    -0.000 C 
BRANCH  14  15
ATOM     15  C   UNL     1      17.877 -21.583  -2.884  1.00  0.00    -0.000 C 
BRANCH  15  16
ATOM     16  C   UNL     1      16.972 -22.384  -1.935  1.00  0.00    -0.000 C 
BRANCH  16  17
ATOM     17  C   UNL     1      16.158 -23.464  -2.663  1.00  0.00    -0.003 C 
ATOM     18  C   UNL     1      15.015 -23.972  -1.789  1.00  0.00     0.004 C 
ENDBRANCH  16  17
ENDBRANCH  15  16
ENDBRANCH  14  15
ENDBRANCH  13  14
ENDBRANCH  12  13
ENDBRANCH  11  12
ENDBRANCH   1  11
TORSDOF 14
ENDMDL
MODEL 6
REMARK VINA RESULT:    -3.157      3.686      6.079
REMARK INTER + INTRA:          -7.465
REMARK INTER:                  -6.747
REMARK INTRA:                  -0.719
REMARK UNBOUND:                -1.725
REMARK SMILES CCCCCCCCCCCCCCCC(=O)[O-]
REMARK SMILES IDX 9 1 10 2 11 3 12 4 13 5 14 6 15 7 16 8 17 9 18 10 8 11 7 12
REMARK SMILES IDX 6 13 5 14 4 15 3 16 2 17 1 18
REMARK H PARENT
REMARK Flexibility Score: inf
ROOT
ATOM      1  C   UNL     1      14.266 -17.945  -4.440  1.00  0.00     0.000 C 
ENDROOT
BRANCH   1   2
ATOM      2  C   UNL     1      13.110 -18.900  -4.785  1.00  0.00     0.000 C 
BRANCH   2   3
ATOM      3  C   UNL     1      11.700 -18.280  -4.698  1.00  0.00     0.000 C 
BRANCH   3   4
ATOM      4  C   UNL     1      10.979 -18.474  -3.352  1.00  0.00     0.000 C 
BRANCH   4   5
ATOM      5  C   UNL     1      10.319 -17.184  -2.838  1.00  0.00     0.000 C 
BRANCH   5   6
ATOM      6  C   UNL     1       9.924 -16.230  -3.977  1.00  0.00     0.006 C 
BRANCH   6   7
ATOM      7  C   UNL     1      10.467 -14.809  -3.775  1.00  0.00     0.053 C 
BRANCH   7   8
ATOM      8  C   UNL     1      11.229 -14.365  -4.983  1.00  0.00     0.041 C 
ATOM      9  O   UNL     1      11.808 -13.247  -4.993  1.00  0.00    -0.550 OA
ATOM     10  O   UNL     1      11.341 -15.207  -6.082  1.00  0.00    -0.550 OA
ENDBRANCH   7   8
ENDBRANCH   6   7
ENDBRANCH   5   6
ENDBRANCH   4   5
ENDBRANCH   3   4
ENDBRANCH   2   3
ENDBRANCH   1   2
BRANCH   1  11
ATOM     11  C   UNL     1      15.646 -18.537  -4.763  1.00  0.00     0.000 C 
BRANCH  11  12
ATOM     12  C   UNL     1      16.552 -18.531  -3.525  1.00  0.00    -0.000 C 
BRANCH  12  13
ATOM     13  C   UNL     1      17.734 -19.494  -3.704  1.00  0.00    -0.000 C 
BRANCH  13  14
ATOM     14  C   UNL     1      17.955 -20.397  -2.481  1.00  0.00    -0.000 C 
BRANCH  14  15
ATOM     15  C   UNL     1      17.252 -21.759  -2.617  1.00  0.00    -0.000 C 
BRANCH  15  16
ATOM     16  C   UNL     1      17.500 -22.676  -1.409  1.00  0.00    -0.000 C 
BRANCH  16  17
ATOM     17  C   UNL     1      16.679 -23.972  -1.470  1.00  0.00    -0.003 C 
ATOM     18  C   UNL     1      15.456 -23.805  -2.366  1.00  0.00     0.004 C 
ENDBRANCH  16  17
ENDBRANCH  15  16
ENDBRANCH  14  15
ENDBRANCH  13  14
ENDBRANCH  12  13
ENDBRANCH  11  12
ENDBRANCH   1  11
TORSDOF 14
ENDMDL
MODEL 7
REMARK VINA RESULT:    -3.137      4.765      7.157
REMARK INTER + INTRA:          -7.428
REMARK INTER:                  -5.981
REMARK INTRA:                  -1.448
REMARK UNBOUND:                -1.725
REMARK SMILES CCCCCCCCCCCCCCCC(=O)[O-]
REMARK SMILES IDX 9 1 10 2 11 3 12 4 13 5 14 6 15 7 16 8 17 9 18 10 8 11 7 12
REMARK SMILES IDX 6 13 5 14 4 15 3 16 2 17 1 18
REMARK H PARENT
REMARK Flexibility Score: inf
ROOT
ATOM      1  C   UNL     1      14.049 -17.087  -4.551  1.00  0.00     0.000 C 
ENDROOT
BRANCH   1   2
ATOM      2  C   UNL     1      14.672 -18.486  -4.394  1.00  0.00     0.000 C 
BRANCH   2   3
ATOM      3  C   UNL     1      16.201 -18.547  -4.586  1.00  0.00     0.000 C 
BRANCH   3   4
ATOM      4  C   UNL     1      17.010 -18.888  -3.322  1.00  0.00     0.000 C 
BRANCH   4   5
ATOM      5  C   UNL     1      17.788 -20.208  -3.450  1.00  0.00     0.000 C 
BRANCH   5   6
ATOM      6  C   UNL     1      17.373 -21.243  -2.391  1.00  0.00     0.006 C 
BRANCH   6   7
ATOM      7  C   UNL     1      16.876 -22.556  -3.011  1.00  0.00     0.053 C 
BRANCH   7   8
ATOM      8  C   UNL     1      16.317 -23.454  -1.952  1.00  0.00     0.041 C 
ATOM      9  O   UNL     1      16.979 -23.693  -0.909  1.00  0.00    -0.550 OA
ATOM     10  O   UNL     1      15.043 -23.988  -2.096  1.00  0.00    -0.550 OA
ENDBRANCH   7   8
ENDBRANCH   6   7
ENDBRANCH   5   6
ENDBRANCH   4   5
ENDBRANCH   3   4
ENDBRANCH   2   3
ENDBRANCH   1   2
BRANCH   1  11
ATOM     11  C   UNL     1      14.114 -16.257  -3.260  1.00  0.00     0.000 C 
BRANCH  11  12
ATOM     12  C   UNL     1      13.045 -15.157  -3.259  1.00  0.00    -0.000 C 
BRANCH  12  13
ATOM     13  C   UNL     1      12.404 -15.012  -4.646  1.00  0.00    -0.000 C 
BRANCH  13  14
ATOM     14  C   UNL     1      10.880 -14.831  -4.581  1.00  0.00    -0.000 C 
BRANCH  14  15
ATOM     15  C   UNL     1      10.166 -16.043  -3.959  1.00  0.00    -0.000 C 
BRANCH  15  16
ATOM     16  C   UNL     1      10.466 -17.353  -4.706  1.00  0.00    -0.000 C 
BRANCH  16  17
ATOM     17  C   UNL     1      10.881 -18.491  -3.763  1.00  0.00    -0.003 C 
ATOM     18  C   UNL     1      10.445 -18.203  -2.329  1.00  0.00     0.004 C 
ENDBRANCH  16  17
ENDBRANCH  15  16
ENDBRANCH  14  15
ENDBRANCH  13  14
ENDBRANCH  12  13
ENDBRANCH  11  12
ENDBRANCH   1  11
TORSDOF 14
ENDMDL
MODEL 8
REMARK VINA RESULT:    -3.127      4.512      6.885
REMARK INTER + INTRA:          -7.412
REMARK INTER:                  -6.190
REMARK INTRA:                  -1.222
REMARK UNBOUND:                -1.725
REMARK SMILES CCCCCCCCCCCCCCCC(=O)[O-]
REMARK SMILES IDX 9 1 10 2 11 3 12 4 13 5 14 6 15 7 16 8 17 9 18 10 8 11 7 12
REMARK SMILES IDX 6 13 5 14 4 15 3 16 2 17 1 18
REMARK H PARENT
REMARK Flexibility Score: inf
ROOT
ATOM      1  C   UNL     1      13.671 -15.467  -3.216  1.00  0.00     0.000 C 
ENDROOT
BRANCH   1   2
ATOM      2  C   UNL     1      14.686 -16.623  -3.276  1.00  0.00     0.000 C 
BRANCH   2   3
ATOM      3  C   UNL     1      14.452 -17.643  -4.408  1.00  0.00     0.000 C 
BRANCH   3   4
ATOM      4  C   UNL     1      15.584 -18.665  -4.617  1.00  0.00     0.000 C 
BRANCH   4   5
ATOM      5  C   UNL     1      16.715 -18.520  -3.586  1.00  0.00     0.000 C 
BRANCH   5   6
ATOM      6  C   UNL     1      17.705 -19.695  -3.628  1.00  0.00     0.006 C 
BRANCH   6   7
ATOM      7  C   UNL     1      17.753 -20.477  -2.307  1.00  0.00     0.053 C 
BRANCH   7   8
ATOM      8  C   UNL     1      17.483 -21.928  -2.550  1.00  0.00     0.041 C 
ATOM      9  O   UNL     1      16.654 -22.547  -1.834  1.00  0.00    -0.550 OA
ATOM     10  O   UNL     1      18.112 -22.586  -3.599  1.00  0.00    -0.550 OA
ENDBRANCH   7   8
ENDBRANCH   6   7
ENDBRANCH   5   6
ENDBRANCH   4   5
ENDBRANCH   3   4
ENDBRANCH   2   3
ENDBRANCH   1   2
BRANCH   1  11
ATOM     11  C   UNL     1      12.844 -15.332  -4.504  1.00  0.00     0.000 C 
BRANCH  11  12
ATOM     12  C   UNL     1      11.930 -14.102  -4.443  1.00  0.00    -0.000 C 
BRANCH  12  13
ATOM     13  C   UNL     1      10.478 -14.481  -4.771  1.00  0.00    -0.000 C 
BRANCH  13  14
ATOM     14  C   UNL     1       9.864 -15.435  -3.736  1.00  0.00    -0.000 C 
BRANCH  14  15
ATOM     15  C   UNL     1       9.875 -16.901  -4.203  1.00  0.00    -0.000 C 
BRANCH  15  16
ATOM     16  C   UNL     1      10.673 -17.816  -3.262  1.00  0.00    -0.000 C 
BRANCH  16  17
ATOM     17  C   UNL     1      11.377 -18.962  -4.004  1.00  0.00    -0.003 C 
ATOM     18  C   UNL     1      11.390 -18.713  -5.510  1.00  0.00     0.004 C 
ENDBRANCH  16  17
ENDBRANCH  15  16
ENDBRANCH  14  15
ENDBRANCH  13  14
ENDBRANCH  12  13
ENDBRANCH  11  12
ENDBRANCH   1  11
TORSDOF 14
ENDMDL
MODEL 9
REMARK VINA RESULT:    -3.028      1.651      3.609
REMARK INTER + INTRA:          -7.231
REMARK INTER:                  -6.034
REMARK INTRA:                  -1.198
REMARK UNBOUND:                -1.725
REMARK SMILES CCCCCCCCCCCCCCCC(=O)[O-]
REMARK SMILES IDX 9 1 10 2 11 3 12 4 13 5 14 6 15 7 16 8 17 9 18 10 8 11 7 12
REMARK SMILES IDX 6 13 5 14 4 15 3 16 2 17 1 18
REMARK H PARENT
REMARK Flexibility Score: inf
ROOT
ATOM      1  C   UNL     1      11.494 -14.458  -4.419  1.00  0.00     0.000 C 
ENDROOT
BRANCH   1   2
ATOM      2  C   UNL     1      10.672 -15.020  -3.245  1.00  0.00     0.000 C 
BRANCH   2   3
ATOM      3  C   UNL     1       9.932 -16.341  -3.537  1.00  0.00     0.000 C 
BRANCH   3   4
ATOM      4  C   UNL     1      10.179 -17.471  -2.521  1.00  0.00     0.000 C 
BRANCH   4   5
ATOM      5  C   UNL     1      10.705 -18.758  -3.178  1.00  0.00     0.000 C 
BRANCH   5   6
ATOM      6  C   UNL     1      11.557 -18.478  -4.427  1.00  0.00     0.006 C 
BRANCH   6   7
ATOM      7  C   UNL     1      11.029 -19.196  -5.676  1.00  0.00     0.053 C 
BRANCH   7   8
ATOM      8  C   UNL     1      10.556 -18.202  -6.689  1.00  0.00     0.041 C 
ATOM      9  O   UNL     1      10.947 -17.007  -6.635  1.00  0.00    -0.550 OA
ATOM     10  O   UNL     1       9.722 -18.607  -7.723  1.00  0.00    -0.550 OA
ENDBRANCH   7   8
ENDBRANCH   6   7
ENDBRANCH   5   6
ENDBRANCH   4   5
ENDBRANCH   3   4
ENDBRANCH   2   3
ENDBRANCH   1   2
BRANCH   1  11
ATOM     11  C   UNL     1      12.865 -15.135  -4.566  1.00  0.00     0.000 C 
BRANCH  11  12
ATOM     12  C   UNL     1      13.462 -15.473  -3.194  1.00  0.00    -0.000 C 
BRANCH  12  13
ATOM     13  C   UNL     1      14.609 -16.485  -3.327  1.00  0.00    -0.000 C 
BRANCH  13  14
ATOM     14  C   UNL     1      14.337 -17.555  -4.397  1.00  0.00    -0.000 C 
BRANCH  14  15
ATOM     15  C   UNL     1      15.377 -18.687  -4.378  1.00  0.00    -0.000 C 
BRANCH  15  16
ATOM     16  C   UNL     1      16.815 -18.167  -4.217  1.00  0.00    -0.000 C 
BRANCH  16  17
ATOM     17  C   UNL     1      17.834 -19.297  -4.010  1.00  0.00    -0.003 C 
ATOM     18  C   UNL     1      17.540 -20.074  -2.731  1.00  0.00     0.004 C 
ENDBRANCH  16  17
ENDBRANCH  15  16
ENDBRANCH  14  15
ENDBRANCH  13  14
ENDBRANCH  12  13
ENDBRANCH  11  12
ENDBRANCH   1  11
TORSDOF 14
ENDMDL
