MODEL 1
REMARK VINA RESULT:    -1.768      0.000      0.000
REMARK INTER + INTRA:          -1.681
REMARK INTER:                  -2.802
REMARK INTRA:                   1.121
REMARK UNBOUND:                 1.121
REMARK SMILES CCCCCCCCCCCC(=O)[O-]
REMARK SMILES IDX 7 1 8 2 9 3 10 4 11 5 12 6 13 7 14 8 6 9 5 10 4 11 3 12 2 13
REMARK SMILES IDX 1 14
REMARK H PARENT
REMARK Flexibility Score: inf
ROOT
ATOM      1  C   UNL     1     -17.574   4.303 -18.606  1.00  0.00     0.000 C 
ENDROOT
BRANCH   1   2
ATOM      2  C   UNL     1     -17.067   3.029 -19.307  1.00  0.00     0.000 C 
BRANCH   2   3
ATOM      3  C   UNL     1     -15.537   2.925 -19.442  1.00  0.00     0.000 C 
BRANCH   3   4
ATOM      4  C   UNL     1     -14.813   2.953 -18.085  1.00  0.00     0.006 C 
BRANCH   4   5
ATOM      5  C   UNL     1     -13.876   4.160 -17.954  1.00  0.00     0.053 C 
BRANCH   5   6
ATOM      6  C   UNL     1     -14.152   5.195 -19.002  1.00  0.00     0.041 C 
ATOM      7  O   UNL     1     -14.629   4.858 -20.118  1.00  0.00    -0.550 OA
ATOM      8  O   UNL     1     -13.910   6.537 -18.735  1.00  0.00    -0.550 OA
ENDBRANCH   5   6
ENDBRANCH   4   5
ENDBRANCH   3   4
ENDBRANCH   2   3
ENDBRANCH   1   2
BRANCH   1   9
ATOM      9  C   UNL     1     -18.729   4.983 -19.356  1.00  0.00     0.000 C 
BRANCH   9  10
ATOM     10  C   UNL     1     -19.776   3.951 -19.801  1.00  0.00    -0.000 C 
BRANCH  10  11
ATOM     11  C   UNL     1     -21.214   4.365 -19.438  1.00  0.00    -0.000 C 
BRANCH  11  12
ATOM     12  C   UNL     1     -21.910   3.464 -18.397  1.00  0.00    -0.000 C 
BRANCH  12  13
ATOM     13  C   UNL     1     -21.034   3.055 -17.201  1.00  0.00    -0.003 C 
ATOM     14  C   UNL     1     -21.831   2.883 -15.910  1.00  0.00     0.004 C 
ENDBRANCH  12  13
ENDBRANCH  11  12
ENDBRANCH  10  11
ENDBRANCH   9  10
ENDBRANCH   1   9
TORSDOF 10
ENDMDL
MODEL 2
REMARK VINA RESULT:    -1.575      1.201      1.771
REMARK INTER + INTRA:          -1.375
REMARK INTER:                  -1.112
REMARK INTRA:                  -0.263
REMARK UNBOUND:                 1.121
REMARK SMILES CCCCCCCCCCCC(=O)[O-]
REMARK SMILES IDX 7 1 8 2 9 3 10 4 11 5 12 6 13 7 14 8 6 9 5 10 4 11 3 12 2 13
REMARK SMILES IDX 1 14
REMARK H PARENT
REMARK Flexibility Score: inf
ROOT
ATOM      1  C   UNL     1     -18.962   4.898 -19.331  1.00  0.00     0.000 C 
ENDROOT
BRANCH   1   2
ATOM      2  C   UNL     1     -18.635   3.393 -19.349  1.00  0.00     0.000 C 
BRANCH   2   3
ATOM      3  C   UNL     1     -17.360   3.012 -20.124  1.00  0.00     0.000 C 
BRANCH   3   4
ATOM      4  C   UNL     1     -16.096   3.037 -19.248  1.00  0.00     0.006 C 
BRANCH   4   5
ATOM      5  C   UNL     1     -15.252   4.296 -19.485  1.00  0.00     0.053 C 
BRANCH   5   6
ATOM      6  C   UNL     1     -14.422   4.643 -18.287  1.00  0.00     0.041 C 
ATOM      7  O   UNL     1     -13.895   5.783 -18.189  1.00  0.00    -0.550 OA
ATOM      8  O   UNL     1     -14.254   3.718 -17.265  1.00  0.00    -0.550 OA
ENDBRANCH   5   6
ENDBRANCH   4   5
ENDBRANCH   3   4
ENDBRANCH   2   3
ENDBRANCH   1   2
BRANCH   1   9
ATOM      9  C   UNL     1     -20.324   5.223 -19.960  1.00  0.00     0.000 C 
BRANCH   9  10
ATOM     10  C   UNL     1     -21.312   4.064 -19.759  1.00  0.00    -0.000 C 
BRANCH  10  11
ATOM     11  C   UNL     1     -21.851   3.980 -18.320  1.00  0.00    -0.000 C 
BRANCH  11  12
ATOM     12  C   UNL     1     -21.218   2.875 -17.449  1.00  0.00    -0.000 C 
BRANCH  12  13
ATOM     13  C   UNL     1     -20.961   3.269 -15.984  1.00  0.00    -0.003 C 
ATOM     14  C   UNL     1     -22.140   2.950 -15.066  1.00  0.00     0.004 C 
ENDBRANCH  12  13
ENDBRANCH  11  12
ENDBRANCH  10  11
ENDBRANCH   9  10
ENDBRANCH   1   9
TORSDOF 10
ENDMDL
MODEL 3
REMARK VINA RESULT:    -1.437      3.280      6.364
REMARK INTER + INTRA:          -1.156
REMARK INTER:                  -0.748
REMARK INTRA:                  -0.408
REMARK UNBOUND:                 1.121
REMARK SMILES CCCCCCCCCCCC(=O)[O-]
REMARK SMILES IDX 7 1 8 2 9 3 10 4 11 5 12 6 13 7 14 8 6 9 5 10 4 11 3 12 2 13
REMARK SMILES IDX 1 14
REMARK H PARENT
REMARK Flexibility Score: inf
ROOT
ATOM      1  C   UNL     1     -19.067   5.044 -19.546  1.00  0.00     0.000 C 
ENDROOT
BRANCH   1   2
ATOM      2  C   UNL     1     -20.605   5.124 -19.528  1.00  0.00     0.000 C 
BRANCH   2   3
ATOM      3  C   UNL     1     -21.326   3.773 -19.376  1.00  0.00     0.000 C 
BRANCH   3   4
ATOM      4  C   UNL     1     -20.863   2.982 -18.140  1.00  0.00     0.006 C 
BRANCH   4   5
ATOM      5  C   UNL     1     -21.926   2.962 -17.035  1.00  0.00     0.053 C 
BRANCH   5   6
ATOM      6  C   UNL     1     -21.310   2.918 -15.670  1.00  0.00     0.041 C 
ATOM      7  O   UNL     1     -22.040   2.894 -14.644  1.00  0.00    -0.550 OA
ATOM      8  O   UNL     1     -19.929   2.875 -15.532  1.00  0.00    -0.550 OA
ENDBRANCH   5   6
ENDBRANCH   4   5
ENDBRANCH   3   4
ENDBRANCH   2   3
ENDBRANCH   1   2
BRANCH   1   9
ATOM      9  C   UNL     1     -18.541   3.722 -20.125  1.00  0.00     0.000 C 
BRANCH   9  10
ATOM     10  C   UNL     1     -17.141   3.403 -19.582  1.00  0.00    -0.000 C 
BRANCH  10  11
ATOM     11  C   UNL     1     -17.006   3.682 -18.073  1.00  0.00    -0.000 C 
BRANCH  11  12
ATOM     12  C   UNL     1     -15.566   3.623 -17.524  1.00  0.00    -0.000 C 
BRANCH  12  13
ATOM     13  C   UNL     1     -14.460   3.682 -18.592  1.00  0.00    -0.003 C 
ATOM     14  C   UNL     1     -13.888   5.086 -18.781  1.00  0.00     0.004 C 
ENDBRANCH  12  13
ENDBRANCH  11  12
ENDBRANCH  10  11
ENDBRANCH   9  10
ENDBRANCH   1   9
TORSDOF 10
ENDMDL
MODEL 4
REMARK VINA RESULT:    -0.131      2.455      6.145
REMARK INTER + INTRA:           0.913
REMARK INTER:                   0.979
REMARK INTRA:                  -0.066
REMARK UNBOUND:                 1.121
REMARK SMILES CCCCCCCCCCCC(=O)[O-]
REMARK SMILES IDX 7 1 8 2 9 3 10 4 11 5 12 6 13 7 14 8 6 9 5 10 4 11 3 12 2 13
REMARK SMILES IDX 1 14
REMARK H PARENT
REMARK Flexibility Score: inf
ROOT
ATOM      1  C   UNL     1     -17.951   3.240 -19.134  1.00  0.00     0.000 C 
ENDROOT
BRANCH   1   2
ATOM      2  C   UNL     1     -19.445   2.876 -19.221  1.00  0.00     0.000 C 
BRANCH   2   3
ATOM      3  C   UNL     1     -20.333   3.502 -18.130  1.00  0.00     0.000 C 
BRANCH   3   4
ATOM      4  C   UNL     1     -21.667   4.037 -18.678  1.00  0.00     0.006 C 
BRANCH   4   5
ATOM      5  C   UNL     1     -21.470   4.941 -19.901  1.00  0.00     0.053 C 
BRANCH   5   6
ATOM      6  C   UNL     1     -20.545   6.082 -19.607  1.00  0.00     0.041 C 
ATOM      7  O   UNL     1     -20.997   7.162 -19.143  1.00  0.00    -0.550 OA
ATOM      8  O   UNL     1     -19.179   5.942 -19.817  1.00  0.00    -0.550 OA
ENDBRANCH   5   6
ENDBRANCH   4   5
ENDBRANCH   3   4
ENDBRANCH   2   3
ENDBRANCH   1   2
BRANCH   1   9
ATOM      9  C   UNL     1     -17.456   3.400 -17.689  1.00  0.00     0.000 C 
BRANCH   9  10
ATOM     10  C   UNL     1     -16.019   2.877 -17.541  1.00  0.00    -0.000 C 
BRANCH  10  11
ATOM     11  C   UNL     1     -15.243   2.876 -18.871  1.00  0.00    -0.000 C 
BRANCH  11  12
ATOM     12  C   UNL     1     -14.089   3.896 -18.954  1.00  0.00    -0.000 C 
BRANCH  12  13
ATOM     13  C   UNL     1     -14.508   5.366 -18.781  1.00  0.00    -0.003 C 
ATOM     14  C   UNL     1     -13.876   6.291 -19.819  1.00  0.00     0.004 C 
ENDBRANCH  12  13
ENDBRANCH  11  12
ENDBRANCH  10  11
ENDBRANCH   9  10
ENDBRANCH   1   9
TORSDOF 10
ENDMDL
