MODEL 1
REMARK VINA RESULT:    -7.010      0.000      0.000
REMARK INTER + INTRA:          -8.693
REMARK INTER:                  -8.445
REMARK INTRA:                  -0.249
REMARK UNBOUND:                -0.249
REMARK SMILES O=c1c(O)c(-c2ccc(O)c(O)c2)oc2cc(O)cc(O)c12
REMARK SMILES IDX 5 1 3 2 2 3 1 4 22 5 20 6 19 7 17 8 16 9 15 10 14 11 6 12
REMARK SMILES IDX 7 13 8 14 9 15 13 16 11 17 10 18 12 20 4 22 21 24 18 26
REMARK H PARENT 10 19 12 21 4 23 21 25 18 27
REMARK Flexibility Score: inf
ROOT
ATOM      1  C   UNL     1      55.110   5.074  79.529  1.00  0.00     0.180 A 
ATOM      2  C   UNL     1      54.601   5.090  80.842  1.00  0.00     0.208 A 
ATOM      3  C   UNL     1      53.324   4.558  81.080  1.00  0.00     0.238 A 
ATOM      4  O   UNL     1      52.861   4.557  82.254  1.00  0.00    -0.285 OA
ATOM      5  C   UNL     1      52.573   4.041  80.006  1.00  0.00     0.111 A 
ATOM      6  C   UNL     1      51.277   3.492  80.161  1.00  0.00     0.134 A 
ATOM      7  C   UNL     1      50.588   3.005  79.039  1.00  0.00     0.093 A 
ATOM      8  C   UNL     1      51.169   3.057  77.769  1.00  0.00     0.123 A 
ATOM      9  C   UNL     1      52.449   3.598  77.610  1.00  0.00     0.094 A 
ATOM     10  C   UNL     1      53.151   4.087  78.716  1.00  0.00     0.146 A 
ATOM     11  O   UNL     1      54.367   4.591  78.538  1.00  0.00    -0.452 OA
ENDROOT
BRANCH   1  12
ATOM     12  C   UNL     1      56.456   5.597  79.201  1.00  0.00     0.025 A 
ATOM     13  C   UNL     1      57.622   4.920  79.598  1.00  0.00     0.016 A 
ATOM     14  C   UNL     1      58.880   5.421  79.256  1.00  0.00     0.051 A 
ATOM     15  C   UNL     1      58.995   6.594  78.503  1.00  0.00     0.157 A 
ATOM     16  C   UNL     1      56.574   6.764  78.428  1.00  0.00     0.062 A 
ATOM     17  C   UNL     1      57.836   7.268  78.083  1.00  0.00     0.158 A 
BRANCH  15  18
ATOM     18  O   UNL     1      60.266   7.070  78.180  1.00  0.00    -0.504 OA
ATOM     19  H   UNL     1      61.019   7.094  78.857  1.00  0.00     0.293 HD
ENDBRANCH  15  18
BRANCH  17  20
ATOM     20  O   UNL     1      57.943   8.434  77.327  1.00  0.00    -0.504 OA
ATOM     21  H   UNL     1      58.735   9.058  77.422  1.00  0.00     0.293 HD
ENDBRANCH  17  20
ENDBRANCH   1  12
BRANCH   2  22
ATOM     22  O   UNL     1      55.346   5.653  81.881  1.00  0.00    -0.502 OA
ATOM     23  H   UNL     1      56.248   5.287  82.162  1.00  0.00     0.293 HD
ENDBRANCH   2  22
BRANCH   6  24
ATOM     24  O   UNL     1      50.670   3.426  81.415  1.00  0.00    -0.507 OA
ATOM     25  H   UNL     1      51.074   3.877  82.227  1.00  0.00     0.293 HD
ENDBRANCH   6  24
BRANCH   8  26
ATOM     26  O   UNL     1      50.464   2.569  76.671  1.00  0.00    -0.508 OA
ATOM     27  H   UNL     1      50.078   3.190  75.970  1.00  0.00     0.293 HD
ENDBRANCH   8  26
TORSDOF 6
ENDMDL
MODEL 2
REMARK VINA RESULT:    -6.600      1.679      7.094
REMARK INTER + INTRA:          -8.199
REMARK INTER:                  -8.153
REMARK INTRA:                  -0.046
REMARK UNBOUND:                -0.249
REMARK SMILES O=c1c(O)c(-c2ccc(O)c(O)c2)oc2cc(O)cc(O)c12
REMARK SMILES IDX 5 1 3 2 2 3 1 4 22 5 20 6 19 7 17 8 16 9 15 10 14 11 6 12
REMARK SMILES IDX 7 13 8 14 9 15 13 16 11 17 10 18 12 20 4 22 21 24 18 26
REMARK H PARENT 10 19 12 21 4 23 21 25 18 27
REMARK Flexibility Score: inf
ROOT
ATOM      1  C   UNL     1      54.232   4.532  79.051  1.00  0.00     0.180 A 
ATOM      2  C   UNL     1      54.885   5.314  78.079  1.00  0.00     0.208 A 
ATOM      3  C   UNL     1      56.232   5.656  78.277  1.00  0.00     0.238 A 
ATOM      4  O   UNL     1      56.831   6.347  77.408  1.00  0.00    -0.285 OA
ATOM      5  C   UNL     1      56.894   5.230  79.446  1.00  0.00     0.111 A 
ATOM      6  C   UNL     1      58.249   5.536  79.724  1.00  0.00     0.134 A 
ATOM      7  C   UNL     1      58.834   5.083  80.916  1.00  0.00     0.093 A 
ATOM      8  C   UNL     1      58.094   4.334  81.833  1.00  0.00     0.123 A 
ATOM      9  C   UNL     1      56.756   4.028  81.564  1.00  0.00     0.094 A 
ATOM     10  C   UNL     1      56.155   4.468  80.381  1.00  0.00     0.146 A 
ATOM     11  O   UNL     1      54.885   4.161  80.149  1.00  0.00    -0.452 OA
ENDROOT
BRANCH   1  12
ATOM     12  C   UNL     1      52.819   4.113  78.905  1.00  0.00     0.025 A 
ATOM     13  C   UNL     1      52.361   3.474  77.740  1.00  0.00     0.016 A 
ATOM     14  C   UNL     1      51.029   3.067  77.635  1.00  0.00     0.051 A 
ATOM     15  C   UNL     1      50.138   3.279  78.692  1.00  0.00     0.157 A 
ATOM     16  C   UNL     1      51.927   4.307  79.972  1.00  0.00     0.062 A 
ATOM     17  C   UNL     1      50.589   3.899  79.869  1.00  0.00     0.158 A 
BRANCH  15  18
ATOM     18  O   UNL     1      48.813   2.864  78.555  1.00  0.00    -0.504 OA
ATOM     19  H   UNL     1      48.062   3.518  78.371  1.00  0.00     0.293 HD
ENDBRANCH  15  18
BRANCH  17  20
ATOM     20  O   UNL     1      49.709   4.107  80.929  1.00  0.00    -0.504 OA
ATOM     21  H   UNL     1      50.031   4.134  81.889  1.00  0.00     0.293 HD
ENDBRANCH  17  20
ENDBRANCH   1  12
BRANCH   2  22
ATOM     22  O   UNL     1      54.192   5.764  76.953  1.00  0.00    -0.502 OA
ATOM     23  H   UNL     1      54.049   5.183  76.135  1.00  0.00     0.293 HD
ENDBRANCH   2  22
BRANCH   6  24
ATOM     24  O   UNL     1      59.014   6.283  78.828  1.00  0.00    -0.507 OA
ATOM     25  H   UNL     1      58.608   7.022  78.267  1.00  0.00     0.293 HD
ENDBRANCH   6  24
BRANCH   8  26
ATOM     26  O   UNL     1      58.699   3.898  83.010  1.00  0.00    -0.508 OA
ATOM     27  H   UNL     1      58.164   3.456  83.748  1.00  0.00     0.293 HD
ENDBRANCH   8  26
TORSDOF 6
ENDMDL
MODEL 3
REMARK VINA RESULT:    -6.447      1.906      7.311
REMARK INTER + INTRA:          -8.015
REMARK INTER:                  -7.707
REMARK INTRA:                  -0.308
REMARK UNBOUND:                -0.249
REMARK SMILES O=c1c(O)c(-c2ccc(O)c(O)c2)oc2cc(O)cc(O)c12
REMARK SMILES IDX 5 1 3 2 2 3 1 4 22 5 20 6 19 7 17 8 16 9 15 10 14 11 6 12
REMARK SMILES IDX 7 13 8 14 9 15 13 16 11 17 10 18 12 20 4 22 21 24 18 26
REMARK H PARENT 10 19 12 21 4 23 21 25 18 27
REMARK Flexibility Score: inf
ROOT
ATOM      1  C   UNL     1      54.461   6.252  77.879  1.00  0.00     0.180 A 
ATOM      2  C   UNL     1      54.146   7.432  77.178  1.00  0.00     0.208 A 
ATOM      3  C   UNL     1      55.180   8.325  76.854  1.00  0.00     0.238 A 
ATOM      4  O   UNL     1      54.912   9.380  76.218  1.00  0.00    -0.285 OA
ATOM      5  C   UNL     1      56.500   8.035  77.252  1.00  0.00     0.111 A 
ATOM      6  C   UNL     1      57.598   8.884  76.969  1.00  0.00     0.134 A 
ATOM      7  C   UNL     1      58.883   8.529  77.407  1.00  0.00     0.093 A 
ATOM      8  C   UNL     1      59.091   7.347  78.121  1.00  0.00     0.123 A 
ATOM      9  C   UNL     1      58.011   6.504  78.403  1.00  0.00     0.094 A 
ATOM     10  C   UNL     1      56.724   6.839  77.973  1.00  0.00     0.146 A 
ATOM     11  O   UNL     1      55.717   6.019  78.250  1.00  0.00    -0.452 OA
ENDROOT
BRANCH   1  12
ATOM     12  C   UNL     1      53.430   5.252  78.239  1.00  0.00     0.025 A 
ATOM     13  C   UNL     1      53.228   4.096  77.466  1.00  0.00     0.016 A 
ATOM     14  C   UNL     1      52.266   3.155  77.839  1.00  0.00     0.051 A 
ATOM     15  C   UNL     1      51.501   3.345  78.994  1.00  0.00     0.157 A 
ATOM     16  C   UNL     1      52.674   5.430  79.410  1.00  0.00     0.062 A 
ATOM     17  C   UNL     1      51.707   4.486  79.786  1.00  0.00     0.158 A 
BRANCH  15  18
ATOM     18  O   UNL     1      50.545   2.389  79.339  1.00  0.00    -0.504 OA
ATOM     19  H   UNL     1      49.819   2.099  78.695  1.00  0.00     0.293 HD
ENDBRANCH  15  18
BRANCH  17  20
ATOM     20  O   UNL     1      50.953   4.679  80.943  1.00  0.00    -0.504 OA
ATOM     21  H   UNL     1      50.729   5.607  81.282  1.00  0.00     0.293 HD
ENDBRANCH  17  20
ENDBRANCH   1  12
BRANCH   2  22
ATOM     22  O   UNL     1      52.822   7.720  76.839  1.00  0.00    -0.502 OA
ATOM     23  H   UNL     1      52.406   7.412  75.968  1.00  0.00     0.293 HD
ENDBRANCH   2  22
BRANCH   6  24
ATOM     24  O   UNL     1      57.423  10.072  76.259  1.00  0.00    -0.507 OA
ATOM     25  H   UNL     1      57.847  10.217  75.350  1.00  0.00     0.293 HD
ENDBRANCH   6  24
BRANCH   8  26
ATOM     26  O   UNL     1      60.377   7.019  78.546  1.00  0.00    -0.508 OA
ATOM     27  H   UNL     1      60.681   7.194  79.496  1.00  0.00     0.293 HD
ENDBRANCH   8  26
TORSDOF 6
ENDMDL
MODEL 4
REMARK VINA RESULT:    -6.393     11.234     13.046
REMARK INTER + INTRA:          -7.950
REMARK INTER:                  -7.919
REMARK INTRA:                  -0.031
REMARK UNBOUND:                -0.249
REMARK SMILES O=c1c(O)c(-c2ccc(O)c(O)c2)oc2cc(O)cc(O)c12
REMARK SMILES IDX 5 1 3 2 2 3 1 4 22 5 20 6 19 7 17 8 16 9 15 10 14 11 6 12
REMARK SMILES IDX 7 13 8 14 9 15 13 16 11 17 10 18 12 20 4 22 21 24 18 26
REMARK H PARENT 10 19 12 21 4 23 21 25 18 27
REMARK Flexibility Score: inf
ROOT
ATOM      1  C   UNL     1      51.613  -7.031  80.719  1.00  0.00     0.180 A 
ATOM      2  C   UNL     1      51.625  -5.680  81.114  1.00  0.00     0.208 A 
ATOM      3  C   UNL     1      50.403  -5.005  81.261  1.00  0.00     0.238 A 
ATOM      4  O   UNL     1      50.400  -3.798  81.624  1.00  0.00    -0.285 OA
ATOM      5  C   UNL     1      49.197  -5.683  80.991  1.00  0.00     0.111 A 
ATOM      6  C   UNL     1      47.924  -5.074  81.111  1.00  0.00     0.134 A 
ATOM      7  C   UNL     1      46.768  -5.814  80.815  1.00  0.00     0.093 A 
ATOM      8  C   UNL     1      46.861  -7.145  80.404  1.00  0.00     0.123 A 
ATOM      9  C   UNL     1      48.115  -7.752  80.285  1.00  0.00     0.094 A 
ATOM     10  C   UNL     1      49.278  -7.033  80.576  1.00  0.00     0.146 A 
ATOM     11  O   UNL     1      50.456  -7.634  80.459  1.00  0.00    -0.452 OA
ENDROOT
BRANCH   1  12
ATOM     12  C   UNL     1      52.859  -7.817  80.562  1.00  0.00     0.025 A 
ATOM     13  C   UNL     1      53.831  -7.859  81.576  1.00  0.00     0.016 A 
ATOM     14  C   UNL     1      54.987  -8.626  81.414  1.00  0.00     0.051 A 
ATOM     15  C   UNL     1      55.185  -9.371  80.248  1.00  0.00     0.157 A 
ATOM     16  C   UNL     1      53.051  -8.582  79.400  1.00  0.00     0.062 A 
ATOM     17  C   UNL     1      54.211  -9.353  79.236  1.00  0.00     0.158 A 
BRANCH  15  18
ATOM     18  O   UNL     1      56.352 -10.125  80.115  1.00  0.00    -0.504 OA
ATOM     19  H   UNL     1      56.335 -11.093  79.817  1.00  0.00     0.293 HD
ENDBRANCH  15  18
BRANCH  17  20
ATOM     20  O   UNL     1      54.399 -10.099  78.073  1.00  0.00    -0.504 OA
ATOM     21  H   UNL     1      54.027  -9.794  77.181  1.00  0.00     0.293 HD
ENDBRANCH  17  20
ENDBRANCH   1  12
BRANCH   2  22
ATOM     22  O   UNL     1      52.837  -5.018  81.327  1.00  0.00    -0.502 OA
ATOM     23  H   UNL     1      53.379  -4.623  80.568  1.00  0.00     0.293 HD
ENDBRANCH   2  22
BRANCH   6  24
ATOM     24  O   UNL     1      47.798  -3.746  81.519  1.00  0.00    -0.507 OA
ATOM     25  H   UNL     1      48.571  -3.094  81.455  1.00  0.00     0.293 HD
ENDBRANCH   6  24
BRANCH   8  26
ATOM     26  O   UNL     1      45.698  -7.857  80.115  1.00  0.00    -0.508 OA
ATOM     27  H   UNL     1      45.611  -8.409  79.271  1.00  0.00     0.293 HD
ENDBRANCH   8  26
TORSDOF 6
ENDMDL
MODEL 5
REMARK VINA RESULT:    -6.349      1.638      6.924
REMARK INTER + INTRA:          -7.897
REMARK INTER:                  -7.566
REMARK INTRA:                  -0.331
REMARK UNBOUND:                -0.249
REMARK SMILES O=c1c(O)c(-c2ccc(O)c(O)c2)oc2cc(O)cc(O)c12
REMARK SMILES IDX 5 1 3 2 2 3 1 4 22 5 20 6 19 7 17 8 16 9 15 10 14 11 6 12
REMARK SMILES IDX 7 13 8 14 9 15 13 16 11 17 10 18 12 20 4 22 21 24 18 26
REMARK H PARENT 10 19 12 21 4 23 21 25 18 27
REMARK Flexibility Score: inf
ROOT
ATOM      1  C   UNL     1      54.403   5.193  78.649  1.00  0.00     0.180 A 
ATOM      2  C   UNL     1      55.560   4.537  79.112  1.00  0.00     0.208 A 
ATOM      3  C   UNL     1      56.807   5.155  78.932  1.00  0.00     0.238 A 
ATOM      4  O   UNL     1      57.850   4.582  79.352  1.00  0.00    -0.285 OA
ATOM      5  C   UNL     1      56.879   6.402  78.279  1.00  0.00     0.111 A 
ATOM      6  C   UNL     1      58.097   7.089  78.054  1.00  0.00     0.134 A 
ATOM      7  C   UNL     1      58.087   8.323  77.387  1.00  0.00     0.093 A 
ATOM      8  C   UNL     1      56.887   8.882  76.941  1.00  0.00     0.123 A 
ATOM      9  C   UNL     1      55.681   8.208  77.160  1.00  0.00     0.094 A 
ATOM     10  C   UNL     1      55.670   6.978  77.825  1.00  0.00     0.146 A 
ATOM     11  O   UNL     1      54.511   6.362  78.024  1.00  0.00    -0.452 OA
ENDROOT
BRANCH   1  12
ATOM     12  C   UNL     1      53.050   4.615  78.819  1.00  0.00     0.025 A 
ATOM     13  C   UNL     1      52.312   4.813  79.999  1.00  0.00     0.016 A 
ATOM     14  C   UNL     1      51.028   4.278  80.127  1.00  0.00     0.051 A 
ATOM     15  C   UNL     1      50.456   3.551  79.078  1.00  0.00     0.157 A 
ATOM     16  C   UNL     1      52.465   3.902  77.760  1.00  0.00     0.062 A 
ATOM     17  C   UNL     1      51.176   3.364  77.886  1.00  0.00     0.158 A 
BRANCH  15  18
ATOM     18  O   UNL     1      49.173   3.027  79.237  1.00  0.00    -0.504 OA
ATOM     19  H   UNL     1      48.944   2.077  78.973  1.00  0.00     0.293 HD
ENDBRANCH  15  18
BRANCH  17  20
ATOM     20  O   UNL     1      50.610   2.646  76.834  1.00  0.00    -0.504 OA
ATOM     21  H   UNL     1      49.723   2.168  76.935  1.00  0.00     0.293 HD
ENDBRANCH  17  20
ENDBRANCH   1  12
BRANCH   2  22
ATOM     22  O   UNL     1      55.466   3.279  79.713  1.00  0.00    -0.502 OA
ATOM     23  H   UNL     1      54.880   3.106  80.521  1.00  0.00     0.293 HD
ENDBRANCH   2  22
BRANCH   6  24
ATOM     24  O   UNL     1      59.312   6.557  78.487  1.00  0.00    -0.507 OA
ATOM     25  H   UNL     1      60.094   6.433  77.855  1.00  0.00     0.293 HD
ENDBRANCH   6  24
BRANCH   8  26
ATOM     26  O   UNL     1      56.904  10.108  76.279  1.00  0.00    -0.508 OA
ATOM     27  H   UNL     1      56.820  10.167  75.272  1.00  0.00     0.293 HD
ENDBRANCH   8  26
TORSDOF 6
ENDMDL
MODEL 6
REMARK VINA RESULT:    -6.252      8.961     12.490
REMARK INTER + INTRA:          -7.780
REMARK INTER:                  -7.471
REMARK INTRA:                  -0.309
REMARK UNBOUND:                -0.249
REMARK SMILES O=c1c(O)c(-c2ccc(O)c(O)c2)oc2cc(O)cc(O)c12
REMARK SMILES IDX 5 1 3 2 2 3 1 4 22 5 20 6 19 7 17 8 16 9 15 10 14 11 6 12
REMARK SMILES IDX 7 13 8 14 9 15 13 16 11 17 10 18 12 20 4 22 21 24 18 26
REMARK H PARENT 10 19 12 21 4 23 21 25 18 27
REMARK Flexibility Score: inf
ROOT
ATOM      1  C   UNL     1      51.482  -5.373  81.662  1.00  0.00     0.180 A 
ATOM      2  C   UNL     1      52.831  -5.775  81.701  1.00  0.00     0.208 A 
ATOM      3  C   UNL     1      53.787  -4.890  82.223  1.00  0.00     0.238 A 
ATOM      4  O   UNL     1      54.997  -5.242  82.273  1.00  0.00    -0.285 OA
ATOM      5  C   UNL     1      53.384  -3.617  82.677  1.00  0.00     0.111 A 
ATOM      6  C   UNL     1      54.285  -2.665  83.212  1.00  0.00     0.134 A 
ATOM      7  C   UNL     1      53.807  -1.415  83.634  1.00  0.00     0.093 A 
ATOM      8  C   UNL     1      52.451  -1.100  83.531  1.00  0.00     0.123 A 
ATOM      9  C   UNL     1      51.556  -2.036  83.003  1.00  0.00     0.094 A 
ATOM     10  C   UNL     1      52.012  -3.287  82.579  1.00  0.00     0.146 A 
ATOM     11  O   UNL     1      51.141  -4.159  82.086  1.00  0.00    -0.452 OA
ENDROOT
BRANCH   1  12
ATOM     12  C   UNL     1      50.412  -6.257  81.145  1.00  0.00     0.025 A 
ATOM     13  C   UNL     1      49.869  -7.288  81.932  1.00  0.00     0.016 A 
ATOM     14  C   UNL     1      48.844  -8.094  81.430  1.00  0.00     0.051 A 
ATOM     15  C   UNL     1      48.337  -7.877  80.145  1.00  0.00     0.157 A 
ATOM     16  C   UNL     1      49.887  -6.029  79.863  1.00  0.00     0.062 A 
ATOM     17  C   UNL     1      48.858  -6.837  79.357  1.00  0.00     0.158 A 
BRANCH  15  18
ATOM     18  O   UNL     1      47.316  -8.700  79.672  1.00  0.00    -0.504 OA
ATOM     19  H   UNL     1      47.241  -8.956  78.695  1.00  0.00     0.293 HD
ENDBRANCH  15  18
BRANCH  17  20
ATOM     20  O   UNL     1      48.353  -6.611  78.078  1.00  0.00    -0.504 OA
ATOM     21  H   UNL     1      47.396  -6.839  77.837  1.00  0.00     0.293 HD
ENDBRANCH  17  20
ENDBRANCH   1  12
BRANCH   2  22
ATOM     22  O   UNL     1      53.211  -7.022  81.200  1.00  0.00    -0.502 OA
ATOM     23  H   UNL     1      52.656  -7.524  80.517  1.00  0.00     0.293 HD
ENDBRANCH   2  22
BRANCH   6  24
ATOM     24  O   UNL     1      55.646  -2.950  83.328  1.00  0.00    -0.507 OA
ATOM     25  H   UNL     1      55.977  -3.786  83.797  1.00  0.00     0.293 HD
ENDBRANCH   6  24
BRANCH   8  26
ATOM     26  O   UNL     1      52.002   0.150  83.955  1.00  0.00    -0.508 OA
ATOM     27  H   UNL     1      52.013   0.953  83.339  1.00  0.00     0.293 HD
ENDBRANCH   8  26
TORSDOF 6
ENDMDL
MODEL 7
REMARK VINA RESULT:    -6.233      1.481      6.860
REMARK INTER + INTRA:          -7.757
REMARK INTER:                  -7.504
REMARK INTRA:                  -0.253
REMARK UNBOUND:                -0.249
REMARK SMILES O=c1c(O)c(-c2ccc(O)c(O)c2)oc2cc(O)cc(O)c12
REMARK SMILES IDX 5 1 3 2 2 3 1 4 22 5 20 6 19 7 17 8 16 9 15 10 14 11 6 12
REMARK SMILES IDX 7 13 8 14 9 15 13 16 11 17 10 18 12 20 4 22 21 24 18 26
REMARK H PARENT 10 19 12 21 4 23 21 25 18 27
REMARK Flexibility Score: inf
ROOT
ATOM      1  C   UNL     1      54.283   4.964  78.907  1.00  0.00     0.180 A 
ATOM      2  C   UNL     1      55.291   4.369  79.691  1.00  0.00     0.208 A 
ATOM      3  C   UNL     1      56.570   4.948  79.702  1.00  0.00     0.238 A 
ATOM      4  O   UNL     1      57.478   4.430  80.408  1.00  0.00    -0.285 OA
ATOM      5  C   UNL     1      56.825   6.091  78.919  1.00  0.00     0.111 A 
ATOM      6  C   UNL     1      58.087   6.731  78.872  1.00  0.00     0.134 A 
ATOM      7  C   UNL     1      58.264   7.862  78.059  1.00  0.00     0.093 A 
ATOM      8  C   UNL     1      57.207   8.362  77.296  1.00  0.00     0.123 A 
ATOM      9  C   UNL     1      55.958   7.735  77.339  1.00  0.00     0.094 A 
ATOM     10  C   UNL     1      55.761   6.608  78.144  1.00  0.00     0.146 A 
ATOM     11  O   UNL     1      54.564   6.034  78.170  1.00  0.00    -0.452 OA
ENDROOT
BRANCH   1  12
ATOM     12  C   UNL     1      52.905   4.426  78.858  1.00  0.00     0.025 A 
ATOM     13  C   UNL     1      52.441   3.698  77.748  1.00  0.00     0.016 A 
ATOM     14  C   UNL     1      51.144   3.180  77.735  1.00  0.00     0.051 A 
ATOM     15  C   UNL     1      50.296   3.367  78.830  1.00  0.00     0.157 A 
ATOM     16  C   UNL     1      52.057   4.594  79.965  1.00  0.00     0.062 A 
ATOM     17  C   UNL     1      50.754   4.075  79.954  1.00  0.00     0.158 A 
BRANCH  15  18
ATOM     18  O   UNL     1      49.005   2.840  78.786  1.00  0.00    -0.504 OA
ATOM     19  H   UNL     1      48.195   3.378  79.069  1.00  0.00     0.293 HD
ENDBRANCH  15  18
BRANCH  17  20
ATOM     20  O   UNL     1      49.916   4.260  81.052  1.00  0.00    -0.504 OA
ATOM     21  H   UNL     1      49.143   3.633  81.241  1.00  0.00     0.293 HD
ENDBRANCH  17  20
ENDBRANCH   1  12
BRANCH   2  22
ATOM     22  O   UNL     1      55.026   3.207  80.419  1.00  0.00    -0.502 OA
ATOM     23  H   UNL     1      54.953   3.205  81.430  1.00  0.00     0.293 HD
ENDBRANCH   2  22
BRANCH   6  24
ATOM     24  O   UNL     1      59.163   6.255  79.622  1.00  0.00    -0.507 OA
ATOM     25  H   UNL     1      60.056   6.039  79.195  1.00  0.00     0.293 HD
ENDBRANCH   6  24
BRANCH   8  26
ATOM     26  O   UNL     1      57.410   9.485  76.496  1.00  0.00    -0.508 OA
ATOM     27  H   UNL     1      58.007   9.453  75.679  1.00  0.00     0.293 HD
ENDBRANCH   8  26
TORSDOF 6
ENDMDL
MODEL 8
REMARK VINA RESULT:    -6.043      1.725      6.784
REMARK INTER + INTRA:          -7.528
REMARK INTER:                  -7.204
REMARK INTRA:                  -0.323
REMARK UNBOUND:                -0.249
REMARK SMILES O=c1c(O)c(-c2ccc(O)c(O)c2)oc2cc(O)cc(O)c12
REMARK SMILES IDX 5 1 3 2 2 3 1 4 22 5 20 6 19 7 17 8 16 9 15 10 14 11 6 12
REMARK SMILES IDX 7 13 8 14 9 15 13 16 11 17 10 18 12 20 4 22 21 24 18 26
REMARK H PARENT 10 19 12 21 4 23 21 25 18 27
REMARK Flexibility Score: inf
ROOT
ATOM      1  C   UNL     1      55.665   5.156  79.093  1.00  0.00     0.180 A 
ATOM      2  C   UNL     1      56.308   5.136  80.345  1.00  0.00     0.208 A 
ATOM      3  C   UNL     1      57.436   5.950  80.542  1.00  0.00     0.238 A 
ATOM      4  O   UNL     1      58.014   5.948  81.663  1.00  0.00    -0.285 OA
ATOM      5  C   UNL     1      57.911   6.749  79.483  1.00  0.00     0.111 A 
ATOM      6  C   UNL     1      59.043   7.593  79.598  1.00  0.00     0.134 A 
ATOM      7  C   UNL     1      59.459   8.352  78.494  1.00  0.00     0.093 A 
ATOM      8  C   UNL     1      58.769   8.284  77.282  1.00  0.00     0.123 A 
ATOM      9  C   UNL     1      57.651   7.453  77.162  1.00  0.00     0.094 A 
ATOM     10  C   UNL     1      57.218   6.690  78.251  1.00  0.00     0.146 A 
ATOM     11  O   UNL     1      56.151   5.913  78.112  1.00  0.00    -0.452 OA
ENDROOT
BRANCH   1  12
ATOM     12  C   UNL     1      54.460   4.343  78.814  1.00  0.00     0.025 A 
ATOM     13  C   UNL     1      54.560   3.013  78.369  1.00  0.00     0.016 A 
ATOM     14  C   UNL     1      53.409   2.258  78.135  1.00  0.00     0.051 A 
ATOM     15  C   UNL     1      52.143   2.811  78.354  1.00  0.00     0.157 A 
ATOM     16  C   UNL     1      53.188   4.888  79.052  1.00  0.00     0.062 A 
ATOM     17  C   UNL     1      52.030   4.132  78.818  1.00  0.00     0.158 A 
BRANCH  15  18
ATOM     18  O   UNL     1      51.012   2.032  78.108  1.00  0.00    -0.504 OA
ATOM     19  H   UNL     1      51.037   1.020  78.149  1.00  0.00     0.293 HD
ENDBRANCH  15  18
BRANCH  17  20
ATOM     20  O   UNL     1      50.772   4.687  79.044  1.00  0.00    -0.504 OA
ATOM     21  H   UNL     1      50.027   4.155  79.477  1.00  0.00     0.293 HD
ENDBRANCH  17  20
ENDBRANCH   1  12
BRANCH   2  22
ATOM     22  O   UNL     1      55.847   4.297  81.363  1.00  0.00    -0.502 OA
ATOM     23  H   UNL     1      55.313   3.457  81.173  1.00  0.00     0.293 HD
ENDBRANCH   2  22
BRANCH   6  24
ATOM     24  O   UNL     1      59.753   7.682  80.795  1.00  0.00    -0.507 OA
ATOM     25  H   UNL     1      60.750   7.504  80.838  1.00  0.00     0.293 HD
ENDBRANCH   6  24
BRANCH   8  26
ATOM     26  O   UNL     1      59.204   9.047  76.200  1.00  0.00    -0.508 OA
ATOM     27  H   UNL     1      59.158   8.696  75.251  1.00  0.00     0.293 HD
ENDBRANCH   8  26
TORSDOF 6
ENDMDL
MODEL 9
REMARK VINA RESULT:    -5.827      9.267     12.823
REMARK INTER + INTRA:          -7.267
REMARK INTER:                  -6.944
REMARK INTRA:                  -0.323
REMARK UNBOUND:                -0.249
REMARK SMILES O=c1c(O)c(-c2ccc(O)c(O)c2)oc2cc(O)cc(O)c12
REMARK SMILES IDX 5 1 3 2 2 3 1 4 22 5 20 6 19 7 17 8 16 9 15 10 14 11 6 12
REMARK SMILES IDX 7 13 8 14 9 15 13 16 11 17 10 18 12 20 4 22 21 24 18 26
REMARK H PARENT 10 19 12 21 4 23 21 25 18 27
REMARK Flexibility Score: inf
ROOT
ATOM      1  C   UNL     1      50.948  -5.233  81.869  1.00  0.00     0.180 A 
ATOM      2  C   UNL     1      50.803  -3.880  82.229  1.00  0.00     0.208 A 
ATOM      3  C   UNL     1      51.937  -3.163  82.642  1.00  0.00     0.238 A 
ATOM      4  O   UNL     1      51.822  -1.947  82.957  1.00  0.00    -0.285 OA
ATOM      5  C   UNL     1      53.186  -3.813  82.708  1.00  0.00     0.111 A 
ATOM      6  C   UNL     1      54.375  -3.163  83.119  1.00  0.00     0.134 A 
ATOM      7  C   UNL     1      55.580  -3.883  83.167  1.00  0.00     0.093 A 
ATOM      8  C   UNL     1      55.617  -5.233  82.814  1.00  0.00     0.123 A 
ATOM      9  C   UNL     1      54.446  -5.880  82.407  1.00  0.00     0.094 A 
ATOM     10  C   UNL     1      53.236  -5.181  82.351  1.00  0.00     0.146 A 
ATOM     11  O   UNL     1      52.139  -5.817  81.957  1.00  0.00    -0.452 OA
ENDROOT
BRANCH   1  12
ATOM     12  C   UNL     1      49.804  -6.050  81.404  1.00  0.00     0.025 A 
ATOM     13  C   UNL     1      49.029  -6.805  82.302  1.00  0.00     0.016 A 
ATOM     14  C   UNL     1      47.940  -7.550  81.842  1.00  0.00     0.051 A 
ATOM     15  C   UNL     1      47.600  -7.542  80.486  1.00  0.00     0.157 A 
ATOM     16  C   UNL     1      49.446  -6.029  80.046  1.00  0.00     0.062 A 
ATOM     17  C   UNL     1      48.354  -6.776  79.582  1.00  0.00     0.158 A 
BRANCH  15  18
ATOM     18  O   UNL     1      46.508  -8.299  80.058  1.00  0.00    -0.504 OA
ATOM     19  H   UNL     1      45.757  -7.896  79.511  1.00  0.00     0.293 HD
ENDBRANCH  15  18
BRANCH  17  20
ATOM     20  O   UNL     1      48.015  -6.759  78.230  1.00  0.00    -0.504 OA
ATOM     21  H   UNL     1      47.268  -7.336  77.863  1.00  0.00     0.293 HD
ENDBRANCH  17  20
ENDBRANCH   1  12
BRANCH   2  22
ATOM     22  O   UNL     1      49.545  -3.273  82.202  1.00  0.00    -0.502 OA
ATOM     23  H   UNL     1      49.424  -2.284  82.017  1.00  0.00     0.293 HD
ENDBRANCH   2  22
BRANCH   6  24
ATOM     24  O   UNL     1      54.371  -1.815  83.478  1.00  0.00    -0.507 OA
ATOM     25  H   UNL     1      53.620  -1.193  83.202  1.00  0.00     0.293 HD
ENDBRANCH   6  24
BRANCH   8  26
ATOM     26  O   UNL     1      56.825  -5.925  82.872  1.00  0.00    -0.508 OA
ATOM     27  H   UNL     1      57.710  -5.461  82.705  1.00  0.00     0.293 HD
ENDBRANCH   8  26
TORSDOF 6
ENDMDL
