MODEL 1
REMARK VINA RESULT:    -3.729      0.000      0.000
REMARK INTER + INTRA:         -11.429
REMARK INTER:                  -8.088
REMARK INTRA:                  -3.341
REMARK UNBOUND:                -3.341
REMARK SMILES CCCCCCCCCCCCCCCCCCCCCC(=O)[O-]
REMARK SMILES IDX 12 1 11 2 10 3 9 4 8 5 7 6 6 7 5 8 4 9 3 10 2 11 1 12 13 13
REMARK SMILES IDX 14 14 15 15 16 16 17 17 18 18 19 19 20 20 21 21 22 22 23 23
REMARK SMILES IDX 24 24
REMARK H PARENT
REMARK Flexibility Score: inf
ROOT
ATOM      1  C   UNL     1       9.720  63.476   8.726  1.00  0.00     0.000 C 
ENDROOT
BRANCH   1   2
ATOM      2  C   UNL     1       9.658  64.864   8.064  1.00  0.00     0.000 C 
BRANCH   2   3
ATOM      3  C   UNL     1       8.998  65.925   8.959  1.00  0.00     0.000 C 
BRANCH   3   4
ATOM      4  C   UNL     1       9.006  67.326   8.326  1.00  0.00    -0.000 C 
BRANCH   4   5
ATOM      5  C   UNL     1       8.759  67.324   6.802  1.00  0.00    -0.000 C 
BRANCH   5   6
ATOM      6  C   UNL     1       7.592  68.243   6.403  1.00  0.00    -0.000 C 
BRANCH   6   7
ATOM      7  C   UNL     1       6.217  67.563   6.545  1.00  0.00    -0.000 C 
BRANCH   7   8
ATOM      8  C   UNL     1       5.336  68.107   7.686  1.00  0.00    -0.000 C 
BRANCH   8   9
ATOM      9  C   UNL     1       4.468  67.022   8.340  1.00  0.00    -0.000 C 
BRANCH   9  10
ATOM     10  C   UNL     1       4.733  65.648   7.706  1.00  0.00    -0.000 C 
BRANCH  10  11
ATOM     11  C   UNL     1       4.924  64.541   8.754  1.00  0.00    -0.003 C 
ATOM     12  C   UNL     1       6.132  63.652   8.462  1.00  0.00     0.004 C 
ENDBRANCH  10  11
ENDBRANCH   9  10
ENDBRANCH   8   9
ENDBRANCH   7   8
ENDBRANCH   6   7
ENDBRANCH   5   6
ENDBRANCH   4   5
ENDBRANCH   3   4
ENDBRANCH   2   3
ENDBRANCH   1   2
BRANCH   1  13
ATOM     13  C   UNL     1      11.140  62.916   8.960  1.00  0.00     0.000 C 
BRANCH  13  14
ATOM     14  C   UNL     1      11.794  62.237   7.744  1.00  0.00     0.000 C 
BRANCH  14  15
ATOM     15  C   UNL     1      13.015  63.005   7.212  1.00  0.00     0.000 C 
BRANCH  15  16
ATOM     16  C   UNL     1      13.639  63.936   8.268  1.00  0.00     0.000 C 
BRANCH  16  17
ATOM     17  C   UNL     1      13.993  65.353   7.769  1.00  0.00     0.000 C 
BRANCH  17  18
ATOM     18  C   UNL     1      12.921  66.427   8.031  1.00  0.00     0.000 C 
BRANCH  18  19
ATOM     19  C   UNL     1      12.446  67.118   6.742  1.00  0.00     0.000 C 
BRANCH  19  20
ATOM     20  C   UNL     1      12.743  66.297   5.474  1.00  0.00     0.006 C 
BRANCH  20  21
ATOM     21  C   UNL     1      11.524  65.533   4.926  1.00  0.00     0.053 C 
BRANCH  21  22
ATOM     22  C   UNL     1      11.298  65.775   3.466  1.00  0.00     0.041 C 
ATOM     23  O   UNL     1      12.272  66.001   2.701  1.00  0.00    -0.550 OA
ATOM     24  O   UNL     1      10.009  65.735   2.946  1.00  0.00    -0.550 OA
ENDBRANCH  21  22
ENDBRANCH  20  21
ENDBRANCH  19  20
ENDBRANCH  18  19
ENDBRANCH  17  18
ENDBRANCH  16  17
ENDBRANCH  15  16
ENDBRANCH  14  15
ENDBRANCH  13  14
ENDBRANCH   1  13
TORSDOF 20
ENDMDL
MODEL 2
REMARK VINA RESULT:    -3.669      2.656      5.790
REMARK INTER + INTRA:         -11.299
REMARK INTER:                  -8.049
REMARK INTRA:                  -3.250
REMARK UNBOUND:                -3.341
REMARK SMILES CCCCCCCCCCCCCCCCCCCCCC(=O)[O-]
REMARK SMILES IDX 12 1 11 2 10 3 9 4 8 5 7 6 6 7 5 8 4 9 3 10 2 11 1 12 13 13
REMARK SMILES IDX 14 14 15 15 16 16 17 17 18 18 19 19 20 20 21 21 22 22 23 23
REMARK SMILES IDX 24 24
REMARK H PARENT
REMARK Flexibility Score: inf
ROOT
ATOM      1  C   UNL     1      12.802  62.761   6.807  1.00  0.00     0.000 C 
ENDROOT
BRANCH   1   2
ATOM      2  C   UNL     1      13.258  64.131   7.341  1.00  0.00     0.000 C 
BRANCH   2   3
ATOM      3  C   UNL     1      13.110  65.256   6.305  1.00  0.00     0.000 C 
BRANCH   3   4
ATOM      4  C   UNL     1      11.883  65.072   5.397  1.00  0.00    -0.000 C 
BRANCH   4   5
ATOM      5  C   UNL     1      12.226  65.001   3.893  1.00  0.00    -0.000 C 
BRANCH   5   6
ATOM      6  C   UNL     1      11.474  66.066   3.077  1.00  0.00    -0.000 C 
BRANCH   6   7
ATOM      7  C   UNL     1       9.974  66.138   3.422  1.00  0.00    -0.000 C 
BRANCH   7   8
ATOM      8  C   UNL     1       9.457  67.541   3.789  1.00  0.00    -0.000 C 
BRANCH   8   9
ATOM      9  C   UNL     1       9.087  67.672   5.275  1.00  0.00    -0.000 C 
BRANCH   9  10
ATOM     10  C   UNL     1      10.273  68.201   6.094  1.00  0.00    -0.000 C 
BRANCH  10  11
ATOM     11  C   UNL     1       9.838  69.164   7.209  1.00  0.00    -0.003 C 
ATOM     12  C   UNL     1       8.353  69.515   7.141  1.00  0.00     0.004 C 
ENDBRANCH  10  11
ENDBRANCH   9  10
ENDBRANCH   8   9
ENDBRANCH   7   8
ENDBRANCH   6   7
ENDBRANCH   5   6
ENDBRANCH   4   5
ENDBRANCH   3   4
ENDBRANCH   2   3
ENDBRANCH   1   2
BRANCH   1  13
ATOM     13  C   UNL     1      11.709  62.055   7.640  1.00  0.00     0.000 C 
BRANCH  13  14
ATOM     14  C   UNL     1      11.209  62.832   8.870  1.00  0.00     0.000 C 
BRANCH  14  15
ATOM     15  C   UNL     1       9.859  63.531   8.632  1.00  0.00     0.000 C 
BRANCH  15  16
ATOM     16  C   UNL     1       9.951  65.062   8.765  1.00  0.00     0.000 C 
BRANCH  16  17
ATOM     17  C   UNL     1       8.671  65.833   8.378  1.00  0.00     0.000 C 
BRANCH  17  18
ATOM     18  C   UNL     1       7.980  66.578   9.535  1.00  0.00     0.000 C 
BRANCH  18  19
ATOM     19  C   UNL     1       6.532  66.975   9.205  1.00  0.00     0.000 C 
BRANCH  19  20
ATOM     20  C   UNL     1       6.090  66.523   7.800  1.00  0.00     0.006 C 
BRANCH  20  21
ATOM     21  C   UNL     1       4.893  65.554   7.806  1.00  0.00     0.053 C 
BRANCH  21  22
ATOM     22  C   UNL     1       5.137  64.339   8.647  1.00  0.00     0.041 C 
ATOM     23  O   UNL     1       6.031  63.512   8.325  1.00  0.00    -0.550 OA
ATOM     24  O   UNL     1       4.387  64.128   9.798  1.00  0.00    -0.550 OA
ENDBRANCH  21  22
ENDBRANCH  20  21
ENDBRANCH  19  20
ENDBRANCH  18  19
ENDBRANCH  17  18
ENDBRANCH  16  17
ENDBRANCH  15  16
ENDBRANCH  14  15
ENDBRANCH  13  14
ENDBRANCH   1  13
TORSDOF 20
ENDMDL
MODEL 3
REMARK VINA RESULT:    -3.661      1.391      2.416
REMARK INTER + INTRA:         -11.282
REMARK INTER:                  -8.253
REMARK INTRA:                  -3.029
REMARK UNBOUND:                -3.341
REMARK SMILES CCCCCCCCCCCCCCCCCCCCCC(=O)[O-]
REMARK SMILES IDX 12 1 11 2 10 3 9 4 8 5 7 6 6 7 5 8 4 9 3 10 2 11 1 12 13 13
REMARK SMILES IDX 14 14 15 15 16 16 17 17 18 18 19 19 20 20 21 21 22 22 23 23
REMARK SMILES IDX 24 24
REMARK H PARENT
REMARK Flexibility Score: inf
ROOT
ATOM      1  C   UNL     1      10.909  63.064   8.979  1.00  0.00     0.000 C 
ENDROOT
BRANCH   1   2
ATOM      2  C   UNL     1       9.463  63.484   8.660  1.00  0.00     0.000 C 
BRANCH   2   3
ATOM      3  C   UNL     1       9.252  65.004   8.725  1.00  0.00     0.000 C 
BRANCH   3   4
ATOM      4  C   UNL     1       9.854  65.741   7.517  1.00  0.00    -0.000 C 
BRANCH   4   5
ATOM      5  C   UNL     1      10.103  67.245   7.765  1.00  0.00    -0.000 C 
BRANCH   5   6
ATOM      6  C   UNL     1       9.778  68.097   6.526  1.00  0.00    -0.000 C 
BRANCH   6   7
ATOM      7  C   UNL     1       8.369  67.826   5.965  1.00  0.00    -0.000 C 
BRANCH   7   8
ATOM      8  C   UNL     1       7.216  68.459   6.767  1.00  0.00    -0.000 C 
BRANCH   8   9
ATOM      9  C   UNL     1       5.958  67.578   6.800  1.00  0.00    -0.000 C 
BRANCH   9  10
ATOM     10  C   UNL     1       6.074  66.491   7.879  1.00  0.00    -0.000 C 
BRANCH  10  11
ATOM     11  C   UNL     1       5.032  65.375   7.709  1.00  0.00    -0.003 C 
ATOM     12  C   UNL     1       5.126  64.308   8.798  1.00  0.00     0.004 C 
ENDBRANCH  10  11
ENDBRANCH   9  10
ENDBRANCH   8   9
ENDBRANCH   7   8
ENDBRANCH   6   7
ENDBRANCH   5   6
ENDBRANCH   4   5
ENDBRANCH   3   4
ENDBRANCH   2   3
ENDBRANCH   1   2
BRANCH   1  13
ATOM     13  C   UNL     1      11.534  62.042   8.004  1.00  0.00     0.000 C 
BRANCH  13  14
ATOM     14  C   UNL     1      12.600  62.605   7.048  1.00  0.00     0.000 C 
BRANCH  14  15
ATOM     15  C   UNL     1      13.323  63.839   7.614  1.00  0.00     0.000 C 
BRANCH  15  16
ATOM     16  C   UNL     1      13.305  65.035   6.644  1.00  0.00     0.000 C 
BRANCH  16  17
ATOM     17  C   UNL     1      12.609  64.774   5.292  1.00  0.00     0.000 C 
BRANCH  17  18
ATOM     18  C   UNL     1      12.055  66.027   4.588  1.00  0.00     0.000 C 
BRANCH  18  19
ATOM     19  C   UNL     1      10.845  65.718   3.690  1.00  0.00     0.000 C 
BRANCH  19  20
ATOM     20  C   UNL     1      10.638  66.765   2.579  1.00  0.00     0.006 C 
BRANCH  20  21
ATOM     21  C   UNL     1      11.890  67.609   2.277  1.00  0.00     0.053 C 
BRANCH  21  22
ATOM     22  C   UNL     1      12.614  67.149   1.050  1.00  0.00     0.041 C 
ATOM     23  O   UNL     1      12.389  67.693  -0.063  1.00  0.00    -0.550 OA
ATOM     24  O   UNL     1      13.553  66.127   1.138  1.00  0.00    -0.550 OA
ENDBRANCH  21  22
ENDBRANCH  20  21
ENDBRANCH  19  20
ENDBRANCH  18  19
ENDBRANCH  17  18
ENDBRANCH  16  17
ENDBRANCH  15  16
ENDBRANCH  14  15
ENDBRANCH  13  14
ENDBRANCH   1  13
TORSDOF 20
ENDMDL
MODEL 4
REMARK VINA RESULT:    -3.614      1.176      2.820
REMARK INTER + INTRA:         -11.181
REMARK INTER:                  -8.085
REMARK INTRA:                  -3.096
REMARK UNBOUND:                -3.341
REMARK SMILES CCCCCCCCCCCCCCCCCCCCCC(=O)[O-]
REMARK SMILES IDX 12 1 11 2 10 3 9 4 8 5 7 6 6 7 5 8 4 9 3 10 2 11 1 12 13 13
REMARK SMILES IDX 14 14 15 15 16 16 17 17 18 18 19 19 20 20 21 21 22 22 23 23
REMARK SMILES IDX 24 24
REMARK H PARENT
REMARK Flexibility Score: inf
ROOT
ATOM      1  C   UNL     1       9.535  63.509   8.432  1.00  0.00     0.000 C 
ENDROOT
BRANCH   1   2
ATOM      2  C   UNL     1       9.253  64.986   8.763  1.00  0.00     0.000 C 
BRANCH   2   3
ATOM      3  C   UNL     1       7.754  65.324   8.763  1.00  0.00     0.000 C 
BRANCH   3   4
ATOM      4  C   UNL     1       6.862  64.078   8.641  1.00  0.00    -0.000 C 
BRANCH   4   5
ATOM      5  C   UNL     1       5.352  64.394   8.603  1.00  0.00    -0.000 C 
BRANCH   5   6
ATOM      6  C   UNL     1       5.075  65.905   8.681  1.00  0.00    -0.000 C 
BRANCH   6   7
ATOM      7  C   UNL     1       4.227  66.421   7.503  1.00  0.00    -0.000 C 
BRANCH   7   8
ATOM      8  C   UNL     1       4.972  66.518   6.158  1.00  0.00    -0.000 C 
BRANCH   8   9
ATOM      9  C   UNL     1       5.645  67.883   5.945  1.00  0.00    -0.000 C 
BRANCH   9  10
ATOM     10  C   UNL     1       7.109  67.714   5.512  1.00  0.00    -0.000 C 
BRANCH  10  11
ATOM     11  C   UNL     1       8.100  68.169   6.594  1.00  0.00    -0.003 C 
ATOM     12  C   UNL     1       7.417  68.882   7.760  1.00  0.00     0.004 C 
ENDBRANCH  10  11
ENDBRANCH   9  10
ENDBRANCH   8   9
ENDBRANCH   7   8
ENDBRANCH   6   7
ENDBRANCH   5   6
ENDBRANCH   4   5
ENDBRANCH   3   4
ENDBRANCH   2   3
ENDBRANCH   1   2
BRANCH   1  13
ATOM     13  C   UNL     1      10.955  63.010   8.782  1.00  0.00     0.000 C 
BRANCH  13  14
ATOM     14  C   UNL     1      11.610  62.091   7.736  1.00  0.00     0.000 C 
BRANCH  14  15
ATOM     15  C   UNL     1      12.773  62.765   6.988  1.00  0.00     0.000 C 
BRANCH  15  16
ATOM     16  C   UNL     1      13.367  63.956   7.762  1.00  0.00     0.000 C 
BRANCH  16  17
ATOM     17  C   UNL     1      13.188  65.333   7.087  1.00  0.00     0.000 C 
BRANCH  17  18
ATOM     18  C   UNL     1      12.470  65.307   5.725  1.00  0.00     0.000 C 
BRANCH  18  19
ATOM     19  C   UNL     1      11.106  66.015   5.760  1.00  0.00     0.000 C 
BRANCH  19  20
ATOM     20  C   UNL     1      10.458  66.142   4.368  1.00  0.00     0.006 C 
BRANCH  20  21
ATOM     21  C   UNL     1      10.770  67.470   3.655  1.00  0.00     0.053 C 
BRANCH  21  22
ATOM     22  C   UNL     1      11.645  67.289   2.453  1.00  0.00     0.041 C 
ATOM     23  O   UNL     1      11.649  68.151   1.535  1.00  0.00    -0.550 OA
ATOM     24  O   UNL     1      12.470  66.175   2.355  1.00  0.00    -0.550 OA
ENDBRANCH  21  22
ENDBRANCH  20  21
ENDBRANCH  19  20
ENDBRANCH  18  19
ENDBRANCH  17  18
ENDBRANCH  16  17
ENDBRANCH  15  16
ENDBRANCH  14  15
ENDBRANCH  13  14
ENDBRANCH   1  13
TORSDOF 20
ENDMDL
MODEL 5
REMARK VINA RESULT:    -3.554      1.322      2.320
REMARK INTER + INTRA:         -11.050
REMARK INTER:                  -7.701
REMARK INTRA:                  -3.349
REMARK UNBOUND:                -3.341
REMARK SMILES CCCCCCCCCCCCCCCCCCCCCC(=O)[O-]
REMARK SMILES IDX 12 1 11 2 10 3 9 4 8 5 7 6 6 7 5 8 4 9 3 10 2 11 1 12 13 13
REMARK SMILES IDX 14 14 15 15 16 16 17 17 18 18 19 19 20 20 21 21 22 22 23 23
REMARK SMILES IDX 24 24
REMARK H PARENT
REMARK Flexibility Score: inf
ROOT
ATOM      1  C   UNL     1       9.955  65.011   8.310  1.00  0.00     0.000 C 
ENDROOT
BRANCH   1   2
ATOM      2  C   UNL     1      10.807  65.850   9.279  1.00  0.00     0.000 C 
BRANCH   2   3
ATOM      3  C   UNL     1      10.257  67.270   9.485  1.00  0.00     0.000 C 
BRANCH   3   4
ATOM      4  C   UNL     1       9.447  67.776   8.281  1.00  0.00    -0.000 C 
BRANCH   4   5
ATOM      5  C   UNL     1       7.942  67.957   8.575  1.00  0.00    -0.000 C 
BRANCH   5   6
ATOM      6  C   UNL     1       7.566  67.480   9.988  1.00  0.00    -0.000 C 
BRANCH   6   7
ATOM      7  C   UNL     1       6.667  66.230   9.980  1.00  0.00    -0.000 C 
BRANCH   7   8
ATOM      8  C   UNL     1       6.468  65.580   8.597  1.00  0.00    -0.000 C 
BRANCH   8   9
ATOM      9  C   UNL     1       5.002  65.222   8.311  1.00  0.00    -0.000 C 
BRANCH   9  10
ATOM     10  C   UNL     1       4.307  66.337   7.515  1.00  0.00    -0.000 C 
BRANCH  10  11
ATOM     11  C   UNL     1       5.032  66.664   6.200  1.00  0.00    -0.003 C 
ATOM     12  C   UNL     1       5.245  68.164   5.999  1.00  0.00     0.004 C 
ENDBRANCH  10  11
ENDBRANCH   9  10
ENDBRANCH   8   9
ENDBRANCH   7   8
ENDBRANCH   6   7
ENDBRANCH   5   6
ENDBRANCH   4   5
ENDBRANCH   3   4
ENDBRANCH   2   3
ENDBRANCH   1   2
BRANCH   1  13
ATOM     13  C   UNL     1       9.912  63.496   8.606  1.00  0.00     0.000 C 
BRANCH  13  14
ATOM     14  C   UNL     1      11.280  62.820   8.804  1.00  0.00     0.000 C 
BRANCH  14  15
ATOM     15  C   UNL     1      11.719  61.983   7.590  1.00  0.00     0.000 C 
BRANCH  15  16
ATOM     16  C   UNL     1      12.885  62.624   6.816  1.00  0.00     0.000 C 
BRANCH  16  17
ATOM     17  C   UNL     1      13.517  63.862   7.487  1.00  0.00     0.000 C 
BRANCH  17  18
ATOM     18  C   UNL     1      13.430  65.165   6.671  1.00  0.00     0.000 C 
BRANCH  18  19
ATOM     19  C   UNL     1      12.450  65.063   5.491  1.00  0.00     0.000 C 
BRANCH  19  20
ATOM     20  C   UNL     1      11.964  66.437   4.992  1.00  0.00     0.006 C 
BRANCH  20  21
ATOM     21  C   UNL     1      10.432  66.566   4.915  1.00  0.00     0.053 C 
BRANCH  21  22
ATOM     22  C   UNL     1       9.908  66.409   3.521  1.00  0.00     0.041 C 
ATOM     23  O   UNL     1      10.261  65.428   2.816  1.00  0.00    -0.550 OA
ATOM     24  O   UNL     1       9.013  67.340   3.005  1.00  0.00    -0.550 OA
ENDBRANCH  21  22
ENDBRANCH  20  21
ENDBRANCH  19  20
ENDBRANCH  18  19
ENDBRANCH  17  18
ENDBRANCH  16  17
ENDBRANCH  15  16
ENDBRANCH  14  15
ENDBRANCH  13  14
ENDBRANCH   1  13
TORSDOF 20
ENDMDL
MODEL 6
REMARK VINA RESULT:    -3.516      2.637      6.578
REMARK INTER + INTRA:         -10.967
REMARK INTER:                  -7.531
REMARK INTRA:                  -3.437
REMARK UNBOUND:                -3.341
REMARK SMILES CCCCCCCCCCCCCCCCCCCCCC(=O)[O-]
REMARK SMILES IDX 12 1 11 2 10 3 9 4 8 5 7 6 6 7 5 8 4 9 3 10 2 11 1 12 13 13
REMARK SMILES IDX 14 14 15 15 16 16 17 17 18 18 19 19 20 20 21 21 22 22 23 23
REMARK SMILES IDX 24 24
REMARK H PARENT
REMARK Flexibility Score: inf
ROOT
ATOM      1  C   UNL     1       9.970  65.392   8.246  1.00  0.00     0.000 C 
ENDROOT
BRANCH   1   2
ATOM      2  C   UNL     1       9.432  63.961   8.419  1.00  0.00     0.000 C 
BRANCH   2   3
ATOM      3  C   UNL     1      10.375  63.060   9.232  1.00  0.00     0.000 C 
BRANCH   3   4
ATOM      4  C   UNL     1      11.836  63.148   8.761  1.00  0.00    -0.000 C 
BRANCH   4   5
ATOM      5  C   UNL     1      12.129  62.332   7.484  1.00  0.00    -0.000 C 
BRANCH   5   6
ATOM      6  C   UNL     1      13.093  63.066   6.536  1.00  0.00    -0.000 C 
BRANCH   6   7
ATOM      7  C   UNL     1      13.464  64.476   7.032  1.00  0.00    -0.000 C 
BRANCH   7   8
ATOM      8  C   UNL     1      13.073  65.625   6.082  1.00  0.00    -0.000 C 
BRANCH   8   9
ATOM      9  C   UNL     1      12.149  65.169   4.942  1.00  0.00    -0.000 C 
BRANCH   9  10
ATOM     10  C   UNL     1      11.001  66.166   4.732  1.00  0.00    -0.000 C 
BRANCH  10  11
ATOM     11  C   UNL     1      10.662  66.372   3.247  1.00  0.00    -0.003 C 
ATOM     12  C   UNL     1       9.174  66.625   3.010  1.00  0.00     0.004 C 
ENDBRANCH  10  11
ENDBRANCH   9  10
ENDBRANCH   8   9
ENDBRANCH   7   8
ENDBRANCH   6   7
ENDBRANCH   5   6
ENDBRANCH   4   5
ENDBRANCH   3   4
ENDBRANCH   2   3
ENDBRANCH   1   2
BRANCH   1  13
ATOM     13  C   UNL     1      10.057  66.230   9.541  1.00  0.00     0.000 C 
BRANCH  13  14
ATOM     14  C   UNL     1      10.279  67.739   9.340  1.00  0.00     0.000 C 
BRANCH  14  15
ATOM     15  C   UNL     1      11.150  68.061   8.114  1.00  0.00     0.000 C 
BRANCH  15  16
ATOM     16  C   UNL     1      10.379  68.818   7.018  1.00  0.00     0.000 C 
BRANCH  16  17
ATOM     17  C   UNL     1       8.852  68.900   7.226  1.00  0.00     0.000 C 
BRANCH  17  18
ATOM     18  C   UNL     1       8.014  68.024   6.276  1.00  0.00     0.000 C 
BRANCH  18  19
ATOM     19  C   UNL     1       6.598  67.753   6.812  1.00  0.00     0.000 C 
BRANCH  19  20
ATOM     20  C   UNL     1       6.552  66.598   7.832  1.00  0.00     0.006 C 
BRANCH  20  21
ATOM     21  C   UNL     1       5.295  65.717   7.717  1.00  0.00     0.053 C 
BRANCH  21  22
ATOM     22  C   UNL     1       5.233  64.659   8.775  1.00  0.00     0.041 C 
ATOM     23  O   UNL     1       5.787  63.543   8.591  1.00  0.00    -0.550 OA
ATOM     24  O   UNL     1       4.576  64.911   9.974  1.00  0.00    -0.550 OA
ENDBRANCH  21  22
ENDBRANCH  20  21
ENDBRANCH  19  20
ENDBRANCH  18  19
ENDBRANCH  17  18
ENDBRANCH  16  17
ENDBRANCH  15  16
ENDBRANCH  14  15
ENDBRANCH  13  14
ENDBRANCH   1  13
TORSDOF 20
ENDMDL
MODEL 7
REMARK VINA RESULT:    -3.501      2.754      6.499
REMARK INTER + INTRA:         -10.934
REMARK INTER:                  -8.161
REMARK INTRA:                  -2.773
REMARK UNBOUND:                -3.341
REMARK SMILES CCCCCCCCCCCCCCCCCCCCCC(=O)[O-]
REMARK SMILES IDX 12 1 11 2 10 3 9 4 8 5 7 6 6 7 5 8 4 9 3 10 2 11 1 12 13 13
REMARK SMILES IDX 14 14 15 15 16 16 17 17 18 18 19 19 20 20 21 21 22 22 23 23
REMARK SMILES IDX 24 24
REMARK H PARENT
REMARK Flexibility Score: inf
ROOT
ATOM      1  C   UNL     1       9.882  63.141   8.814  1.00  0.00     0.000 C 
ENDROOT
BRANCH   1   2
ATOM      2  C   UNL     1      11.415  63.020   8.746  1.00  0.00     0.000 C 
BRANCH   2   3
ATOM      3  C   UNL     1      11.895  62.121   7.596  1.00  0.00     0.000 C 
BRANCH   3   4
ATOM      4  C   UNL     1      12.882  62.833   6.656  1.00  0.00    -0.000 C 
BRANCH   4   5
ATOM      5  C   UNL     1      13.495  64.118   7.254  1.00  0.00    -0.000 C 
BRANCH   5   6
ATOM      6  C   UNL     1      13.129  65.368   6.436  1.00  0.00    -0.000 C 
BRANCH   6   7
ATOM      7  C   UNL     1      12.308  65.041   5.174  1.00  0.00    -0.000 C 
BRANCH   7   8
ATOM      8  C   UNL     1      11.202  66.058   4.835  1.00  0.00    -0.000 C 
BRANCH   8   9
ATOM      9  C   UNL     1      10.582  65.826   3.449  1.00  0.00    -0.000 C 
BRANCH   9  10
ATOM     10  C   UNL     1       9.615  66.962   3.081  1.00  0.00    -0.000 C 
BRANCH  10  11
ATOM     11  C   UNL     1       8.926  67.572   4.311  1.00  0.00    -0.003 C 
ATOM     12  C   UNL     1       7.470  67.951   4.046  1.00  0.00     0.004 C 
ENDBRANCH  10  11
ENDBRANCH   9  10
ENDBRANCH   8   9
ENDBRANCH   7   8
ENDBRANCH   6   7
ENDBRANCH   5   6
ENDBRANCH   4   5
ENDBRANCH   3   4
ENDBRANCH   2   3
ENDBRANCH   1   2
BRANCH   1  13
ATOM     13  C   UNL     1       9.301  64.490   8.337  1.00  0.00     0.000 C 
BRANCH  13  14
ATOM     14  C   UNL     1      10.163  65.727   8.644  1.00  0.00     0.000 C 
BRANCH  14  15
ATOM     15  C   UNL     1       9.471  67.049   8.271  1.00  0.00     0.000 C 
BRANCH  15  16
ATOM     16  C   UNL     1       8.025  66.846   7.782  1.00  0.00     0.000 C 
BRANCH  16  17
ATOM     17  C   UNL     1       6.929  67.160   8.824  1.00  0.00     0.000 C 
BRANCH  17  18
ATOM     18  C   UNL     1       6.117  65.945   9.307  1.00  0.00     0.000 C 
BRANCH  18  19
ATOM     19  C   UNL     1       5.240  65.338   8.201  1.00  0.00     0.000 C 
BRANCH  19  20
ATOM     20  C   UNL     1       4.408  66.393   7.445  1.00  0.00     0.006 C 
BRANCH  20  21
ATOM     21  C   UNL     1       4.692  66.443   5.933  1.00  0.00     0.053 C 
BRANCH  21  22
ATOM     22  C   UNL     1       3.527  66.953   5.143  1.00  0.00     0.041 C 
ATOM     23  O   UNL     1       3.195  68.166   5.210  1.00  0.00    -0.550 OA
ATOM     24  O   UNL     1       2.815  66.090   4.318  1.00  0.00    -0.550 OA
ENDBRANCH  21  22
ENDBRANCH  20  21
ENDBRANCH  19  20
ENDBRANCH  18  19
ENDBRANCH  17  18
ENDBRANCH  16  17
ENDBRANCH  15  16
ENDBRANCH  14  15
ENDBRANCH  13  14
ENDBRANCH   1  13
TORSDOF 20
ENDMDL
MODEL 8
REMARK VINA RESULT:    -3.481      1.504      6.331
REMARK INTER + INTRA:         -10.892
REMARK INTER:                  -7.621
REMARK INTRA:                  -3.271
REMARK UNBOUND:                -3.341
REMARK SMILES CCCCCCCCCCCCCCCCCCCCCC(=O)[O-]
REMARK SMILES IDX 12 1 11 2 10 3 9 4 8 5 7 6 6 7 5 8 4 9 3 10 2 11 1 12 13 13
REMARK SMILES IDX 14 14 15 15 16 16 17 17 18 18 19 19 20 20 21 21 22 22 23 23
REMARK SMILES IDX 24 24
REMARK H PARENT
REMARK Flexibility Score: inf
ROOT
ATOM      1  C   UNL     1       9.820  65.016   8.786  1.00  0.00     0.000 C 
ENDROOT
BRANCH   1   2
ATOM      2  C   UNL     1       9.902  63.531   8.389  1.00  0.00     0.000 C 
BRANCH   2   3
ATOM      3  C   UNL     1      11.261  62.896   8.722  1.00  0.00     0.000 C 
BRANCH   3   4
ATOM      4  C   UNL     1      11.819  62.045   7.570  1.00  0.00    -0.000 C 
BRANCH   4   5
ATOM      5  C   UNL     1      12.838  62.791   6.681  1.00  0.00    -0.000 C 
BRANCH   5   6
ATOM      6  C   UNL     1      13.429  64.023   7.387  1.00  0.00    -0.000 C 
BRANCH   6   7
ATOM      7  C   UNL     1      13.213  65.328   6.598  1.00  0.00    -0.000 C 
BRANCH   7   8
ATOM      8  C   UNL     1      12.358  65.185   5.325  1.00  0.00    -0.000 C 
BRANCH   8   9
ATOM      9  C   UNL     1      11.035  65.962   5.402  1.00  0.00    -0.000 C 
BRANCH   9  10
ATOM     10  C   UNL     1      11.283  67.477   5.369  1.00  0.00    -0.000 C 
BRANCH  10  11
ATOM     11  C   UNL     1      10.518  68.225   6.472  1.00  0.00    -0.003 C 
ATOM     12  C   UNL     1      11.289  68.284   7.790  1.00  0.00     0.004 C 
ENDBRANCH  10  11
ENDBRANCH   9  10
ENDBRANCH   8   9
ENDBRANCH   7   8
ENDBRANCH   6   7
ENDBRANCH   5   6
ENDBRANCH   4   5
ENDBRANCH   3   4
ENDBRANCH   2   3
ENDBRANCH   1   2
BRANCH   1  13
ATOM     13  C   UNL     1       8.546  65.757   8.322  1.00  0.00     0.000 C 
BRANCH  13  14
ATOM     14  C   UNL     1       7.306  65.564   9.213  1.00  0.00     0.000 C 
BRANCH  14  15
ATOM     15  C   UNL     1       6.389  64.428   8.729  1.00  0.00     0.000 C 
BRANCH  15  16
ATOM     16  C   UNL     1       4.971  64.916   8.382  1.00  0.00     0.000 C 
BRANCH  16  17
ATOM     17  C   UNL     1       4.878  65.851   7.157  1.00  0.00     0.000 C 
BRANCH  17  18
ATOM     18  C   UNL     1       4.530  67.316   7.475  1.00  0.00     0.000 C 
BRANCH  18  19
ATOM     19  C   UNL     1       5.367  68.316   6.660  1.00  0.00     0.000 C 
BRANCH  19  20
ATOM     20  C   UNL     1       6.584  67.664   5.975  1.00  0.00     0.006 C 
BRANCH  20  21
ATOM     21  C   UNL     1       6.499  67.649   4.438  1.00  0.00     0.053 C 
BRANCH  21  22
ATOM     22  C   UNL     1       7.818  67.921   3.784  1.00  0.00     0.041 C 
ATOM     23  O   UNL     1       8.320  69.075   3.822  1.00  0.00    -0.550 OA
ATOM     24  O   UNL     1       8.503  66.894   3.144  1.00  0.00    -0.550 OA
ENDBRANCH  21  22
ENDBRANCH  20  21
ENDBRANCH  19  20
ENDBRANCH  18  19
ENDBRANCH  17  18
ENDBRANCH  16  17
ENDBRANCH  15  16
ENDBRANCH  14  15
ENDBRANCH  13  14
ENDBRANCH   1  13
TORSDOF 20
ENDMDL
MODEL 9
REMARK VINA RESULT:    -3.465      1.411      2.645
REMARK INTER + INTRA:         -10.858
REMARK INTER:                  -8.733
REMARK INTRA:                  -2.125
REMARK UNBOUND:                -3.341
REMARK SMILES CCCCCCCCCCCCCCCCCCCCCC(=O)[O-]
REMARK SMILES IDX 12 1 11 2 10 3 9 4 8 5 7 6 6 7 5 8 4 9 3 10 2 11 1 12 13 13
REMARK SMILES IDX 14 14 15 15 16 16 17 17 18 18 19 19 20 20 21 21 22 22 23 23
REMARK SMILES IDX 24 24
REMARK H PARENT
REMARK Flexibility Score: inf
ROOT
ATOM      1  C   UNL     1       9.409  63.687   8.607  1.00  0.00     0.000 C 
ENDROOT
BRANCH   1   2
ATOM      2  C   UNL     1       8.936  65.150   8.665  1.00  0.00     0.000 C 
BRANCH   2   3
ATOM      3  C   UNL     1       7.476  65.290   9.123  1.00  0.00     0.000 C 
BRANCH   3   4
ATOM      4  C   UNL     1       6.592  64.119   8.663  1.00  0.00    -0.000 C 
BRANCH   4   5
ATOM      5  C   UNL     1       5.126  64.516   8.386  1.00  0.00    -0.000 C 
BRANCH   5   6
ATOM      6  C   UNL     1       4.716  65.785   9.153  1.00  0.00    -0.000 C 
BRANCH   6   7
ATOM      7  C   UNL     1       4.144  66.882   8.235  1.00  0.00    -0.000 C 
BRANCH   7   8
ATOM      8  C   UNL     1       5.185  67.612   7.366  1.00  0.00    -0.000 C 
BRANCH   8   9
ATOM      9  C   UNL     1       4.713  67.823   5.919  1.00  0.00    -0.000 C 
BRANCH   9  10
ATOM     10  C   UNL     1       4.147  66.522   5.329  1.00  0.00    -0.000 C 
BRANCH  10  11
ATOM     11  C   UNL     1       4.839  66.118   4.018  1.00  0.00    -0.003 C 
ATOM     12  C   UNL     1       5.906  67.121   3.579  1.00  0.00     0.004 C 
ENDBRANCH  10  11
ENDBRANCH   9  10
ENDBRANCH   8   9
ENDBRANCH   7   8
ENDBRANCH   6   7
ENDBRANCH   5   6
ENDBRANCH   4   5
ENDBRANCH   3   4
ENDBRANCH   2   3
ENDBRANCH   1   2
BRANCH   1  13
ATOM     13  C   UNL     1      10.934  63.477   8.741  1.00  0.00     0.000 C 
BRANCH  13  14
ATOM     14  C   UNL     1      11.500  62.249   8.007  1.00  0.00     0.000 C 
BRANCH  14  15
ATOM     15  C   UNL     1      12.683  62.592   7.086  1.00  0.00     0.000 C 
BRANCH  15  16
ATOM     16  C   UNL     1      13.456  63.840   7.551  1.00  0.00     0.000 C 
BRANCH  16  17
ATOM     17  C   UNL     1      13.398  65.045   6.588  1.00  0.00     0.000 C 
BRANCH  17  18
ATOM     18  C   UNL     1      12.814  66.337   7.189  1.00  0.00     0.000 C 
BRANCH  18  19
ATOM     19  C   UNL     1      11.430  66.685   6.617  1.00  0.00     0.000 C 
BRANCH  19  20
ATOM     20  C   UNL     1      11.486  67.158   5.152  1.00  0.00     0.006 C 
BRANCH  20  21
ATOM     21  C   UNL     1      10.906  66.145   4.148  1.00  0.00     0.053 C 
BRANCH  21  22
ATOM     22  C   UNL     1      11.945  65.580   3.231  1.00  0.00     0.041 C 
ATOM     23  O   UNL     1      12.215  64.350   3.258  1.00  0.00    -0.550 OA
ATOM     24  O   UNL     1      12.606  66.410   2.332  1.00  0.00    -0.550 OA
ENDBRANCH  21  22
ENDBRANCH  20  21
ENDBRANCH  19  20
ENDBRANCH  18  19
ENDBRANCH  17  18
ENDBRANCH  16  17
ENDBRANCH  15  16
ENDBRANCH  14  15
ENDBRANCH  13  14
ENDBRANCH   1  13
TORSDOF 20
ENDMDL
