MODEL 1
REMARK VINA RESULT:    -6.855      0.000      0.000
REMARK INTER + INTRA:          -8.363
REMARK INTER:                  -8.257
REMARK INTRA:                  -0.106
REMARK UNBOUND:                -0.106
REMARK SMILES O=c1c(O)c(-c2ccc(O)c(O)c2)oc2cc(O)cc(O)c12
REMARK SMILES IDX 5 1 3 2 2 3 1 4 22 5 20 6 19 7 17 8 16 9 15 10 14 11 6 12
REMARK SMILES IDX 7 13 8 14 9 15 13 16 11 17 10 18 12 20 4 22 21 24 18 26
REMARK H PARENT 10 19 12 21 4 23 21 25 18 27
REMARK Flexibility Score: inf
ROOT
ATOM      1  C   UNL     1       8.297  16.124 -18.894  1.00  0.00     0.180 A 
ATOM      2  C   UNL     1       8.382  15.846 -20.270  1.00  0.00     0.208 A 
ATOM      3  C   UNL     1       8.722  14.547 -20.682  1.00  0.00     0.238 A 
ATOM      4  O   UNL     1       8.743  14.290 -21.915  1.00  0.00    -0.285 OA
ATOM      5  C   UNL     1       8.986  13.548 -19.715  1.00  0.00     0.111 A 
ATOM      6  C   UNL     1       9.378  12.209 -20.020  1.00  0.00     0.134 A 
ATOM      7  C   UNL     1       9.487  11.269 -18.987  1.00  0.00     0.093 A 
ATOM      8  C   UNL     1       9.282  11.637 -17.655  1.00  0.00     0.123 A 
ATOM      9  C   UNL     1       8.958  12.955 -17.342  1.00  0.00     0.094 A 
ATOM     10  C   UNL     1       8.807  13.906 -18.354  1.00  0.00     0.146 A 
ATOM     11  O   UNL     1       8.486  15.149 -18.013  1.00  0.00    -0.452 OA
ENDROOT
BRANCH   1  12
ATOM     12  C   UNL     1       7.969  17.474 -18.383  1.00  0.00     0.025 A 
ATOM     13  C   UNL     1       6.814  17.705 -17.615  1.00  0.00     0.016 A 
ATOM     14  C   UNL     1       6.512  18.992 -17.163  1.00  0.00     0.051 A 
ATOM     15  C   UNL     1       7.350  20.069 -17.483  1.00  0.00     0.157 A 
ATOM     16  C   UNL     1       8.794  18.560 -18.718  1.00  0.00     0.062 A 
ATOM     17  C   UNL     1       8.495  19.851 -18.267  1.00  0.00     0.158 A 
BRANCH  15  18
ATOM     18  O   UNL     1       7.047  21.351 -17.029  1.00  0.00    -0.504 OA
ATOM     19  H   UNL     1       6.255  21.526 -16.421  1.00  0.00     0.293 HD
ENDBRANCH  15  18
BRANCH  17  20
ATOM     20  O   UNL     1       9.346  20.902 -18.608  1.00  0.00    -0.504 OA
ATOM     21  H   UNL     1       9.149  21.860 -18.344  1.00  0.00     0.293 HD
ENDBRANCH  17  20
ENDBRANCH   1  12
BRANCH   2  22
ATOM     22  O   UNL     1       8.095  16.842 -21.207  1.00  0.00    -0.502 OA
ATOM     23  H   UNL     1       7.465  17.610 -21.008  1.00  0.00     0.293 HD
ENDBRANCH   2  22
BRANCH   6  24
ATOM     24  O   UNL     1       9.696  11.762 -21.306  1.00  0.00    -0.507 OA
ATOM     25  H   UNL     1      10.011  10.830 -21.529  1.00  0.00     0.293 HD
ENDBRANCH   6  24
BRANCH   8  26
ATOM     26  O   UNL     1       9.408  10.699 -16.631  1.00  0.00    -0.508 OA
ATOM     27  H   UNL     1       8.820  10.733 -15.807  1.00  0.00     0.293 HD
ENDBRANCH   8  26
TORSDOF 6
ENDMDL
MODEL 2
REMARK VINA RESULT:    -6.838      3.403      6.369
REMARK INTER + INTRA:          -8.343
REMARK INTER:                  -8.017
REMARK INTRA:                  -0.326
REMARK UNBOUND:                -0.106
REMARK SMILES O=c1c(O)c(-c2ccc(O)c(O)c2)oc2cc(O)cc(O)c12
REMARK SMILES IDX 5 1 3 2 2 3 1 4 22 5 20 6 19 7 17 8 16 9 15 10 14 11 6 12
REMARK SMILES IDX 7 13 8 14 9 15 13 16 11 17 10 18 12 20 4 22 21 24 18 26
REMARK H PARENT 10 19 12 21 4 23 21 25 18 27
REMARK Flexibility Score: inf
ROOT
ATOM      1  C   UNL     1       9.767  11.524 -16.303  1.00  0.00     0.180 A 
ATOM      2  C   UNL     1      10.489  10.357 -16.612  1.00  0.00     0.208 A 
ATOM      3  C   UNL     1      10.177   9.165 -15.939  1.00  0.00     0.238 A 
ATOM      4  O   UNL     1      10.789   8.112 -16.258  1.00  0.00    -0.285 OA
ATOM      5  C   UNL     1       9.158   9.157 -14.955  1.00  0.00     0.111 A 
ATOM      6  C   UNL     1       8.786   8.015 -14.183  1.00  0.00     0.134 A 
ATOM      7  C   UNL     1       7.677   8.089 -13.331  1.00  0.00     0.093 A 
ATOM      8  C   UNL     1       6.968   9.283 -13.175  1.00  0.00     0.123 A 
ATOM      9  C   UNL     1       7.360  10.419 -13.878  1.00  0.00     0.094 A 
ATOM     10  C   UNL     1       8.440  10.366 -14.763  1.00  0.00     0.146 A 
ATOM     11  O   UNL     1       8.774  11.469 -15.423  1.00  0.00    -0.452 OA
ENDROOT
BRANCH   1  12
ATOM     12  C   UNL     1      10.055  12.823 -16.951  1.00  0.00     0.025 A 
ATOM     13  C   UNL     1      10.937  13.751 -16.370  1.00  0.00     0.016 A 
ATOM     14  C   UNL     1      11.175  14.982 -16.988  1.00  0.00     0.051 A 
ATOM     15  C   UNL     1      10.527  15.309 -18.186  1.00  0.00     0.157 A 
ATOM     16  C   UNL     1       9.392  13.164 -18.142  1.00  0.00     0.062 A 
ATOM     17  C   UNL     1       9.629  14.395 -18.763  1.00  0.00     0.158 A 
BRANCH  15  18
ATOM     18  O   UNL     1      10.768  16.536 -18.801  1.00  0.00    -0.504 OA
ATOM     19  H   UNL     1      10.054  17.254 -18.850  1.00  0.00     0.293 HD
ENDBRANCH  15  18
BRANCH  17  20
ATOM     20  O   UNL     1       8.962  14.693 -19.952  1.00  0.00    -0.504 OA
ATOM     21  H   UNL     1       9.448  14.761 -20.838  1.00  0.00     0.293 HD
ENDBRANCH  17  20
ENDBRANCH   1  12
BRANCH   2  22
ATOM     22  O   UNL     1      11.475  10.383 -17.601  1.00  0.00    -0.502 OA
ATOM     23  H   UNL     1      11.259  10.279 -18.586  1.00  0.00     0.293 HD
ENDBRANCH   2  22
BRANCH   6  24
ATOM     24  O   UNL     1       9.483   6.804 -14.196  1.00  0.00    -0.507 OA
ATOM     25  H   UNL     1       9.213   5.980 -13.680  1.00  0.00     0.293 HD
ENDBRANCH   6  24
BRANCH   8  26
ATOM     26  O   UNL     1       5.875   9.353 -12.313  1.00  0.00    -0.508 OA
ATOM     27  H   UNL     1       5.220  10.125 -12.349  1.00  0.00     0.293 HD
ENDBRANCH   8  26
TORSDOF 6
ENDMDL
MODEL 3
REMARK VINA RESULT:    -6.743      5.460     10.892
REMARK INTER + INTRA:          -8.229
REMARK INTER:                  -8.090
REMARK INTRA:                  -0.139
REMARK UNBOUND:                -0.106
REMARK SMILES O=c1c(O)c(-c2ccc(O)c(O)c2)oc2cc(O)cc(O)c12
REMARK SMILES IDX 5 1 3 2 2 3 1 4 22 5 20 6 19 7 17 8 16 9 15 10 14 11 6 12
REMARK SMILES IDX 7 13 8 14 9 15 13 16 11 17 10 18 12 20 4 22 21 24 18 26
REMARK H PARENT 10 19 12 21 4 23 21 25 18 27
REMARK Flexibility Score: inf
ROOT
ATOM      1  C   UNL     1       7.374   7.919 -15.260  1.00  0.00     0.180 A 
ATOM      2  C   UNL     1       7.046   8.263 -13.937  1.00  0.00     0.208 A 
ATOM      3  C   UNL     1       7.384   9.540 -13.462  1.00  0.00     0.238 A 
ATOM      4  O   UNL     1       7.039   9.861 -12.294  1.00  0.00    -0.285 OA
ATOM      5  C   UNL     1       8.058  10.452 -14.309  1.00  0.00     0.111 A 
ATOM      6  C   UNL     1       8.484  11.757 -13.919  1.00  0.00     0.134 A 
ATOM      7  C   UNL     1       9.026  12.622 -14.879  1.00  0.00     0.093 A 
ATOM      8  C   UNL     1       9.218  12.204 -16.198  1.00  0.00     0.123 A 
ATOM      9  C   UNL     1       8.861  10.912 -16.574  1.00  0.00     0.094 A 
ATOM     10  C   UNL     1       8.284  10.039 -15.648  1.00  0.00     0.146 A 
ATOM     11  O   UNL     1       7.947   8.819 -16.051  1.00  0.00    -0.452 OA
ENDROOT
BRANCH   1  12
ATOM     12  C   UNL     1       7.074   6.584 -15.825  1.00  0.00     0.025 A 
ATOM     13  C   UNL     1       6.162   6.425 -16.883  1.00  0.00     0.016 A 
ATOM     14  C   UNL     1       5.875   5.152 -17.384  1.00  0.00     0.051 A 
ATOM     15  C   UNL     1       6.483   4.020 -16.827  1.00  0.00     0.157 A 
ATOM     16  C   UNL     1       7.665   5.443 -15.256  1.00  0.00     0.062 A 
ATOM     17  C   UNL     1       7.380   4.167 -15.756  1.00  0.00     0.158 A 
BRANCH  15  18
ATOM     18  O   UNL     1       6.197   2.752 -17.330  1.00  0.00    -0.504 OA
ATOM     19  H   UNL     1       5.688   2.628 -18.197  1.00  0.00     0.293 HD
ENDBRANCH  15  18
BRANCH  17  20
ATOM     20  O   UNL     1       7.997   3.059 -15.175  1.00  0.00    -0.504 OA
ATOM     21  H   UNL     1       8.993   2.892 -15.260  1.00  0.00     0.293 HD
ENDBRANCH  17  20
ENDBRANCH   1  12
BRANCH   2  22
ATOM     22  O   UNL     1       6.361   7.355 -13.125  1.00  0.00    -0.502 OA
ATOM     23  H   UNL     1       5.574   7.629 -12.547  1.00  0.00     0.293 HD
ENDBRANCH   2  22
BRANCH   6  24
ATOM     24  O   UNL     1       8.423  12.240 -12.609  1.00  0.00    -0.507 OA
ATOM     25  H   UNL     1       7.653  12.768 -12.226  1.00  0.00     0.293 HD
ENDBRANCH   6  24
BRANCH   8  26
ATOM     26  O   UNL     1       9.772  13.065 -17.143  1.00  0.00    -0.508 OA
ATOM     27  H   UNL     1      10.084  13.997 -16.893  1.00  0.00     0.293 HD
ENDBRANCH   8  26
TORSDOF 6
ENDMDL
MODEL 4
REMARK VINA RESULT:    -6.489      2.784      4.861
REMARK INTER + INTRA:          -7.923
REMARK INTER:                  -7.926
REMARK INTRA:                   0.003
REMARK UNBOUND:                -0.106
REMARK SMILES O=c1c(O)c(-c2ccc(O)c(O)c2)oc2cc(O)cc(O)c12
REMARK SMILES IDX 5 1 3 2 2 3 1 4 22 5 20 6 19 7 17 8 16 9 15 10 14 11 6 12
REMARK SMILES IDX 7 13 8 14 9 15 13 16 11 17 10 18 12 20 4 22 21 24 18 26
REMARK H PARENT 10 19 12 21 4 23 21 25 18 27
REMARK Flexibility Score: inf
ROOT
ATOM      1  C   UNL     1       9.087  12.510 -18.489  1.00  0.00     0.180 A 
ATOM      2  C   UNL     1       9.684  11.310 -18.917  1.00  0.00     0.208 A 
ATOM      3  C   UNL     1       9.826  10.256 -18.000  1.00  0.00     0.238 A 
ATOM      4  O   UNL     1      10.311   9.167 -18.402  1.00  0.00    -0.285 OA
ATOM      5  C   UNL     1       9.385  10.420 -16.664  1.00  0.00     0.111 A 
ATOM      6  C   UNL     1       9.517   9.433 -15.641  1.00  0.00     0.134 A 
ATOM      7  C   UNL     1       8.928   9.653 -14.389  1.00  0.00     0.093 A 
ATOM      8  C   UNL     1       8.269  10.852 -14.105  1.00  0.00     0.123 A 
ATOM      9  C   UNL     1       8.188  11.845 -15.077  1.00  0.00     0.094 A 
ATOM     10  C   UNL     1       8.734  11.640 -16.347  1.00  0.00     0.146 A 
ATOM     11  O   UNL     1       8.624  12.609 -17.249  1.00  0.00    -0.452 OA
ENDROOT
BRANCH   1  12
ATOM     12  C   UNL     1       8.925  13.673 -19.390  1.00  0.00     0.025 A 
ATOM     13  C   UNL     1       8.330  13.540 -20.657  1.00  0.00     0.016 A 
ATOM     14  C   UNL     1       8.209  14.648 -21.501  1.00  0.00     0.051 A 
ATOM     15  C   UNL     1       8.692  15.900 -21.098  1.00  0.00     0.157 A 
ATOM     16  C   UNL     1       9.426  14.926 -18.999  1.00  0.00     0.062 A 
ATOM     17  C   UNL     1       9.306  16.037 -19.842  1.00  0.00     0.158 A 
BRANCH  15  18
ATOM     18  O   UNL     1       8.569  17.003 -21.940  1.00  0.00    -0.504 OA
ATOM     19  H   UNL     1       7.665  17.409 -22.153  1.00  0.00     0.293 HD
ENDBRANCH  15  18
BRANCH  17  20
ATOM     20  O   UNL     1       9.804  17.268 -19.414  1.00  0.00    -0.504 OA
ATOM     21  H   UNL     1       9.812  17.534 -18.436  1.00  0.00     0.293 HD
ENDBRANCH  17  20
ENDBRANCH   1  12
BRANCH   2  22
ATOM     22  O   UNL     1      10.092  11.163 -20.245  1.00  0.00    -0.502 OA
ATOM     23  H   UNL     1      11.069  11.144 -20.514  1.00  0.00     0.293 HD
ENDBRANCH   2  22
BRANCH   6  24
ATOM     24  O   UNL     1      10.233   8.243 -15.792  1.00  0.00    -0.507 OA
ATOM     25  H   UNL     1      10.989   8.105 -16.446  1.00  0.00     0.293 HD
ENDBRANCH   6  24
BRANCH   8  26
ATOM     26  O   UNL     1       7.699  11.069 -12.852  1.00  0.00    -0.508 OA
ATOM     27  H   UNL     1       6.767  11.454 -12.753  1.00  0.00     0.293 HD
ENDBRANCH   8  26
TORSDOF 6
ENDMDL
MODEL 5
REMARK VINA RESULT:    -6.433      4.169      8.597
REMARK INTER + INTRA:          -7.855
REMARK INTER:                  -8.308
REMARK INTRA:                   0.453
REMARK UNBOUND:                -0.106
REMARK SMILES O=c1c(O)c(-c2ccc(O)c(O)c2)oc2cc(O)cc(O)c12
REMARK SMILES IDX 5 1 3 2 2 3 1 4 22 5 20 6 19 7 17 8 16 9 15 10 14 11 6 12
REMARK SMILES IDX 7 13 8 14 9 15 13 16 11 17 10 18 12 20 4 22 21 24 18 26
REMARK H PARENT 10 19 12 21 4 23 21 25 18 27
REMARK Flexibility Score: inf
ROOT
ATOM      1  C   UNL     1       8.053  10.802 -14.868  1.00  0.00     0.180 A 
ATOM      2  C   UNL     1       8.582  12.006 -14.368  1.00  0.00     0.208 A 
ATOM      3  C   UNL     1       9.145  12.927 -15.266  1.00  0.00     0.238 A 
ATOM      4  O   UNL     1       9.567  14.026 -14.820  1.00  0.00    -0.285 OA
ATOM      5  C   UNL     1       9.186  12.627 -16.649  1.00  0.00     0.111 A 
ATOM      6  C   UNL     1       9.769  13.470 -17.643  1.00  0.00     0.134 A 
ATOM      7  C   UNL     1       9.637  13.134 -18.997  1.00  0.00     0.093 A 
ATOM      8  C   UNL     1       9.001  11.953 -19.386  1.00  0.00     0.123 A 
ATOM      9  C   UNL     1       8.482  11.095 -18.421  1.00  0.00     0.094 A 
ATOM     10  C   UNL     1       8.566  11.421 -17.065  1.00  0.00     0.146 A 
ATOM     11  O   UNL     1       8.047  10.580 -16.177  1.00  0.00    -0.452 OA
ENDROOT
BRANCH   1  12
ATOM     12  C   UNL     1       7.467   9.772 -13.981  1.00  0.00     0.025 A 
ATOM     13  C   UNL     1       7.232  10.027 -12.619  1.00  0.00     0.016 A 
ATOM     14  C   UNL     1       6.700   9.030 -11.795  1.00  0.00     0.051 A 
ATOM     15  C   UNL     1       6.407   7.763 -12.317  1.00  0.00     0.157 A 
ATOM     16  C   UNL     1       7.191   8.494 -14.495  1.00  0.00     0.062 A 
ATOM     17  C   UNL     1       6.658   7.494 -13.673  1.00  0.00     0.158 A 
BRANCH  15  18
ATOM     18  O   UNL     1       5.875   6.773 -11.494  1.00  0.00    -0.504 OA
ATOM     19  H   UNL     1       5.232   6.075 -11.852  1.00  0.00     0.293 HD
ENDBRANCH  15  18
BRANCH  17  20
ATOM     20  O   UNL     1       6.384   6.241 -14.221  1.00  0.00    -0.504 OA
ATOM     21  H   UNL     1       5.735   5.595 -13.788  1.00  0.00     0.293 HD
ENDBRANCH  17  20
ENDBRANCH   1  12
BRANCH   2  22
ATOM     22  O   UNL     1       8.511  12.291 -13.002  1.00  0.00    -0.502 OA
ATOM     23  H   UNL     1       9.251  12.775 -12.509  1.00  0.00     0.293 HD
ENDBRANCH   2  22
BRANCH   6  24
ATOM     24  O   UNL     1      10.504  14.623 -17.356  1.00  0.00    -0.507 OA
ATOM     25  H   UNL     1      11.125  15.086 -18.003  1.00  0.00     0.293 HD
ENDBRANCH   6  24
BRANCH   8  26
ATOM     26  O   UNL     1       8.888  11.618 -20.735  1.00  0.00    -0.508 OA
ATOM     27  H   UNL     1       8.640  12.309 -21.433  1.00  0.00     0.293 HD
ENDBRANCH   8  26
TORSDOF 6
ENDMDL
MODEL 6
REMARK VINA RESULT:    -6.330      3.012      7.731
REMARK INTER + INTRA:          -7.731
REMARK INTER:                  -7.422
REMARK INTRA:                  -0.309
REMARK UNBOUND:                -0.106
REMARK SMILES O=c1c(O)c(-c2ccc(O)c(O)c2)oc2cc(O)cc(O)c12
REMARK SMILES IDX 5 1 3 2 2 3 1 4 22 5 20 6 19 7 17 8 16 9 15 10 14 11 6 12
REMARK SMILES IDX 7 13 8 14 9 15 13 16 11 17 10 18 12 20 4 22 21 24 18 26
REMARK H PARENT 10 19 12 21 4 23 21 25 18 27
REMARK Flexibility Score: inf
ROOT
ATOM      1  C   UNL     1       9.589  12.016 -17.290  1.00  0.00     0.180 A 
ATOM      2  C   UNL     1      10.082  13.129 -16.585  1.00  0.00     0.208 A 
ATOM      3  C   UNL     1      10.138  14.374 -17.232  1.00  0.00     0.238 A 
ATOM      4  O   UNL     1      10.530  15.377 -16.579  1.00  0.00    -0.285 OA
ATOM      5  C   UNL     1       9.716  14.488 -18.579  1.00  0.00     0.111 A 
ATOM      6  C   UNL     1       9.768  15.692 -19.344  1.00  0.00     0.134 A 
ATOM      7  C   UNL     1       9.202  15.721 -20.625  1.00  0.00     0.093 A 
ATOM      8  C   UNL     1       8.647  14.571 -21.193  1.00  0.00     0.123 A 
ATOM      9  C   UNL     1       8.646  13.377 -20.477  1.00  0.00     0.094 A 
ATOM     10  C   UNL     1       9.170  13.326 -19.182  1.00  0.00     0.146 A 
ATOM     11  O   UNL     1       9.139  12.170 -18.530  1.00  0.00    -0.452 OA
ENDROOT
BRANCH   1  12
ATOM     12  C   UNL     1       9.522  10.667 -16.685  1.00  0.00     0.025 A 
ATOM     13  C   UNL     1      10.660   9.847 -16.598  1.00  0.00     0.016 A 
ATOM     14  C   UNL     1      10.569   8.567 -16.044  1.00  0.00     0.051 A 
ATOM     15  C   UNL     1       9.337   8.083 -15.583  1.00  0.00     0.157 A 
ATOM     16  C   UNL     1       8.286  10.169 -16.240  1.00  0.00     0.062 A 
ATOM     17  C   UNL     1       8.191   8.888 -15.685  1.00  0.00     0.158 A 
BRANCH  15  18
ATOM     18  O   UNL     1       9.249   6.807 -15.030  1.00  0.00    -0.504 OA
ATOM     19  H   UNL     1       9.012   6.667 -14.054  1.00  0.00     0.293 HD
ENDBRANCH  15  18
BRANCH  17  20
ATOM     20  O   UNL     1       6.949   8.433 -15.242  1.00  0.00    -0.504 OA
ATOM     21  H   UNL     1       6.369   8.978 -14.614  1.00  0.00     0.293 HD
ENDBRANCH  17  20
ENDBRANCH   1  12
BRANCH   2  22
ATOM     22  O   UNL     1      10.473  12.998 -15.251  1.00  0.00    -0.502 OA
ATOM     23  H   UNL     1      11.321  13.418 -14.889  1.00  0.00     0.293 HD
ENDBRANCH   2  22
BRANCH   6  24
ATOM     24  O   UNL     1      10.381  16.870 -18.907  1.00  0.00    -0.507 OA
ATOM     25  H   UNL     1      11.175  16.908 -18.286  1.00  0.00     0.293 HD
ENDBRANCH   6  24
BRANCH   8  26
ATOM     26  O   UNL     1       8.100  14.604 -22.474  1.00  0.00    -0.508 OA
ATOM     27  H   UNL     1       7.098  14.580 -22.624  1.00  0.00     0.293 HD
ENDBRANCH   8  26
TORSDOF 6
ENDMDL
MODEL 7
REMARK VINA RESULT:    -6.312      1.697      6.860
REMARK INTER + INTRA:          -7.709
REMARK INTER:                  -7.389
REMARK INTRA:                  -0.320
REMARK UNBOUND:                -0.106
REMARK SMILES O=c1c(O)c(-c2ccc(O)c(O)c2)oc2cc(O)cc(O)c12
REMARK SMILES IDX 5 1 3 2 2 3 1 4 22 5 20 6 19 7 17 8 16 9 15 10 14 11 6 12
REMARK SMILES IDX 7 13 8 14 9 15 13 16 11 17 10 18 12 20 4 22 21 24 18 26
REMARK H PARENT 10 19 12 21 4 23 21 25 18 27
REMARK Flexibility Score: inf
ROOT
ATOM      1  C   UNL     1       9.176  13.014 -18.511  1.00  0.00     0.180 A 
ATOM      2  C   UNL     1       9.145  12.809 -19.902  1.00  0.00     0.208 A 
ATOM      3  C   UNL     1       8.953  13.913 -20.749  1.00  0.00     0.238 A 
ATOM      4  O   UNL     1       8.980  13.732 -21.994  1.00  0.00    -0.285 OA
ATOM      5  C   UNL     1       8.779  15.204 -20.195  1.00  0.00     0.111 A 
ATOM      6  C   UNL     1       8.537  16.387 -20.957  1.00  0.00     0.134 A 
ATOM      7  C   UNL     1       8.511  17.630 -20.313  1.00  0.00     0.093 A 
ATOM      8  C   UNL     1       8.652  17.725 -18.926  1.00  0.00     0.123 A 
ATOM      9  C   UNL     1       8.828  16.571 -18.167  1.00  0.00     0.094 A 
ATOM     10  C   UNL     1       8.895  15.320 -18.785  1.00  0.00     0.146 A 
ATOM     11  O   UNL     1       9.076  14.246 -18.026  1.00  0.00    -0.452 OA
ENDROOT
BRANCH   1  12
ATOM     12  C   UNL     1       9.349  11.898 -17.555  1.00  0.00     0.025 A 
ATOM     13  C   UNL     1      10.626  11.441 -17.187  1.00  0.00     0.016 A 
ATOM     14  C   UNL     1      10.766  10.370 -16.300  1.00  0.00     0.051 A 
ATOM     15  C   UNL     1       9.633   9.731 -15.780  1.00  0.00     0.157 A 
ATOM     16  C   UNL     1       8.216  11.241 -17.046  1.00  0.00     0.062 A 
ATOM     17  C   UNL     1       8.352  10.168 -16.158  1.00  0.00     0.158 A 
BRANCH  15  18
ATOM     18  O   UNL     1       9.774   8.664 -14.895  1.00  0.00    -0.504 OA
ATOM     19  H   UNL     1      10.051   7.742 -15.215  1.00  0.00     0.293 HD
ENDBRANCH  15  18
BRANCH  17  20
ATOM     20  O   UNL     1       7.204   9.548 -15.663  1.00  0.00    -0.504 OA
ATOM     21  H   UNL     1       6.795   8.738 -16.112  1.00  0.00     0.293 HD
ENDBRANCH  17  20
ENDBRANCH   1  12
BRANCH   2  22
ATOM     22  O   UNL     1       9.340  11.530 -20.428  1.00  0.00    -0.502 OA
ATOM     23  H   UNL     1       8.570  10.910 -20.650  1.00  0.00     0.293 HD
ENDBRANCH   2  22
BRANCH   6  24
ATOM     24  O   UNL     1       8.291  16.393 -22.333  1.00  0.00    -0.507 OA
ATOM     25  H   UNL     1       8.578  15.666 -22.971  1.00  0.00     0.293 HD
ENDBRANCH   6  24
BRANCH   8  26
ATOM     26  O   UNL     1       8.609  18.965 -18.290  1.00  0.00    -0.508 OA
ATOM     27  H   UNL     1       9.404  19.324 -17.774  1.00  0.00     0.293 HD
ENDBRANCH   8  26
TORSDOF 6
ENDMDL
MODEL 8
REMARK VINA RESULT:    -6.307      2.301      6.446
REMARK INTER + INTRA:          -7.704
REMARK INTER:                  -7.800
REMARK INTRA:                   0.096
REMARK UNBOUND:                -0.106
REMARK SMILES O=c1c(O)c(-c2ccc(O)c(O)c2)oc2cc(O)cc(O)c12
REMARK SMILES IDX 5 1 3 2 2 3 1 4 22 5 20 6 19 7 17 8 16 9 15 10 14 11 6 12
REMARK SMILES IDX 7 13 8 14 9 15 13 16 11 17 10 18 12 20 4 22 21 24 18 26
REMARK H PARENT 10 19 12 21 4 23 21 25 18 27
REMARK Flexibility Score: inf
ROOT
ATOM      1  C   UNL     1       8.327  12.678 -17.593  1.00  0.00     0.180 A 
ATOM      2  C   UNL     1       8.778  12.038 -18.761  1.00  0.00     0.208 A 
ATOM      3  C   UNL     1       8.939  12.794 -19.934  1.00  0.00     0.238 A 
ATOM      4  O   UNL     1       9.394  12.226 -20.961  1.00  0.00    -0.285 OA
ATOM      5  C   UNL     1       8.634  14.176 -19.928  1.00  0.00     0.111 A 
ATOM      6  C   UNL     1       8.722  15.030 -21.069  1.00  0.00     0.134 A 
ATOM      7  C   UNL     1       8.522  16.408 -20.918  1.00  0.00     0.093 A 
ATOM      8  C   UNL     1       8.172  16.952 -19.679  1.00  0.00     0.123 A 
ATOM      9  C   UNL     1       8.024  16.120 -18.573  1.00  0.00     0.094 A 
ATOM     10  C   UNL     1       8.254  14.746 -18.685  1.00  0.00     0.146 A 
ATOM     11  O   UNL     1       8.113  13.989 -17.603  1.00  0.00    -0.452 OA
ENDROOT
BRANCH   1  12
ATOM     12  C   UNL     1       8.109  11.944 -16.327  1.00  0.00     0.025 A 
ATOM     13  C   UNL     1       7.512  10.672 -16.312  1.00  0.00     0.016 A 
ATOM     14  C   UNL     1       7.294  10.007 -15.102  1.00  0.00     0.051 A 
ATOM     15  C   UNL     1       7.656  10.610 -13.889  1.00  0.00     0.157 A 
ATOM     16  C   UNL     1       8.452  12.552 -15.107  1.00  0.00     0.062 A 
ATOM     17  C   UNL     1       8.235  11.890 -13.893  1.00  0.00     0.158 A 
BRANCH  15  18
ATOM     18  O   UNL     1       7.439   9.944 -12.684  1.00  0.00    -0.504 OA
ATOM     19  H   UNL     1       7.391  10.444 -11.804  1.00  0.00     0.293 HD
ENDBRANCH  15  18
BRANCH  17  20
ATOM     20  O   UNL     1       8.600  12.519 -12.704  1.00  0.00    -0.504 OA
ATOM     21  H   UNL     1       9.364  13.183 -12.659  1.00  0.00     0.293 HD
ENDBRANCH  17  20
ENDBRANCH   1  12
BRANCH   2  22
ATOM     22  O   UNL     1       9.094  10.677 -18.739  1.00  0.00    -0.502 OA
ATOM     23  H   UNL     1       9.428  10.210 -17.903  1.00  0.00     0.293 HD
ENDBRANCH   2  22
BRANCH   6  24
ATOM     24  O   UNL     1       8.975  14.575 -22.366  1.00  0.00    -0.507 OA
ATOM     25  H   UNL     1       8.827  15.117 -23.204  1.00  0.00     0.293 HD
ENDBRANCH   6  24
BRANCH   8  26
ATOM     26  O   UNL     1       7.959  18.323 -19.540  1.00  0.00    -0.508 OA
ATOM     27  H   UNL     1       7.745  18.909 -20.338  1.00  0.00     0.293 HD
ENDBRANCH   8  26
TORSDOF 6
ENDMDL
MODEL 9
REMARK VINA RESULT:    -6.259      3.328      6.042
REMARK INTER + INTRA:          -7.645
REMARK INTER:                  -7.328
REMARK INTRA:                  -0.317
REMARK UNBOUND:                -0.106
REMARK SMILES O=c1c(O)c(-c2ccc(O)c(O)c2)oc2cc(O)cc(O)c12
REMARK SMILES IDX 5 1 3 2 2 3 1 4 22 5 20 6 19 7 17 8 16 9 15 10 14 11 6 12
REMARK SMILES IDX 7 13 8 14 9 15 13 16 11 17 10 18 12 20 4 22 21 24 18 26
REMARK H PARENT 10 19 12 21 4 23 21 25 18 27
REMARK Flexibility Score: inf
ROOT
ATOM      1  C   UNL     1       8.424  12.513 -16.258  1.00  0.00     0.180 A 
ATOM      2  C   UNL     1       7.499  12.869 -15.260  1.00  0.00     0.208 A 
ATOM      3  C   UNL     1       7.104  11.902 -14.321  1.00  0.00     0.238 A 
ATOM      4  O   UNL     1       6.318  12.242 -13.398  1.00  0.00    -0.285 OA
ATOM      5  C   UNL     1       7.626  10.589 -14.401  1.00  0.00     0.111 A 
ATOM      6  C   UNL     1       7.264   9.519 -13.528  1.00  0.00     0.134 A 
ATOM      7  C   UNL     1       7.940   8.295 -13.617  1.00  0.00     0.093 A 
ATOM      8  C   UNL     1       8.918   8.083 -14.592  1.00  0.00     0.123 A 
ATOM      9  C   UNL     1       9.236   9.101 -15.487  1.00  0.00     0.094 A 
ATOM     10  C   UNL     1       8.604  10.344 -15.400  1.00  0.00     0.146 A 
ATOM     11  O   UNL     1       8.945  11.292 -16.266  1.00  0.00    -0.452 OA
ENDROOT
BRANCH   1  12
ATOM     12  C   UNL     1       8.869  13.469 -17.297  1.00  0.00     0.025 A 
ATOM     13  C   UNL     1      10.030  14.243 -17.128  1.00  0.00     0.016 A 
ATOM     14  C   UNL     1      10.418  15.158 -18.112  1.00  0.00     0.051 A 
ATOM     15  C   UNL     1       9.646  15.322 -19.270  1.00  0.00     0.157 A 
ATOM     16  C   UNL     1       8.087  13.652 -18.449  1.00  0.00     0.062 A 
ATOM     17  C   UNL     1       8.473  14.566 -19.436  1.00  0.00     0.158 A 
BRANCH  15  18
ATOM     18  O   UNL     1      10.036  16.232 -20.249  1.00  0.00    -0.504 OA
ATOM     19  H   UNL     1      10.839  16.060 -20.844  1.00  0.00     0.293 HD
ENDBRANCH  15  18
BRANCH  17  20
ATOM     20  O   UNL     1       7.679  14.710 -20.574  1.00  0.00    -0.504 OA
ATOM     21  H   UNL     1       7.872  14.208 -21.432  1.00  0.00     0.293 HD
ENDBRANCH  17  20
ENDBRANCH   1  12
BRANCH   2  22
ATOM     22  O   UNL     1       7.014  14.177 -15.187  1.00  0.00    -0.502 OA
ATOM     23  H   UNL     1       7.543  14.973 -15.526  1.00  0.00     0.293 HD
ENDBRANCH   2  22
BRANCH   6  24
ATOM     24  O   UNL     1       6.238   9.597 -12.581  1.00  0.00    -0.507 OA
ATOM     25  H   UNL     1       5.824  10.455 -12.252  1.00  0.00     0.293 HD
ENDBRANCH   6  24
BRANCH   8  26
ATOM     26  O   UNL     1       9.576   6.858 -14.684  1.00  0.00    -0.508 OA
ATOM     27  H   UNL     1      10.171   6.634 -15.473  1.00  0.00     0.293 HD
ENDBRANCH   8  26
TORSDOF 6
ENDMDL
