MODEL 1
REMARK VINA RESULT:    -6.465      0.000      0.000
REMARK INTER + INTRA:          -7.650
REMARK INTER:                  -7.599
REMARK INTRA:                  -0.051
REMARK UNBOUND:                -0.051
REMARK SMILES O=c1c(O)c(-c2ccc(O)cc2)oc2cc(O)cc(O)c12
REMARK SMILES IDX 5 1 3 2 2 3 1 4 21 5 19 6 18 7 16 8 15 9 14 10 13 11 6 12
REMARK SMILES IDX 7 13 8 14 9 15 12 16 11 17 10 18 4 20 20 22 17 24
REMARK H PARENT 10 19 4 21 20 23 17 25
REMARK Flexibility Score: inf
ROOT
ATOM      1  C   UNL     1      -9.964   3.134  23.206  1.00  0.00     0.180 A 
ATOM      2  C   UNL     1     -10.411   2.100  22.365  1.00  0.00     0.208 A 
ATOM      3  C   UNL     1     -11.757   2.083  21.964  1.00  0.00     0.238 A 
ATOM      4  O   UNL     1     -12.138   1.187  21.168  1.00  0.00    -0.285 OA
ATOM      5  C   UNL     1     -12.642   3.089  22.422  1.00  0.00     0.111 A 
ATOM      6  C   UNL     1     -14.034   3.146  22.111  1.00  0.00     0.134 A 
ATOM      7  C   UNL     1     -14.785   4.258  22.511  1.00  0.00     0.093 A 
ATOM      8  C   UNL     1     -14.212   5.282  23.266  1.00  0.00     0.123 A 
ATOM      9  C   UNL     1     -12.867   5.206  23.626  1.00  0.00     0.094 A 
ATOM     10  C   UNL     1     -12.082   4.128  23.211  1.00  0.00     0.146 A 
ATOM     11  O   UNL     1     -10.802   4.099  23.565  1.00  0.00    -0.452 OA
ENDROOT
BRANCH   1  12
ATOM     12  C   UNL     1      -8.567   3.206  23.692  1.00  0.00     0.021 A 
ATOM     13  C   UNL     1      -7.970   2.128  24.370  1.00  0.00     0.016 A 
ATOM     14  C   UNL     1      -6.658   2.228  24.841  1.00  0.00     0.047 A 
ATOM     15  C   UNL     1      -5.930   3.407  24.652  1.00  0.00     0.115 A 
ATOM     16  C   UNL     1      -7.837   4.395  23.525  1.00  0.00     0.016 A 
ATOM     17  C   UNL     1      -6.525   4.492  23.995  1.00  0.00     0.047 A 
BRANCH  15  18
ATOM     18  O   UNL     1      -4.623   3.493  25.125  1.00  0.00    -0.508 OA
ATOM     19  H   UNL     1      -3.856   3.761  24.519  1.00  0.00     0.293 HD
ENDBRANCH  15  18
ENDBRANCH   1  12
BRANCH   2  20
ATOM     20  O   UNL     1      -9.516   1.130  21.907  1.00  0.00    -0.502 OA
ATOM     21  H   UNL     1      -9.807   0.187  21.678  1.00  0.00     0.293 HD
ENDBRANCH   2  20
BRANCH   6  22
ATOM     22  O   UNL     1     -14.727   2.133  21.441  1.00  0.00    -0.507 OA
ATOM     23  H   UNL     1     -15.400   2.286  20.707  1.00  0.00     0.293 HD
ENDBRANCH   6  22
BRANCH   8  24
ATOM     24  O   UNL     1     -14.994   6.365  23.659  1.00  0.00    -0.508 OA
ATOM     25  H   UNL     1     -14.603   7.135  24.190  1.00  0.00     0.293 HD
ENDBRANCH   8  24
TORSDOF 5
ENDMDL
MODEL 2
REMARK VINA RESULT:    -6.283      2.370      6.384
REMARK INTER + INTRA:          -7.437
REMARK INTER:                  -7.172
REMARK INTRA:                  -0.264
REMARK UNBOUND:                -0.051
REMARK SMILES O=c1c(O)c(-c2ccc(O)cc2)oc2cc(O)cc(O)c12
REMARK SMILES IDX 5 1 3 2 2 3 1 4 21 5 19 6 18 7 16 8 15 9 14 10 13 11 6 12
REMARK SMILES IDX 7 13 8 14 9 15 12 16 11 17 10 18 4 20 20 22 17 24
REMARK H PARENT 10 19 4 21 20 23 17 25
REMARK Flexibility Score: inf
ROOT
ATOM      1  C   UNL     1     -12.726   2.712  23.082  1.00  0.00     0.180 A 
ATOM      2  C   UNL     1     -11.471   2.104  22.906  1.00  0.00     0.208 A 
ATOM      3  C   UNL     1     -10.310   2.850  23.168  1.00  0.00     0.238 A 
ATOM      4  O   UNL     1      -9.192   2.285  23.061  1.00  0.00    -0.285 OA
ATOM      5  C   UNL     1     -10.419   4.199  23.587  1.00  0.00     0.111 A 
ATOM      6  C   UNL     1      -9.309   5.059  23.841  1.00  0.00     0.134 A 
ATOM      7  C   UNL     1      -9.533   6.334  24.377  1.00  0.00     0.093 A 
ATOM      8  C   UNL     1     -10.827   6.803  24.605  1.00  0.00     0.123 A 
ATOM      9  C   UNL     1     -11.921   5.991  24.303  1.00  0.00     0.094 A 
ATOM     10  C   UNL     1     -11.729   4.701  23.803  1.00  0.00     0.146 A 
ATOM     11  O   UNL     1     -12.796   3.956  23.539  1.00  0.00    -0.452 OA
ENDROOT
BRANCH   1  12
ATOM     12  C   UNL     1     -13.993   1.999  22.802  1.00  0.00     0.021 A 
ATOM     13  C   UNL     1     -14.702   2.207  21.605  1.00  0.00     0.016 A 
ATOM     14  C   UNL     1     -15.909   1.540  21.373  1.00  0.00     0.047 A 
ATOM     15  C   UNL     1     -16.429   0.669  22.335  1.00  0.00     0.115 A 
ATOM     16  C   UNL     1     -14.532   1.138  23.773  1.00  0.00     0.016 A 
ATOM     17  C   UNL     1     -15.738   0.472  23.538  1.00  0.00     0.047 A 
BRANCH  15  18
ATOM     18  O   UNL     1     -17.631   0.010  22.090  1.00  0.00    -0.508 OA
ATOM     19  H   UNL     1     -17.786  -0.943  22.398  1.00  0.00     0.293 HD
ENDBRANCH  15  18
ENDBRANCH   1  12
BRANCH   2  20
ATOM     20  O   UNL     1     -11.386   0.766  22.513  1.00  0.00    -0.502 OA
ATOM     21  H   UNL     1     -12.163   0.274  22.086  1.00  0.00     0.293 HD
ENDBRANCH   2  20
BRANCH   6  22
ATOM     22  O   UNL     1      -7.981   4.724  23.562  1.00  0.00    -0.507 OA
ATOM     23  H   UNL     1      -7.309   5.346  23.140  1.00  0.00     0.293 HD
ENDBRANCH   6  22
BRANCH   8  24
ATOM     24  O   UNL     1     -11.013   8.082  25.125  1.00  0.00    -0.508 OA
ATOM     25  H   UNL     1     -11.048   8.897  24.524  1.00  0.00     0.293 HD
ENDBRANCH   8  24
TORSDOF 5
ENDMDL
MODEL 3
REMARK VINA RESULT:    -6.213      1.230      3.164
REMARK INTER + INTRA:          -7.354
REMARK INTER:                  -7.290
REMARK INTRA:                  -0.065
REMARK UNBOUND:                -0.051
REMARK SMILES O=c1c(O)c(-c2ccc(O)cc2)oc2cc(O)cc(O)c12
REMARK SMILES IDX 5 1 3 2 2 3 1 4 21 5 19 6 18 7 16 8 15 9 14 10 13 11 6 12
REMARK SMILES IDX 7 13 8 14 9 15 12 16 11 17 10 18 4 20 20 22 17 24
REMARK H PARENT 10 19 4 21 20 23 17 25
REMARK Flexibility Score: inf
ROOT
ATOM      1  C   UNL     1      -9.939   4.132  23.898  1.00  0.00     0.180 A 
ATOM      2  C   UNL     1     -10.413   5.361  24.390  1.00  0.00     0.208 A 
ATOM      3  C   UNL     1     -11.753   5.715  24.162  1.00  0.00     0.238 A 
ATOM      4  O   UNL     1     -12.185   6.790  24.651  1.00  0.00    -0.285 OA
ATOM      5  C   UNL     1     -12.598   4.842  23.434  1.00  0.00     0.111 A 
ATOM      6  C   UNL     1     -13.961   5.117  23.111  1.00  0.00     0.134 A 
ATOM      7  C   UNL     1     -14.739   4.125  22.500  1.00  0.00     0.093 A 
ATOM      8  C   UNL     1     -14.186   2.896  22.141  1.00  0.00     0.123 A 
ATOM      9  C   UNL     1     -12.840   2.640  22.398  1.00  0.00     0.094 A 
ATOM     10  C   UNL     1     -12.047   3.594  23.040  1.00  0.00     0.146 A 
ATOM     11  O   UNL     1     -10.773   3.307  23.276  1.00  0.00    -0.452 OA
ENDROOT
BRANCH   1  12
ATOM     12  C   UNL     1      -8.533   3.702  24.075  1.00  0.00     0.021 A 
ATOM     13  C   UNL     1      -7.461   4.501  23.634  1.00  0.00     0.016 A 
ATOM     14  C   UNL     1      -6.143   4.062  23.790  1.00  0.00     0.047 A 
ATOM     15  C   UNL     1      -5.878   2.820  24.375  1.00  0.00     0.115 A 
ATOM     16  C   UNL     1      -8.260   2.446  24.642  1.00  0.00     0.016 A 
ATOM     17  C   UNL     1      -6.941   2.011  24.798  1.00  0.00     0.047 A 
BRANCH  15  18
ATOM     18  O   UNL     1      -4.559   2.397  24.526  1.00  0.00    -0.508 OA
ATOM     19  H   UNL     1      -3.791   3.056  24.551  1.00  0.00     0.293 HD
ENDBRANCH  15  18
ENDBRANCH   1  12
BRANCH   2  20
ATOM     20  O   UNL     1      -9.568   6.197  25.125  1.00  0.00    -0.502 OA
ATOM     21  H   UNL     1      -8.873   5.838  25.769  1.00  0.00     0.293 HD
ENDBRANCH   2  20
BRANCH   6  22
ATOM     22  O   UNL     1     -14.585   6.346  23.343  1.00  0.00    -0.507 OA
ATOM     23  H   UNL     1     -14.542   7.138  22.721  1.00  0.00     0.293 HD
ENDBRANCH   6  22
BRANCH   8  24
ATOM     24  O   UNL     1     -14.987   1.939  21.520  1.00  0.00    -0.508 OA
ATOM     25  H   UNL     1     -14.609   1.299  20.832  1.00  0.00     0.293 HD
ENDBRANCH   8  24
TORSDOF 5
ENDMDL
MODEL 4
REMARK VINA RESULT:    -6.135      2.528      3.728
REMARK INTER + INTRA:          -7.262
REMARK INTER:                  -6.967
REMARK INTRA:                  -0.296
REMARK UNBOUND:                -0.051
REMARK SMILES O=c1c(O)c(-c2ccc(O)cc2)oc2cc(O)cc(O)c12
REMARK SMILES IDX 5 1 3 2 2 3 1 4 21 5 19 6 18 7 16 8 15 9 14 10 13 11 6 12
REMARK SMILES IDX 7 13 8 14 9 15 12 16 11 17 10 18 4 20 20 22 17 24
REMARK H PARENT 10 19 4 21 20 23 17 25
REMARK Flexibility Score: inf
ROOT
ATOM      1  C   UNL     1     -12.849   2.632  22.589  1.00  0.00     0.180 A 
ATOM      2  C   UNL     1     -13.029   1.259  22.834  1.00  0.00     0.208 A 
ATOM      3  C   UNL     1     -14.209   0.637  22.392  1.00  0.00     0.238 A 
ATOM      4  O   UNL     1     -14.339  -0.602  22.565  1.00  0.00    -0.285 OA
ATOM      5  C   UNL     1     -15.199   1.399  21.726  1.00  0.00     0.111 A 
ATOM      6  C   UNL     1     -16.449   0.880  21.270  1.00  0.00     0.134 A 
ATOM      7  C   UNL     1     -17.296   1.693  20.508  1.00  0.00     0.093 A 
ATOM      8  C   UNL     1     -16.971   3.023  20.240  1.00  0.00     0.123 A 
ATOM      9  C   UNL     1     -15.779   3.557  20.732  1.00  0.00     0.094 A 
ATOM     10  C   UNL     1     -14.896   2.761  21.464  1.00  0.00     0.146 A 
ATOM     11  O   UNL     1     -13.767   3.304  21.904  1.00  0.00    -0.452 OA
ENDROOT
BRANCH   1  12
ATOM     12  C   UNL     1     -11.645   3.362  23.047  1.00  0.00     0.021 A 
ATOM     13  C   UNL     1     -11.605   3.995  24.303  1.00  0.00     0.016 A 
ATOM     14  C   UNL     1     -10.466   4.700  24.703  1.00  0.00     0.047 A 
ATOM     15  C   UNL     1      -9.360   4.792  23.853  1.00  0.00     0.115 A 
ATOM     16  C   UNL     1     -10.538   3.478  22.189  1.00  0.00     0.016 A 
ATOM     17  C   UNL     1      -9.400   4.181  22.592  1.00  0.00     0.047 A 
BRANCH  15  18
ATOM     18  O   UNL     1      -8.231   5.496  24.265  1.00  0.00    -0.508 OA
ATOM     19  H   UNL     1      -8.162   5.890  25.195  1.00  0.00     0.293 HD
ENDBRANCH  15  18
ENDBRANCH   1  12
BRANCH   2  20
ATOM     20  O   UNL     1     -12.029   0.522  23.473  1.00  0.00    -0.502 OA
ATOM     21  H   UNL     1     -11.915  -0.475  23.335  1.00  0.00     0.293 HD
ENDBRANCH   2  20
BRANCH   6  22
ATOM     22  O   UNL     1     -16.913  -0.406  21.561  1.00  0.00    -0.507 OA
ATOM     23  H   UNL     1     -16.617  -1.244  21.084  1.00  0.00     0.293 HD
ENDBRANCH   6  22
BRANCH   8  24
ATOM     24  O   UNL     1     -17.846   3.807  19.492  1.00  0.00    -0.508 OA
ATOM     25  H   UNL     1     -18.327   3.436  18.680  1.00  0.00     0.293 HD
ENDBRANCH   8  24
TORSDOF 5
ENDMDL
MODEL 5
REMARK VINA RESULT:    -6.045      3.091      7.713
REMARK INTER + INTRA:          -7.157
REMARK INTER:                  -6.878
REMARK INTRA:                  -0.278
REMARK UNBOUND:                -0.051
REMARK SMILES O=c1c(O)c(-c2ccc(O)cc2)oc2cc(O)cc(O)c12
REMARK SMILES IDX 5 1 3 2 2 3 1 4 21 5 19 6 18 7 16 8 15 9 14 10 13 11 6 12
REMARK SMILES IDX 7 13 8 14 9 15 12 16 11 17 10 18 4 20 20 22 17 24
REMARK H PARENT 10 19 4 21 20 23 17 25
REMARK Flexibility Score: inf
ROOT
ATOM      1  C   UNL     1     -14.733   1.936  23.067  1.00  0.00     0.180 A 
ATOM      2  C   UNL     1     -14.523   3.306  23.302  1.00  0.00     0.208 A 
ATOM      3  C   UNL     1     -13.287   3.875  22.954  1.00  0.00     0.238 A 
ATOM      4  O   UNL     1     -13.125   5.112  23.116  1.00  0.00    -0.285 OA
ATOM      5  C   UNL     1     -12.273   3.065  22.389  1.00  0.00     0.111 A 
ATOM      6  C   UNL     1     -10.970   3.528  22.035  1.00  0.00     0.134 A 
ATOM      7  C   UNL     1     -10.091   2.670  21.363  1.00  0.00     0.093 A 
ATOM      8  C   UNL     1     -10.442   1.347  21.091  1.00  0.00     0.123 A 
ATOM      9  C   UNL     1     -11.691   0.868  21.487  1.00  0.00     0.094 A 
ATOM     10  C   UNL     1     -12.604   1.710  22.126  1.00  0.00     0.146 A 
ATOM     11  O   UNL     1     -13.786   1.217  22.476  1.00  0.00    -0.452 OA
ENDROOT
BRANCH   1  12
ATOM     12  C   UNL     1     -15.998   1.259  23.431  1.00  0.00     0.021 A 
ATOM     13  C   UNL     1     -16.257   0.850  24.753  1.00  0.00     0.016 A 
ATOM     14  C   UNL     1     -17.449   0.190  25.068  1.00  0.00     0.047 A 
ATOM     15  C   UNL     1     -18.390  -0.080  24.070  1.00  0.00     0.115 A 
ATOM     16  C   UNL     1     -16.939   0.964  22.430  1.00  0.00     0.016 A 
ATOM     17  C   UNL     1     -18.130   0.306  22.748  1.00  0.00     0.047 A 
BRANCH  15  18
ATOM     18  O   UNL     1     -19.574  -0.736  24.398  1.00  0.00    -0.508 OA
ATOM     19  H   UNL     1     -19.926  -0.750  25.348  1.00  0.00     0.293 HD
ENDBRANCH  15  18
ENDBRANCH   1  12
BRANCH   2  20
ATOM     20  O   UNL     1     -15.546   4.092  23.840  1.00  0.00    -0.502 OA
ATOM     21  H   UNL     1     -16.051   3.828  24.678  1.00  0.00     0.293 HD
ENDBRANCH   2  20
BRANCH   6  22
ATOM     22  O   UNL     1     -10.485   4.803  22.341  1.00  0.00    -0.507 OA
ATOM     23  H   UNL     1     -10.031   5.418  21.684  1.00  0.00     0.293 HD
ENDBRANCH   6  22
BRANCH   8  24
ATOM     24  O   UNL     1      -9.537   0.517  20.435  1.00  0.00    -0.508 OA
ATOM     25  H   UNL     1      -9.089   0.801  19.571  1.00  0.00     0.293 HD
ENDBRANCH   8  24
TORSDOF 5
ENDMDL
MODEL 6
REMARK VINA RESULT:    -6.012      2.069      7.078
REMARK INTER + INTRA:          -7.118
REMARK INTER:                  -6.880
REMARK INTRA:                  -0.238
REMARK UNBOUND:                -0.051
REMARK SMILES O=c1c(O)c(-c2ccc(O)cc2)oc2cc(O)cc(O)c12
REMARK SMILES IDX 5 1 3 2 2 3 1 4 21 5 19 6 18 7 16 8 15 9 14 10 13 11 6 12
REMARK SMILES IDX 7 13 8 14 9 15 12 16 11 17 10 18 4 20 20 22 17 24
REMARK H PARENT 10 19 4 21 20 23 17 25
REMARK Flexibility Score: inf
ROOT
ATOM      1  C   UNL     1     -13.123   3.450  23.134  1.00  0.00     0.180 A 
ATOM      2  C   UNL     1     -13.371   4.772  23.544  1.00  0.00     0.208 A 
ATOM      3  C   UNL     1     -12.296   5.558  23.991  1.00  0.00     0.238 A 
ATOM      4  O   UNL     1     -12.514   6.756  24.304  1.00  0.00    -0.285 OA
ATOM      5  C   UNL     1     -10.991   5.008  24.036  1.00  0.00     0.111 A 
ATOM      6  C   UNL     1      -9.836   5.701  24.508  1.00  0.00     0.134 A 
ATOM      7  C   UNL     1      -8.575   5.105  24.385  1.00  0.00     0.093 A 
ATOM      8  C   UNL     1      -8.435   3.816  23.870  1.00  0.00     0.123 A 
ATOM      9  C   UNL     1      -9.565   3.107  23.461  1.00  0.00     0.094 A 
ATOM     10  C   UNL     1     -10.832   3.689  23.537  1.00  0.00     0.146 A 
ATOM     11  O   UNL     1     -11.880   2.984  23.127  1.00  0.00    -0.452 OA
ENDROOT
BRANCH   1  12
ATOM     12  C   UNL     1     -14.208   2.552  22.677  1.00  0.00     0.021 A 
ATOM     13  C   UNL     1     -14.777   2.682  21.396  1.00  0.00     0.016 A 
ATOM     14  C   UNL     1     -15.817   1.838  20.996  1.00  0.00     0.047 A 
ATOM     15  C   UNL     1     -16.310   0.863  21.869  1.00  0.00     0.115 A 
ATOM     16  C   UNL     1     -14.723   1.585  23.556  1.00  0.00     0.016 A 
ATOM     17  C   UNL     1     -15.761   0.741  23.153  1.00  0.00     0.047 A 
BRANCH  15  18
ATOM     18  O   UNL     1     -17.345   0.028  21.456  1.00  0.00    -0.508 OA
ATOM     19  H   UNL     1     -17.417  -0.293  20.498  1.00  0.00     0.293 HD
ENDBRANCH  15  18
ENDBRANCH   1  12
BRANCH   2  20
ATOM     20  O   UNL     1     -14.661   5.302  23.471  1.00  0.00    -0.502 OA
ATOM     21  H   UNL     1     -15.256   5.175  22.660  1.00  0.00     0.293 HD
ENDBRANCH   2  20
BRANCH   6  22
ATOM     22  O   UNL     1      -9.876   6.955  25.125  1.00  0.00    -0.507 OA
ATOM     23  H   UNL     1      -9.529   7.809  24.714  1.00  0.00     0.293 HD
ENDBRANCH   6  22
BRANCH   8  24
ATOM     24  O   UNL     1      -7.166   3.248  23.777  1.00  0.00    -0.508 OA
ATOM     25  H   UNL     1      -7.037   2.244  23.745  1.00  0.00     0.293 HD
ENDBRANCH   8  24
TORSDOF 5
ENDMDL
MODEL 7
REMARK VINA RESULT:    -5.867      3.149      4.107
REMARK INTER + INTRA:          -6.947
REMARK INTER:                  -6.800
REMARK INTRA:                  -0.147
REMARK UNBOUND:                -0.051
REMARK SMILES O=c1c(O)c(-c2ccc(O)cc2)oc2cc(O)cc(O)c12
REMARK SMILES IDX 5 1 3 2 2 3 1 4 21 5 19 6 18 7 16 8 15 9 14 10 13 11 6 12
REMARK SMILES IDX 7 13 8 14 9 15 12 16 11 17 10 18 4 20 20 22 17 24
REMARK H PARENT 10 19 4 21 20 23 17 25
REMARK Flexibility Score: inf
ROOT
ATOM      1  C   UNL     1     -12.475   3.962  23.669  1.00  0.00     0.180 A 
ATOM      2  C   UNL     1     -12.216   2.713  24.260  1.00  0.00     0.208 A 
ATOM      3  C   UNL     1     -13.042   1.623  23.938  1.00  0.00     0.238 A 
ATOM      4  O   UNL     1     -12.773   0.496  24.427  1.00  0.00    -0.285 OA
ATOM      5  C   UNL     1     -14.124   1.800  23.042  1.00  0.00     0.111 A 
ATOM      6  C   UNL     1     -15.047   0.775  22.675  1.00  0.00     0.134 A 
ATOM      7  C   UNL     1     -16.000   1.028  21.680  1.00  0.00     0.093 A 
ATOM      8  C   UNL     1     -16.105   2.286  21.086  1.00  0.00     0.123 A 
ATOM      9  C   UNL     1     -15.246   3.311  21.481  1.00  0.00     0.094 A 
ATOM     10  C   UNL     1     -14.261   3.080  22.444  1.00  0.00     0.146 A 
ATOM     11  O   UNL     1     -13.456   4.080  22.783  1.00  0.00    -0.452 OA
ENDROOT
BRANCH   1  12
ATOM     12  C   UNL     1     -11.665   5.162  23.979  1.00  0.00     0.021 A 
ATOM     13  C   UNL     1     -10.311   5.249  23.609  1.00  0.00     0.016 A 
ATOM     14  C   UNL     1      -9.560   6.383  23.934  1.00  0.00     0.047 A 
ATOM     15  C   UNL     1     -10.147   7.437  24.642  1.00  0.00     0.115 A 
ATOM     16  C   UNL     1     -12.242   6.215  24.709  1.00  0.00     0.016 A 
ATOM     17  C   UNL     1     -11.490   7.348  25.031  1.00  0.00     0.047 A 
BRANCH  15  18
ATOM     18  O   UNL     1      -9.388   8.561  24.958  1.00  0.00    -0.508 OA
ATOM     19  H   UNL     1      -8.468   8.480  25.375  1.00  0.00     0.293 HD
ENDBRANCH  15  18
ENDBRANCH   1  12
BRANCH   2  20
ATOM     20  O   UNL     1     -11.130   2.555  25.125  1.00  0.00    -0.502 OA
ATOM     21  H   UNL     1     -11.080   3.017  26.025  1.00  0.00     0.293 HD
ENDBRANCH   2  20
BRANCH   6  22
ATOM     22  O   UNL     1     -15.089  -0.488  23.272  1.00  0.00    -0.507 OA
ATOM     23  H   UNL     1     -15.444  -0.675  24.198  1.00  0.00     0.293 HD
ENDBRANCH   6  22
BRANCH   8  24
ATOM     24  O   UNL     1     -17.075   2.506  20.111  1.00  0.00    -0.508 OA
ATOM     25  H   UNL     1     -17.072   1.993  19.236  1.00  0.00     0.293 HD
ENDBRANCH   8  24
TORSDOF 5
ENDMDL
MODEL 8
REMARK VINA RESULT:    -5.865      2.880      4.131
REMARK INTER + INTRA:          -6.945
REMARK INTER:                  -6.903
REMARK INTRA:                  -0.042
REMARK UNBOUND:                -0.051
REMARK SMILES O=c1c(O)c(-c2ccc(O)cc2)oc2cc(O)cc(O)c12
REMARK SMILES IDX 5 1 3 2 2 3 1 4 21 5 19 6 18 7 16 8 15 9 14 10 13 11 6 12
REMARK SMILES IDX 7 13 8 14 9 15 12 16 11 17 10 18 4 20 20 22 17 24
REMARK H PARENT 10 19 4 21 20 23 17 25
REMARK Flexibility Score: inf
ROOT
ATOM      1  C   UNL     1     -11.443   3.185  23.474  1.00  0.00     0.180 A 
ATOM      2  C   UNL     1     -10.889   2.479  22.392  1.00  0.00     0.208 A 
ATOM      3  C   UNL     1     -11.398   1.208  22.076  1.00  0.00     0.238 A 
ATOM      4  O   UNL     1     -10.936   0.604  21.074  1.00  0.00    -0.285 OA
ATOM      5  C   UNL     1     -12.442   0.653  22.856  1.00  0.00     0.111 A 
ATOM      6  C   UNL     1     -13.006  -0.642  22.651  1.00  0.00     0.134 A 
ATOM      7  C   UNL     1     -14.122  -1.035  23.399  1.00  0.00     0.093 A 
ATOM      8  C   UNL     1     -14.654  -0.208  24.389  1.00  0.00     0.123 A 
ATOM      9  C   UNL     1     -14.072   1.035  24.638  1.00  0.00     0.094 A 
ATOM     10  C   UNL     1     -12.981   1.471  23.884  1.00  0.00     0.146 A 
ATOM     11  O   UNL     1     -12.464   2.666  24.145  1.00  0.00    -0.452 OA
ENDROOT
BRANCH   1  12
ATOM     12  C   UNL     1     -10.942   4.517  23.884  1.00  0.00     0.021 A 
ATOM     13  C   UNL     1      -9.582   4.733  24.170  1.00  0.00     0.016 A 
ATOM     14  C   UNL     1      -9.137   5.994  24.578  1.00  0.00     0.047 A 
ATOM     15  C   UNL     1     -10.044   7.049  24.718  1.00  0.00     0.115 A 
ATOM     16  C   UNL     1     -11.851   5.576  24.047  1.00  0.00     0.016 A 
ATOM     17  C   UNL     1     -11.403   6.836  24.454  1.00  0.00     0.047 A 
BRANCH  15  18
ATOM     18  O   UNL     1      -9.587   8.301  25.125  1.00  0.00    -0.508 OA
ATOM     19  H   UNL     1      -9.881   8.714  26.002  1.00  0.00     0.293 HD
ENDBRANCH  15  18
ENDBRANCH   1  12
BRANCH   2  20
ATOM     20  O   UNL     1      -9.875   3.053  21.622  1.00  0.00    -0.502 OA
ATOM     21  H   UNL     1      -8.967   3.288  22.006  1.00  0.00     0.293 HD
ENDBRANCH   2  20
BRANCH   6  22
ATOM     22  O   UNL     1     -12.494  -1.582  21.752  1.00  0.00    -0.507 OA
ATOM     23  H   UNL     1     -12.810  -2.537  21.678  1.00  0.00     0.293 HD
ENDBRANCH   6  22
BRANCH   8  24
ATOM     24  O   UNL     1     -15.756  -0.638  25.125  1.00  0.00    -0.508 OA
ATOM     25  H   UNL     1     -16.699  -0.366  24.874  1.00  0.00     0.293 HD
ENDBRANCH   8  24
TORSDOF 5
ENDMDL
MODEL 9
REMARK VINA RESULT:    -5.516      2.042      3.822
REMARK INTER + INTRA:          -6.535
REMARK INTER:                  -6.466
REMARK INTRA:                  -0.069
REMARK UNBOUND:                -0.051
REMARK SMILES O=c1c(O)c(-c2ccc(O)cc2)oc2cc(O)cc(O)c12
REMARK SMILES IDX 5 1 3 2 2 3 1 4 21 5 19 6 18 7 16 8 15 9 14 10 13 11 6 12
REMARK SMILES IDX 7 13 8 14 9 15 12 16 11 17 10 18 4 20 20 22 17 24
REMARK H PARENT 10 19 4 21 20 23 17 25
REMARK Flexibility Score: inf
ROOT
ATOM      1  C   UNL     1     -12.183   2.597  23.275  1.00  0.00     0.180 A 
ATOM      2  C   UNL     1     -12.668   3.916  23.252  1.00  0.00     0.208 A 
ATOM      3  C   UNL     1     -13.978   4.153  22.805  1.00  0.00     0.238 A 
ATOM      4  O   UNL     1     -14.425   5.328  22.838  1.00  0.00    -0.285 OA
ATOM      5  C   UNL     1     -14.781   3.069  22.372  1.00  0.00     0.111 A 
ATOM      6  C   UNL     1     -16.108   3.198  21.863  1.00  0.00     0.134 A 
ATOM      7  C   UNL     1     -16.856   2.047  21.587  1.00  0.00     0.093 A 
ATOM      8  C   UNL     1     -16.304   0.775  21.739  1.00  0.00     0.123 A 
ATOM      9  C   UNL     1     -14.987   0.640  22.180  1.00  0.00     0.094 A 
ATOM     10  C   UNL     1     -14.228   1.768  22.498  1.00  0.00     0.146 A 
ATOM     11  O   UNL     1     -12.982   1.596  22.925  1.00  0.00    -0.452 OA
ENDROOT
BRANCH   1  12
ATOM     12  C   UNL     1     -10.805   2.271  23.708  1.00  0.00     0.021 A 
ATOM     13  C   UNL     1      -9.685   2.859  23.092  1.00  0.00     0.016 A 
ATOM     14  C   UNL     1      -8.392   2.518  23.501  1.00  0.00     0.047 A 
ATOM     15  C   UNL     1      -8.201   1.579  24.519  1.00  0.00     0.115 A 
ATOM     16  C   UNL     1     -10.604   1.313  24.715  1.00  0.00     0.016 A 
ATOM     17  C   UNL     1      -9.312   0.974  25.124  1.00  0.00     0.047 A 
BRANCH  15  18
ATOM     18  O   UNL     1      -6.908   1.249  24.919  1.00  0.00    -0.508 OA
ATOM     19  H   UNL     1      -6.204   1.960  25.077  1.00  0.00     0.293 HD
ENDBRANCH  15  18
ENDBRANCH   1  12
BRANCH   2  20
ATOM     20  O   UNL     1     -11.866   4.968  23.704  1.00  0.00    -0.502 OA
ATOM     21  H   UNL     1     -11.641   5.098  24.683  1.00  0.00     0.293 HD
ENDBRANCH   2  20
BRANCH   6  22
ATOM     22  O   UNL     1     -16.723   4.423  21.586  1.00  0.00    -0.507 OA
ATOM     23  H   UNL     1     -17.214   4.985  22.264  1.00  0.00     0.293 HD
ENDBRANCH   6  22
BRANCH   8  24
ATOM     24  O   UNL     1     -17.073  -0.348  21.441  1.00  0.00    -0.508 OA
ATOM     25  H   UNL     1     -16.645  -1.242  21.229  1.00  0.00     0.293 HD
ENDBRANCH   8  24
TORSDOF 5
ENDMDL
