MODEL 1
REMARK VINA RESULT:    92.981      0.000      0.000
REMARK INTER + INTRA:         101.821
REMARK INTER:                 101.134
REMARK INTRA:                   0.686
REMARK UNBOUND:                 0.686
REMARK SMILES C[C@H]1[C@H](C)CC[C@@]2(C(=O)[O-])CC[C@]3(C)C(=CC[C@@H]4[C@]5(C)CC[C@@H](O)C(C)(C)[C@H]5CC[C@@]43C)[C@H]12
REMARK SMILES IDX 7 1 6 2 11 3 33 4 5 5 12 6 15 7 2 8 3 9 13 10 16 11 1 12
REMARK SMILES IDX 4 13 14 14 31 15 17 16 18 17 30 18 32 19 19 20 29 21 28 22
REMARK SMILES IDX 21 23 20 24 25 25 22 26 23 27 26 28 27 29 8 30 9 31 10 32
REMARK SMILES IDX 24 33
REMARK H PARENT 24 34
REMARK Flexibility Score: inf
ROOT
ATOM      1  C   UNL     1      34.302  41.609  56.284  1.00  0.00     0.017 C 
ATOM      2  C   UNL     1      35.095  41.494  54.960  1.00  0.00     0.014 C 
ATOM      3  C   UNL     1      35.293  41.379  57.485  1.00  0.00     0.014 C 
ATOM      4  C   UNL     1      33.682  43.039  56.400  1.00  0.00     0.030 C 
ATOM      5  C   UNL     1      34.215  41.791  53.747  1.00  0.00     0.004 C 
ATOM      6  C   UNL     1      35.160  42.380  58.662  1.00  0.00     0.013 C 
ATOM      7  C   UNL     1      32.934  43.123  57.752  1.00  0.00    -0.063 C 
ATOM      8  C   UNL     1      32.917  43.537  55.116  1.00  0.00    -0.003 C 
ATOM      9  C   UNL     1      33.703  43.235  53.800  1.00  0.00    -0.011 C 
ATOM     10  C   UNL     1      33.680  42.751  59.035  1.00  0.00    -0.006 C 
ATOM     11  C   UNL     1      31.681  43.593  57.858  1.00  0.00    -0.027 C 
ATOM     12  C   UNL     1      32.666  45.067  55.193  1.00  0.00     0.008 C 
ATOM     13  C   UNL     1      32.850  43.512  52.548  1.00  0.00     0.008 C 
ATOM     14  C   UNL     1      33.041  41.460  59.640  1.00  0.00     0.017 C 
ATOM     15  C   UNL     1      33.549  43.987  60.056  1.00  0.00    -0.020 C 
ATOM     16  C   UNL     1      31.057  44.004  59.161  1.00  0.00     0.032 C 
ATOM     17  C   UNL     1      32.006  44.220  60.407  1.00  0.00     0.006 C 
ATOM     18  C   UNL     1      34.140  45.291  59.413  1.00  0.00     0.008 C 
ATOM     19  C   UNL     1      34.362  43.664  61.352  1.00  0.00     0.012 C 
ATOM     20  C   UNL     1      31.662  45.574  61.191  1.00  0.00    -0.025 C 
ATOM     21  C   UNL     1      33.797  46.598  60.145  1.00  0.00     0.005 C 
ATOM     22  C   UNL     1      32.272  46.770  60.365  1.00  0.00     0.003 C 
ATOM     23  C   UNL     1      30.092  45.732  61.364  1.00  0.00     0.010 C 
ATOM     24  C   UNL     1      32.232  45.536  62.648  1.00  0.00     0.012 C 
ATOM     25  C   UNL     1      31.836  48.227  60.832  1.00  0.00    -0.006 C 
ATOM     26  C   UNL     1      29.536  47.068  60.856  1.00  0.00     0.033 C 
ATOM     27  C   UNL     1      30.359  48.245  61.389  1.00  0.00     0.120 C 
ATOM     28  C   UNL     1      32.816  48.831  61.873  1.00  0.00     0.014 C 
ATOM     29  C   UNL     1      31.874  49.171  59.596  1.00  0.00     0.014 C 
ENDROOT
BRANCH   1  30
ATOM     30  C   UNL     1      33.234  40.512  56.293  1.00  0.00     0.048 C 
ATOM     31  O   UNL     1      33.539  39.336  55.955  1.00  0.00    -0.550 OA
ATOM     32  O   UNL     1      31.915  40.782  56.636  1.00  0.00    -0.550 OA
ENDBRANCH   1  30
BRANCH  27  33
ATOM     33  O   UNL     1      30.321  48.219  62.798  1.00  0.00    -0.393 OA
ATOM     34  H   UNL     1      31.123  47.723  63.110  1.00  0.00     0.210 HD
ENDBRANCH  27  33
TORSDOF 2
ENDMDL
MODEL 2
REMARK VINA RESULT:    95.055      1.499      2.209
REMARK INTER + INTRA:         104.076
REMARK INTER:                 102.904
REMARK INTRA:                   1.172
REMARK UNBOUND:                 0.686
REMARK SMILES C[C@H]1[C@H](C)CC[C@@]2(C(=O)[O-])CC[C@]3(C)C(=CC[C@@H]4[C@]5(C)CC[C@@H](O)C(C)(C)[C@H]5CC[C@@]43C)[C@H]12
REMARK SMILES IDX 7 1 6 2 11 3 33 4 5 5 12 6 15 7 2 8 3 9 13 10 16 11 1 12
REMARK SMILES IDX 4 13 14 14 31 15 17 16 18 17 30 18 32 19 19 20 29 21 28 22
REMARK SMILES IDX 21 23 20 24 25 25 22 26 23 27 26 28 27 29 8 30 9 31 10 32
REMARK SMILES IDX 24 33
REMARK H PARENT 24 34
REMARK Flexibility Score: inf
ROOT
ATOM      1  C   UNL     1      34.275  42.343  54.654  1.00  0.00     0.017 C 
ATOM      2  C   UNL     1      34.674  42.947  53.286  1.00  0.00     0.014 C 
ATOM      3  C   UNL     1      35.586  41.944  55.429  1.00  0.00     0.014 C 
ATOM      4  C   UNL     1      33.492  43.408  55.488  1.00  0.00     0.030 C 
ATOM      5  C   UNL     1      33.455  43.439  52.509  1.00  0.00     0.004 C 
ATOM      6  C   UNL     1      35.629  42.354  56.924  1.00  0.00     0.013 C 
ATOM      7  C   UNL     1      33.149  42.777  56.859  1.00  0.00    -0.063 C 
ATOM      8  C   UNL     1      32.330  44.135  54.712  1.00  0.00    -0.003 C 
ATOM      9  C   UNL     1      32.755  44.569  53.273  1.00  0.00    -0.011 C 
ATOM     10  C   UNL     1      34.272  42.158  57.691  1.00  0.00    -0.006 C 
ATOM     11  C   UNL     1      31.917  42.829  57.391  1.00  0.00    -0.027 C 
ATOM     12  C   UNL     1      31.870  45.401  55.486  1.00  0.00     0.008 C 
ATOM     13  C   UNL     1      31.554  45.065  52.447  1.00  0.00     0.008 C 
ATOM     14  C   UNL     1      34.042  40.616  57.790  1.00  0.00     0.017 C 
ATOM     15  C   UNL     1      34.237  42.836  59.150  1.00  0.00    -0.020 C 
ATOM     16  C   UNL     1      31.624  42.539  58.835  1.00  0.00     0.032 C 
ATOM     17  C   UNL     1      32.836  42.509  59.849  1.00  0.00     0.006 C 
ATOM     18  C   UNL     1      34.409  44.392  59.031  1.00  0.00     0.008 C 
ATOM     19  C   UNL     1      35.420  42.272  60.001  1.00  0.00     0.012 C 
ATOM     20  C   UNL     1      32.514  43.327  61.189  1.00  0.00    -0.025 C 
ATOM     21  C   UNL     1      34.081  45.188  60.304  1.00  0.00     0.005 C 
ATOM     22  C   UNL     1      32.670  44.860  60.859  1.00  0.00     0.003 C 
ATOM     23  C   UNL     1      31.051  42.993  61.705  1.00  0.00     0.010 C 
ATOM     24  C   UNL     1      33.466  42.891  62.351  1.00  0.00     0.012 C 
ATOM     25  C   UNL     1      32.157  45.865  61.980  1.00  0.00    -0.006 C 
ATOM     26  C   UNL     1      30.170  44.227  61.936  1.00  0.00     0.033 C 
ATOM     27  C   UNL     1      30.911  45.286  62.758  1.00  0.00     0.120 C 
ATOM     28  C   UNL     1      33.279  46.265  62.975  1.00  0.00     0.014 C 
ATOM     29  C   UNL     1      31.697  47.180  61.288  1.00  0.00     0.014 C 
ENDROOT
BRANCH   1  30
ATOM     30  C   UNL     1      33.441  41.086  54.391  1.00  0.00     0.048 C 
ATOM     31  O   UNL     1      32.587  41.081  53.462  1.00  0.00    -0.550 OA
ATOM     32  O   UNL     1      33.573  39.946  55.174  1.00  0.00    -0.550 OA
ENDBRANCH   1  30
BRANCH  27  33
ATOM     33  O   UNL     1      31.272  44.721  63.997  1.00  0.00    -0.393 OA
ATOM     34  H   UNL     1      32.002  45.277  64.378  1.00  0.00     0.210 HD
ENDBRANCH  27  33
TORSDOF 2
ENDMDL
