MODEL 1
REMARK VINA RESULT:    -6.168      0.000      0.000
REMARK INTER + INTRA:          -7.756
REMARK INTER:                  -7.429
REMARK INTRA:                  -0.327
REMARK UNBOUND:                -0.327
REMARK SMILES O=c1c(O)c(-c2ccc(O)c(O)c2)oc2cc(O)cc(O)c12
REMARK SMILES IDX 5 1 3 2 2 3 1 4 22 5 20 6 19 7 17 8 16 9 15 10 14 11 6 12
REMARK SMILES IDX 7 13 8 14 9 15 13 16 11 17 10 18 12 20 4 22 21 24 18 26
REMARK H PARENT 10 19 12 21 4 23 21 25 18 27
REMARK Flexibility Score: inf
ROOT
ATOM      1  C   UNL     1      27.301 -12.245  12.906  1.00  0.00     0.180 A 
ATOM      2  C   UNL     1      26.099 -12.359  13.626  1.00  0.00     0.208 A 
ATOM      3  C   UNL     1      26.153 -12.486  15.023  1.00  0.00     0.238 A 
ATOM      4  O   UNL     1      25.077 -12.643  15.657  1.00  0.00    -0.285 OA
ATOM      5  C   UNL     1      27.405 -12.481  15.684  1.00  0.00     0.111 A 
ATOM      6  C   UNL     1      27.575 -12.563  17.099  1.00  0.00     0.134 A 
ATOM      7  C   UNL     1      28.864 -12.682  17.634  1.00  0.00     0.093 A 
ATOM      8  C   UNL     1      29.990 -12.655  16.812  1.00  0.00     0.123 A 
ATOM      9  C   UNL     1      29.838 -12.515  15.432  1.00  0.00     0.094 A 
ATOM     10  C   UNL     1      28.563 -12.432  14.865  1.00  0.00     0.146 A 
ATOM     11  O   UNL     1      28.462 -12.310  13.548  1.00  0.00    -0.452 OA
ENDROOT
BRANCH   1  12
ATOM     12  C   UNL     1      27.324 -12.082  11.434  1.00  0.00     0.025 A 
ATOM     13  C   UNL     1      27.377 -13.221  10.614  1.00  0.00     0.016 A 
ATOM     14  C   UNL     1      27.421 -13.090   9.223  1.00  0.00     0.051 A 
ATOM     15  C   UNL     1      27.428 -11.820   8.634  1.00  0.00     0.157 A 
ATOM     16  C   UNL     1      27.354 -10.809  10.838  1.00  0.00     0.062 A 
ATOM     17  C   UNL     1      27.399 -10.677   9.443  1.00  0.00     0.158 A 
BRANCH  15  18
ATOM     18  O   UNL     1      27.470 -11.685   7.247  1.00  0.00    -0.504 OA
ATOM     19  H   UNL     1      28.220 -12.088   6.698  1.00  0.00     0.293 HD
ENDBRANCH  15  18
BRANCH  17  20
ATOM     20  O   UNL     1      27.422  -9.414   8.854  1.00  0.00    -0.504 OA
ATOM     21  H   UNL     1      27.165  -9.276   7.883  1.00  0.00     0.293 HD
ENDBRANCH  17  20
ENDBRANCH   1  12
BRANCH   2  22
ATOM     22  O   UNL     1      24.875 -12.384  12.953  1.00  0.00    -0.502 OA
ATOM     23  H   UNL     1      24.799 -12.622  11.971  1.00  0.00     0.293 HD
ENDBRANCH   2  22
BRANCH   6  24
ATOM     24  O   UNL     1      26.522 -12.506  18.017  1.00  0.00    -0.507 OA
ATOM     25  H   UNL     1      25.614 -12.924  17.876  1.00  0.00     0.293 HD
ENDBRANCH   6  24
BRANCH   8  26
ATOM     26  O   UNL     1      31.258 -12.759  17.380  1.00  0.00    -0.508 OA
ATOM     27  H   UNL     1      31.386 -12.818  18.383  1.00  0.00     0.293 HD
ENDBRANCH   8  26
TORSDOF 6
ENDMDL
MODEL 2
REMARK VINA RESULT:    -6.110      2.784      5.136
REMARK INTER + INTRA:          -7.687
REMARK INTER:                  -7.509
REMARK INTRA:                  -0.177
REMARK UNBOUND:                -0.327
REMARK SMILES O=c1c(O)c(-c2ccc(O)c(O)c2)oc2cc(O)cc(O)c12
REMARK SMILES IDX 5 1 3 2 2 3 1 4 22 5 20 6 19 7 17 8 16 9 15 10 14 11 6 12
REMARK SMILES IDX 7 13 8 14 9 15 13 16 11 17 10 18 12 20 4 22 21 24 18 26
REMARK H PARENT 10 19 12 21 4 23 21 25 18 27
REMARK Flexibility Score: inf
ROOT
ATOM      1  C   UNL     1      27.338 -10.145  10.289  1.00  0.00     0.180 A 
ATOM      2  C   UNL     1      26.641 -10.926   9.351  1.00  0.00     0.208 A 
ATOM      3  C   UNL     1      26.365 -12.269   9.653  1.00  0.00     0.238 A 
ATOM      4  O   UNL     1      25.790 -12.978   8.787  1.00  0.00    -0.285 OA
ATOM      5  C   UNL     1      26.775 -12.810  10.896  1.00  0.00     0.111 A 
ATOM      6  C   UNL     1      26.513 -14.147  11.324  1.00  0.00     0.134 A 
ATOM      7  C   UNL     1      27.079 -14.613  12.517  1.00  0.00     0.093 A 
ATOM      8  C   UNL     1      27.841 -13.773  13.330  1.00  0.00     0.123 A 
ATOM      9  C   UNL     1      28.053 -12.448  12.950  1.00  0.00     0.094 A 
ATOM     10  C   UNL     1      27.533 -11.964  11.747  1.00  0.00     0.146 A 
ATOM     11  O   UNL     1      27.766 -10.699  11.418  1.00  0.00    -0.452 OA
ENDROOT
BRANCH   1  12
ATOM     12  C   UNL     1      27.643  -8.716  10.053  1.00  0.00     0.025 A 
ATOM     13  C   UNL     1      26.994  -7.735  10.821  1.00  0.00     0.016 A 
ATOM     14  C   UNL     1      27.251  -6.379  10.601  1.00  0.00     0.051 A 
ATOM     15  C   UNL     1      28.147  -5.984   9.600  1.00  0.00     0.157 A 
ATOM     16  C   UNL     1      28.525  -8.313   9.035  1.00  0.00     0.062 A 
ATOM     17  C   UNL     1      28.782  -6.953   8.812  1.00  0.00     0.158 A 
BRANCH  15  18
ATOM     18  O   UNL     1      28.407  -4.633   9.378  1.00  0.00    -0.504 OA
ATOM     19  H   UNL     1      28.970  -4.323   8.595  1.00  0.00     0.293 HD
ENDBRANCH  15  18
BRANCH  17  20
ATOM     20  O   UNL     1      29.662  -6.556   7.806  1.00  0.00    -0.504 OA
ATOM     21  H   UNL     1      30.118  -7.231   7.204  1.00  0.00     0.293 HD
ENDBRANCH  17  20
ENDBRANCH   1  12
BRANCH   2  22
ATOM     22  O   UNL     1      26.265 -10.379   8.121  1.00  0.00    -0.502 OA
ATOM     23  H   UNL     1      26.939 -10.001   7.465  1.00  0.00     0.293 HD
ENDBRANCH   2  22
BRANCH   6  24
ATOM     24  O   UNL     1      25.690 -15.041  10.633  1.00  0.00    -0.507 OA
ATOM     25  H   UNL     1      24.701 -14.910  10.480  1.00  0.00     0.293 HD
ENDBRANCH   6  24
BRANCH   8  26
ATOM     26  O   UNL     1      28.374 -14.266  14.518  1.00  0.00    -0.508 OA
ATOM     27  H   UNL     1      27.938 -15.033  15.017  1.00  0.00     0.293 HD
ENDBRANCH   8  26
TORSDOF 6
ENDMDL
MODEL 3
REMARK VINA RESULT:    -5.615      4.759      5.954
REMARK INTER + INTRA:          -7.091
REMARK INTER:                  -6.802
REMARK INTRA:                  -0.289
REMARK UNBOUND:                -0.327
REMARK SMILES O=c1c(O)c(-c2ccc(O)c(O)c2)oc2cc(O)cc(O)c12
REMARK SMILES IDX 5 1 3 2 2 3 1 4 22 5 20 6 19 7 17 8 16 9 15 10 14 11 6 12
REMARK SMILES IDX 7 13 8 14 9 15 13 16 11 17 10 18 12 20 4 22 21 24 18 26
REMARK H PARENT 10 19 12 21 4 23 21 25 18 27
REMARK Flexibility Score: inf
ROOT
ATOM      1  C   UNL     1      27.421 -11.324   9.251  1.00  0.00     0.180 A 
ATOM      2  C   UNL     1      26.344 -11.396  10.151  1.00  0.00     0.208 A 
ATOM      3  C   UNL     1      25.947 -10.233  10.831  1.00  0.00     0.238 A 
ATOM      4  O   UNL     1      25.018 -10.316  11.677  1.00  0.00    -0.285 OA
ATOM      5  C   UNL     1      26.619  -9.012  10.590  1.00  0.00     0.111 A 
ATOM      6  C   UNL     1      26.275  -7.764  11.193  1.00  0.00     0.134 A 
ATOM      7  C   UNL     1      27.091  -6.646  10.981  1.00  0.00     0.093 A 
ATOM      8  C   UNL     1      28.200  -6.713  10.137  1.00  0.00     0.123 A 
ATOM      9  C   UNL     1      28.511  -7.912   9.496  1.00  0.00     0.094 A 
ATOM     10  C   UNL     1      27.738  -9.054   9.717  1.00  0.00     0.146 A 
ATOM     11  O   UNL     1      28.074 -10.178   9.095  1.00  0.00    -0.452 OA
ENDROOT
BRANCH   1  12
ATOM     12  C   UNL     1      27.881 -12.501   8.478  1.00  0.00     0.025 A 
ATOM     13  C   UNL     1      27.448 -12.669   7.153  1.00  0.00     0.016 A 
ATOM     14  C   UNL     1      27.853 -13.783   6.412  1.00  0.00     0.051 A 
ATOM     15  C   UNL     1      28.682 -14.751   6.991  1.00  0.00     0.157 A 
ATOM     16  C   UNL     1      28.696 -13.487   9.062  1.00  0.00     0.062 A 
ATOM     17  C   UNL     1      29.101 -14.606   8.319  1.00  0.00     0.158 A 
BRANCH  15  18
ATOM     18  O   UNL     1      29.090 -15.863   6.255  1.00  0.00    -0.504 OA
ATOM     19  H   UNL     1      29.208 -15.819   5.250  1.00  0.00     0.293 HD
ENDBRANCH  15  18
BRANCH  17  20
ATOM     20  O   UNL     1      29.915 -15.579   8.897  1.00  0.00    -0.504 OA
ATOM     21  H   UNL     1      30.806 -15.344   9.318  1.00  0.00     0.293 HD
ENDBRANCH  17  20
ENDBRANCH   1  12
BRANCH   2  22
ATOM     22  O   UNL     1      25.708 -12.617  10.392  1.00  0.00    -0.502 OA
ATOM     23  H   UNL     1      25.580 -12.990  11.325  1.00  0.00     0.293 HD
ENDBRANCH   2  22
BRANCH   6  24
ATOM     24  O   UNL     1      25.137  -7.565  11.980  1.00  0.00    -0.507 OA
ATOM     25  H   UNL     1      24.923  -6.713  12.476  1.00  0.00     0.293 HD
ENDBRANCH   6  24
BRANCH   8  26
ATOM     26  O   UNL     1      28.980  -5.577   9.937  1.00  0.00    -0.508 OA
ATOM     27  H   UNL     1      28.696  -4.845   9.296  1.00  0.00     0.293 HD
ENDBRANCH   8  26
TORSDOF 6
ENDMDL
MODEL 4
REMARK VINA RESULT:    -5.531      4.402      7.217
REMARK INTER + INTRA:          -6.989
REMARK INTER:                  -6.834
REMARK INTRA:                  -0.155
REMARK UNBOUND:                -0.327
REMARK SMILES O=c1c(O)c(-c2ccc(O)c(O)c2)oc2cc(O)cc(O)c12
REMARK SMILES IDX 5 1 3 2 2 3 1 4 22 5 20 6 19 7 17 8 16 9 15 10 14 11 6 12
REMARK SMILES IDX 7 13 8 14 9 15 13 16 11 17 10 18 12 20 4 22 21 24 18 26
REMARK H PARENT 10 19 12 21 4 23 21 25 18 27
REMARK Flexibility Score: inf
ROOT
ATOM      1  C   UNL     1      26.872 -10.120   9.541  1.00  0.00     0.180 A 
ATOM      2  C   UNL     1      27.124 -11.111  10.506  1.00  0.00     0.208 A 
ATOM      3  C   UNL     1      26.634 -12.409  10.291  1.00  0.00     0.238 A 
ATOM      4  O   UNL     1      26.815 -13.278  11.184  1.00  0.00    -0.285 OA
ATOM      5  C   UNL     1      25.914 -12.704   9.109  1.00  0.00     0.111 A 
ATOM      6  C   UNL     1      25.406 -13.995   8.769  1.00  0.00     0.134 A 
ATOM      7  C   UNL     1      24.597 -14.142   7.637  1.00  0.00     0.093 A 
ATOM      8  C   UNL     1      24.330 -13.062   6.796  1.00  0.00     0.123 A 
ATOM      9  C   UNL     1      24.870 -11.809   7.086  1.00  0.00     0.094 A 
ATOM     10  C   UNL     1      25.651 -11.622   8.229  1.00  0.00     0.146 A 
ATOM     11  O   UNL     1      26.138 -10.411   8.474  1.00  0.00    -0.452 OA
ENDROOT
BRANCH   1  12
ATOM     12  C   UNL     1      27.378  -8.736   9.685  1.00  0.00     0.025 A 
ATOM     13  C   UNL     1      26.877  -7.921  10.713  1.00  0.00     0.016 A 
ATOM     14  C   UNL     1      27.325  -6.604  10.855  1.00  0.00     0.051 A 
ATOM     15  C   UNL     1      28.266  -6.079   9.961  1.00  0.00     0.157 A 
ATOM     16  C   UNL     1      28.307  -8.197   8.777  1.00  0.00     0.062 A 
ATOM     17  C   UNL     1      28.755  -6.875   8.918  1.00  0.00     0.158 A 
BRANCH  15  18
ATOM     18  O   UNL     1      28.716  -4.768  10.100  1.00  0.00    -0.504 OA
ATOM     19  H   UNL     1      28.898  -4.181   9.294  1.00  0.00     0.293 HD
ENDBRANCH  15  18
BRANCH  17  20
ATOM     20  O   UNL     1      29.681  -6.345   8.021  1.00  0.00    -0.504 OA
ATOM     21  H   UNL     1      30.018  -6.879   7.228  1.00  0.00     0.293 HD
ENDBRANCH  17  20
ENDBRANCH   1  12
BRANCH   2  22
ATOM     22  O   UNL     1      27.818 -10.793  11.676  1.00  0.00    -0.502 OA
ATOM     23  H   UNL     1      27.433 -10.958  12.599  1.00  0.00     0.293 HD
ENDBRANCH   2  22
BRANCH   6  24
ATOM     24  O   UNL     1      25.688 -15.159   9.490  1.00  0.00    -0.507 OA
ATOM     25  H   UNL     1      25.644 -16.094   9.113  1.00  0.00     0.293 HD
ENDBRANCH   6  24
BRANCH   8  26
ATOM     26  O   UNL     1      23.533 -13.249   5.669  1.00  0.00    -0.508 OA
ATOM     27  H   UNL     1      22.896 -12.530   5.344  1.00  0.00     0.293 HD
ENDBRANCH   8  26
TORSDOF 6
ENDMDL
MODEL 5
REMARK VINA RESULT:    -5.517      1.417      2.981
REMARK INTER + INTRA:          -6.973
REMARK INTER:                  -6.712
REMARK INTRA:                  -0.261
REMARK UNBOUND:                -0.327
REMARK SMILES O=c1c(O)c(-c2ccc(O)c(O)c2)oc2cc(O)cc(O)c12
REMARK SMILES IDX 5 1 3 2 2 3 1 4 22 5 20 6 19 7 17 8 16 9 15 10 14 11 6 12
REMARK SMILES IDX 7 13 8 14 9 15 13 16 11 17 10 18 12 20 4 22 21 24 18 26
REMARK H PARENT 10 19 12 21 4 23 21 25 18 27
REMARK Flexibility Score: inf
ROOT
ATOM      1  C   UNL     1      27.323 -12.076  13.027  1.00  0.00     0.180 A 
ATOM      2  C   UNL     1      28.370 -12.635  13.780  1.00  0.00     0.208 A 
ATOM      3  C   UNL     1      28.253 -12.679  15.179  1.00  0.00     0.238 A 
ATOM      4  O   UNL     1      29.217 -13.130  15.852  1.00  0.00    -0.285 OA
ATOM      5  C   UNL     1      27.086 -12.179  15.805  1.00  0.00     0.111 A 
ATOM      6  C   UNL     1      26.843 -12.209  17.212  1.00  0.00     0.134 A 
ATOM      7  C   UNL     1      25.712 -11.569  17.731  1.00  0.00     0.093 A 
ATOM      8  C   UNL     1      24.781 -10.956  16.893  1.00  0.00     0.123 A 
ATOM      9  C   UNL     1      24.978 -10.972  15.511  1.00  0.00     0.094 A 
ATOM     10  C   UNL     1      26.116 -11.571  14.965  1.00  0.00     0.146 A 
ATOM     11  O   UNL     1      26.270 -11.556  13.647  1.00  0.00    -0.452 OA
ENDROOT
BRANCH   1  12
ATOM     12  C   UNL     1      27.362 -12.017  11.548  1.00  0.00     0.025 A 
ATOM     13  C   UNL     1      27.161 -13.192  10.805  1.00  0.00     0.016 A 
ATOM     14  C   UNL     1      27.214 -13.164   9.408  1.00  0.00     0.051 A 
ATOM     15  C   UNL     1      27.485 -11.966   8.736  1.00  0.00     0.157 A 
ATOM     16  C   UNL     1      27.655 -10.821  10.869  1.00  0.00     0.062 A 
ATOM     17  C   UNL     1      27.710 -10.793   9.468  1.00  0.00     0.158 A 
BRANCH  15  18
ATOM     18  O   UNL     1      27.538 -11.933   7.344  1.00  0.00    -0.504 OA
ATOM     19  H   UNL     1      28.299 -12.363   6.832  1.00  0.00     0.293 HD
ENDBRANCH  15  18
BRANCH  17  20
ATOM     20  O   UNL     1      27.995  -9.604   8.797  1.00  0.00    -0.504 OA
ATOM     21  H   UNL     1      28.416  -9.604   7.875  1.00  0.00     0.293 HD
ENDBRANCH  17  20
ENDBRANCH   1  12
BRANCH   2  22
ATOM     22  O   UNL     1      29.522 -13.102  13.145  1.00  0.00    -0.502 OA
ATOM     23  H   UNL     1      29.507 -13.873  12.488  1.00  0.00     0.293 HD
ENDBRANCH   2  22
BRANCH   6  24
ATOM     24  O   UNL     1      27.662 -12.873  18.130  1.00  0.00    -0.507 OA
ATOM     25  H   UNL     1      27.564 -12.817  19.133  1.00  0.00     0.293 HD
ENDBRANCH   6  24
BRANCH   8  26
ATOM     26  O   UNL     1      23.659 -10.342  17.444  1.00  0.00    -0.508 OA
ATOM     27  H   UNL     1      23.515  -9.341  17.375  1.00  0.00     0.293 HD
ENDBRANCH   8  26
TORSDOF 6
ENDMDL
MODEL 6
REMARK VINA RESULT:    -5.459      1.651      6.808
REMARK INTER + INTRA:          -6.903
REMARK INTER:                  -6.795
REMARK INTRA:                  -0.107
REMARK UNBOUND:                -0.327
REMARK SMILES O=c1c(O)c(-c2ccc(O)c(O)c2)oc2cc(O)cc(O)c12
REMARK SMILES IDX 5 1 3 2 2 3 1 4 22 5 20 6 19 7 17 8 16 9 15 10 14 11 6 12
REMARK SMILES IDX 7 13 8 14 9 15 13 16 11 17 10 18 12 20 4 22 21 24 18 26
REMARK H PARENT 10 19 12 21 4 23 21 25 18 27
REMARK Flexibility Score: inf
ROOT
ATOM      1  C   UNL     1      26.631 -12.194  14.201  1.00  0.00     0.180 A 
ATOM      2  C   UNL     1      25.227 -12.129  14.212  1.00  0.00     0.208 A 
ATOM      3  C   UNL     1      24.549 -11.850  13.014  1.00  0.00     0.238 A 
ATOM      4  O   UNL     1      23.296 -11.738  13.041  1.00  0.00    -0.285 OA
ATOM      5  C   UNL     1      25.282 -11.657  11.818  1.00  0.00     0.111 A 
ATOM      6  C   UNL     1      24.698 -11.409  10.540  1.00  0.00     0.134 A 
ATOM      7  C   UNL     1      25.523 -11.103   9.451  1.00  0.00     0.093 A 
ATOM      8  C   UNL     1      26.912 -11.101   9.577  1.00  0.00     0.123 A 
ATOM      9  C   UNL     1      27.496 -11.401  10.808  1.00  0.00     0.094 A 
ATOM     10  C   UNL     1      26.698 -11.673  11.922  1.00  0.00     0.146 A 
ATOM     11  O   UNL     1      27.293 -11.943  13.078  1.00  0.00    -0.452 OA
ENDROOT
BRANCH   1  12
ATOM     12  C   UNL     1      27.413 -12.509  15.418  1.00  0.00     0.025 A 
ATOM     13  C   UNL     1      28.433 -11.634  15.829  1.00  0.00     0.016 A 
ATOM     14  C   UNL     1      29.198 -11.921  16.963  1.00  0.00     0.051 A 
ATOM     15  C   UNL     1      28.965 -13.093  17.692  1.00  0.00     0.157 A 
ATOM     16  C   UNL     1      27.198 -13.695  16.142  1.00  0.00     0.062 A 
ATOM     17  C   UNL     1      27.967 -13.984  17.279  1.00  0.00     0.158 A 
BRANCH  15  18
ATOM     18  O   UNL     1      29.725 -13.383  18.824  1.00  0.00    -0.504 OA
ATOM     19  H   UNL     1      30.511 -12.804  19.098  1.00  0.00     0.293 HD
ENDBRANCH  15  18
BRANCH  17  20
ATOM     20  O   UNL     1      27.748 -15.158  17.999  1.00  0.00    -0.504 OA
ATOM     21  H   UNL     1      26.922 -15.726  17.849  1.00  0.00     0.293 HD
ENDBRANCH  17  20
ENDBRANCH   1  12
BRANCH   2  22
ATOM     22  O   UNL     1      24.524 -12.301  15.407  1.00  0.00    -0.502 OA
ATOM     23  H   UNL     1      23.661 -11.809  15.607  1.00  0.00     0.293 HD
ENDBRANCH   2  22
BRANCH   6  24
ATOM     24  O   UNL     1      23.325 -11.476  10.283  1.00  0.00    -0.507 OA
ATOM     25  H   UNL     1      22.605 -11.187  10.928  1.00  0.00     0.293 HD
ENDBRANCH   6  24
BRANCH   8  26
ATOM     26  O   UNL     1      27.702 -10.808   8.468  1.00  0.00    -0.508 OA
ATOM     27  H   UNL     1      27.364 -10.950   7.524  1.00  0.00     0.293 HD
ENDBRANCH   8  26
TORSDOF 6
ENDMDL
MODEL 7
REMARK VINA RESULT:    -5.458      2.160      7.439
REMARK INTER + INTRA:          -6.902
REMARK INTER:                  -6.600
REMARK INTRA:                  -0.302
REMARK UNBOUND:                -0.327
REMARK SMILES O=c1c(O)c(-c2ccc(O)c(O)c2)oc2cc(O)cc(O)c12
REMARK SMILES IDX 5 1 3 2 2 3 1 4 22 5 20 6 19 7 17 8 16 9 15 10 14 11 6 12
REMARK SMILES IDX 7 13 8 14 9 15 13 16 11 17 10 18 12 20 4 22 21 24 18 26
REMARK H PARENT 10 19 12 21 4 23 21 25 18 27
REMARK Flexibility Score: inf
ROOT
ATOM      1  C   UNL     1      28.042 -13.455  11.787  1.00  0.00     0.180 A 
ATOM      2  C   UNL     1      28.900 -14.130  10.903  1.00  0.00     0.208 A 
ATOM      3  C   UNL     1      28.714 -13.972   9.520  1.00  0.00     0.238 A 
ATOM      4  O   UNL     1      29.450 -14.622   8.733  1.00  0.00    -0.285 OA
ATOM      5  C   UNL     1      27.683 -13.129   9.039  1.00  0.00     0.111 A 
ATOM      6  C   UNL     1      27.429 -12.863   7.660  1.00  0.00     0.134 A 
ATOM      7  C   UNL     1      26.302 -12.117   7.296  1.00  0.00     0.093 A 
ATOM      8  C   UNL     1      25.457 -11.572   8.262  1.00  0.00     0.123 A 
ATOM      9  C   UNL     1      25.729 -11.774   9.615  1.00  0.00     0.094 A 
ATOM     10  C   UNL     1      26.825 -12.546  10.009  1.00  0.00     0.146 A 
ATOM     11  O   UNL     1      27.043 -12.723  11.306  1.00  0.00    -0.452 OA
ENDROOT
BRANCH   1  12
ATOM     12  C   UNL     1      28.191 -13.552  13.257  1.00  0.00     0.025 A 
ATOM     13  C   UNL     1      27.625 -14.642  13.938  1.00  0.00     0.016 A 
ATOM     14  C   UNL     1      27.736 -14.742  15.328  1.00  0.00     0.051 A 
ATOM     15  C   UNL     1      28.400 -13.749  16.057  1.00  0.00     0.157 A 
ATOM     16  C   UNL     1      28.839 -12.546  13.996  1.00  0.00     0.062 A 
ATOM     17  C   UNL     1      28.949 -12.646  15.390  1.00  0.00     0.158 A 
BRANCH  15  18
ATOM     18  O   UNL     1      28.515 -13.847  17.442  1.00  0.00    -0.504 OA
ATOM     19  H   UNL     1      27.714 -13.722  18.051  1.00  0.00     0.293 HD
ENDBRANCH  15  18
BRANCH  17  20
ATOM     20  O   UNL     1      29.597 -11.650  16.120  1.00  0.00    -0.504 OA
ATOM     21  H   UNL     1      30.244 -11.006  15.680  1.00  0.00     0.293 HD
ENDBRANCH  17  20
ENDBRANCH   1  12
BRANCH   2  22
ATOM     22  O   UNL     1      29.897 -14.975  11.397  1.00  0.00    -0.502 OA
ATOM     23  H   UNL     1      29.858 -15.982  11.293  1.00  0.00     0.293 HD
ENDBRANCH   2  22
BRANCH   6  24
ATOM     24  O   UNL     1      28.262 -13.284   6.618  1.00  0.00    -0.507 OA
ATOM     25  H   UNL     1      28.481 -12.735   5.801  1.00  0.00     0.293 HD
ENDBRANCH   6  24
BRANCH   8  26
ATOM     26  O   UNL     1      24.353 -10.821   7.864  1.00  0.00    -0.508 OA
ATOM     27  H   UNL     1      23.517 -11.261   7.496  1.00  0.00     0.293 HD
ENDBRANCH   8  26
TORSDOF 6
ENDMDL
MODEL 8
REMARK VINA RESULT:    -5.450      2.592      6.968
REMARK INTER + INTRA:          -6.892
REMARK INTER:                  -6.834
REMARK INTRA:                  -0.058
REMARK UNBOUND:                -0.327
REMARK SMILES O=c1c(O)c(-c2ccc(O)c(O)c2)oc2cc(O)cc(O)c12
REMARK SMILES IDX 5 1 3 2 2 3 1 4 22 5 20 6 19 7 17 8 16 9 15 10 14 11 6 12
REMARK SMILES IDX 7 13 8 14 9 15 13 16 11 17 10 18 12 20 4 22 21 24 18 26
REMARK H PARENT 10 19 12 21 4 23 21 25 18 27
REMARK Flexibility Score: inf
ROOT
ATOM      1  C   UNL     1      28.491 -13.544  12.459  1.00  0.00     0.180 A 
ATOM      2  C   UNL     1      27.765 -12.676  11.626  1.00  0.00     0.208 A 
ATOM      3  C   UNL     1      27.785 -12.890  10.238  1.00  0.00     0.238 A 
ATOM      4  O   UNL     1      27.179 -12.077   9.492  1.00  0.00    -0.285 OA
ATOM      5  C   UNL     1      28.518 -13.977   9.703  1.00  0.00     0.111 A 
ATOM      6  C   UNL     1      28.576 -14.312   8.316  1.00  0.00     0.134 A 
ATOM      7  C   UNL     1      29.436 -15.329   7.887  1.00  0.00     0.093 A 
ATOM      8  C   UNL     1      30.190 -16.068   8.799  1.00  0.00     0.123 A 
ATOM      9  C   UNL     1      30.096 -15.789  10.163  1.00  0.00     0.094 A 
ATOM     10  C   UNL     1      29.274 -14.755  10.618  1.00  0.00     0.146 A 
ATOM     11  O   UNL     1      29.221 -14.515  11.923  1.00  0.00    -0.452 OA
ENDROOT
BRANCH   1  12
ATOM     12  C   UNL     1      28.497 -13.398  13.933  1.00  0.00     0.025 A 
ATOM     13  C   UNL     1      28.045 -14.460  14.734  1.00  0.00     0.016 A 
ATOM     14  C   UNL     1      28.023 -14.336  16.126  1.00  0.00     0.051 A 
ATOM     15  C   UNL     1      28.435 -13.145  16.735  1.00  0.00     0.157 A 
ATOM     16  C   UNL     1      28.890 -12.196  14.549  1.00  0.00     0.062 A 
ATOM     17  C   UNL     1      28.866 -12.071  15.945  1.00  0.00     0.158 A 
BRANCH  15  18
ATOM     18  O   UNL     1      28.416 -13.018  18.123  1.00  0.00    -0.504 OA
ATOM     19  H   UNL     1      27.899 -12.277  18.581  1.00  0.00     0.293 HD
ENDBRANCH  15  18
BRANCH  17  20
ATOM     20  O   UNL     1      29.262 -10.881  16.554  1.00  0.00    -0.504 OA
ATOM     21  H   UNL     1      29.761 -10.878  17.437  1.00  0.00     0.293 HD
ENDBRANCH  17  20
ENDBRANCH   1  12
BRANCH   2  22
ATOM     22  O   UNL     1      27.067 -11.596  12.172  1.00  0.00    -0.502 OA
ATOM     23  H   UNL     1      26.055 -11.550  12.181  1.00  0.00     0.293 HD
ENDBRANCH   2  22
BRANCH   6  24
ATOM     24  O   UNL     1      27.795 -13.698   7.332  1.00  0.00    -0.507 OA
ATOM     25  H   UNL     1      27.255 -14.190   6.637  1.00  0.00     0.293 HD
ENDBRANCH   6  24
BRANCH   8  26
ATOM     26  O   UNL     1      31.023 -17.084   8.338  1.00  0.00    -0.508 OA
ATOM     27  H   UNL     1      31.521 -17.693   8.977  1.00  0.00     0.293 HD
ENDBRANCH   8  26
TORSDOF 6
ENDMDL
MODEL 9
REMARK VINA RESULT:    -5.282      3.961      5.456
REMARK INTER + INTRA:          -6.689
REMARK INTER:                  -6.370
REMARK INTRA:                  -0.319
REMARK UNBOUND:                -0.327
REMARK SMILES O=c1c(O)c(-c2ccc(O)c(O)c2)oc2cc(O)cc(O)c12
REMARK SMILES IDX 5 1 3 2 2 3 1 4 22 5 20 6 19 7 17 8 16 9 15 10 14 11 6 12
REMARK SMILES IDX 7 13 8 14 9 15 13 16 11 17 10 18 12 20 4 22 21 24 18 26
REMARK H PARENT 10 19 12 21 4 23 21 25 18 27
REMARK Flexibility Score: inf
ROOT
ATOM      1  C   UNL     1      27.205 -12.507   9.099  1.00  0.00     0.180 A 
ATOM      2  C   UNL     1      27.336 -11.163   9.488  1.00  0.00     0.208 A 
ATOM      3  C   UNL     1      26.617 -10.705  10.603  1.00  0.00     0.238 A 
ATOM      4  O   UNL     1      26.695  -9.488  10.914  1.00  0.00    -0.285 OA
ATOM      5  C   UNL     1      25.790 -11.599  11.325  1.00  0.00     0.111 A 
ATOM      6  C   UNL     1      25.047 -11.253  12.495  1.00  0.00     0.134 A 
ATOM      7  C   UNL     1      24.161 -12.183  13.050  1.00  0.00     0.093 A 
ATOM      8  C   UNL     1      24.037 -13.467  12.520  1.00  0.00     0.123 A 
ATOM      9  C   UNL     1      24.802 -13.836  11.413  1.00  0.00     0.094 A 
ATOM     10  C   UNL     1      25.668 -12.918  10.813  1.00  0.00     0.146 A 
ATOM     11  O   UNL     1      26.370 -13.305   9.756  1.00  0.00    -0.452 OA
ENDROOT
BRANCH   1  12
ATOM     12  C   UNL     1      27.950 -13.070   7.949  1.00  0.00     0.025 A 
ATOM     13  C   UNL     1      27.401 -12.979   6.660  1.00  0.00     0.016 A 
ATOM     14  C   UNL     1      28.077 -13.522   5.563  1.00  0.00     0.051 A 
ATOM     15  C   UNL     1      29.301 -14.176   5.742  1.00  0.00     0.157 A 
ATOM     16  C   UNL     1      29.169 -13.747   8.127  1.00  0.00     0.062 A 
ATOM     17  C   UNL     1      29.847 -14.293   7.027  1.00  0.00     0.158 A 
BRANCH  15  18
ATOM     18  O   UNL     1      29.980 -14.717   4.651  1.00  0.00    -0.504 OA
ATOM     19  H   UNL     1      29.533 -14.821   3.748  1.00  0.00     0.293 HD
ENDBRANCH  15  18
BRANCH  17  20
ATOM     20  O   UNL     1      31.059 -14.959   7.205  1.00  0.00    -0.504 OA
ATOM     21  H   UNL     1      31.110 -15.848   7.687  1.00  0.00     0.293 HD
ENDBRANCH  17  20
ENDBRANCH   1  12
BRANCH   2  22
ATOM     22  O   UNL     1      28.140 -10.292   8.749  1.00  0.00    -0.502 OA
ATOM     23  H   UNL     1      29.067 -10.017   9.052  1.00  0.00     0.293 HD
ENDBRANCH   2  22
BRANCH   6  24
ATOM     24  O   UNL     1      25.164 -10.028  13.159  1.00  0.00    -0.507 OA
ATOM     25  H   UNL     1      26.038  -9.599  13.423  1.00  0.00     0.293 HD
ENDBRANCH   6  24
BRANCH   8  26
ATOM     26  O   UNL     1      23.157 -14.371  13.108  1.00  0.00    -0.508 OA
ATOM     27  H   UNL     1      23.422 -14.919  13.918  1.00  0.00     0.293 HD
ENDBRANCH   8  26
TORSDOF 6
ENDMDL
