MODEL 1
REMARK VINA RESULT:    -8.668      0.000      0.000
REMARK INTER + INTRA:         -14.135
REMARK INTER:                 -11.962
REMARK INTRA:                  -2.172
REMARK UNBOUND:                -2.172
REMARK SMILES CC[C@H](CC[C@@H](C)[C@H]1CC[C@@H]2[C@H]3CC=C4C[C@@H](O)CC[C@]4(C)[C@@H]3CC[C@]21C)C(C)C
REMARK SMILES IDX 5 1 4 2 3 3 2 4 1 5 28 6 29 7 30 8 6 9 7 10 8 11 9 12 26 13
REMARK SMILES IDX 10 14 11 15 25 16 27 17 12 18 24 19 23 20 13 21 21 22 14 23
REMARK SMILES IDX 15 24 20 25 22 26 16 27 19 28 17 29 18 30
REMARK H PARENT 18 31
REMARK Flexibility Score: inf
ROOT
ATOM      1  C   UNL     1       9.835  72.263  -3.324  1.00  0.00     0.004 C 
ENDROOT
BRANCH   1   2
ATOM      2  C   UNL     1       8.660  73.147  -3.798  1.00  0.00     0.004 C 
BRANCH   2   3
ATOM      3  C   UNL     1       8.906  74.675  -3.631  1.00  0.00    -0.009 C 
BRANCH   3   4
ATOM      4  C   UNL     1       8.288  75.502  -4.798  1.00  0.00     0.000 C 
ATOM      5  C   UNL     1       8.765  75.084  -6.192  1.00  0.00     0.004 C 
ENDBRANCH   3   4
BRANCH   3   6
ATOM      6  C   UNL     1       8.441  75.175  -2.216  1.00  0.00    -0.014 C 
ATOM      7  C   UNL     1       8.702  76.683  -2.022  1.00  0.00     0.007 C 
ATOM      8  C   UNL     1       6.946  74.900  -1.962  1.00  0.00     0.007 C 
ENDBRANCH   3   6
ENDBRANCH   2   3
ENDBRANCH   1   2
BRANCH   1   9
ATOM      9  C   UNL     1      10.751  71.751  -4.481  1.00  0.00    -0.011 C 
ATOM     10  C   UNL     1       9.939  71.784  -5.804  1.00  0.00     0.008 C 
BRANCH   9  11
ATOM     11  C   UNL     1      12.115  72.534  -4.606  1.00  0.00    -0.002 C 
ATOM     12  C   UNL     1      12.141  73.555  -5.789  1.00  0.00     0.005 C 
ATOM     13  C   UNL     1      12.580  73.389  -3.367  1.00  0.00    -0.026 C 
ATOM     14  C   UNL     1      12.490  74.931  -5.220  1.00  0.00     0.005 C 
ATOM     15  C   UNL     1      12.129  74.804  -3.756  1.00  0.00    -0.001 C 
ATOM     16  C   UNL     1      11.956  73.092  -1.979  1.00  0.00     0.007 C 
ATOM     17  C   UNL     1      14.135  73.242  -3.271  1.00  0.00     0.012 C 
ATOM     18  C   UNL     1      12.632  75.906  -2.792  1.00  0.00     0.000 C 
ATOM     19  C   UNL     1      12.386  74.133  -0.921  1.00  0.00     0.005 C 
ATOM     20  C   UNL     1      12.109  75.608  -1.358  1.00  0.00     0.003 C 
ATOM     21  C   UNL     1      12.094  77.276  -3.224  1.00  0.00     0.031 C 
ATOM     22  C   UNL     1      12.585  76.698  -0.308  1.00  0.00    -0.008 C 
ATOM     23  C   UNL     1      12.490  78.340  -2.248  1.00  0.00    -0.027 C 
ATOM     24  C   UNL     1      12.671  78.106  -0.932  1.00  0.00    -0.065 C 
ATOM     25  C   UNL     1      13.998  76.365   0.267  1.00  0.00     0.014 C 
ATOM     26  C   UNL     1      11.547  76.731   0.845  1.00  0.00     0.016 C 
ATOM     27  C   UNL     1      13.232  79.222  -0.075  1.00  0.00     0.063 C 
ATOM     28  C   UNL     1      14.610  77.486   1.131  1.00  0.00     0.033 C 
ATOM     29  C   UNL     1      14.637  78.837   0.395  1.00  0.00     0.118 C 
BRANCH  29  30
ATOM     30  O   UNL     1      15.125  79.837   1.250  1.00  0.00    -0.393 OA
ATOM     31  H   UNL     1      15.101  79.464   2.170  1.00  0.00     0.210 HD
ENDBRANCH  29  30
ENDBRANCH   9  11
ENDBRANCH   1   9
TORSDOF 7
ENDMDL
MODEL 2
REMARK VINA RESULT:    -8.291      1.491      4.224
REMARK INTER + INTRA:         -13.614
REMARK INTER:                 -11.495
REMARK INTRA:                  -2.119
REMARK UNBOUND:                -2.172
REMARK SMILES CC[C@H](CC[C@@H](C)[C@H]1CC[C@@H]2[C@H]3CC=C4C[C@@H](O)CC[C@]4(C)[C@@H]3CC[C@]21C)C(C)C
REMARK SMILES IDX 5 1 4 2 3 3 2 4 1 5 28 6 29 7 30 8 6 9 7 10 8 11 9 12 26 13
REMARK SMILES IDX 10 14 11 15 25 16 27 17 12 18 24 19 23 20 13 21 21 22 14 23
REMARK SMILES IDX 15 24 20 25 22 26 16 27 19 28 17 29 18 30
REMARK H PARENT 18 31
REMARK Flexibility Score: inf
ROOT
ATOM      1  C   UNL     1       7.970  74.346  -4.357  1.00  0.00     0.004 C 
ENDROOT
BRANCH   1   2
ATOM      2  C   UNL     1       9.357  74.786  -4.878  1.00  0.00     0.004 C 
BRANCH   2   3
ATOM      3  C   UNL     1      10.319  73.605  -5.201  1.00  0.00    -0.009 C 
BRANCH   3   4
ATOM      4  C   UNL     1      11.698  73.759  -4.493  1.00  0.00     0.000 C 
ATOM      5  C   UNL     1      12.529  74.951  -4.976  1.00  0.00     0.004 C 
ENDBRANCH   3   4
BRANCH   3   6
ATOM      6  C   UNL     1       9.636  72.220  -4.914  1.00  0.00    -0.014 C 
ATOM      7  C   UNL     1       9.501  71.367  -6.193  1.00  0.00     0.007 C 
ATOM      8  C   UNL     1      10.402  71.399  -3.858  1.00  0.00     0.007 C 
ENDBRANCH   3   6
ENDBRANCH   2   3
ENDBRANCH   1   2
BRANCH   1   9
ATOM      9  C   UNL     1       7.343  75.329  -3.318  1.00  0.00    -0.011 C 
ATOM     10  C   UNL     1       5.811  75.082  -3.267  1.00  0.00     0.008 C 
BRANCH   9  11
ATOM     11  C   UNL     1       8.001  75.247  -1.886  1.00  0.00    -0.002 C 
ATOM     12  C   UNL     1       8.995  74.051  -1.725  1.00  0.00     0.005 C 
ATOM     13  C   UNL     1       8.832  76.492  -1.394  1.00  0.00    -0.026 C 
ATOM     14  C   UNL     1      10.345  74.615  -1.278  1.00  0.00     0.005 C 
ATOM     15  C   UNL     1      10.275  76.066  -1.703  1.00  0.00    -0.001 C 
ATOM     16  C   UNL     1       8.615  77.858  -2.095  1.00  0.00     0.007 C 
ATOM     17  C   UNL     1       8.551  76.651   0.136  1.00  0.00     0.012 C 
ATOM     18  C   UNL     1      11.344  77.033  -1.142  1.00  0.00     0.000 C 
ATOM     19  C   UNL     1       9.632  78.917  -1.616  1.00  0.00     0.005 C 
ATOM     20  C   UNL     1      11.118  78.449  -1.744  1.00  0.00     0.003 C 
ATOM     21  C   UNL     1      12.749  76.562  -1.541  1.00  0.00     0.031 C 
ATOM     22  C   UNL     1      12.180  79.502  -1.214  1.00  0.00    -0.008 C 
ATOM     23  C   UNL     1      13.791  77.538  -1.090  1.00  0.00    -0.027 C 
ATOM     24  C   UNL     1      13.563  78.864  -0.981  1.00  0.00    -0.065 C 
ATOM     25  C   UNL     1      11.734  80.137   0.141  1.00  0.00     0.014 C 
ATOM     26  C   UNL     1      12.323  80.614  -2.288  1.00  0.00     0.016 C 
ATOM     27  C   UNL     1      14.641  79.727  -0.356  1.00  0.00     0.063 C 
ATOM     28  C   UNL     1      12.811  81.010   0.816  1.00  0.00     0.033 C 
ATOM     29  C   UNL     1      14.142  80.257   0.991  1.00  0.00     0.118 C 
BRANCH  29  30
ATOM     30  O   UNL     1      15.109  81.117   1.532  1.00  0.00    -0.393 OA
ATOM     31  H   UNL     1      14.756  81.432   2.405  1.00  0.00     0.210 HD
ENDBRANCH  29  30
ENDBRANCH   9  11
ENDBRANCH   1   9
TORSDOF 7
ENDMDL
MODEL 3
REMARK VINA RESULT:    -7.959      1.595      3.699
REMARK INTER + INTRA:         -13.156
REMARK INTER:                 -12.084
REMARK INTRA:                  -1.072
REMARK UNBOUND:                -2.172
REMARK SMILES CC[C@H](CC[C@@H](C)[C@H]1CC[C@@H]2[C@H]3CC=C4C[C@@H](O)CC[C@]4(C)[C@@H]3CC[C@]21C)C(C)C
REMARK SMILES IDX 5 1 4 2 3 3 2 4 1 5 28 6 29 7 30 8 6 9 7 10 8 11 9 12 26 13
REMARK SMILES IDX 10 14 11 15 25 16 27 17 12 18 24 19 23 20 13 21 21 22 14 23
REMARK SMILES IDX 15 24 20 25 22 26 16 27 19 28 17 29 18 30
REMARK H PARENT 18 31
REMARK Flexibility Score: inf
ROOT
ATOM      1  C   UNL     1      12.669  73.969  -5.693  1.00  0.00     0.004 C 
ENDROOT
BRANCH   1   2
ATOM      2  C   UNL     1      11.472  73.026  -5.945  1.00  0.00     0.004 C 
BRANCH   2   3
ATOM      3  C   UNL     1      10.169  73.438  -5.199  1.00  0.00    -0.009 C 
BRANCH   3   4
ATOM      4  C   UNL     1       9.338  74.485  -5.998  1.00  0.00     0.000 C 
ATOM      5  C   UNL     1       8.380  75.320  -5.144  1.00  0.00     0.004 C 
ENDBRANCH   3   4
BRANCH   3   6
ATOM      6  C   UNL     1       9.327  72.177  -4.786  1.00  0.00    -0.014 C 
ATOM      7  C   UNL     1       9.240  71.142  -5.927  1.00  0.00     0.007 C 
ATOM      8  C   UNL     1       9.896  71.479  -3.535  1.00  0.00     0.007 C 
ENDBRANCH   3   6
ENDBRANCH   2   3
ENDBRANCH   1   2
BRANCH   1   9
ATOM      9  C   UNL     1      13.525  73.587  -4.444  1.00  0.00    -0.011 C 
ATOM     10  C   UNL     1      14.749  74.540  -4.374  1.00  0.00     0.008 C 
BRANCH   9  11
ATOM     11  C   UNL     1      12.710  73.572  -3.094  1.00  0.00    -0.002 C 
ATOM     12  C   UNL     1      13.426  72.796  -1.942  1.00  0.00     0.005 C 
ATOM     13  C   UNL     1      12.356  74.963  -2.442  1.00  0.00    -0.026 C 
ATOM     14  C   UNL     1      13.568  73.743  -0.749  1.00  0.00     0.005 C 
ATOM     15  C   UNL     1      13.452  75.115  -1.378  1.00  0.00    -0.001 C 
ATOM     16  C   UNL     1      12.416  76.237  -3.323  1.00  0.00     0.007 C 
ATOM     17  C   UNL     1      10.921  74.828  -1.834  1.00  0.00     0.012 C 
ATOM     18  C   UNL     1      13.242  76.324  -0.435  1.00  0.00     0.000 C 
ATOM     19  C   UNL     1      12.219  77.523  -2.489  1.00  0.00     0.005 C 
ATOM     20  C   UNL     1      13.202  77.630  -1.279  1.00  0.00     0.003 C 
ATOM     21  C   UNL     1      14.406  76.432   0.559  1.00  0.00     0.031 C 
ATOM     22  C   UNL     1      12.989  78.919  -0.379  1.00  0.00    -0.008 C 
ATOM     23  C   UNL     1      14.269  77.652   1.416  1.00  0.00    -0.027 C 
ATOM     24  C   UNL     1      13.676  78.788   0.994  1.00  0.00    -0.065 C 
ATOM     25  C   UNL     1      11.474  79.188  -0.110  1.00  0.00     0.014 C 
ATOM     26  C   UNL     1      13.608  80.129  -1.129  1.00  0.00     0.016 C 
ATOM     27  C   UNL     1      13.449  79.895   2.003  1.00  0.00     0.063 C 
ATOM     28  C   UNL     1      11.203  80.298   0.926  1.00  0.00     0.033 C 
ATOM     29  C   UNL     1      11.946  80.050   2.250  1.00  0.00     0.118 C 
BRANCH  29  30
ATOM     30  O   UNL     1      11.733  81.125   3.126  1.00  0.00    -0.393 OA
ATOM     31  H   UNL     1      12.322  81.864   2.821  1.00  0.00     0.210 HD
ENDBRANCH  29  30
ENDBRANCH   9  11
ENDBRANCH   1   9
TORSDOF 7
ENDMDL
MODEL 4
REMARK VINA RESULT:    -7.840      2.690      7.262
REMARK INTER + INTRA:         -12.992
REMARK INTER:                 -10.103
REMARK INTRA:                  -2.889
REMARK UNBOUND:                -2.172
REMARK SMILES CC[C@H](CC[C@@H](C)[C@H]1CC[C@@H]2[C@H]3CC=C4C[C@@H](O)CC[C@]4(C)[C@@H]3CC[C@]21C)C(C)C
REMARK SMILES IDX 5 1 4 2 3 3 2 4 1 5 28 6 29 7 30 8 6 9 7 10 8 11 9 12 26 13
REMARK SMILES IDX 10 14 11 15 25 16 27 17 12 18 24 19 23 20 13 21 21 22 14 23
REMARK SMILES IDX 15 24 20 25 22 26 16 27 19 28 17 29 18 30
REMARK H PARENT 18 31
REMARK Flexibility Score: inf
ROOT
ATOM      1  C   UNL     1      13.193  80.991   0.511  1.00  0.00     0.004 C 
ENDROOT
BRANCH   1   2
ATOM      2  C   UNL     1      14.420  80.060   0.640  1.00  0.00     0.004 C 
BRANCH   2   3
ATOM      3  C   UNL     1      14.129  78.571   0.292  1.00  0.00    -0.009 C 
BRANCH   3   4
ATOM      4  C   UNL     1      14.863  78.114  -1.004  1.00  0.00     0.000 C 
ATOM      5  C   UNL     1      15.125  79.236  -2.013  1.00  0.00     0.004 C 
ENDBRANCH   3   4
BRANCH   3   6
ATOM      6  C   UNL     1      14.416  77.633   1.519  1.00  0.00    -0.014 C 
ATOM      7  C   UNL     1      13.380  77.823   2.646  1.00  0.00     0.007 C 
ATOM      8  C   UNL     1      14.441  76.144   1.123  1.00  0.00     0.007 C 
ENDBRANCH   3   6
ENDBRANCH   2   3
ENDBRANCH   1   2
BRANCH   1   9
ATOM      9  C   UNL     1      11.831  80.287   0.803  1.00  0.00    -0.011 C 
ATOM     10  C   UNL     1      11.062  81.119   1.865  1.00  0.00     0.008 C 
BRANCH   9  11
ATOM     11  C   UNL     1      10.959  80.028  -0.487  1.00  0.00    -0.002 C 
ATOM     12  C   UNL     1      11.636  80.522  -1.806  1.00  0.00     0.005 C 
ATOM     13  C   UNL     1      10.559  78.538  -0.808  1.00  0.00    -0.026 C 
ATOM     14  C   UNL     1      11.715  79.337  -2.770  1.00  0.00     0.005 C 
ATOM     15  C   UNL     1      11.608  78.136  -1.856  1.00  0.00    -0.001 C 
ATOM     16  C   UNL     1      10.640  77.483   0.324  1.00  0.00     0.007 C 
ATOM     17  C   UNL     1       9.102  78.570  -1.376  1.00  0.00     0.012 C 
ATOM     18  C   UNL     1      11.342  76.757  -2.507  1.00  0.00     0.000 C 
ATOM     19  C   UNL     1      10.391  76.052  -0.204  1.00  0.00     0.005 C 
ATOM     20  C   UNL     1      11.320  75.665  -1.399  1.00  0.00     0.003 C 
ATOM     21  C   UNL     1      12.461  76.412  -3.498  1.00  0.00     0.031 C 
ATOM     22  C   UNL     1      11.052  74.218  -1.990  1.00  0.00    -0.008 C 
ATOM     23  C   UNL     1      12.272  75.040  -4.065  1.00  0.00    -0.027 C 
ATOM     24  C   UNL     1      11.682  74.035  -3.385  1.00  0.00    -0.065 C 
ATOM     25  C   UNL     1       9.523  73.930  -2.136  1.00  0.00     0.014 C 
ATOM     26  C   UNL     1      11.686  73.184  -1.021  1.00  0.00     0.016 C 
ATOM     27  C   UNL     1      11.397  72.741  -4.121  1.00  0.00     0.063 C 
ATOM     28  C   UNL     1       9.194  72.630  -2.896  1.00  0.00     0.033 C 
ATOM     29  C   UNL     1       9.883  72.570  -4.271  1.00  0.00     0.118 C 
BRANCH  29  30
ATOM     30  O   UNL     1       9.619  71.337  -4.885  1.00  0.00    -0.393 OA
ATOM     31  H   UNL     1       8.661  71.133  -4.718  1.00  0.00     0.210 HD
ENDBRANCH  29  30
ENDBRANCH   9  11
ENDBRANCH   1   9
TORSDOF 7
ENDMDL
MODEL 5
REMARK VINA RESULT:    -7.521      1.447      4.086
REMARK INTER + INTRA:         -12.551
REMARK INTER:                  -9.865
REMARK INTRA:                  -2.686
REMARK UNBOUND:                -2.172
REMARK SMILES CC[C@H](CC[C@@H](C)[C@H]1CC[C@@H]2[C@H]3CC=C4C[C@@H](O)CC[C@]4(C)[C@@H]3CC[C@]21C)C(C)C
REMARK SMILES IDX 5 1 4 2 3 3 2 4 1 5 28 6 29 7 30 8 6 9 7 10 8 11 9 12 26 13
REMARK SMILES IDX 10 14 11 15 25 16 27 17 12 18 24 19 23 20 13 21 21 22 14 23
REMARK SMILES IDX 15 24 20 25 22 26 16 27 19 28 17 29 18 30
REMARK H PARENT 18 31
REMARK Flexibility Score: inf
ROOT
ATOM      1  C   UNL     1      10.504  72.146  -4.609  1.00  0.00     0.004 C 
ENDROOT
BRANCH   1   2
ATOM      2  C   UNL     1      11.950  72.488  -5.033  1.00  0.00     0.004 C 
BRANCH   2   3
ATOM      3  C   UNL     1      12.625  73.588  -4.162  1.00  0.00    -0.009 C 
BRANCH   3   4
ATOM      4  C   UNL     1      14.050  73.171  -3.688  1.00  0.00     0.000 C 
ATOM      5  C   UNL     1      14.171  72.928  -2.181  1.00  0.00     0.004 C 
ENDBRANCH   3   4
BRANCH   3   6
ATOM      6  C   UNL     1      12.607  74.981  -4.888  1.00  0.00    -0.014 C 
ATOM      7  C   UNL     1      13.931  75.749  -4.698  1.00  0.00     0.007 C 
ATOM      8  C   UNL     1      12.330  74.848  -6.399  1.00  0.00     0.007 C 
ENDBRANCH   3   6
ENDBRANCH   2   3
ENDBRANCH   1   2
BRANCH   1   9
ATOM      9  C   UNL     1       9.616  73.397  -4.318  1.00  0.00    -0.011 C 
ATOM     10  C   UNL     1       8.301  73.270  -5.134  1.00  0.00     0.008 C 
BRANCH   9  11
ATOM     11  C   UNL     1       9.338  73.636  -2.784  1.00  0.00    -0.002 C 
ATOM     12  C   UNL     1      10.142  72.677  -1.847  1.00  0.00     0.005 C 
ATOM     13  C   UNL     1       9.644  75.068  -2.202  1.00  0.00    -0.026 C 
ATOM     14  C   UNL     1      10.946  73.535  -0.869  1.00  0.00     0.005 C 
ATOM     15  C   UNL     1      11.029  74.875  -1.567  1.00  0.00    -0.001 C 
ATOM     16  C   UNL     1       9.770  76.261  -3.184  1.00  0.00     0.007 C 
ATOM     17  C   UNL     1       8.525  75.383  -1.155  1.00  0.00     0.012 C 
ATOM     18  C   UNL     1      11.510  76.090  -0.739  1.00  0.00     0.000 C 
ATOM     19  C   UNL     1      10.249  77.545  -2.471  1.00  0.00     0.005 C 
ATOM     20  C   UNL     1      11.569  77.344  -1.657  1.00  0.00     0.003 C 
ATOM     21  C   UNL     1      12.919  75.834  -0.187  1.00  0.00     0.031 C 
ATOM     22  C   UNL     1      12.055  78.637  -0.877  1.00  0.00    -0.008 C 
ATOM     23  C   UNL     1      13.439  77.037   0.536  1.00  0.00    -0.027 C 
ATOM     24  C   UNL     1      13.096  78.301   0.210  1.00  0.00    -0.065 C 
ATOM     25  C   UNL     1      10.867  79.361  -0.166  1.00  0.00     0.014 C 
ATOM     26  C   UNL     1      12.708  79.596  -1.908  1.00  0.00     0.016 C 
ATOM     27  C   UNL     1      13.554  79.425   1.116  1.00  0.00     0.063 C 
ATOM     28  C   UNL     1      11.297  80.501   0.780  1.00  0.00     0.033 C 
ATOM     29  C   UNL     1      12.336  80.036   1.814  1.00  0.00     0.118 C 
BRANCH  29  30
ATOM     30  O   UNL     1      12.753  81.125   2.595  1.00  0.00    -0.393 OA
ATOM     31  H   UNL     1      13.259  80.750   3.362  1.00  0.00     0.210 HD
ENDBRANCH  29  30
ENDBRANCH   9  11
ENDBRANCH   1   9
TORSDOF 7
ENDMDL
MODEL 6
REMARK VINA RESULT:    -7.513      1.406      4.146
REMARK INTER + INTRA:         -12.540
REMARK INTER:                  -9.528
REMARK INTRA:                  -3.012
REMARK UNBOUND:                -2.172
REMARK SMILES CC[C@H](CC[C@@H](C)[C@H]1CC[C@@H]2[C@H]3CC=C4C[C@@H](O)CC[C@]4(C)[C@@H]3CC[C@]21C)C(C)C
REMARK SMILES IDX 5 1 4 2 3 3 2 4 1 5 28 6 29 7 30 8 6 9 7 10 8 11 9 12 26 13
REMARK SMILES IDX 10 14 11 15 25 16 27 17 12 18 24 19 23 20 13 21 21 22 14 23
REMARK SMILES IDX 15 24 20 25 22 26 16 27 19 28 17 29 18 30
REMARK H PARENT 18 31
REMARK Flexibility Score: inf
ROOT
ATOM      1  C   UNL     1       9.496  72.126  -3.969  1.00  0.00     0.004 C 
ENDROOT
BRANCH   1   2
ATOM      2  C   UNL     1      10.987  71.734  -3.856  1.00  0.00     0.004 C 
BRANCH   2   3
ATOM      3  C   UNL     1      11.917  72.896  -3.401  1.00  0.00    -0.009 C 
BRANCH   3   4
ATOM      4  C   UNL     1      12.479  72.674  -1.965  1.00  0.00     0.000 C 
ATOM      5  C   UNL     1      11.495  72.014  -0.995  1.00  0.00     0.004 C 
ENDBRANCH   3   4
BRANCH   3   6
ATOM      6  C   UNL     1      13.044  73.172  -4.462  1.00  0.00    -0.014 C 
ATOM      7  C   UNL     1      12.460  73.519  -5.847  1.00  0.00     0.007 C 
ATOM      8  C   UNL     1      13.987  74.311  -4.028  1.00  0.00     0.007 C 
ENDBRANCH   3   6
ENDBRANCH   2   3
ENDBRANCH   1   2
BRANCH   1   9
ATOM      9  C   UNL     1       9.254  73.505  -4.658  1.00  0.00    -0.011 C 
ATOM     10  C   UNL     1       8.475  73.267  -5.980  1.00  0.00     0.008 C 
BRANCH   9  11
ATOM     11  C   UNL     1       8.535  74.561  -3.733  1.00  0.00    -0.002 C 
ATOM     12  C   UNL     1       7.894  73.934  -2.453  1.00  0.00     0.005 C 
ATOM     13  C   UNL     1       9.406  75.749  -3.170  1.00  0.00    -0.026 C 
ATOM     14  C   UNL     1       8.467  74.659  -1.233  1.00  0.00     0.005 C 
ATOM     15  C   UNL     1       9.753  75.260  -1.757  1.00  0.00    -0.001 C 
ATOM     16  C   UNL     1      10.750  76.083  -3.866  1.00  0.00     0.007 C 
ATOM     17  C   UNL     1       8.497  77.022  -3.176  1.00  0.00     0.012 C 
ATOM     18  C   UNL     1      10.458  76.326  -0.884  1.00  0.00     0.000 C 
ATOM     19  C   UNL     1      11.555  77.144  -3.082  1.00  0.00     0.005 C 
ATOM     20  C   UNL     1      11.776  76.767  -1.582  1.00  0.00     0.003 C 
ATOM     21  C   UNL     1      10.816  75.739   0.488  1.00  0.00     0.031 C 
ATOM     22  C   UNL     1      12.559  77.864  -0.744  1.00  0.00    -0.008 C 
ATOM     23  C   UNL     1      11.584  76.725   1.310  1.00  0.00    -0.027 C 
ATOM     24  C   UNL     1      12.403  77.655   0.775  1.00  0.00    -0.065 C 
ATOM     25  C   UNL     1      12.048  79.305  -1.063  1.00  0.00     0.014 C 
ATOM     26  C   UNL     1      14.064  77.753  -1.107  1.00  0.00     0.016 C 
ATOM     27  C   UNL     1      12.996  78.703   1.695  1.00  0.00     0.063 C 
ATOM     28  C   UNL     1      12.617  80.398  -0.135  1.00  0.00     0.033 C 
ATOM     29  C   UNL     1      12.397  80.069   1.351  1.00  0.00     0.118 C 
BRANCH  29  30
ATOM     30  O   UNL     1      13.002  81.050   2.152  1.00  0.00    -0.393 OA
ATOM     31  H   UNL     1      12.422  81.166   2.950  1.00  0.00     0.210 HD
ENDBRANCH  29  30
ENDBRANCH   9  11
ENDBRANCH   1   9
TORSDOF 7
ENDMDL
MODEL 7
REMARK VINA RESULT:    -7.385      3.009      7.450
REMARK INTER + INTRA:         -12.364
REMARK INTER:                 -10.849
REMARK INTRA:                  -1.515
REMARK UNBOUND:                -2.172
REMARK SMILES CC[C@H](CC[C@@H](C)[C@H]1CC[C@@H]2[C@H]3CC=C4C[C@@H](O)CC[C@]4(C)[C@@H]3CC[C@]21C)C(C)C
REMARK SMILES IDX 5 1 4 2 3 3 2 4 1 5 28 6 29 7 30 8 6 9 7 10 8 11 9 12 26 13
REMARK SMILES IDX 10 14 11 15 25 16 27 17 12 18 24 19 23 20 13 21 21 22 14 23
REMARK SMILES IDX 15 24 20 25 22 26 16 27 19 28 17 29 18 30
REMARK H PARENT 18 31
REMARK Flexibility Score: inf
ROOT
ATOM      1  C   UNL     1      11.219  80.142  -1.516  1.00  0.00     0.004 C 
ENDROOT
BRANCH   1   2
ATOM      2  C   UNL     1      12.641  80.701  -1.741  1.00  0.00     0.004 C 
BRANCH   2   3
ATOM      3  C   UNL     1      13.740  79.608  -1.883  1.00  0.00    -0.009 C 
BRANCH   3   4
ATOM      4  C   UNL     1      14.473  79.683  -3.256  1.00  0.00     0.000 C 
ATOM      5  C   UNL     1      14.342  81.031  -3.971  1.00  0.00     0.004 C 
ENDBRANCH   3   4
BRANCH   3   6
ATOM      6  C   UNL     1      14.729  79.632  -0.662  1.00  0.00    -0.014 C 
ATOM      7  C   UNL     1      14.374  80.745   0.345  1.00  0.00     0.007 C 
ATOM      8  C   UNL     1      14.763  78.285   0.088  1.00  0.00     0.007 C 
ENDBRANCH   3   6
ENDBRANCH   2   3
ENDBRANCH   1   2
BRANCH   1   9
ATOM      9  C   UNL     1      10.948  79.667  -0.054  1.00  0.00    -0.011 C 
ATOM     10  C   UNL     1      10.538  80.899   0.797  1.00  0.00     0.008 C 
BRANCH   9  11
ATOM     11  C   UNL     1       9.892  78.500   0.051  1.00  0.00    -0.002 C 
ATOM     12  C   UNL     1       8.454  78.919  -0.396  1.00  0.00     0.005 C 
ATOM     13  C   UNL     1      10.171  77.188  -0.776  1.00  0.00    -0.026 C 
ATOM     14  C   UNL     1       8.001  77.959  -1.498  1.00  0.00     0.005 C 
ATOM     15  C   UNL     1       9.304  77.397  -2.026  1.00  0.00    -0.001 C 
ATOM     16  C   UNL     1      11.612  76.916  -1.279  1.00  0.00     0.007 C 
ATOM     17  C   UNL     1       9.701  75.985   0.107  1.00  0.00     0.012 C 
ATOM     18  C   UNL     1       9.231  76.157  -2.948  1.00  0.00     0.000 C 
ATOM     19  C   UNL     1      11.671  75.691  -2.219  1.00  0.00     0.005 C 
ATOM     20  C   UNL     1      10.667  75.780  -3.413  1.00  0.00     0.003 C 
ATOM     21  C   UNL     1       8.391  76.469  -4.194  1.00  0.00     0.031 C 
ATOM     22  C   UNL     1      10.675  74.512  -4.366  1.00  0.00    -0.008 C 
ATOM     23  C   UNL     1       8.390  75.312  -5.144  1.00  0.00    -0.027 C 
ATOM     24  C   UNL     1       9.423  74.453  -5.264  1.00  0.00    -0.065 C 
ATOM     25  C   UNL     1      10.718  73.180  -3.552  1.00  0.00     0.014 C 
ATOM     26  C   UNL     1      11.930  74.609  -5.274  1.00  0.00     0.016 C 
ATOM     27  C   UNL     1       9.240  73.228  -6.136  1.00  0.00     0.063 C 
ATOM     28  C   UNL     1      10.518  71.911  -4.404  1.00  0.00     0.033 C 
ATOM     29  C   UNL     1       9.236  71.978  -5.252  1.00  0.00     0.118 C 
BRANCH  29  30
ATOM     30  O   UNL     1       9.142  70.840  -6.067  1.00  0.00    -0.393 OA
ATOM     31  H   UNL     1      10.035  70.711  -6.484  1.00  0.00     0.210 HD
ENDBRANCH  29  30
ENDBRANCH   9  11
ENDBRANCH   1   9
TORSDOF 7
ENDMDL
MODEL 8
REMARK VINA RESULT:    -7.337      2.888      6.962
REMARK INTER + INTRA:         -12.298
REMARK INTER:                 -10.504
REMARK INTRA:                  -1.794
REMARK UNBOUND:                -2.172
REMARK SMILES CC[C@H](CC[C@@H](C)[C@H]1CC[C@@H]2[C@H]3CC=C4C[C@@H](O)CC[C@]4(C)[C@@H]3CC[C@]21C)C(C)C
REMARK SMILES IDX 5 1 4 2 3 3 2 4 1 5 28 6 29 7 30 8 6 9 7 10 8 11 9 12 26 13
REMARK SMILES IDX 10 14 11 15 25 16 27 17 12 18 24 19 23 20 13 21 21 22 14 23
REMARK SMILES IDX 15 24 20 25 22 26 16 27 19 28 17 29 18 30
REMARK H PARENT 18 31
REMARK Flexibility Score: inf
ROOT
ATOM      1  C   UNL     1      13.963  78.678  -1.250  1.00  0.00     0.004 C 
ENDROOT
BRANCH   1   2
ATOM      2  C   UNL     1      13.694  80.135  -0.814  1.00  0.00     0.004 C 
BRANCH   2   3
ATOM      3  C   UNL     1      12.670  80.890  -1.711  1.00  0.00    -0.009 C 
BRANCH   3   4
ATOM      4  C   UNL     1      12.721  80.412  -3.193  1.00  0.00     0.000 C 
ATOM      5  C   UNL     1      13.823  81.066  -4.032  1.00  0.00     0.004 C 
ENDBRANCH   3   4
BRANCH   3   6
ATOM      6  C   UNL     1      11.225  80.830  -1.099  1.00  0.00    -0.014 C 
ATOM      7  C   UNL     1      10.378  79.705  -1.729  1.00  0.00     0.007 C 
ATOM      8  C   UNL     1      11.245  80.630   0.429  1.00  0.00     0.007 C 
ENDBRANCH   3   6
ENDBRANCH   2   3
ENDBRANCH   1   2
BRANCH   1   9
ATOM      9  C   UNL     1      14.423  77.742  -0.088  1.00  0.00    -0.011 C 
ATOM     10  C   UNL     1      14.651  78.607   1.181  1.00  0.00     0.008 C 
BRANCH   9  11
ATOM     11  C   UNL     1      13.440  76.540   0.188  1.00  0.00    -0.002 C 
ATOM     12  C   UNL     1      12.047  76.986   0.738  1.00  0.00     0.005 C 
ATOM     13  C   UNL     1      13.078  75.602  -1.027  1.00  0.00    -0.026 C 
ATOM     14  C   UNL     1      10.968  76.423  -0.190  1.00  0.00     0.005 C 
ATOM     15  C   UNL     1      11.719  76.159  -1.477  1.00  0.00    -0.001 C 
ATOM     16  C   UNL     1      13.995  75.612  -2.276  1.00  0.00     0.007 C 
ATOM     17  C   UNL     1      12.991  74.145  -0.466  1.00  0.00     0.012 C 
ATOM     18  C   UNL     1      11.019  75.298  -2.555  1.00  0.00     0.000 C 
ATOM     19  C   UNL     1      13.399  74.780  -3.434  1.00  0.00     0.005 C 
ATOM     20  C   UNL     1      11.939  75.196  -3.805  1.00  0.00     0.003 C 
ATOM     21  C   UNL     1       9.699  75.952  -2.984  1.00  0.00     0.031 C 
ATOM     22  C   UNL     1      11.288  74.325  -4.960  1.00  0.00    -0.008 C 
ATOM     23  C   UNL     1       9.055  75.183  -4.096  1.00  0.00    -0.027 C 
ATOM     24  C   UNL     1       9.756  74.486  -5.014  1.00  0.00    -0.065 C 
ATOM     25  C   UNL     1      11.582  72.803  -4.767  1.00  0.00     0.014 C 
ATOM     26  C   UNL     1      11.884  74.804  -6.310  1.00  0.00     0.016 C 
ATOM     27  C   UNL     1       8.991  73.614  -5.989  1.00  0.00     0.063 C 
ATOM     28  C   UNL     1      10.807  71.882  -5.732  1.00  0.00     0.033 C 
ATOM     29  C   UNL     1       9.292  72.143  -5.691  1.00  0.00     0.118 C 
BRANCH  29  30
ATOM     30  O   UNL     1       8.643  71.340  -6.642  1.00  0.00    -0.393 OA
ATOM     31  H   UNL     1       9.289  71.194  -7.382  1.00  0.00     0.210 HD
ENDBRANCH  29  30
ENDBRANCH   9  11
ENDBRANCH   1   9
TORSDOF 7
ENDMDL
MODEL 9
REMARK VINA RESULT:    -7.082      3.055      6.930
REMARK INTER + INTRA:         -11.946
REMARK INTER:                 -11.181
REMARK INTRA:                  -0.765
REMARK UNBOUND:                -2.172
REMARK SMILES CC[C@H](CC[C@@H](C)[C@H]1CC[C@@H]2[C@H]3CC=C4C[C@@H](O)CC[C@]4(C)[C@@H]3CC[C@]21C)C(C)C
REMARK SMILES IDX 5 1 4 2 3 3 2 4 1 5 28 6 29 7 30 8 6 9 7 10 8 11 9 12 26 13
REMARK SMILES IDX 10 14 11 15 25 16 27 17 12 18 24 19 23 20 13 21 21 22 14 23
REMARK SMILES IDX 15 24 20 25 22 26 16 27 19 28 17 29 18 30
REMARK H PARENT 18 31
REMARK Flexibility Score: inf
ROOT
ATOM      1  C   UNL     1      13.031  79.337   0.712  1.00  0.00     0.004 C 
ENDROOT
BRANCH   1   2
ATOM      2  C   UNL     1      11.639  80.005   0.642  1.00  0.00     0.004 C 
BRANCH   2   3
ATOM      3  C   UNL     1      11.388  80.817  -0.662  1.00  0.00    -0.009 C 
BRANCH   3   4
ATOM      4  C   UNL     1      12.033  80.142  -1.909  1.00  0.00     0.000 C 
ATOM      5  C   UNL     1      13.282  80.851  -2.439  1.00  0.00     0.004 C 
ENDBRANCH   3   4
BRANCH   3   6
ATOM      6  C   UNL     1       9.859  81.124  -0.856  1.00  0.00    -0.014 C 
ATOM      7  C   UNL     1       9.410  80.918  -2.316  1.00  0.00     0.007 C 
ATOM      8  C   UNL     1       8.970  80.258   0.057  1.00  0.00     0.007 C 
ENDBRANCH   3   6
ENDBRANCH   2   3
ENDBRANCH   1   2
BRANCH   1   9
ATOM      9  C   UNL     1      12.982  77.792   0.930  1.00  0.00    -0.011 C 
ATOM     10  C   UNL     1      11.500  77.367   1.120  1.00  0.00     0.008 C 
BRANCH   9  11
ATOM     11  C   UNL     1      13.690  76.965  -0.211  1.00  0.00    -0.002 C 
ATOM     12  C   UNL     1      14.469  75.717   0.315  1.00  0.00     0.005 C 
ATOM     13  C   UNL     1      12.782  76.381  -1.359  1.00  0.00    -0.026 C 
ATOM     14  C   UNL     1      13.939  74.484  -0.420  1.00  0.00     0.005 C 
ATOM     15  C   UNL     1      12.577  74.928  -0.908  1.00  0.00    -0.001 C 
ATOM     16  C   UNL     1      11.368  76.982  -1.570  1.00  0.00     0.007 C 
ATOM     17  C   UNL     1      13.594  76.505  -2.690  1.00  0.00     0.012 C 
ATOM     18  C   UNL     1      11.866  74.043  -1.960  1.00  0.00     0.000 C 
ATOM     19  C   UNL     1      10.551  76.178  -2.606  1.00  0.00     0.005 C 
ATOM     20  C   UNL     1      10.470  74.652  -2.280  1.00  0.00     0.003 C 
ATOM     21  C   UNL     1      11.655  72.627  -1.409  1.00  0.00     0.031 C 
ATOM     22  C   UNL     1       9.676  73.797  -3.355  1.00  0.00    -0.008 C 
ATOM     23  C   UNL     1      10.882  71.784  -2.375  1.00  0.00    -0.027 C 
ATOM     24  C   UNL     1       9.961  72.288  -3.222  1.00  0.00    -0.065 C 
ATOM     25  C   UNL     1      10.057  74.209  -4.813  1.00  0.00     0.014 C 
ATOM     26  C   UNL     1       8.160  74.037  -3.125  1.00  0.00     0.016 C 
ATOM     27  C   UNL     1       9.365  71.365  -4.265  1.00  0.00     0.063 C 
ATOM     28  C   UNL     1       9.483  73.281  -5.902  1.00  0.00     0.033 C 
ATOM     29  C   UNL     1       9.837  71.805  -5.653  1.00  0.00     0.118 C 
BRANCH  29  30
ATOM     30  O   UNL     1       9.224  70.997  -6.623  1.00  0.00    -0.393 OA
ATOM     31  H   UNL     1       8.646  71.592  -7.169  1.00  0.00     0.210 HD
ENDBRANCH  29  30
ENDBRANCH   9  11
ENDBRANCH   1   9
TORSDOF 7
ENDMDL
