MODEL 1
REMARK VINA RESULT:    -3.324      0.000      0.000
REMARK INTER + INTRA:          -8.567
REMARK INTER:                  -6.433
REMARK INTRA:                  -2.134
REMARK UNBOUND:                -2.134
REMARK SMILES CCCCCCCCCCCCCCCCCC(=O)[O-]
REMARK SMILES IDX 10 1 11 2 12 3 13 4 14 5 15 6 16 7 17 8 18 9 19 10 20 11
REMARK SMILES IDX 9 12 8 13 7 14 6 15 5 16 4 17 3 18 2 19 1 20
REMARK H PARENT
REMARK Flexibility Score: inf
ROOT
ATOM      1  C   UNL     1     -97.841 -40.418  95.597  1.00  0.00     0.000 C 
ENDROOT
BRANCH   1   2
ATOM      2  C   UNL     1     -96.371 -40.712  95.245  1.00  0.00     0.000 C 
BRANCH   2   3
ATOM      3  C   UNL     1     -96.135 -40.810  93.730  1.00  0.00     0.000 C 
BRANCH   3   4
ATOM      4  C   UNL     1     -95.852 -42.247  93.267  1.00  0.00     0.000 C 
BRANCH   4   5
ATOM      5  C   UNL     1     -96.076 -42.391  91.755  1.00  0.00     0.000 C 
BRANCH   5   6
ATOM      6  C   UNL     1     -96.855 -41.211  91.147  1.00  0.00     0.000 C 
BRANCH   6   7
ATOM      7  C   UNL     1     -97.851 -41.590  90.031  1.00  0.00     0.006 C 
BRANCH   7   8
ATOM      8  C   UNL     1     -98.307 -40.413  89.156  1.00  0.00     0.053 C 
BRANCH   8   9
ATOM      9  C   UNL     1     -97.216 -39.934  88.248  1.00  0.00     0.041 C 
ATOM     10  O   UNL     1     -96.704 -40.716  87.405  1.00  0.00    -0.550 OA
ATOM     11  O   UNL     1     -96.741 -38.633  88.358  1.00  0.00    -0.550 OA
ENDBRANCH   8   9
ENDBRANCH   7   8
ENDBRANCH   6   7
ENDBRANCH   5   6
ENDBRANCH   4   5
ENDBRANCH   3   4
ENDBRANCH   2   3
ENDBRANCH   1   2
BRANCH   1  12
ATOM     12  C   UNL     1     -98.792 -41.531  95.133  1.00  0.00     0.000 C 
BRANCH  12  13
ATOM     13  C   UNL     1     -99.965 -40.995  94.298  1.00  0.00    -0.000 C 
BRANCH  13  14
ATOM     14  C   UNL     1     -99.574 -39.706  93.566  1.00  0.00    -0.000 C 
BRANCH  14  15
ATOM     15  C   UNL     1    -100.198 -39.658  92.162  1.00  0.00    -0.000 C 
BRANCH  15  16
ATOM     16  C   UNL     1    -100.228 -38.229  91.579  1.00  0.00    -0.000 C 
BRANCH  16  17
ATOM     17  C   UNL     1    -101.622 -37.573  91.614  1.00  0.00    -0.000 C 
BRANCH  17  18
ATOM     18  C   UNL     1    -101.836 -36.558  92.753  1.00  0.00    -0.000 C 
BRANCH  18  19
ATOM     19  C   UNL     1    -100.544 -36.049  93.417  1.00  0.00    -0.003 C 
ATOM     20  C   UNL     1    -100.497 -36.326  94.919  1.00  0.00     0.004 C 
ENDBRANCH  18  19
ENDBRANCH  17  18
ENDBRANCH  16  17
ENDBRANCH  15  16
ENDBRANCH  14  15
ENDBRANCH  13  14
ENDBRANCH  12  13
ENDBRANCH   1  12
TORSDOF 16
ENDMDL
MODEL 2
REMARK VINA RESULT:    -3.267      3.820      7.525
REMARK INTER + INTRA:          -8.457
REMARK INTER:                  -6.799
REMARK INTRA:                  -1.658
REMARK UNBOUND:                -2.134
REMARK SMILES CCCCCCCCCCCCCCCCCC(=O)[O-]
REMARK SMILES IDX 10 1 11 2 12 3 13 4 14 5 15 6 16 7 17 8 18 9 19 10 20 11
REMARK SMILES IDX 9 12 8 13 7 14 6 15 5 16 4 17 3 18 2 19 1 20
REMARK H PARENT
REMARK Flexibility Score: inf
ROOT
ATOM      1  C   UNL     1     -98.671 -40.572  93.017  1.00  0.00     0.000 C 
ENDROOT
BRANCH   1   2
ATOM      2  C   UNL     1     -99.718 -39.504  93.382  1.00  0.00     0.000 C 
BRANCH   2   3
ATOM      3  C   UNL     1    -100.504 -39.006  92.160  1.00  0.00     0.000 C 
BRANCH   3   4
ATOM      4  C   UNL     1    -100.229 -37.528  91.842  1.00  0.00     0.000 C 
BRANCH   4   5
ATOM      5  C   UNL     1    -101.186 -36.611  92.617  1.00  0.00     0.000 C 
BRANCH   5   6
ATOM      6  C   UNL     1    -100.480 -35.795  93.714  1.00  0.00     0.000 C 
BRANCH   6   7
ATOM      7  C   UNL     1    -100.879 -36.160  95.159  1.00  0.00     0.006 C 
BRANCH   7   8
ATOM      8  C   UNL     1    -101.488 -35.001  95.964  1.00  0.00     0.053 C 
BRANCH   8   9
ATOM      9  C   UNL     1    -102.466 -34.209  95.154  1.00  0.00     0.041 C 
ATOM     10  O   UNL     1    -103.578 -34.708  94.836  1.00  0.00    -0.550 OA
ATOM     11  O   UNL     1    -102.136 -32.931  94.719  1.00  0.00    -0.550 OA
ENDBRANCH   8   9
ENDBRANCH   7   8
ENDBRANCH   6   7
ENDBRANCH   5   6
ENDBRANCH   4   5
ENDBRANCH   3   4
ENDBRANCH   2   3
ENDBRANCH   1   2
BRANCH   1  12
ATOM     12  C   UNL     1     -98.678 -40.918  91.521  1.00  0.00     0.000 C 
BRANCH  12  13
ATOM     13  C   UNL     1     -97.480 -41.787  91.109  1.00  0.00    -0.000 C 
BRANCH  13  14
ATOM     14  C   UNL     1     -96.546 -41.021  90.165  1.00  0.00    -0.000 C 
BRANCH  14  15
ATOM     15  C   UNL     1     -97.343 -40.104  89.224  1.00  0.00    -0.000 C 
BRANCH  15  16
ATOM     16  C   UNL     1     -97.187 -40.502  87.740  1.00  0.00    -0.000 C 
BRANCH  16  17
ATOM     17  C   UNL     1     -96.472 -41.851  87.531  1.00  0.00    -0.000 C 
BRANCH  17  18
ATOM     18  C   UNL     1     -97.398 -43.033  87.189  1.00  0.00    -0.000 C 
BRANCH  18  19
ATOM     19  C   UNL     1     -98.894 -42.679  87.102  1.00  0.00    -0.003 C 
ATOM     20  C   UNL     1     -99.704 -43.226  88.277  1.00  0.00     0.004 C 
ENDBRANCH  18  19
ENDBRANCH  17  18
ENDBRANCH  16  17
ENDBRANCH  15  16
ENDBRANCH  14  15
ENDBRANCH  13  14
ENDBRANCH  12  13
ENDBRANCH   1  12
TORSDOF 16
ENDMDL
MODEL 3
REMARK VINA RESULT:    -3.262     14.072     16.657
REMARK INTER + INTRA:          -8.447
REMARK INTER:                  -5.430
REMARK INTRA:                  -3.017
REMARK UNBOUND:                -2.134
REMARK SMILES CCCCCCCCCCCCCCCCCC(=O)[O-]
REMARK SMILES IDX 10 1 11 2 12 3 13 4 14 5 15 6 16 7 17 8 18 9 19 10 20 11
REMARK SMILES IDX 9 12 8 13 7 14 6 15 5 16 4 17 3 18 2 19 1 20
REMARK H PARENT
REMARK Flexibility Score: inf
ROOT
ATOM      1  C   UNL     1     -97.821 -29.828  79.079  1.00  0.00     0.000 C 
ENDROOT
BRANCH   1   2
ATOM      2  C   UNL     1     -96.404 -29.240  79.209  1.00  0.00     0.000 C 
BRANCH   2   3
ATOM      3  C   UNL     1     -96.302 -27.814  78.647  1.00  0.00     0.000 C 
BRANCH   3   4
ATOM      4  C   UNL     1     -95.782 -26.805  79.683  1.00  0.00     0.000 C 
BRANCH   4   5
ATOM      5  C   UNL     1     -96.945 -26.075  80.370  1.00  0.00     0.000 C 
BRANCH   5   6
ATOM      6  C   UNL     1     -96.881 -26.154  81.906  1.00  0.00     0.000 C 
BRANCH   6   7
ATOM      7  C   UNL     1     -96.149 -27.392  82.466  1.00  0.00     0.006 C 
BRANCH   7   8
ATOM      8  C   UNL     1     -97.015 -28.296  83.357  1.00  0.00     0.053 C 
BRANCH   8   9
ATOM      9  C   UNL     1     -96.436 -28.451  84.729  1.00  0.00     0.041 C 
ATOM     10  O   UNL     1     -95.998 -27.447  85.350  1.00  0.00    -0.550 OA
ATOM     11  O   UNL     1     -96.348 -29.711  85.308  1.00  0.00    -0.550 OA
ENDBRANCH   8   9
ENDBRANCH   7   8
ENDBRANCH   6   7
ENDBRANCH   5   6
ENDBRANCH   4   5
ENDBRANCH   3   4
ENDBRANCH   2   3
ENDBRANCH   1   2
BRANCH   1  12
ATOM     12  C   UNL     1     -98.827 -28.821  78.502  1.00  0.00     0.000 C 
BRANCH  12  13
ATOM     13  C   UNL     1     -99.692 -28.162  79.587  1.00  0.00    -0.000 C 
BRANCH  13  14
ATOM     14  C   UNL     1     -99.626 -28.953  80.898  1.00  0.00    -0.000 C 
BRANCH  14  15
ATOM     15  C   UNL     1    -100.511 -28.309  81.977  1.00  0.00    -0.000 C 
BRANCH  15  16
ATOM     16  C   UNL     1    -100.550 -26.770  81.867  1.00  0.00    -0.000 C 
BRANCH  16  17
ATOM     17  C   UNL     1    -100.929 -26.063  83.183  1.00  0.00    -0.000 C 
BRANCH  17  18
ATOM     18  C   UNL     1    -100.087 -26.468  84.407  1.00  0.00    -0.000 C 
BRANCH  18  19
ATOM     19  C   UNL     1     -98.968 -25.476  84.778  1.00  0.00    -0.003 C 
ATOM     20  C   UNL     1     -99.157 -24.100  84.141  1.00  0.00     0.004 C 
ENDBRANCH  18  19
ENDBRANCH  17  18
ENDBRANCH  16  17
ENDBRANCH  15  16
ENDBRANCH  14  15
ENDBRANCH  13  14
ENDBRANCH  12  13
ENDBRANCH   1  12
TORSDOF 16
ENDMDL
MODEL 4
REMARK VINA RESULT:    -3.240      3.316      7.176
REMARK INTER + INTRA:          -8.405
REMARK INTER:                  -6.713
REMARK INTRA:                  -1.692
REMARK UNBOUND:                -2.134
REMARK SMILES CCCCCCCCCCCCCCCCCC(=O)[O-]
REMARK SMILES IDX 10 1 11 2 12 3 13 4 14 5 15 6 16 7 17 8 18 9 19 10 20 11
REMARK SMILES IDX 9 12 8 13 7 14 6 15 5 16 4 17 3 18 2 19 1 20
REMARK H PARENT
REMARK Flexibility Score: inf
ROOT
ATOM      1  C   UNL     1     -97.891 -39.559  89.339  1.00  0.00     0.000 C 
ENDROOT
BRANCH   1   2
ATOM      2  C   UNL     1     -98.661 -40.641  90.118  1.00  0.00     0.000 C 
BRANCH   2   3
ATOM      3  C   UNL     1     -99.278 -40.105  91.420  1.00  0.00     0.000 C 
BRANCH   3   4
ATOM      4  C   UNL     1     -99.820 -38.676  91.273  1.00  0.00     0.000 C 
BRANCH   4   5
ATOM      5  C   UNL     1    -100.934 -38.403  92.293  1.00  0.00     0.000 C 
BRANCH   5   6
ATOM      6  C   UNL     1    -100.423 -38.360  93.744  1.00  0.00     0.000 C 
BRANCH   6   7
ATOM      7  C   UNL     1    -100.760 -37.068  94.518  1.00  0.00     0.006 C 
BRANCH   7   8
ATOM      8  C   UNL     1    -100.546 -35.773  93.720  1.00  0.00     0.053 C 
BRANCH   8   9
ATOM      9  C   UNL     1    -101.469 -34.682  94.165  1.00  0.00     0.041 C 
ATOM     10  O   UNL     1    -101.672 -34.482  95.392  1.00  0.00    -0.550 OA
ATOM     11  O   UNL     1    -102.134 -33.906  93.223  1.00  0.00    -0.550 OA
ENDBRANCH   8   9
ENDBRANCH   7   8
ENDBRANCH   6   7
ENDBRANCH   5   6
ENDBRANCH   4   5
ENDBRANCH   3   4
ENDBRANCH   2   3
ENDBRANCH   1   2
BRANCH   1  12
ATOM     12  C   UNL     1     -97.215 -40.112  88.075  1.00  0.00     0.000 C 
BRANCH  12  13
ATOM     13  C   UNL     1     -97.752 -41.494  87.674  1.00  0.00    -0.000 C 
BRANCH  13  14
ATOM     14  C   UNL     1     -96.612 -42.511  87.547  1.00  0.00    -0.000 C 
BRANCH  14  15
ATOM     15  C   UNL     1     -95.797 -42.593  88.848  1.00  0.00    -0.000 C 
BRANCH  15  16
ATOM     16  C   UNL     1     -96.366 -43.634  89.835  1.00  0.00    -0.000 C 
BRANCH  16  17
ATOM     17  C   UNL     1     -95.819 -43.494  91.269  1.00  0.00    -0.000 C 
BRANCH  17  18
ATOM     18  C   UNL     1     -96.070 -42.127  91.932  1.00  0.00    -0.000 C 
BRANCH  18  19
ATOM     19  C   UNL     1     -96.690 -42.194  93.340  1.00  0.00    -0.003 C 
ATOM     20  C   UNL     1     -96.806 -40.824  94.005  1.00  0.00     0.004 C 
ENDBRANCH  18  19
ENDBRANCH  17  18
ENDBRANCH  16  17
ENDBRANCH  15  16
ENDBRANCH  14  15
ENDBRANCH  13  14
ENDBRANCH  12  13
ENDBRANCH   1  12
TORSDOF 16
ENDMDL
MODEL 5
REMARK VINA RESULT:    -3.217     13.863     16.705
REMARK INTER + INTRA:          -8.359
REMARK INTER:                  -5.755
REMARK INTRA:                  -2.604
REMARK UNBOUND:                -2.134
REMARK SMILES CCCCCCCCCCCCCCCCCC(=O)[O-]
REMARK SMILES IDX 10 1 11 2 12 3 13 4 14 5 15 6 16 7 17 8 18 9 19 10 20 11
REMARK SMILES IDX 9 12 8 13 7 14 6 15 5 16 4 17 3 18 2 19 1 20
REMARK H PARENT
REMARK Flexibility Score: inf
ROOT
ATOM      1  C   UNL     1     -96.353 -27.724  79.696  1.00  0.00     0.000 C 
ENDROOT
BRANCH   1   2
ATOM      2  C   UNL     1     -96.452 -29.138  79.093  1.00  0.00     0.000 C 
BRANCH   2   3
ATOM      3  C   UNL     1     -97.445 -29.213  77.923  1.00  0.00     0.000 C 
BRANCH   3   4
ATOM      4  C   UNL     1     -98.503 -30.311  78.114  1.00  0.00     0.000 C 
BRANCH   4   5
ATOM      5  C   UNL     1     -98.824 -30.511  79.602  1.00  0.00     0.000 C 
BRANCH   5   6
ATOM      6  C   UNL     1     -99.802 -29.458  80.153  1.00  0.00     0.000 C 
BRANCH   6   7
ATOM      7  C   UNL     1     -99.521 -28.998  81.599  1.00  0.00     0.006 C 
BRANCH   7   8
ATOM      8  C   UNL     1    -100.698 -28.286  82.282  1.00  0.00     0.053 C 
BRANCH   8   9
ATOM      9  C   UNL     1    -100.622 -28.382  83.774  1.00  0.00     0.041 C 
ATOM     10  O   UNL     1     -99.924 -29.278  84.317  1.00  0.00    -0.550 OA
ATOM     11  O   UNL     1    -101.350 -27.502  84.566  1.00  0.00    -0.550 OA
ENDBRANCH   8   9
ENDBRANCH   7   8
ENDBRANCH   6   7
ENDBRANCH   5   6
ENDBRANCH   4   5
ENDBRANCH   3   4
ENDBRANCH   2   3
ENDBRANCH   1   2
BRANCH   1  12
ATOM     12  C   UNL     1     -97.257 -26.712  78.976  1.00  0.00     0.000 C 
BRANCH  12  13
ATOM     13  C   UNL     1     -98.283 -26.062  79.916  1.00  0.00    -0.000 C 
BRANCH  13  14
ATOM     14  C   UNL     1     -97.588 -25.192  80.970  1.00  0.00    -0.000 C 
BRANCH  14  15
ATOM     15  C   UNL     1     -98.492 -24.981  82.195  1.00  0.00    -0.000 C 
BRANCH  15  16
ATOM     16  C   UNL     1     -98.030 -25.804  83.417  1.00  0.00    -0.000 C 
BRANCH  16  17
ATOM     17  C   UNL     1     -96.705 -26.558  83.194  1.00  0.00    -0.000 C 
BRANCH  17  18
ATOM     18  C   UNL     1     -96.691 -28.013  83.698  1.00  0.00    -0.000 C 
BRANCH  18  19
ATOM     19  C   UNL     1     -96.199 -28.191  85.146  1.00  0.00    -0.003 C 
ATOM     20  C   UNL     1     -95.940 -29.652  85.512  1.00  0.00     0.004 C 
ENDBRANCH  18  19
ENDBRANCH  17  18
ENDBRANCH  16  17
ENDBRANCH  15  16
ENDBRANCH  14  15
ENDBRANCH  13  14
ENDBRANCH  12  13
ENDBRANCH   1  12
TORSDOF 16
ENDMDL
MODEL 6
REMARK VINA RESULT:    -3.194      1.338      2.138
REMARK INTER + INTRA:          -8.315
REMARK INTER:                  -5.561
REMARK INTRA:                  -2.754
REMARK UNBOUND:                -2.134
REMARK SMILES CCCCCCCCCCCCCCCCCC(=O)[O-]
REMARK SMILES IDX 10 1 11 2 12 3 13 4 14 5 15 6 16 7 17 8 18 9 19 10 20 11
REMARK SMILES IDX 9 12 8 13 7 14 6 15 5 16 4 17 3 18 2 19 1 20
REMARK H PARENT
REMARK Flexibility Score: inf
ROOT
ATOM      1  C   UNL     1     -98.743 -40.351  94.219  1.00  0.00     0.000 C 
ENDROOT
BRANCH   1   2
ATOM      2  C   UNL     1     -97.581 -41.357  94.314  1.00  0.00     0.000 C 
BRANCH   2   3
ATOM      3  C   UNL     1     -96.386 -40.963  93.432  1.00  0.00     0.000 C 
BRANCH   3   4
ATOM      4  C   UNL     1     -96.568 -41.385  91.966  1.00  0.00     0.000 C 
BRANCH   4   5
ATOM      5  C   UNL     1     -97.191 -42.785  91.870  1.00  0.00     0.000 C 
BRANCH   5   6
ATOM      6  C   UNL     1     -98.333 -42.866  90.842  1.00  0.00     0.000 C 
BRANCH   6   7
ATOM      7  C   UNL     1     -98.520 -41.605  89.972  1.00  0.00     0.006 C 
BRANCH   7   8
ATOM      8  C   UNL     1     -98.352 -41.840  88.463  1.00  0.00     0.053 C 
BRANCH   8   9
ATOM      9  C   UNL     1     -96.951 -41.572  88.007  1.00  0.00     0.041 C 
ATOM     10  O   UNL     1     -96.704 -40.591  87.258  1.00  0.00    -0.550 OA
ATOM     11  O   UNL     1     -95.922 -42.428  88.382  1.00  0.00    -0.550 OA
ENDBRANCH   8   9
ENDBRANCH   7   8
ENDBRANCH   6   7
ENDBRANCH   5   6
ENDBRANCH   4   5
ENDBRANCH   3   4
ENDBRANCH   2   3
ENDBRANCH   1   2
BRANCH   1  12
ATOM     12  C   UNL     1    -100.037 -40.993  93.698  1.00  0.00     0.000 C 
BRANCH  12  13
ATOM     13  C   UNL     1    -100.674 -40.193  92.552  1.00  0.00    -0.000 C 
BRANCH  13  14
ATOM     14  C   UNL     1     -99.910 -38.888  92.302  1.00  0.00    -0.000 C 
BRANCH  14  15
ATOM     15  C   UNL     1    -100.868 -37.756  91.897  1.00  0.00    -0.000 C 
BRANCH  15  16
ATOM     16  C   UNL     1    -100.697 -36.497  92.773  1.00  0.00    -0.000 C 
BRANCH  16  17
ATOM     17  C   UNL     1    -101.322 -36.627  94.176  1.00  0.00    -0.000 C 
BRANCH  17  18
ATOM     18  C   UNL     1    -100.316 -36.617  95.342  1.00  0.00    -0.000 C 
BRANCH  18  19
ATOM     19  C   UNL     1    -100.476 -37.775  96.343  1.00  0.00    -0.003 C 
ATOM     20  C   UNL     1    -101.680 -38.666  96.036  1.00  0.00     0.004 C 
ENDBRANCH  18  19
ENDBRANCH  17  18
ENDBRANCH  16  17
ENDBRANCH  15  16
ENDBRANCH  14  15
ENDBRANCH  13  14
ENDBRANCH  12  13
ENDBRANCH   1  12
TORSDOF 16
ENDMDL
MODEL 7
REMARK VINA RESULT:    -3.124     13.700     16.596
REMARK INTER + INTRA:          -8.180
REMARK INTER:                  -5.322
REMARK INTRA:                  -2.858
REMARK UNBOUND:                -2.134
REMARK SMILES CCCCCCCCCCCCCCCCCC(=O)[O-]
REMARK SMILES IDX 10 1 11 2 12 3 13 4 14 5 15 6 16 7 17 8 18 9 19 10 20 11
REMARK SMILES IDX 9 12 8 13 7 14 6 15 5 16 4 17 3 18 2 19 1 20
REMARK H PARENT
REMARK Flexibility Score: inf
ROOT
ATOM      1  C   UNL     1     -96.989 -29.327  78.970  1.00  0.00     0.000 C 
ENDROOT
BRANCH   1   2
ATOM      2  C   UNL     1     -96.569 -27.920  78.507  1.00  0.00     0.000 C 
BRANCH   2   3
ATOM      3  C   UNL     1     -95.735 -27.175  79.560  1.00  0.00     0.000 C 
BRANCH   3   4
ATOM      4  C   UNL     1     -96.284 -25.773  79.865  1.00  0.00     0.000 C 
BRANCH   4   5
ATOM      5  C   UNL     1     -96.736 -25.666  81.329  1.00  0.00     0.000 C 
BRANCH   5   6
ATOM      6  C   UNL     1     -96.523 -26.969  82.120  1.00  0.00     0.000 C 
BRANCH   6   7
ATOM      7  C   UNL     1     -97.253 -27.035  83.478  1.00  0.00     0.006 C 
BRANCH   7   8
ATOM      8  C   UNL     1     -97.307 -28.436  84.106  1.00  0.00     0.053 C 
BRANCH   8   9
ATOM      9  C   UNL     1     -96.296 -28.601  85.198  1.00  0.00     0.041 C 
ATOM     10  O   UNL     1     -95.909 -27.602  85.859  1.00  0.00    -0.550 OA
ATOM     11  O   UNL     1     -95.755 -29.853  85.461  1.00  0.00    -0.550 OA
ENDBRANCH   8   9
ENDBRANCH   7   8
ENDBRANCH   6   7
ENDBRANCH   5   6
ENDBRANCH   4   5
ENDBRANCH   3   4
ENDBRANCH   2   3
ENDBRANCH   1   2
BRANCH   1  12
ATOM     12  C   UNL     1     -98.239 -29.305  79.863  1.00  0.00     0.000 C 
BRANCH  12  13
ATOM     13  C   UNL     1     -99.284 -28.284  79.391  1.00  0.00    -0.000 C 
BRANCH  13  14
ATOM     14  C   UNL     1     -99.976 -27.615  80.584  1.00  0.00    -0.000 C 
BRANCH  14  15
ATOM     15  C   UNL     1    -100.169 -28.610  81.740  1.00  0.00    -0.000 C 
BRANCH  15  16
ATOM     16  C   UNL     1    -101.504 -29.377  81.642  1.00  0.00    -0.000 C 
BRANCH  16  17
ATOM     17  C   UNL     1    -101.371 -30.891  81.895  1.00  0.00    -0.000 C 
BRANCH  17  18
ATOM     18  C   UNL     1    -100.980 -31.727  80.663  1.00  0.00    -0.000 C 
BRANCH  18  19
ATOM     19  C   UNL     1    -101.541 -31.209  79.326  1.00  0.00    -0.003 C 
ATOM     20  C   UNL     1    -100.691 -31.621  78.124  1.00  0.00     0.004 C 
ENDBRANCH  18  19
ENDBRANCH  17  18
ENDBRANCH  16  17
ENDBRANCH  15  16
ENDBRANCH  14  15
ENDBRANCH  13  14
ENDBRANCH  12  13
ENDBRANCH   1  12
TORSDOF 16
ENDMDL
MODEL 8
REMARK VINA RESULT:    -3.098     14.119     16.640
REMARK INTER + INTRA:          -8.131
REMARK INTER:                  -5.228
REMARK INTRA:                  -2.902
REMARK UNBOUND:                -2.134
REMARK SMILES CCCCCCCCCCCCCCCCCC(=O)[O-]
REMARK SMILES IDX 10 1 11 2 12 3 13 4 14 5 15 6 16 7 17 8 18 9 19 10 20 11
REMARK SMILES IDX 9 12 8 13 7 14 6 15 5 16 4 17 3 18 2 19 1 20
REMARK H PARENT
REMARK Flexibility Score: inf
ROOT
ATOM      1  C   UNL     1     -95.367 -26.201  81.370  1.00  0.00     0.000 C 
ENDROOT
BRANCH   1   2
ATOM      2  C   UNL     1     -96.361 -26.437  82.522  1.00  0.00     0.000 C 
BRANCH   2   3
ATOM      3  C   UNL     1     -96.392 -27.901  82.986  1.00  0.00     0.000 C 
BRANCH   3   4
ATOM      4  C   UNL     1     -97.392 -28.139  84.128  1.00  0.00     0.000 C 
BRANCH   4   5
ATOM      5  C   UNL     1     -98.283 -26.908  84.344  1.00  0.00     0.000 C 
BRANCH   5   6
ATOM      6  C   UNL     1     -99.783 -27.250  84.380  1.00  0.00     0.000 C 
BRANCH   6   7
ATOM      7  C   UNL     1    -100.137 -28.685  83.937  1.00  0.00     0.006 C 
BRANCH   7   8
ATOM      8  C   UNL     1    -101.441 -28.800  83.133  1.00  0.00     0.053 C 
BRANCH   8   9
ATOM      9  C   UNL     1    -101.842 -30.227  82.919  1.00  0.00     0.041 C 
ATOM     10  O   UNL     1    -101.287 -30.914  82.022  1.00  0.00    -0.550 OA
ATOM     11  O   UNL     1    -102.856 -30.787  83.687  1.00  0.00    -0.550 OA
ENDBRANCH   8   9
ENDBRANCH   7   8
ENDBRANCH   6   7
ENDBRANCH   5   6
ENDBRANCH   4   5
ENDBRANCH   3   4
ENDBRANCH   2   3
ENDBRANCH   1   2
BRANCH   1  12
ATOM     12  C   UNL     1     -96.067 -26.027  80.014  1.00  0.00     0.000 C 
BRANCH  12  13
ATOM     13  C   UNL     1     -95.356 -26.782  78.881  1.00  0.00    -0.000 C 
BRANCH  13  14
ATOM     14  C   UNL     1     -96.293 -27.806  78.231  1.00  0.00    -0.000 C 
BRANCH  14  15
ATOM     15  C   UNL     1     -96.357 -29.099  79.058  1.00  0.00    -0.000 C 
BRANCH  15  16
ATOM     16  C   UNL     1     -97.574 -29.975  78.690  1.00  0.00    -0.000 C 
BRANCH  16  17
ATOM     17  C   UNL     1     -98.699 -29.950  79.742  1.00  0.00    -0.000 C 
BRANCH  17  18
ATOM     18  C   UNL     1     -98.781 -28.660  80.578  1.00  0.00    -0.000 C 
BRANCH  18  19
ATOM     19  C   UNL     1     -99.698 -27.568  79.995  1.00  0.00    -0.003 C 
ATOM     20  C   UNL     1     -99.692 -26.282  80.821  1.00  0.00     0.004 C 
ENDBRANCH  18  19
ENDBRANCH  17  18
ENDBRANCH  16  17
ENDBRANCH  15  16
ENDBRANCH  14  15
ENDBRANCH  13  14
ENDBRANCH  12  13
ENDBRANCH   1  12
TORSDOF 16
ENDMDL
MODEL 9
REMARK VINA RESULT:    -3.072      3.590      6.886
REMARK INTER + INTRA:          -8.079
REMARK INTER:                  -6.120
REMARK INTRA:                  -1.959
REMARK UNBOUND:                -2.134
REMARK SMILES CCCCCCCCCCCCCCCCCC(=O)[O-]
REMARK SMILES IDX 10 1 11 2 12 3 13 4 14 5 15 6 16 7 17 8 18 9 19 10 20 11
REMARK SMILES IDX 9 12 8 13 7 14 6 15 5 16 4 17 3 18 2 19 1 20
REMARK H PARENT
REMARK Flexibility Score: inf
ROOT
ATOM      1  C   UNL     1     -99.130 -40.005  94.493  1.00  0.00     0.000 C 
ENDROOT
BRANCH   1   2
ATOM      2  C   UNL     1    -100.227 -40.770  93.730  1.00  0.00     0.000 C 
BRANCH   2   3
ATOM      3  C   UNL     1    -100.775 -39.980  92.531  1.00  0.00     0.000 C 
BRANCH   3   4
ATOM      4  C   UNL     1     -99.870 -38.803  92.136  1.00  0.00     0.000 C 
BRANCH   4   5
ATOM      5  C   UNL     1    -100.657 -37.485  92.120  1.00  0.00     0.000 C 
BRANCH   5   6
ATOM      6  C   UNL     1    -101.737 -37.417  93.215  1.00  0.00     0.000 C 
BRANCH   6   7
ATOM      7  C   UNL     1    -101.263 -36.840  94.565  1.00  0.00     0.006 C 
BRANCH   7   8
ATOM      8  C   UNL     1    -100.944 -35.337  94.540  1.00  0.00     0.053 C 
BRANCH   8   9
ATOM      9  C   UNL     1    -101.951 -34.538  95.308  1.00  0.00     0.041 C 
ATOM     10  O   UNL     1    -103.097 -34.332  94.829  1.00  0.00    -0.550 OA
ATOM     11  O   UNL     1    -101.611 -33.991  96.539  1.00  0.00    -0.550 OA
ENDBRANCH   8   9
ENDBRANCH   7   8
ENDBRANCH   6   7
ENDBRANCH   5   6
ENDBRANCH   4   5
ENDBRANCH   3   4
ENDBRANCH   2   3
ENDBRANCH   1   2
BRANCH   1  12
ATOM     12  C   UNL     1     -97.830 -40.812  94.623  1.00  0.00     0.000 C 
BRANCH  12  13
ATOM     13  C   UNL     1     -97.586 -41.738  93.422  1.00  0.00    -0.000 C 
BRANCH  13  14
ATOM     14  C   UNL     1     -96.625 -41.093  92.418  1.00  0.00    -0.000 C 
BRANCH  14  15
ATOM     15  C   UNL     1     -96.736 -41.761  91.038  1.00  0.00    -0.000 C 
BRANCH  15  16
ATOM     16  C   UNL     1     -98.050 -41.400  90.312  1.00  0.00    -0.000 C 
BRANCH  16  17
ATOM     17  C   UNL     1     -97.986 -40.072  89.535  1.00  0.00    -0.000 C 
BRANCH  17  18
ATOM     18  C   UNL     1     -97.201 -40.129  88.210  1.00  0.00    -0.000 C 
BRANCH  18  19
ATOM     19  C   UNL     1     -97.295 -41.471  87.461  1.00  0.00    -0.003 C 
ATOM     20  C   UNL     1     -95.959 -42.209  87.393  1.00  0.00     0.004 C 
ENDBRANCH  18  19
ENDBRANCH  17  18
ENDBRANCH  16  17
ENDBRANCH  15  16
ENDBRANCH  14  15
ENDBRANCH  13  14
ENDBRANCH  12  13
ENDBRANCH   1  12
TORSDOF 16
ENDMDL
