MODEL 1
REMARK VINA RESULT:    16.808      0.000      0.000
REMARK INTER + INTRA:          31.419
REMARK INTER:                  32.529
REMARK INTRA:                  -1.110
REMARK UNBOUND:                -1.110
REMARK SMILES CCCCCCCCCCCCCCCCCC(=O)[O-]
REMARK SMILES IDX 10 1 11 2 12 3 13 4 14 5 15 6 16 7 17 8 18 9 19 10 20 11
REMARK SMILES IDX 9 12 8 13 7 14 6 15 5 16 4 17 3 18 2 19 1 20
REMARK H PARENT
REMARK Flexibility Score: inf
ROOT
ATOM      1  C   UNL     1      14.742   5.916   7.645  1.00  0.00     0.000 C 
ENDROOT
BRANCH   1   2
ATOM      2  C   UNL     1      14.411   7.374   8.026  1.00  0.00     0.000 C 
BRANCH   2   3
ATOM      3  C   UNL     1      13.617   8.155   6.964  1.00  0.00     0.000 C 
BRANCH   3   4
ATOM      4  C   UNL     1      12.128   7.769   6.933  1.00  0.00     0.000 C 
BRANCH   4   5
ATOM      5  C   UNL     1      11.656   7.099   8.235  1.00  0.00     0.000 C 
BRANCH   5   6
ATOM      6  C   UNL     1      10.518   6.076   8.063  1.00  0.00     0.000 C 
BRANCH   6   7
ATOM      7  C   UNL     1      11.002   4.618   8.156  1.00  0.00     0.006 C 
BRANCH   7   8
ATOM      8  C   UNL     1      10.266   3.834   9.250  1.00  0.00     0.053 C 
BRANCH   8   9
ATOM      9  C   UNL     1      10.739   2.414   9.328  1.00  0.00     0.041 C 
ATOM     10  O   UNL     1      10.626   1.651   8.335  1.00  0.00    -0.550 OA
ATOM     11  O   UNL     1      11.334   1.945  10.492  1.00  0.00    -0.550 OA
ENDBRANCH   8   9
ENDBRANCH   7   8
ENDBRANCH   6   7
ENDBRANCH   5   6
ENDBRANCH   4   5
ENDBRANCH   3   4
ENDBRANCH   2   3
ENDBRANCH   1   2
BRANCH   1  12
ATOM     12  C   UNL     1      15.759   5.754   6.496  1.00  0.00     0.000 C 
BRANCH  12  13
ATOM     13  C   UNL     1      16.549   4.433   6.511  1.00  0.00    -0.000 C 
BRANCH  13  14
ATOM     14  C   UNL     1      17.952   4.587   7.116  1.00  0.00    -0.000 C 
BRANCH  14  15
ATOM     15  C   UNL     1      18.123   5.970   7.763  1.00  0.00    -0.000 C 
BRANCH  15  16
ATOM     16  C   UNL     1      17.909   5.929   9.288  1.00  0.00    -0.000 C 
BRANCH  16  17
ATOM     17  C   UNL     1      17.264   7.208   9.851  1.00  0.00    -0.000 C 
BRANCH  17  18
ATOM     18  C   UNL     1      18.124   8.457   9.590  1.00  0.00    -0.000 C 
BRANCH  18  19
ATOM     19  C   UNL     1      17.277   9.724   9.392  1.00  0.00    -0.003 C 
ATOM     20  C   UNL     1      18.114  10.930   8.963  1.00  0.00     0.004 C 
ENDBRANCH  18  19
ENDBRANCH  17  18
ENDBRANCH  16  17
ENDBRANCH  15  16
ENDBRANCH  14  15
ENDBRANCH  13  14
ENDBRANCH  12  13
ENDBRANCH   1  12
TORSDOF 16
ENDMDL
MODEL 2
REMARK VINA RESULT:    16.826      1.127      1.758
REMARK INTER + INTRA:          31.455
REMARK INTER:                  31.945
REMARK INTRA:                  -0.490
REMARK UNBOUND:                -1.110
REMARK SMILES CCCCCCCCCCCCCCCCCC(=O)[O-]
REMARK SMILES IDX 10 1 11 2 12 3 13 4 14 5 15 6 16 7 17 8 18 9 19 10 20 11
REMARK SMILES IDX 9 12 8 13 7 14 6 15 5 16 4 17 3 18 2 19 1 20
REMARK H PARENT
REMARK Flexibility Score: inf
ROOT
ATOM      1  C   UNL     1      15.314   5.176   6.990  1.00  0.00     0.000 C 
ENDROOT
BRANCH   1   2
ATOM      2  C   UNL     1      15.154   5.595   8.466  1.00  0.00     0.000 C 
BRANCH   2   3
ATOM      3  C   UNL     1      14.603   7.016   8.679  1.00  0.00     0.000 C 
BRANCH   3   4
ATOM      4  C   UNL     1      13.771   7.514   7.485  1.00  0.00     0.000 C 
BRANCH   4   5
ATOM      5  C   UNL     1      12.283   7.703   7.828  1.00  0.00     0.000 C 
BRANCH   5   6
ATOM      6  C   UNL     1      11.351   6.591   7.312  1.00  0.00     0.000 C 
BRANCH   6   7
ATOM      7  C   UNL     1      10.701   5.777   8.445  1.00  0.00     0.006 C 
BRANCH   7   8
ATOM      8  C   UNL     1      11.239   4.342   8.509  1.00  0.00     0.053 C 
BRANCH   8   9
ATOM      9  C   UNL     1      10.463   3.418   7.622  1.00  0.00     0.041 C 
ATOM     10  O   UNL     1      10.463   2.179   7.839  1.00  0.00    -0.550 OA
ATOM     11  O   UNL     1       9.712   3.932   6.573  1.00  0.00    -0.550 OA
ENDBRANCH   8   9
ENDBRANCH   7   8
ENDBRANCH   6   7
ENDBRANCH   5   6
ENDBRANCH   4   5
ENDBRANCH   3   4
ENDBRANCH   2   3
ENDBRANCH   1   2
BRANCH   1  12
ATOM     12  C   UNL     1      16.659   5.560   6.341  1.00  0.00     0.000 C 
BRANCH  12  13
ATOM     13  C   UNL     1      17.896   4.896   6.972  1.00  0.00    -0.000 C 
BRANCH  13  14
ATOM     14  C   UNL     1      18.030   5.192   8.472  1.00  0.00    -0.000 C 
BRANCH  14  15
ATOM     15  C   UNL     1      18.065   6.706   8.733  1.00  0.00    -0.000 C 
BRANCH  15  16
ATOM     16  C   UNL     1      18.010   7.039  10.236  1.00  0.00    -0.000 C 
BRANCH  16  17
ATOM     17  C   UNL     1      18.017   8.550  10.530  1.00  0.00    -0.000 C 
BRANCH  17  18
ATOM     18  C   UNL     1      17.911   9.393   9.247  1.00  0.00    -0.000 C 
BRANCH  18  19
ATOM     19  C   UNL     1      18.113  10.893   9.511  1.00  0.00    -0.003 C 
ATOM     20  C   UNL     1      17.906  11.744   8.256  1.00  0.00     0.004 C 
ENDBRANCH  18  19
ENDBRANCH  17  18
ENDBRANCH  16  17
ENDBRANCH  15  16
ENDBRANCH  14  15
ENDBRANCH  13  14
ENDBRANCH  12  13
ENDBRANCH   1  12
TORSDOF 16
ENDMDL
MODEL 3
REMARK VINA RESULT:    18.654      0.914      1.665
REMARK INTER + INTRA:          34.993
REMARK INTER:                  34.261
REMARK INTRA:                   0.733
REMARK UNBOUND:                -1.110
REMARK SMILES CCCCCCCCCCCCCCCCCC(=O)[O-]
REMARK SMILES IDX 10 1 11 2 12 3 13 4 14 5 15 6 16 7 17 8 18 9 19 10 20 11
REMARK SMILES IDX 9 12 8 13 7 14 6 15 5 16 4 17 3 18 2 19 1 20
REMARK H PARENT
REMARK Flexibility Score: inf
ROOT
ATOM      1  C   UNL     1      14.545   7.132   8.190  1.00  0.00     0.000 C 
ENDROOT
BRANCH   1   2
ATOM      2  C   UNL     1      13.618   8.044   7.359  1.00  0.00     0.000 C 
BRANCH   2   3
ATOM      3  C   UNL     1      12.346   7.359   6.827  1.00  0.00     0.000 C 
BRANCH   3   4
ATOM      4  C   UNL     1      11.138   7.544   7.761  1.00  0.00     0.000 C 
BRANCH   4   5
ATOM      5  C   UNL     1      11.040   6.450   8.838  1.00  0.00     0.000 C 
BRANCH   5   6
ATOM      6  C   UNL     1       9.901   5.436   8.631  1.00  0.00     0.000 C 
BRANCH   6   7
ATOM      7  C   UNL     1      10.239   4.355   7.590  1.00  0.00     0.006 C 
BRANCH   7   8
ATOM      8  C   UNL     1      11.256   3.337   8.121  1.00  0.00     0.053 C 
BRANCH   8   9
ATOM      9  C   UNL     1      10.763   2.654   9.359  1.00  0.00     0.041 C 
ATOM     10  O   UNL     1      11.544   2.438  10.321  1.00  0.00    -0.550 OA
ATOM     11  O   UNL     1       9.428   2.284   9.461  1.00  0.00    -0.550 OA
ENDBRANCH   8   9
ENDBRANCH   7   8
ENDBRANCH   6   7
ENDBRANCH   5   6
ENDBRANCH   4   5
ENDBRANCH   3   4
ENDBRANCH   2   3
ENDBRANCH   1   2
BRANCH   1  12
ATOM     12  C   UNL     1      14.687   5.688   7.666  1.00  0.00     0.000 C 
BRANCH  12  13
ATOM     13  C   UNL     1      15.551   5.539   6.401  1.00  0.00    -0.000 C 
BRANCH  13  14
ATOM     14  C   UNL     1      16.228   4.165   6.303  1.00  0.00    -0.000 C 
BRANCH  14  15
ATOM     15  C   UNL     1      17.741   4.279   6.540  1.00  0.00    -0.000 C 
BRANCH  15  16
ATOM     16  C   UNL     1      18.124   5.604   7.226  1.00  0.00    -0.000 C 
BRANCH  16  17
ATOM     17  C   UNL     1      17.307   5.896   8.497  1.00  0.00    -0.000 C 
BRANCH  17  18
ATOM     18  C   UNL     1      18.119   6.676   9.545  1.00  0.00    -0.000 C 
BRANCH  18  19
ATOM     19  C   UNL     1      17.348   7.879  10.111  1.00  0.00    -0.003 C 
ATOM     20  C   UNL     1      18.110   9.195   9.948  1.00  0.00     0.004 C 
ENDBRANCH  18  19
ENDBRANCH  17  18
ENDBRANCH  16  17
ENDBRANCH  15  16
ENDBRANCH  14  15
ENDBRANCH  13  14
ENDBRANCH  12  13
ENDBRANCH   1  12
TORSDOF 16
ENDMDL
