MODEL 1
REMARK VINA RESULT:    -4.165      0.000      0.000
REMARK INTER + INTRA:          -9.088
REMARK INTER:                  -7.087
REMARK INTRA:                  -2.002
REMARK UNBOUND:                -2.002
REMARK SMILES CCCCCCCCCCCCCC(=O)[O-]
REMARK SMILES IDX 8 1 9 2 10 3 11 4 12 5 13 6 14 7 15 8 16 9 7 10 6 11 5 12
REMARK SMILES IDX 4 13 3 14 2 15 1 16
REMARK H PARENT
REMARK Flexibility Score: inf
ROOT
ATOM      1  C   UNL     1     -39.289  20.759 -29.320  1.00  0.00     0.000 C 
ENDROOT
BRANCH   1   2
ATOM      2  C   UNL     1     -39.271  19.224 -29.208  1.00  0.00     0.000 C 
BRANCH   2   3
ATOM      3  C   UNL     1     -38.238  18.649 -28.217  1.00  0.00     0.000 C 
BRANCH   3   4
ATOM      4  C   UNL     1     -36.785  19.108 -28.445  1.00  0.00     0.000 C 
BRANCH   4   5
ATOM      5  C   UNL     1     -35.806  17.989 -28.844  1.00  0.00     0.006 C 
BRANCH   5   6
ATOM      6  C   UNL     1     -35.840  17.677 -30.345  1.00  0.00     0.053 C 
BRANCH   6   7
ATOM      7  C   UNL     1     -36.826  16.590 -30.630  1.00  0.00     0.041 C 
ATOM      8  O   UNL     1     -36.609  15.416 -30.232  1.00  0.00    -0.550 OA
ATOM      9  O   UNL     1     -37.965  16.863 -31.378  1.00  0.00    -0.550 OA
ENDBRANCH   6   7
ENDBRANCH   5   6
ENDBRANCH   4   5
ENDBRANCH   3   4
ENDBRANCH   2   3
ENDBRANCH   1   2
BRANCH   1  10
ATOM     10  C   UNL     1     -39.105  21.255 -30.764  1.00  0.00     0.000 C 
BRANCH  10  11
ATOM     11  C   UNL     1     -38.187  20.342 -31.599  1.00  0.00    -0.000 C 
BRANCH  11  12
ATOM     12  C   UNL     1     -37.040  21.058 -32.334  1.00  0.00    -0.000 C 
BRANCH  12  13
ATOM     13  C   UNL     1     -35.734  21.087 -31.527  1.00  0.00    -0.000 C 
BRANCH  13  14
ATOM     14  C   UNL     1     -35.520  22.459 -30.878  1.00  0.00    -0.000 C 
BRANCH  14  15
ATOM     15  C   UNL     1     -35.173  22.317 -29.390  1.00  0.00    -0.003 C 
ATOM     16  C   UNL     1     -36.327  22.784 -28.509  1.00  0.00     0.004 C 
ENDBRANCH  14  15
ENDBRANCH  13  14
ENDBRANCH  12  13
ENDBRANCH  11  12
ENDBRANCH  10  11
ENDBRANCH   1  10
TORSDOF 12
ENDMDL
MODEL 2
REMARK VINA RESULT:    -3.931      1.334      2.996
REMARK INTER + INTRA:          -8.691
REMARK INTER:                  -6.923
REMARK INTRA:                  -1.767
REMARK UNBOUND:                -2.002
REMARK SMILES CCCCCCCCCCCCCC(=O)[O-]
REMARK SMILES IDX 8 1 9 2 10 3 11 4 12 5 13 6 14 7 15 8 16 9 7 10 6 11 5 12
REMARK SMILES IDX 4 13 3 14 2 15 1 16
REMARK H PARENT
REMARK Flexibility Score: inf
ROOT
ATOM      1  C   UNL     1     -34.419  19.663 -30.842  1.00  0.00     0.000 C 
ENDROOT
BRANCH   1   2
ATOM      2  C   UNL     1     -34.130  19.894 -29.347  1.00  0.00     0.000 C 
BRANCH   2   3
ATOM      3  C   UNL     1     -34.693  18.819 -28.396  1.00  0.00     0.000 C 
BRANCH   3   4
ATOM      4  C   UNL     1     -36.216  18.875 -28.170  1.00  0.00     0.000 C 
BRANCH   4   5
ATOM      5  C   UNL     1     -36.968  17.569 -28.487  1.00  0.00     0.006 C 
BRANCH   5   6
ATOM      6  C   UNL     1     -37.093  17.304 -29.992  1.00  0.00     0.053 C 
BRANCH   6   7
ATOM      7  C   UNL     1     -36.328  16.077 -30.371  1.00  0.00     0.041 C 
ATOM      8  O   UNL     1     -36.716  14.943 -29.984  1.00  0.00    -0.550 OA
ATOM      9  O   UNL     1     -35.158  16.187 -31.112  1.00  0.00    -0.550 OA
ENDBRANCH   6   7
ENDBRANCH   5   6
ENDBRANCH   4   5
ENDBRANCH   3   4
ENDBRANCH   2   3
ENDBRANCH   1   2
BRANCH   1  10
ATOM     10  C   UNL     1     -34.503  20.973 -31.643  1.00  0.00     0.000 C 
BRANCH  10  11
ATOM     11  C   UNL     1     -35.945  21.492 -31.796  1.00  0.00    -0.000 C 
BRANCH  11  12
ATOM     12  C   UNL     1     -37.033  20.403 -31.843  1.00  0.00    -0.000 C 
BRANCH  12  13
ATOM     13  C   UNL     1     -38.422  20.923 -31.444  1.00  0.00    -0.000 C 
BRANCH  13  14
ATOM     14  C   UNL     1     -38.684  20.699 -29.951  1.00  0.00    -0.000 C 
BRANCH  14  15
ATOM     15  C   UNL     1     -38.662  22.026 -29.182  1.00  0.00    -0.003 C 
ATOM     16  C   UNL     1     -37.237  22.420 -28.804  1.00  0.00     0.004 C 
ENDBRANCH  14  15
ENDBRANCH  13  14
ENDBRANCH  12  13
ENDBRANCH  11  12
ENDBRANCH  10  11
ENDBRANCH   1  10
TORSDOF 12
ENDMDL
MODEL 3
REMARK VINA RESULT:    -3.892      1.921      4.837
REMARK INTER + INTRA:          -8.624
REMARK INTER:                  -7.002
REMARK INTRA:                  -1.622
REMARK UNBOUND:                -2.002
REMARK SMILES CCCCCCCCCCCCCC(=O)[O-]
REMARK SMILES IDX 8 1 9 2 10 3 11 4 12 5 13 6 14 7 15 8 16 9 7 10 6 11 5 12
REMARK SMILES IDX 4 13 3 14 2 15 1 16
REMARK H PARENT
REMARK Flexibility Score: inf
ROOT
ATOM      1  C   UNL     1     -34.413  21.447 -31.079  1.00  0.00     0.000 C 
ENDROOT
BRANCH   1   2
ATOM      2  C   UNL     1     -35.820  21.976 -31.414  1.00  0.00     0.000 C 
BRANCH   2   3
ATOM      3  C   UNL     1     -36.741  20.976 -32.143  1.00  0.00     0.000 C 
BRANCH   3   4
ATOM      4  C   UNL     1     -38.003  20.558 -31.364  1.00  0.00     0.000 C 
BRANCH   4   5
ATOM      5  C   UNL     1     -38.085  21.096 -29.924  1.00  0.00     0.006 C 
BRANCH   5   6
ATOM      6  C   UNL     1     -39.461  20.873 -29.283  1.00  0.00     0.053 C 
BRANCH   6   7
ATOM      7  C   UNL     1     -39.538  19.508 -28.676  1.00  0.00     0.041 C 
ATOM      8  O   UNL     1     -38.489  18.921 -28.303  1.00  0.00    -0.550 OA
ATOM      9  O   UNL     1     -40.764  18.864 -28.566  1.00  0.00    -0.550 OA
ENDBRANCH   6   7
ENDBRANCH   5   6
ENDBRANCH   4   5
ENDBRANCH   3   4
ENDBRANCH   2   3
ENDBRANCH   1   2
BRANCH   1  10
ATOM     10  C   UNL     1     -34.277  21.000 -29.614  1.00  0.00     0.000 C 
BRANCH  10  11
ATOM     11  C   UNL     1     -34.175  19.471 -29.461  1.00  0.00    -0.000 C 
BRANCH  11  12
ATOM     12  C   UNL     1     -34.029  18.687 -30.778  1.00  0.00    -0.000 C 
BRANCH  12  13
ATOM     13  C   UNL     1     -34.796  17.356 -30.774  1.00  0.00    -0.000 C 
BRANCH  13  14
ATOM     14  C   UNL     1     -36.206  17.537 -30.200  1.00  0.00    -0.000 C 
BRANCH  14  15
ATOM     15  C   UNL     1     -37.174  16.499 -30.782  1.00  0.00    -0.003 C 
ATOM     16  C   UNL     1     -38.328  17.174 -31.517  1.00  0.00     0.004 C 
ENDBRANCH  14  15
ENDBRANCH  13  14
ENDBRANCH  12  13
ENDBRANCH  11  12
ENDBRANCH  10  11
ENDBRANCH   1  10
TORSDOF 12
ENDMDL
MODEL 4
REMARK VINA RESULT:    -3.891      1.837      3.764
REMARK INTER + INTRA:          -8.623
REMARK INTER:                  -6.957
REMARK INTRA:                  -1.666
REMARK UNBOUND:                -2.002
REMARK SMILES CCCCCCCCCCCCCC(=O)[O-]
REMARK SMILES IDX 8 1 9 2 10 3 11 4 12 5 13 6 14 7 15 8 16 9 7 10 6 11 5 12
REMARK SMILES IDX 4 13 3 14 2 15 1 16
REMARK H PARENT
REMARK Flexibility Score: inf
ROOT
ATOM      1  C   UNL     1     -34.870  19.932 -29.267  1.00  0.00     0.000 C 
ENDROOT
BRANCH   1   2
ATOM      2  C   UNL     1     -35.144  18.418 -29.336  1.00  0.00     0.000 C 
BRANCH   2   3
ATOM      3  C   UNL     1     -35.132  17.812 -30.754  1.00  0.00     0.000 C 
BRANCH   3   4
ATOM      4  C   UNL     1     -35.250  16.277 -30.813  1.00  0.00     0.000 C 
BRANCH   4   5
ATOM      5  C   UNL     1     -36.581  15.707 -30.289  1.00  0.00     0.006 C 
BRANCH   5   6
ATOM      6  C   UNL     1     -36.405  14.388 -29.528  1.00  0.00     0.053 C 
BRANCH   6   7
ATOM      7  C   UNL     1     -36.750  13.228 -30.406  1.00  0.00     0.041 C 
ATOM      8  O   UNL     1     -37.933  12.800 -30.455  1.00  0.00    -0.550 OA
ATOM      9  O   UNL     1     -35.756  12.588 -31.136  1.00  0.00    -0.550 OA
ENDBRANCH   6   7
ENDBRANCH   5   6
ENDBRANCH   4   5
ENDBRANCH   3   4
ENDBRANCH   2   3
ENDBRANCH   1   2
BRANCH   1  10
ATOM     10  C   UNL     1     -34.752  20.581 -30.657  1.00  0.00     0.000 C 
BRANCH  10  11
ATOM     11  C   UNL     1     -35.981  21.432 -31.027  1.00  0.00    -0.000 C 
BRANCH  11  12
ATOM     12  C   UNL     1     -36.804  20.915 -32.221  1.00  0.00    -0.000 C 
BRANCH  12  13
ATOM     13  C   UNL     1     -38.244  20.539 -31.841  1.00  0.00    -0.000 C 
BRANCH  13  14
ATOM     14  C   UNL     1     -38.357  19.043 -31.528  1.00  0.00    -0.000 C 
BRANCH  14  15
ATOM     15  C   UNL     1     -38.635  18.812 -30.038  1.00  0.00    -0.003 C 
ATOM     16  C   UNL     1     -39.105  20.095 -29.360  1.00  0.00     0.004 C 
ENDBRANCH  14  15
ENDBRANCH  13  14
ENDBRANCH  12  13
ENDBRANCH  11  12
ENDBRANCH  10  11
ENDBRANCH   1  10
TORSDOF 12
ENDMDL
MODEL 5
REMARK VINA RESULT:    -3.885      1.944      4.855
REMARK INTER + INTRA:          -8.612
REMARK INTER:                  -6.997
REMARK INTRA:                  -1.615
REMARK UNBOUND:                -2.002
REMARK SMILES CCCCCCCCCCCCCC(=O)[O-]
REMARK SMILES IDX 8 1 9 2 10 3 11 4 12 5 13 6 14 7 15 8 16 9 7 10 6 11 5 12
REMARK SMILES IDX 4 13 3 14 2 15 1 16
REMARK H PARENT
REMARK Flexibility Score: inf
ROOT
ATOM      1  C   UNL     1     -34.340  19.315 -30.539  1.00  0.00     0.000 C 
ENDROOT
BRANCH   1   2
ATOM      2  C   UNL     1     -33.908  19.889 -29.177  1.00  0.00     0.000 C 
BRANCH   2   3
ATOM      3  C   UNL     1     -34.182  21.394 -28.981  1.00  0.00     0.000 C 
BRANCH   3   4
ATOM      4  C   UNL     1     -35.668  21.777 -28.838  1.00  0.00     0.000 C 
BRANCH   4   5
ATOM      5  C   UNL     1     -36.325  22.319 -30.120  1.00  0.00     0.006 C 
BRANCH   5   6
ATOM      6  C   UNL     1     -37.603  21.562 -30.501  1.00  0.00     0.053 C 
BRANCH   6   7
ATOM      7  C   UNL     1     -37.444  20.908 -31.836  1.00  0.00     0.041 C 
ATOM      8  O   UNL     1     -38.181  19.940 -32.159  1.00  0.00    -0.550 OA
ATOM      9  O   UNL     1     -36.450  21.337 -32.707  1.00  0.00    -0.550 OA
ENDBRANCH   6   7
ENDBRANCH   5   6
ENDBRANCH   4   5
ENDBRANCH   3   4
ENDBRANCH   2   3
ENDBRANCH   1   2
BRANCH   1  10
ATOM     10  C   UNL     1     -34.657  17.811 -30.480  1.00  0.00     0.000 C 
BRANCH  10  11
ATOM     11  C   UNL     1     -36.149  17.504 -30.703  1.00  0.00    -0.000 C 
BRANCH  11  12
ATOM     12  C   UNL     1     -36.844  16.752 -29.553  1.00  0.00    -0.000 C 
BRANCH  12  13
ATOM     13  C   UNL     1     -36.877  17.553 -28.243  1.00  0.00    -0.000 C 
BRANCH  13  14
ATOM     14  C   UNL     1     -37.716  18.827 -28.400  1.00  0.00    -0.000 C 
BRANCH  14  15
ATOM     15  C   UNL     1     -39.074  18.517 -29.041  1.00  0.00    -0.003 C 
ATOM     16  C   UNL     1     -40.193  19.306 -28.368  1.00  0.00     0.004 C 
ENDBRANCH  14  15
ENDBRANCH  13  14
ENDBRANCH  12  13
ENDBRANCH  11  12
ENDBRANCH  10  11
ENDBRANCH   1  10
TORSDOF 12
ENDMDL
MODEL 6
REMARK VINA RESULT:    -3.869      3.124      5.638
REMARK INTER + INTRA:          -8.585
REMARK INTER:                  -6.711
REMARK INTRA:                  -1.874
REMARK UNBOUND:                -2.002
REMARK SMILES CCCCCCCCCCCCCC(=O)[O-]
REMARK SMILES IDX 8 1 9 2 10 3 11 4 12 5 13 6 14 7 15 8 16 9 7 10 6 11 5 12
REMARK SMILES IDX 4 13 3 14 2 15 1 16
REMARK H PARENT
REMARK Flexibility Score: inf
ROOT
ATOM      1  C   UNL     1     -34.899  21.165 -30.477  1.00  0.00     0.000 C 
ENDROOT
BRANCH   1   2
ATOM      2  C   UNL     1     -34.870  21.957 -29.156  1.00  0.00     0.000 C 
BRANCH   2   3
ATOM      3  C   UNL     1     -36.211  22.598 -28.745  1.00  0.00     0.000 C 
BRANCH   3   4
ATOM      4  C   UNL     1     -37.396  22.299 -29.684  1.00  0.00     0.000 C 
BRANCH   4   5
ATOM      5  C   UNL     1     -38.753  22.118 -28.979  1.00  0.00     0.006 C 
BRANCH   5   6
ATOM      6  C   UNL     1     -39.855  21.629 -29.927  1.00  0.00     0.053 C 
BRANCH   6   7
ATOM      7  C   UNL     1     -40.933  22.658 -30.048  1.00  0.00     0.041 C 
ATOM      8  O   UNL     1     -41.775  22.588 -30.982  1.00  0.00    -0.550 OA
ATOM      9  O   UNL     1     -40.981  23.724 -29.158  1.00  0.00    -0.550 OA
ENDBRANCH   6   7
ENDBRANCH   5   6
ENDBRANCH   4   5
ENDBRANCH   3   4
ENDBRANCH   2   3
ENDBRANCH   1   2
BRANCH   1  10
ATOM     10  C   UNL     1     -34.373  19.728 -30.323  1.00  0.00     0.000 C 
BRANCH  10  11
ATOM     11  C   UNL     1     -34.455  19.212 -28.874  1.00  0.00    -0.000 C 
BRANCH  11  12
ATOM     12  C   UNL     1     -35.613  18.238 -28.588  1.00  0.00    -0.000 C 
BRANCH  12  13
ATOM     13  C   UNL     1     -36.941  18.952 -28.301  1.00  0.00    -0.000 C 
BRANCH  13  14
ATOM     14  C   UNL     1     -38.080  18.349 -29.131  1.00  0.00    -0.000 C 
BRANCH  14  15
ATOM     15  C   UNL     1     -37.916  18.686 -30.618  1.00  0.00    -0.003 C 
ATOM     16  C   UNL     1     -38.382  17.530 -31.499  1.00  0.00     0.004 C 
ENDBRANCH  14  15
ENDBRANCH  13  14
ENDBRANCH  12  13
ENDBRANCH  11  12
ENDBRANCH  10  11
ENDBRANCH   1  10
TORSDOF 12
ENDMDL
MODEL 7
REMARK VINA RESULT:    -3.837     15.012     17.134
REMARK INTER + INTRA:          -8.530
REMARK INTER:                  -6.996
REMARK INTRA:                  -1.535
REMARK UNBOUND:                -2.002
REMARK SMILES CCCCCCCCCCCCCC(=O)[O-]
REMARK SMILES IDX 8 1 9 2 10 3 11 4 12 5 13 6 14 7 15 8 16 9 7 10 6 11 5 12
REMARK SMILES IDX 4 13 3 14 2 15 1 16
REMARK H PARENT
REMARK Flexibility Score: inf
ROOT
ATOM      1  C   UNL     1     -49.616  11.465 -31.055  1.00  0.00     0.000 C 
ENDROOT
BRANCH   1   2
ATOM      2  C   UNL     1     -49.278  11.159 -29.584  1.00  0.00     0.000 C 
BRANCH   2   3
ATOM      3  C   UNL     1     -47.830  10.697 -29.325  1.00  0.00     0.000 C 
BRANCH   3   4
ATOM      4  C   UNL     1     -47.555   9.208 -29.611  1.00  0.00     0.000 C 
BRANCH   4   5
ATOM      5  C   UNL     1     -46.588   8.939 -30.778  1.00  0.00     0.006 C 
BRANCH   5   6
ATOM      6  C   UNL     1     -47.305   8.457 -32.045  1.00  0.00     0.053 C 
BRANCH   6   7
ATOM      7  C   UNL     1     -47.248   6.965 -32.142  1.00  0.00     0.041 C 
ATOM      8  O   UNL     1     -47.048   6.271 -31.110  1.00  0.00    -0.550 OA
ATOM      9  O   UNL     1     -47.368   6.343 -33.377  1.00  0.00    -0.550 OA
ENDBRANCH   6   7
ENDBRANCH   5   6
ENDBRANCH   4   5
ENDBRANCH   3   4
ENDBRANCH   2   3
ENDBRANCH   1   2
BRANCH   1  10
ATOM     10  C   UNL     1     -50.773  10.606 -31.593  1.00  0.00     0.000 C 
BRANCH  10  11
ATOM     11  C   UNL     1     -51.151   9.450 -30.649  1.00  0.00    -0.000 C 
BRANCH  11  12
ATOM     12  C   UNL     1     -50.781   8.043 -31.152  1.00  0.00    -0.000 C 
BRANCH  12  13
ATOM     13  C   UNL     1     -50.988   7.871 -32.664  1.00  0.00    -0.000 C 
BRANCH  13  14
ATOM     14  C   UNL     1     -51.042   6.388 -33.047  1.00  0.00    -0.000 C 
BRANCH  14  15
ATOM     15  C   UNL     1     -52.371   6.044 -33.732  1.00  0.00    -0.003 C 
ATOM     16  C   UNL     1     -52.883   7.219 -34.560  1.00  0.00     0.004 C 
ENDBRANCH  14  15
ENDBRANCH  13  14
ENDBRANCH  12  13
ENDBRANCH  11  12
ENDBRANCH  10  11
ENDBRANCH   1  10
TORSDOF 12
ENDMDL
MODEL 8
REMARK VINA RESULT:    -3.770     13.785     15.057
REMARK INTER + INTRA:          -8.417
REMARK INTER:                  -7.034
REMARK INTRA:                  -1.383
REMARK UNBOUND:                -2.002
REMARK SMILES CCCCCCCCCCCCCC(=O)[O-]
REMARK SMILES IDX 8 1 9 2 10 3 11 4 12 5 13 6 14 7 15 8 16 9 7 10 6 11 5 12
REMARK SMILES IDX 4 13 3 14 2 15 1 16
REMARK H PARENT
REMARK Flexibility Score: inf
ROOT
ATOM      1  C   UNL     1     -50.389  13.355 -30.028  1.00  0.00     0.000 C 
ENDROOT
BRANCH   1   2
ATOM      2  C   UNL     1     -51.345  12.171 -30.264  1.00  0.00     0.000 C 
BRANCH   2   3
ATOM      3  C   UNL     1     -51.310  11.573 -31.686  1.00  0.00     0.000 C 
BRANCH   3   4
ATOM      4  C   UNL     1     -50.863  10.100 -31.767  1.00  0.00     0.000 C 
BRANCH   4   5
ATOM      5  C   UNL     1     -49.348   9.873 -31.619  1.00  0.00     0.006 C 
BRANCH   5   6
ATOM      6  C   UNL     1     -48.966   9.274 -30.260  1.00  0.00     0.053 C 
BRANCH   6   7
ATOM      7  C   UNL     1     -47.809  10.015 -29.670  1.00  0.00     0.041 C 
ATOM      8  O   UNL     1     -48.007  10.989 -28.897  1.00  0.00    -0.550 OA
ATOM      9  O   UNL     1     -46.509   9.662 -30.012  1.00  0.00    -0.550 OA
ENDBRANCH   6   7
ENDBRANCH   5   6
ENDBRANCH   4   5
ENDBRANCH   3   4
ENDBRANCH   2   3
ENDBRANCH   1   2
BRANCH   1  10
ATOM     10  C   UNL     1     -49.632  13.774 -31.299  1.00  0.00     0.000 C 
BRANCH  10  11
ATOM     11  C   UNL     1     -49.988  15.197 -31.767  1.00  0.00    -0.000 C 
BRANCH  11  12
ATOM     12  C   UNL     1     -51.282  15.780 -31.171  1.00  0.00    -0.000 C 
BRANCH  12  13
ATOM     13  C   UNL     1     -51.091  17.183 -30.575  1.00  0.00    -0.000 C 
BRANCH  13  14
ATOM     14  C   UNL     1     -52.083  17.436 -29.435  1.00  0.00    -0.000 C 
BRANCH  14  15
ATOM     15  C   UNL     1     -52.898  16.174 -29.124  1.00  0.00    -0.003 C 
ATOM     16  C   UNL     1     -52.571  15.637 -27.734  1.00  0.00     0.004 C 
ENDBRANCH  14  15
ENDBRANCH  13  14
ENDBRANCH  12  13
ENDBRANCH  11  12
ENDBRANCH  10  11
ENDBRANCH   1  10
TORSDOF 12
ENDMDL
MODEL 9
REMARK VINA RESULT:    -3.729     14.701     16.661
REMARK INTER + INTRA:          -8.347
REMARK INTER:                  -6.513
REMARK INTRA:                  -1.834
REMARK UNBOUND:                -2.002
REMARK SMILES CCCCCCCCCCCCCC(=O)[O-]
REMARK SMILES IDX 8 1 9 2 10 3 11 4 12 5 13 6 14 7 15 8 16 9 7 10 6 11 5 12
REMARK SMILES IDX 4 13 3 14 2 15 1 16
REMARK H PARENT
REMARK Flexibility Score: inf
ROOT
ATOM      1  C   UNL     1     -47.559   8.834 -29.820  1.00  0.00     0.000 C 
ENDROOT
BRANCH   1   2
ATOM      2  C   UNL     1     -47.764  10.232 -29.208  1.00  0.00     0.000 C 
BRANCH   2   3
ATOM      3  C   UNL     1     -49.184  10.814 -29.361  1.00  0.00     0.000 C 
BRANCH   3   4
ATOM      4  C   UNL     1     -49.304  12.007 -30.329  1.00  0.00     0.000 C 
BRANCH   4   5
ATOM      5  C   UNL     1     -50.700  12.205 -30.946  1.00  0.00     0.006 C 
BRANCH   5   6
ATOM      6  C   UNL     1     -51.831  12.037 -29.924  1.00  0.00     0.053 C 
BRANCH   6   7
ATOM      7  C   UNL     1     -52.408  13.368 -29.561  1.00  0.00     0.041 C 
ATOM      8  O   UNL     1     -53.655  13.546 -29.583  1.00  0.00    -0.550 OA
ATOM      9  O   UNL     1     -51.568  14.428 -29.245  1.00  0.00    -0.550 OA
ENDBRANCH   6   7
ENDBRANCH   5   6
ENDBRANCH   4   5
ENDBRANCH   3   4
ENDBRANCH   2   3
ENDBRANCH   1   2
BRANCH   1  10
ATOM     10  C   UNL     1     -46.867   8.880 -31.193  1.00  0.00     0.000 C 
BRANCH  10  11
ATOM     11  C   UNL     1     -47.278   7.713 -32.110  1.00  0.00    -0.000 C 
BRANCH  11  12
ATOM     12  C   UNL     1     -48.114   8.108 -33.342  1.00  0.00    -0.000 C 
BRANCH  12  13
ATOM     13  C   UNL     1     -49.139   9.212 -33.044  1.00  0.00    -0.000 C 
BRANCH  13  14
ATOM     14  C   UNL     1     -50.552   8.631 -32.920  1.00  0.00    -0.000 C 
BRANCH  14  15
ATOM     15  C   UNL     1     -51.000   8.580 -31.454  1.00  0.00    -0.003 C 
ATOM     16  C   UNL     1     -50.778   7.193 -30.859  1.00  0.00     0.004 C 
ENDBRANCH  14  15
ENDBRANCH  13  14
ENDBRANCH  12  13
ENDBRANCH  11  12
ENDBRANCH  10  11
ENDBRANCH   1  10
TORSDOF 12
ENDMDL
