MODEL 1
REMARK VINA RESULT:    -3.222      0.000      0.000
REMARK INTER + INTRA:          -7.166
REMARK INTER:                  -5.483
REMARK INTRA:                  -1.683
REMARK UNBOUND:                -1.683
REMARK SMILES CCCCCCCCCCCCCC(=O)[O-]
REMARK SMILES IDX 8 1 9 2 10 3 11 4 12 5 13 6 14 7 15 8 16 9 7 10 6 11 5 12
REMARK SMILES IDX 4 13 3 14 2 15 1 16
REMARK H PARENT
REMARK Flexibility Score: inf
ROOT
ATOM      1  C   UNL     1      58.271  29.745  51.160  1.00  0.00     0.000 C 
ENDROOT
BRANCH   1   2
ATOM      2  C   UNL     1      58.797  29.704  49.714  1.00  0.00     0.000 C 
BRANCH   2   3
ATOM      3  C   UNL     1      59.600  28.445  49.343  1.00  0.00     0.000 C 
BRANCH   3   4
ATOM      4  C   UNL     1      59.983  27.595  50.564  1.00  0.00     0.000 C 
BRANCH   4   5
ATOM      5  C   UNL     1      59.888  26.096  50.243  1.00  0.00     0.006 C 
BRANCH   5   6
ATOM      6  C   UNL     1      59.649  25.248  51.498  1.00  0.00     0.053 C 
BRANCH   6   7
ATOM      7  C   UNL     1      60.113  23.835  51.310  1.00  0.00     0.041 C 
ATOM      8  O   UNL     1      60.465  23.429  50.171  1.00  0.00    -0.550 OA
ATOM      9  O   UNL     1      60.128  22.959  52.388  1.00  0.00    -0.550 OA
ENDBRANCH   6   7
ENDBRANCH   5   6
ENDBRANCH   4   5
ENDBRANCH   3   4
ENDBRANCH   2   3
ENDBRANCH   1   2
BRANCH   1  10
ATOM     10  C   UNL     1      56.852  29.167  51.299  1.00  0.00     0.000 C 
BRANCH  10  11
ATOM     11  C   UNL     1      56.743  28.135  52.433  1.00  0.00    -0.000 C 
BRANCH  11  12
ATOM     12  C   UNL     1      56.270  26.758  51.940  1.00  0.00    -0.000 C 
BRANCH  12  13
ATOM     13  C   UNL     1      56.156  26.731  50.412  1.00  0.00    -0.000 C 
BRANCH  13  14
ATOM     14  C   UNL     1      54.730  26.371  49.972  1.00  0.00    -0.000 C 
BRANCH  14  15
ATOM     15  C   UNL     1      53.655  27.094  50.798  1.00  0.00    -0.003 C 
ATOM     16  C   UNL     1      53.347  28.496  50.269  1.00  0.00     0.004 C 
ENDBRANCH  14  15
ENDBRANCH  13  14
ENDBRANCH  12  13
ENDBRANCH  11  12
ENDBRANCH  10  11
ENDBRANCH   1  10
TORSDOF 12
ENDMDL
MODEL 2
REMARK VINA RESULT:    -3.168      1.575      2.511
REMARK INTER + INTRA:          -7.073
REMARK INTER:                  -5.544
REMARK INTRA:                  -1.530
REMARK UNBOUND:                -1.683
REMARK SMILES CCCCCCCCCCCCCC(=O)[O-]
REMARK SMILES IDX 8 1 9 2 10 3 11 4 12 5 13 6 14 7 15 8 16 9 7 10 6 11 5 12
REMARK SMILES IDX 4 13 3 14 2 15 1 16
REMARK H PARENT
REMARK Flexibility Score: inf
ROOT
ATOM      1  C   UNL     1      57.320  28.902  52.875  1.00  0.00     0.000 C 
ENDROOT
BRANCH   1   2
ATOM      2  C   UNL     1      57.746  29.912  51.795  1.00  0.00     0.000 C 
BRANCH   2   3
ATOM      3  C   UNL     1      57.870  29.338  50.372  1.00  0.00     0.000 C 
BRANCH   3   4
ATOM      4  C   UNL     1      59.327  29.182  49.912  1.00  0.00     0.000 C 
BRANCH   4   5
ATOM      5  C   UNL     1      59.663  27.707  49.642  1.00  0.00     0.006 C 
BRANCH   5   6
ATOM      6  C   UNL     1      59.987  26.941  50.931  1.00  0.00     0.053 C 
BRANCH   6   7
ATOM      7  C   UNL     1      59.201  25.669  51.033  1.00  0.00     0.041 C 
ATOM      8  O   UNL     1      59.706  24.579  50.658  1.00  0.00    -0.550 OA
ATOM      9  O   UNL     1      57.898  25.694  51.513  1.00  0.00    -0.550 OA
ENDBRANCH   6   7
ENDBRANCH   5   6
ENDBRANCH   4   5
ENDBRANCH   3   4
ENDBRANCH   2   3
ENDBRANCH   1   2
BRANCH   1  10
ATOM     10  C   UNL     1      55.876  29.117  53.362  1.00  0.00     0.000 C 
BRANCH  10  11
ATOM     11  C   UNL     1      55.256  30.413  52.814  1.00  0.00    -0.000 C 
BRANCH  11  12
ATOM     12  C   UNL     1      53.947  30.167  52.049  1.00  0.00    -0.000 C 
BRANCH  12  13
ATOM     13  C   UNL     1      54.227  29.708  50.613  1.00  0.00    -0.000 C 
BRANCH  13  14
ATOM     14  C   UNL     1      53.656  28.305  50.361  1.00  0.00    -0.000 C 
BRANCH  14  15
ATOM     15  C   UNL     1      54.741  27.217  50.362  1.00  0.00    -0.003 C 
ATOM     16  C   UNL     1      54.258  25.901  49.748  1.00  0.00     0.004 C 
ENDBRANCH  14  15
ENDBRANCH  13  14
ENDBRANCH  12  13
ENDBRANCH  11  12
ENDBRANCH  10  11
ENDBRANCH   1  10
TORSDOF 12
ENDMDL
MODEL 3
REMARK VINA RESULT:    -3.112      2.198      3.315
REMARK INTER + INTRA:          -6.978
REMARK INTER:                  -5.290
REMARK INTRA:                  -1.688
REMARK UNBOUND:                -1.683
REMARK SMILES CCCCCCCCCCCCCC(=O)[O-]
REMARK SMILES IDX 8 1 9 2 10 3 11 4 12 5 13 6 14 7 15 8 16 9 7 10 6 11 5 12
REMARK SMILES IDX 4 13 3 14 2 15 1 16
REMARK H PARENT
REMARK Flexibility Score: inf
ROOT
ATOM      1  C   UNL     1      57.092  28.284  52.964  1.00  0.00     0.000 C 
ENDROOT
BRANCH   1   2
ATOM      2  C   UNL     1      58.331  29.192  52.848  1.00  0.00     0.000 C 
BRANCH   2   3
ATOM      3  C   UNL     1      58.388  30.064  51.581  1.00  0.00     0.000 C 
BRANCH   3   4
ATOM      4  C   UNL     1      57.892  29.333  50.324  1.00  0.00     0.000 C 
BRANCH   4   5
ATOM      5  C   UNL     1      59.062  29.003  49.384  1.00  0.00     0.006 C 
BRANCH   5   6
ATOM      6  C   UNL     1      59.755  27.688  49.761  1.00  0.00     0.053 C 
BRANCH   6   7
ATOM      7  C   UNL     1      61.209  27.894  50.062  1.00  0.00     0.041 C 
ATOM      8  O   UNL     1      61.671  29.058  50.195  1.00  0.00    -0.550 OA
ATOM      9  O   UNL     1      62.059  26.801  50.164  1.00  0.00    -0.550 OA
ENDBRANCH   6   7
ENDBRANCH   5   6
ENDBRANCH   4   5
ENDBRANCH   3   4
ENDBRANCH   2   3
ENDBRANCH   1   2
BRANCH   1  10
ATOM     10  C   UNL     1      55.929  28.952  53.717  1.00  0.00     0.000 C 
BRANCH  10  11
ATOM     11  C   UNL     1      54.593  28.833  52.966  1.00  0.00    -0.000 C 
BRANCH  11  12
ATOM     12  C   UNL     1      54.487  29.809  51.785  1.00  0.00    -0.000 C 
BRANCH  12  13
ATOM     13  C   UNL     1      54.301  29.055  50.463  1.00  0.00    -0.000 C 
BRANCH  13  14
ATOM     14  C   UNL     1      53.360  27.854  50.642  1.00  0.00    -0.000 C 
BRANCH  14  15
ATOM     15  C   UNL     1      53.947  26.554  50.072  1.00  0.00    -0.003 C 
ATOM     16  C   UNL     1      55.465  26.470  50.234  1.00  0.00     0.004 C 
ENDBRANCH  14  15
ENDBRANCH  13  14
ENDBRANCH  12  13
ENDBRANCH  11  12
ENDBRANCH  10  11
ENDBRANCH   1  10
TORSDOF 12
ENDMDL
MODEL 4
REMARK VINA RESULT:    -3.077      1.297      4.185
REMARK INTER + INTRA:          -6.918
REMARK INTER:                  -5.142
REMARK INTRA:                  -1.776
REMARK UNBOUND:                -1.683
REMARK SMILES CCCCCCCCCCCCCC(=O)[O-]
REMARK SMILES IDX 8 1 9 2 10 3 11 4 12 5 13 6 14 7 15 8 16 9 7 10 6 11 5 12
REMARK SMILES IDX 4 13 3 14 2 15 1 16
REMARK H PARENT
REMARK Flexibility Score: inf
ROOT
ATOM      1  C   UNL     1      54.046  28.750  50.391  1.00  0.00     0.000 C 
ENDROOT
BRANCH   1   2
ATOM      2  C   UNL     1      53.560  27.290  50.342  1.00  0.00     0.000 C 
BRANCH   2   3
ATOM      3  C   UNL     1      54.604  26.266  49.862  1.00  0.00     0.000 C 
BRANCH   3   4
ATOM      4  C   UNL     1      56.027  26.588  50.345  1.00  0.00     0.000 C 
BRANCH   4   5
ATOM      5  C   UNL     1      56.290  25.973  51.728  1.00  0.00     0.006 C 
BRANCH   5   6
ATOM      6  C   UNL     1      57.729  26.212  52.204  1.00  0.00     0.053 C 
BRANCH   6   7
ATOM      7  C   UNL     1      58.586  24.999  52.011  1.00  0.00     0.041 C 
ATOM      8  O   UNL     1      58.566  24.066  52.856  1.00  0.00    -0.550 OA
ATOM      9  O   UNL     1      59.431  24.913  50.912  1.00  0.00    -0.550 OA
ENDBRANCH   6   7
ENDBRANCH   5   6
ENDBRANCH   4   5
ENDBRANCH   3   4
ENDBRANCH   2   3
ENDBRANCH   1   2
BRANCH   1  10
ATOM     10  C   UNL     1      53.884  29.389  51.781  1.00  0.00     0.000 C 
BRANCH  10  11
ATOM     11  C   UNL     1      55.229  29.598  52.495  1.00  0.00    -0.000 C 
BRANCH  11  12
ATOM     12  C   UNL     1      56.392  29.823  51.517  1.00  0.00    -0.000 C 
BRANCH  12  13
ATOM     13  C   UNL     1      57.741  29.750  52.241  1.00  0.00    -0.000 C 
BRANCH  13  14
ATOM     14  C   UNL     1      58.903  30.005  51.269  1.00  0.00    -0.000 C 
BRANCH  14  15
ATOM     15  C   UNL     1      58.615  29.485  49.853  1.00  0.00    -0.003 C 
ATOM     16  C   UNL     1      59.355  28.184  49.539  1.00  0.00     0.004 C 
ENDBRANCH  14  15
ENDBRANCH  13  14
ENDBRANCH  12  13
ENDBRANCH  11  12
ENDBRANCH  10  11
ENDBRANCH   1  10
TORSDOF 12
ENDMDL
MODEL 5
REMARK VINA RESULT:    -3.069      3.221      4.304
REMARK INTER + INTRA:          -6.905
REMARK INTER:                  -5.210
REMARK INTRA:                  -1.695
REMARK UNBOUND:                -1.683
REMARK SMILES CCCCCCCCCCCCCC(=O)[O-]
REMARK SMILES IDX 8 1 9 2 10 3 11 4 12 5 13 6 14 7 15 8 16 9 7 10 6 11 5 12
REMARK SMILES IDX 4 13 3 14 2 15 1 16
REMARK H PARENT
REMARK Flexibility Score: inf
ROOT
ATOM      1  C   UNL     1      58.717  26.257  51.074  1.00  0.00     0.000 C 
ENDROOT
BRANCH   1   2
ATOM      2  C   UNL     1      58.964  26.823  49.663  1.00  0.00     0.000 C 
BRANCH   2   3
ATOM      3  C   UNL     1      59.727  28.158  49.617  1.00  0.00     0.000 C 
BRANCH   3   4
ATOM      4  C   UNL     1      58.798  29.382  49.599  1.00  0.00     0.000 C 
BRANCH   4   5
ATOM      5  C   UNL     1      58.846  30.128  50.941  1.00  0.00     0.006 C 
BRANCH   5   6
ATOM      6  C   UNL     1      60.067  29.731  51.782  1.00  0.00     0.053 C 
BRANCH   6   7
ATOM      7  C   UNL     1      60.846  30.931  52.228  1.00  0.00     0.041 C 
ATOM      8  O   UNL     1      60.902  31.233  53.448  1.00  0.00    -0.550 OA
ATOM      9  O   UNL     1      61.485  31.732  51.290  1.00  0.00    -0.550 OA
ENDBRANCH   6   7
ENDBRANCH   5   6
ENDBRANCH   4   5
ENDBRANCH   3   4
ENDBRANCH   2   3
ENDBRANCH   1   2
BRANCH   1  10
ATOM     10  C   UNL     1      57.224  26.053  51.385  1.00  0.00     0.000 C 
BRANCH  10  11
ATOM     11  C   UNL     1      56.715  27.004  52.481  1.00  0.00    -0.000 C 
BRANCH  11  12
ATOM     12  C   UNL     1      56.041  28.261  51.910  1.00  0.00    -0.000 C 
BRANCH  12  13
ATOM     13  C   UNL     1      55.509  28.005  50.495  1.00  0.00    -0.000 C 
BRANCH  13  14
ATOM     14  C   UNL     1      53.999  28.275  50.416  1.00  0.00    -0.000 C 
BRANCH  14  15
ATOM     15  C   UNL     1      53.180  26.993  50.207  1.00  0.00    -0.003 C 
ATOM     16  C   UNL     1      53.991  25.873  49.553  1.00  0.00     0.004 C 
ENDBRANCH  14  15
ENDBRANCH  13  14
ENDBRANCH  12  13
ENDBRANCH  11  12
ENDBRANCH  10  11
ENDBRANCH   1  10
TORSDOF 12
ENDMDL
MODEL 6
REMARK VINA RESULT:    -3.053      2.673      5.135
REMARK INTER + INTRA:          -6.877
REMARK INTER:                  -5.184
REMARK INTRA:                  -1.693
REMARK UNBOUND:                -1.683
REMARK SMILES CCCCCCCCCCCCCC(=O)[O-]
REMARK SMILES IDX 8 1 9 2 10 3 11 4 12 5 13 6 14 7 15 8 16 9 7 10 6 11 5 12
REMARK SMILES IDX 4 13 3 14 2 15 1 16
REMARK H PARENT
REMARK Flexibility Score: inf
ROOT
ATOM      1  C   UNL     1      58.213  29.411  52.682  1.00  0.00     0.000 C 
ENDROOT
BRANCH   1   2
ATOM      2  C   UNL     1      56.871  30.165  52.651  1.00  0.00     0.000 C 
BRANCH   2   3
ATOM      3  C   UNL     1      55.620  29.274  52.567  1.00  0.00     0.000 C 
BRANCH   3   4
ATOM      4  C   UNL     1      54.967  29.283  51.176  1.00  0.00     0.000 C 
BRANCH   4   5
ATOM      5  C   UNL     1      55.211  27.953  50.446  1.00  0.00     0.006 C 
BRANCH   5   6
ATOM      6  C   UNL     1      53.902  27.215  50.134  1.00  0.00     0.053 C 
BRANCH   6   7
ATOM      7  C   UNL     1      53.882  25.844  50.738  1.00  0.00     0.041 C 
ATOM      8  O   UNL     1      53.302  24.898  50.144  1.00  0.00    -0.550 OA
ATOM      9  O   UNL     1      54.478  25.619  51.972  1.00  0.00    -0.550 OA
ENDBRANCH   6   7
ENDBRANCH   5   6
ENDBRANCH   4   5
ENDBRANCH   3   4
ENDBRANCH   2   3
ENDBRANCH   1   2
BRANCH   1  10
ATOM     10  C   UNL     1      59.173  29.850  51.562  1.00  0.00     0.000 C 
BRANCH  10  11
ATOM     11  C   UNL     1      58.549  29.713  50.164  1.00  0.00    -0.000 C 
BRANCH  11  12
ATOM     12  C   UNL     1      59.220  28.620  49.318  1.00  0.00    -0.000 C 
BRANCH  12  13
ATOM     13  C   UNL     1      60.378  27.967  50.082  1.00  0.00    -0.000 C 
BRANCH  13  14
ATOM     14  C   UNL     1      60.175  26.450  50.199  1.00  0.00    -0.000 C 
BRANCH  14  15
ATOM     15  C   UNL     1      59.551  26.037  51.540  1.00  0.00    -0.003 C 
ATOM     16  C   UNL     1      58.033  25.872  51.460  1.00  0.00     0.004 C 
ENDBRANCH  14  15
ENDBRANCH  13  14
ENDBRANCH  12  13
ENDBRANCH  11  12
ENDBRANCH  10  11
ENDBRANCH   1  10
TORSDOF 12
ENDMDL
MODEL 7
REMARK VINA RESULT:    -3.008      1.796      2.752
REMARK INTER + INTRA:          -6.802
REMARK INTER:                  -5.406
REMARK INTRA:                  -1.396
REMARK UNBOUND:                -1.683
REMARK SMILES CCCCCCCCCCCCCC(=O)[O-]
REMARK SMILES IDX 8 1 9 2 10 3 11 4 12 5 13 6 14 7 15 8 16 9 7 10 6 11 5 12
REMARK SMILES IDX 4 13 3 14 2 15 1 16
REMARK H PARENT
REMARK Flexibility Score: inf
ROOT
ATOM      1  C   UNL     1      57.673  27.586  50.429  1.00  0.00     0.000 C 
ENDROOT
BRANCH   1   2
ATOM      2  C   UNL     1      57.769  29.121  50.355  1.00  0.00     0.000 C 
BRANCH   2   3
ATOM      3  C   UNL     1      59.086  29.668  49.775  1.00  0.00     0.000 C 
BRANCH   3   4
ATOM      4  C   UNL     1      60.086  30.100  50.857  1.00  0.00     0.000 C 
BRANCH   4   5
ATOM      5  C   UNL     1      61.083  28.972  51.167  1.00  0.00     0.006 C 
BRANCH   5   6
ATOM      6  C   UNL     1      61.370  28.099  49.938  1.00  0.00     0.053 C 
BRANCH   6   7
ATOM      7  C   UNL     1      61.652  26.679  50.322  1.00  0.00     0.041 C 
ATOM      8  O   UNL     1      62.831  26.306  50.556  1.00  0.00    -0.550 OA
ATOM      9  O   UNL     1      60.614  25.758  50.389  1.00  0.00    -0.550 OA
ENDBRANCH   6   7
ENDBRANCH   5   6
ENDBRANCH   4   5
ENDBRANCH   3   4
ENDBRANCH   2   3
ENDBRANCH   1   2
BRANCH   1  10
ATOM     10  C   UNL     1      56.977  27.091  51.709  1.00  0.00     0.000 C 
BRANCH  10  11
ATOM     11  C   UNL     1      55.766  26.192  51.411  1.00  0.00    -0.000 C 
BRANCH  11  12
ATOM     12  C   UNL     1      54.878  26.745  50.285  1.00  0.00    -0.000 C 
BRANCH  12  13
ATOM     13  C   UNL     1      53.558  27.289  50.843  1.00  0.00    -0.000 C 
BRANCH  13  14
ATOM     14  C   UNL     1      53.241  28.673  50.258  1.00  0.00    -0.000 C 
BRANCH  14  15
ATOM     15  C   UNL     1      54.237  29.751  50.713  1.00  0.00    -0.003 C 
ATOM     16  C   UNL     1      54.412  29.790  52.232  1.00  0.00     0.004 C 
ENDBRANCH  14  15
ENDBRANCH  13  14
ENDBRANCH  12  13
ENDBRANCH  11  12
ENDBRANCH  10  11
ENDBRANCH   1  10
TORSDOF 12
ENDMDL
MODEL 8
REMARK VINA RESULT:    -2.995      1.593      3.045
REMARK INTER + INTRA:          -6.779
REMARK INTER:                  -5.108
REMARK INTRA:                  -1.671
REMARK UNBOUND:                -1.683
REMARK SMILES CCCCCCCCCCCCCC(=O)[O-]
REMARK SMILES IDX 8 1 9 2 10 3 11 4 12 5 13 6 14 7 15 8 16 9 7 10 6 11 5 12
REMARK SMILES IDX 4 13 3 14 2 15 1 16
REMARK H PARENT
REMARK Flexibility Score: inf
ROOT
ATOM      1  C   UNL     1      55.438  29.603  52.002  1.00  0.00     0.000 C 
ENDROOT
BRANCH   1   2
ATOM      2  C   UNL     1      56.931  29.834  51.706  1.00  0.00     0.000 C 
BRANCH   2   3
ATOM      3  C   UNL     1      57.403  29.367  50.317  1.00  0.00     0.000 C 
BRANCH   3   4
ATOM      4  C   UNL     1      58.893  29.643  50.065  1.00  0.00     0.000 C 
BRANCH   4   5
ATOM      5  C   UNL     1      59.622  28.364  49.623  1.00  0.00     0.006 C 
BRANCH   5   6
ATOM      6  C   UNL     1      60.646  27.891  50.663  1.00  0.00     0.053 C 
BRANCH   6   7
ATOM      7  C   UNL     1      61.005  26.449  50.471  1.00  0.00     0.041 C 
ATOM      8  O   UNL     1      62.210  26.086  50.500  1.00  0.00    -0.550 OA
ATOM      9  O   UNL     1      60.010  25.511  50.230  1.00  0.00    -0.550 OA
ENDBRANCH   6   7
ENDBRANCH   5   6
ENDBRANCH   4   5
ENDBRANCH   3   4
ENDBRANCH   2   3
ENDBRANCH   1   2
BRANCH   1  10
ATOM     10  C   UNL     1      54.563  29.643  50.738  1.00  0.00     0.000 C 
BRANCH  10  11
ATOM     11  C   UNL     1      53.955  28.272  50.398  1.00  0.00    -0.000 C 
BRANCH  11  12
ATOM     12  C   UNL     1      54.169  27.235  51.511  1.00  0.00    -0.000 C 
BRANCH  12  13
ATOM     13  C   UNL     1      54.888  25.992  50.974  1.00  0.00    -0.000 C 
BRANCH  13  14
ATOM     14  C   UNL     1      56.409  26.208  50.938  1.00  0.00    -0.000 C 
BRANCH  14  15
ATOM     15  C   UNL     1      57.117  25.637  52.175  1.00  0.00    -0.003 C 
ATOM     16  C   UNL     1      57.892  26.699  52.955  1.00  0.00     0.004 C 
ENDBRANCH  14  15
ENDBRANCH  13  14
ENDBRANCH  12  13
ENDBRANCH  11  12
ENDBRANCH  10  11
ENDBRANCH   1  10
TORSDOF 12
ENDMDL
MODEL 9
REMARK VINA RESULT:    -2.957      2.995      5.105
REMARK INTER + INTRA:          -6.715
REMARK INTER:                  -4.590
REMARK INTRA:                  -2.125
REMARK UNBOUND:                -1.683
REMARK SMILES CCCCCCCCCCCCCC(=O)[O-]
REMARK SMILES IDX 8 1 9 2 10 3 11 4 12 5 13 6 14 7 15 8 16 9 7 10 6 11 5 12
REMARK SMILES IDX 4 13 3 14 2 15 1 16
REMARK H PARENT
REMARK Flexibility Score: inf
ROOT
ATOM      1  C   UNL     1      61.208  26.811  50.352  1.00  0.00     0.000 C 
ENDROOT
BRANCH   1   2
ATOM      2  C   UNL     1      60.634  28.177  49.934  1.00  0.00     0.000 C 
BRANCH   2   3
ATOM      3  C   UNL     1      59.138  28.177  49.573  1.00  0.00     0.000 C 
BRANCH   3   4
ATOM      4  C   UNL     1      58.422  29.474  49.976  1.00  0.00     0.000 C 
BRANCH   4   5
ATOM      5  C   UNL     1      57.140  29.172  50.767  1.00  0.00     0.006 C 
BRANCH   5   6
ATOM      6  C   UNL     1      56.755  27.688  50.702  1.00  0.00     0.053 C 
BRANCH   6   7
ATOM      7  C   UNL     1      55.307  27.506  50.361  1.00  0.00     0.041 C 
ATOM      8  O   UNL     1      54.523  28.491  50.372  1.00  0.00    -0.550 OA
ATOM      9  O   UNL     1      54.819  26.241  50.060  1.00  0.00    -0.550 OA
ENDBRANCH   6   7
ENDBRANCH   5   6
ENDBRANCH   4   5
ENDBRANCH   3   4
ENDBRANCH   2   3
ENDBRANCH   1   2
BRANCH   1  10
ATOM     10  C   UNL     1      60.134  25.715  50.453  1.00  0.00     0.000 C 
BRANCH  10  11
ATOM     11  C   UNL     1      60.062  25.087  51.854  1.00  0.00    -0.000 C 
BRANCH  11  12
ATOM     12  C   UNL     1      58.621  24.944  52.368  1.00  0.00    -0.000 C 
BRANCH  12  13
ATOM     13  C   UNL     1      58.319  25.983  53.454  1.00  0.00    -0.000 C 
BRANCH  13  14
ATOM     14  C   UNL     1      59.570  26.809  53.789  1.00  0.00    -0.000 C 
BRANCH  14  15
ATOM     15  C   UNL     1      59.345  28.319  53.617  1.00  0.00    -0.003 C 
ATOM     16  C   UNL     1      60.653  29.100  53.485  1.00  0.00     0.004 C 
ENDBRANCH  14  15
ENDBRANCH  13  14
ENDBRANCH  12  13
ENDBRANCH  11  12
ENDBRANCH  10  11
ENDBRANCH   1  10
TORSDOF 12
ENDMDL
