MODEL 1
REMARK VINA RESULT:    -3.453      0.000      0.000
REMARK INTER + INTRA:         -14.480
REMARK INTER:                  -9.106
REMARK INTRA:                  -5.374
REMARK UNBOUND:                -5.374
REMARK SMILES CCCCCCCCCCCCCCCCCCCCCCCCCCCCCC(=O)[O-]
REMARK SMILES IDX 16 1 17 2 18 3 19 4 20 5 21 6 22 7 23 8 24 9 25 10 26 11
REMARK SMILES IDX 27 12 28 13 29 14 30 15 31 16 32 17 15 18 14 19 13 20 12 21
REMARK SMILES IDX 11 22 10 23 9 24 8 25 7 26 6 27 5 28 4 29 3 30 2 31 1 32
REMARK H PARENT
REMARK Flexibility Score: inf
ROOT
ATOM      1  C   UNL     1       0.050  -1.011   7.982  1.00  0.00     0.000 C 
ENDROOT
BRANCH   1   2
ATOM      2  C   UNL     1       1.379  -0.839   8.747  1.00  0.00     0.000 C 
BRANCH   2   3
ATOM      3  C   UNL     1       2.033  -2.189   9.093  1.00  0.00     0.000 C 
BRANCH   3   4
ATOM      4  C   UNL     1       3.348  -2.030   9.878  1.00  0.00     0.000 C 
BRANCH   4   5
ATOM      5  C   UNL     1       3.451  -0.743  10.724  1.00  0.00     0.000 C 
BRANCH   5   6
ATOM      6  C   UNL     1       4.449   0.306  10.198  1.00  0.00     0.000 C 
BRANCH   6   7
ATOM      7  C   UNL     1       4.097   1.767  10.537  1.00  0.00     0.000 C 
BRANCH   7   8
ATOM      8  C   UNL     1       3.226   2.464   9.469  1.00  0.00     0.000 C 
BRANCH   8   9
ATOM      9  C   UNL     1       3.746   2.242   8.040  1.00  0.00     0.000 C 
BRANCH   9  10
ATOM     10  C   UNL     1       4.692   3.372   7.576  1.00  0.00     0.000 C 
BRANCH  10  11
ATOM     11  C   UNL     1       4.148   4.785   7.859  1.00  0.00     0.000 C 
BRANCH  11  12
ATOM     12  C   UNL     1       3.014   5.240   6.922  1.00  0.00     0.000 C 
BRANCH  12  13
ATOM     13  C   UNL     1       1.628   5.353   7.583  1.00  0.00     0.006 C 
BRANCH  13  14
ATOM     14  C   UNL     1       0.476   4.987   6.635  1.00  0.00     0.053 C 
BRANCH  14  15
ATOM     15  C   UNL     1      -0.122   6.211   6.010  1.00  0.00     0.041 C 
ATOM     16  O   UNL     1      -0.877   6.111   5.004  1.00  0.00    -0.550 OA
ATOM     17  O   UNL     1       0.166   7.466   6.532  1.00  0.00    -0.550 OA
ENDBRANCH  14  15
ENDBRANCH  13  14
ENDBRANCH  12  13
ENDBRANCH  11  12
ENDBRANCH  10  11
ENDBRANCH   9  10
ENDBRANCH   8   9
ENDBRANCH   7   8
ENDBRANCH   6   7
ENDBRANCH   5   6
ENDBRANCH   4   5
ENDBRANCH   3   4
ENDBRANCH   2   3
ENDBRANCH   1   2
BRANCH   1  18
ATOM     18  C   UNL     1      -0.635   0.319   7.618  1.00  0.00     0.000 C 
BRANCH  18  19
ATOM     19  C   UNL     1       0.123   1.546   8.143  1.00  0.00     0.000 C 
BRANCH  19  20
ATOM     20  C   UNL     1      -0.713   2.326   9.164  1.00  0.00     0.000 C 
BRANCH  20  21
ATOM     21  C   UNL     1      -0.210   2.062  10.593  1.00  0.00     0.000 C 
BRANCH  21  22
ATOM     22  C   UNL     1      -1.129   1.116  11.378  1.00  0.00     0.000 C 
BRANCH  22  23
ATOM     23  C   UNL     1      -0.431  -0.201  11.763  1.00  0.00     0.000 C 
BRANCH  23  24
ATOM     24  C   UNL     1      -1.235  -1.437  11.327  1.00  0.00    -0.000 C 
BRANCH  24  25
ATOM     25  C   UNL     1      -2.655  -1.075  10.855  1.00  0.00    -0.000 C 
BRANCH  25  26
ATOM     26  C   UNL     1      -3.092  -1.881   9.614  1.00  0.00    -0.000 C 
BRANCH  26  27
ATOM     27  C   UNL     1      -4.246  -1.235   8.821  1.00  0.00    -0.000 C 
BRANCH  27  28
ATOM     28  C   UNL     1      -4.070   0.264   8.511  1.00  0.00    -0.000 C 
BRANCH  28  29
ATOM     29  C   UNL     1      -4.975   1.210   9.327  1.00  0.00    -0.000 C 
BRANCH  29  30
ATOM     30  C   UNL     1      -4.271   2.455   9.906  1.00  0.00    -0.000 C 
BRANCH  30  31
ATOM     31  C   UNL     1      -4.859   3.800   9.445  1.00  0.00    -0.003 C 
ATOM     32  C   UNL     1      -6.242   3.657   8.811  1.00  0.00     0.004 C 
ENDBRANCH  30  31
ENDBRANCH  29  30
ENDBRANCH  28  29
ENDBRANCH  27  28
ENDBRANCH  26  27
ENDBRANCH  25  26
ENDBRANCH  24  25
ENDBRANCH  23  24
ENDBRANCH  22  23
ENDBRANCH  21  22
ENDBRANCH  20  21
ENDBRANCH  19  20
ENDBRANCH  18  19
ENDBRANCH   1  18
TORSDOF 28
ENDMDL
MODEL 2
REMARK VINA RESULT:    -3.444      4.801      9.512
REMARK INTER + INTRA:         -14.456
REMARK INTER:                 -11.138
REMARK INTRA:                  -3.318
REMARK UNBOUND:                -5.374
REMARK SMILES CCCCCCCCCCCCCCCCCCCCCCCCCCCCCC(=O)[O-]
REMARK SMILES IDX 16 1 17 2 18 3 19 4 20 5 21 6 22 7 23 8 24 9 25 10 26 11
REMARK SMILES IDX 27 12 28 13 29 14 30 15 31 16 32 17 15 18 14 19 13 20 12 21
REMARK SMILES IDX 11 22 10 23 9 24 8 25 7 26 6 27 5 28 4 29 3 30 2 31 1 32
REMARK H PARENT
REMARK Flexibility Score: inf
ROOT
ATOM      1  C   UNL     1      -0.183  -1.623   8.130  1.00  0.00     0.000 C 
ENDROOT
BRANCH   1   2
ATOM      2  C   UNL     1      -0.112  -0.174   7.603  1.00  0.00     0.000 C 
BRANCH   2   3
ATOM      3  C   UNL     1      -1.199   0.726   8.217  1.00  0.00     0.000 C 
BRANCH   3   4
ATOM      4  C   UNL     1      -2.256  -0.069   9.005  1.00  0.00     0.000 C 
BRANCH   4   5
ATOM      5  C   UNL     1      -3.654  -0.120   8.352  1.00  0.00     0.000 C 
BRANCH   5   6
ATOM      6  C   UNL     1      -4.540  -1.300   8.795  1.00  0.00     0.000 C 
BRANCH   6   7
ATOM      7  C   UNL     1      -3.842  -2.336   9.696  1.00  0.00     0.000 C 
BRANCH   7   8
ATOM      8  C   UNL     1      -4.292  -3.791   9.438  1.00  0.00     0.000 C 
BRANCH   8   9
ATOM      9  C   UNL     1      -5.371  -3.897   8.349  1.00  0.00     0.000 C 
BRANCH   9  10
ATOM     10  C   UNL     1      -6.436  -4.967   8.678  1.00  0.00     0.000 C 
BRANCH  10  11
ATOM     11  C   UNL     1      -7.444  -5.202   7.538  1.00  0.00     0.000 C 
BRANCH  11  12
ATOM     12  C   UNL     1      -6.884  -5.978   6.332  1.00  0.00     0.000 C 
BRANCH  12  13
ATOM     13  C   UNL     1      -6.560  -5.117   5.096  1.00  0.00     0.006 C 
BRANCH  13  14
ATOM     14  C   UNL     1      -7.796  -4.795   4.244  1.00  0.00     0.053 C 
BRANCH  14  15
ATOM     15  C   UNL     1      -8.454  -6.047   3.748  1.00  0.00     0.041 C 
ATOM     16  O   UNL     1      -7.873  -6.782   2.902  1.00  0.00    -0.550 OA
ATOM     17  O   UNL     1      -9.718  -6.394   4.208  1.00  0.00    -0.550 OA
ENDBRANCH  14  15
ENDBRANCH  13  14
ENDBRANCH  12  13
ENDBRANCH  11  12
ENDBRANCH  10  11
ENDBRANCH   9  10
ENDBRANCH   8   9
ENDBRANCH   7   8
ENDBRANCH   6   7
ENDBRANCH   5   6
ENDBRANCH   4   5
ENDBRANCH   3   4
ENDBRANCH   2   3
ENDBRANCH   1   2
BRANCH   1  18
ATOM     18  C   UNL     1       1.153  -2.149   8.683  1.00  0.00     0.000 C 
BRANCH  18  19
ATOM     19  C   UNL     1       1.686  -1.316   9.857  1.00  0.00     0.000 C 
BRANCH  19  20
ATOM     20  C   UNL     1       3.031  -0.664   9.518  1.00  0.00     0.000 C 
BRANCH  20  21
ATOM     21  C   UNL     1       2.875   0.860   9.378  1.00  0.00     0.000 C 
BRANCH  21  22
ATOM     22  C   UNL     1       4.155   1.621   9.749  1.00  0.00     0.000 C 
BRANCH  22  23
ATOM     23  C   UNL     1       5.270   1.447   8.702  1.00  0.00     0.000 C 
BRANCH  23  24
ATOM     24  C   UNL     1       5.120   2.421   7.522  1.00  0.00    -0.000 C 
BRANCH  24  25
ATOM     25  C   UNL     1       5.226   3.893   7.960  1.00  0.00    -0.000 C 
BRANCH  25  26
ATOM     26  C   UNL     1       4.025   4.741   7.493  1.00  0.00    -0.000 C 
BRANCH  26  27
ATOM     27  C   UNL     1       3.046   3.987   6.571  1.00  0.00    -0.000 C 
BRANCH  27  28
ATOM     28  C   UNL     1       1.659   3.703   7.179  1.00  0.00    -0.000 C 
BRANCH  28  29
ATOM     29  C   UNL     1       1.509   4.081   8.668  1.00  0.00    -0.000 C 
BRANCH  29  30
ATOM     30  C   UNL     1       0.442   5.154   8.968  1.00  0.00    -0.000 C 
BRANCH  30  31
ATOM     31  C   UNL     1      -1.012   4.688   8.769  1.00  0.00    -0.003 C 
ATOM     32  C   UNL     1      -1.575   3.962   9.991  1.00  0.00     0.004 C 
ENDBRANCH  30  31
ENDBRANCH  29  30
ENDBRANCH  28  29
ENDBRANCH  27  28
ENDBRANCH  26  27
ENDBRANCH  25  26
ENDBRANCH  24  25
ENDBRANCH  23  24
ENDBRANCH  22  23
ENDBRANCH  21  22
ENDBRANCH  20  21
ENDBRANCH  19  20
ENDBRANCH  18  19
ENDBRANCH   1  18
TORSDOF 28
ENDMDL
MODEL 3
REMARK VINA RESULT:    -3.437      6.463     10.121
REMARK INTER + INTRA:         -14.438
REMARK INTER:                  -9.934
REMARK INTRA:                  -4.504
REMARK UNBOUND:                -5.374
REMARK SMILES CCCCCCCCCCCCCCCCCCCCCCCCCCCCCC(=O)[O-]
REMARK SMILES IDX 16 1 17 2 18 3 19 4 20 5 21 6 22 7 23 8 24 9 25 10 26 11
REMARK SMILES IDX 27 12 28 13 29 14 30 15 31 16 32 17 15 18 14 19 13 20 12 21
REMARK SMILES IDX 11 22 10 23 9 24 8 25 7 26 6 27 5 28 4 29 3 30 2 31 1 32
REMARK H PARENT
REMARK Flexibility Score: inf
ROOT
ATOM      1  C   UNL     1      -5.865  -4.037   8.699  1.00  0.00     0.000 C 
ENDROOT
BRANCH   1   2
ATOM      2  C   UNL     1      -4.425  -4.192   9.232  1.00  0.00     0.000 C 
BRANCH   2   3
ATOM      3  C   UNL     1      -3.753  -2.834   9.502  1.00  0.00     0.000 C 
BRANCH   3   4
ATOM      4  C   UNL     1      -4.711  -1.644   9.307  1.00  0.00     0.000 C 
BRANCH   4   5
ATOM      5  C   UNL     1      -4.158  -0.498   8.435  1.00  0.00     0.000 C 
BRANCH   5   6
ATOM      6  C   UNL     1      -2.914   0.214   9.002  1.00  0.00     0.000 C 
BRANCH   6   7
ATOM      7  C   UNL     1      -1.747   0.376   8.009  1.00  0.00     0.000 C 
BRANCH   7   8
ATOM      8  C   UNL     1      -0.360   0.093   8.627  1.00  0.00     0.000 C 
BRANCH   8   9
ATOM      9  C   UNL     1       0.309  -1.159   8.040  1.00  0.00     0.000 C 
BRANCH   9  10
ATOM     10  C   UNL     1      -0.233  -2.463   8.666  1.00  0.00     0.000 C 
BRANCH  10  11
ATOM     11  C   UNL     1       0.204  -3.735   7.914  1.00  0.00     0.000 C 
BRANCH  11  12
ATOM     12  C   UNL     1      -0.790  -4.908   7.998  1.00  0.00     0.000 C 
BRANCH  12  13
ATOM     13  C   UNL     1      -0.465  -6.104   7.084  1.00  0.00     0.006 C 
BRANCH  13  14
ATOM     14  C   UNL     1      -1.709  -6.712   6.420  1.00  0.00     0.053 C 
BRANCH  14  15
ATOM     15  C   UNL     1      -1.610  -6.654   4.925  1.00  0.00     0.041 C 
ATOM     16  O   UNL     1      -2.602  -6.297   4.233  1.00  0.00    -0.550 OA
ATOM     17  O   UNL     1      -0.423  -7.009   4.296  1.00  0.00    -0.550 OA
ENDBRANCH  14  15
ENDBRANCH  13  14
ENDBRANCH  12  13
ENDBRANCH  11  12
ENDBRANCH  10  11
ENDBRANCH   9  10
ENDBRANCH   8   9
ENDBRANCH   7   8
ENDBRANCH   6   7
ENDBRANCH   5   6
ENDBRANCH   4   5
ENDBRANCH   3   4
ENDBRANCH   2   3
ENDBRANCH   1   2
BRANCH   1  18
ATOM     18  C   UNL     1      -6.792  -5.211   9.061  1.00  0.00     0.000 C 
BRANCH  18  19
ATOM     19  C   UNL     1      -8.280  -4.836   9.013  1.00  0.00     0.000 C 
BRANCH  19  20
ATOM     20  C   UNL     1      -9.128  -5.981   8.447  1.00  0.00     0.000 C 
BRANCH  20  21
ATOM     21  C   UNL     1     -10.261  -5.431   7.563  1.00  0.00     0.000 C 
BRANCH  21  22
ATOM     22  C   UNL     1     -10.760  -6.457   6.536  1.00  0.00     0.000 C 
BRANCH  22  23
ATOM     23  C   UNL     1      -9.813  -7.663   6.398  1.00  0.00     0.000 C 
BRANCH  23  24
ATOM     24  C   UNL     1      -9.407  -7.922   4.938  1.00  0.00    -0.000 C 
BRANCH  24  25
ATOM     25  C   UNL     1      -9.777  -6.751   4.011  1.00  0.00    -0.000 C 
BRANCH  25  26
ATOM     26  C   UNL     1      -8.545  -6.122   3.326  1.00  0.00    -0.000 C 
BRANCH  26  27
ATOM     27  C   UNL     1      -8.068  -4.808   3.978  1.00  0.00    -0.000 C 
BRANCH  27  28
ATOM     28  C   UNL     1      -7.304  -4.975   5.305  1.00  0.00    -0.000 C 
BRANCH  28  29
ATOM     29  C   UNL     1      -5.978  -5.759   5.202  1.00  0.00    -0.000 C 
BRANCH  29  30
ATOM     30  C   UNL     1      -5.813  -6.906   6.219  1.00  0.00    -0.000 C 
BRANCH  30  31
ATOM     31  C   UNL     1      -5.290  -8.225   5.623  1.00  0.00    -0.003 C 
ATOM     32  C   UNL     1      -5.847  -8.509   4.229  1.00  0.00     0.004 C 
ENDBRANCH  30  31
ENDBRANCH  29  30
ENDBRANCH  28  29
ENDBRANCH  27  28
ENDBRANCH  26  27
ENDBRANCH  25  26
ENDBRANCH  24  25
ENDBRANCH  23  24
ENDBRANCH  22  23
ENDBRANCH  21  22
ENDBRANCH  20  21
ENDBRANCH  19  20
ENDBRANCH  18  19
ENDBRANCH   1  18
TORSDOF 28
ENDMDL
MODEL 4
REMARK VINA RESULT:    -3.356      2.143      2.638
REMARK INTER + INTRA:         -14.223
REMARK INTER:                  -9.068
REMARK INTRA:                  -5.156
REMARK UNBOUND:                -5.374
REMARK SMILES CCCCCCCCCCCCCCCCCCCCCCCCCCCCCC(=O)[O-]
REMARK SMILES IDX 16 1 17 2 18 3 19 4 20 5 21 6 22 7 23 8 24 9 25 10 26 11
REMARK SMILES IDX 27 12 28 13 29 14 30 15 31 16 32 17 15 18 14 19 13 20 12 21
REMARK SMILES IDX 11 22 10 23 9 24 8 25 7 26 6 27 5 28 4 29 3 30 2 31 1 32
REMARK H PARENT
REMARK Flexibility Score: inf
ROOT
ATOM      1  C   UNL     1       0.056  -1.393   7.969  1.00  0.00     0.000 C 
ENDROOT
BRANCH   1   2
ATOM      2  C   UNL     1       1.409  -1.339   8.708  1.00  0.00     0.000 C 
BRANCH   2   3
ATOM      3  C   UNL     1       1.925  -2.738   9.088  1.00  0.00     0.000 C 
BRANCH   3   4
ATOM      4  C   UNL     1       3.256  -2.694   9.862  1.00  0.00     0.000 C 
BRANCH   4   5
ATOM      5  C   UNL     1       3.581  -1.337  10.521  1.00  0.00     0.000 C 
BRANCH   5   6
ATOM      6  C   UNL     1       4.631  -0.486   9.782  1.00  0.00     0.000 C 
BRANCH   6   7
ATOM      7  C   UNL     1       4.580   1.023  10.088  1.00  0.00     0.000 C 
BRANCH   7   8
ATOM      8  C   UNL     1       3.766   1.840   9.061  1.00  0.00     0.000 C 
BRANCH   8   9
ATOM      9  C   UNL     1       3.875   3.357   9.286  1.00  0.00     0.000 C 
BRANCH   9  10
ATOM     10  C   UNL     1       2.648   4.121   8.743  1.00  0.00     0.000 C 
BRANCH  10  11
ATOM     11  C   UNL     1       2.416   3.920   7.233  1.00  0.00     0.000 C 
BRANCH  11  12
ATOM     12  C   UNL     1       3.587   4.363   6.336  1.00  0.00     0.000 C 
BRANCH  12  13
ATOM     13  C   UNL     1       3.983   5.846   6.467  1.00  0.00     0.006 C 
BRANCH  13  14
ATOM     14  C   UNL     1       5.484   6.090   6.254  1.00  0.00     0.053 C 
BRANCH  14  15
ATOM     15  C   UNL     1       6.296   5.465   7.347  1.00  0.00     0.041 C 
ATOM     16  O   UNL     1       7.062   4.493   7.099  1.00  0.00    -0.550 OA
ATOM     17  O   UNL     1       6.195   5.947   8.647  1.00  0.00    -0.550 OA
ENDBRANCH  14  15
ENDBRANCH  13  14
ENDBRANCH  12  13
ENDBRANCH  11  12
ENDBRANCH  10  11
ENDBRANCH   9  10
ENDBRANCH   8   9
ENDBRANCH   7   8
ENDBRANCH   6   7
ENDBRANCH   5   6
ENDBRANCH   4   5
ENDBRANCH   3   4
ENDBRANCH   2   3
ENDBRANCH   1   2
BRANCH   1  18
ATOM     18  C   UNL     1      -0.498  -0.010   7.583  1.00  0.00     0.000 C 
BRANCH  18  19
ATOM     19  C   UNL     1       0.318   1.148   8.174  1.00  0.00     0.000 C 
BRANCH  19  20
ATOM     20  C   UNL     1      -0.487   1.924   9.222  1.00  0.00     0.000 C 
BRANCH  20  21
ATOM     21  C   UNL     1       0.038   1.628  10.637  1.00  0.00     0.000 C 
BRANCH  21  22
ATOM     22  C   UNL     1      -0.916   0.739  11.448  1.00  0.00     0.000 C 
BRANCH  22  23
ATOM     23  C   UNL     1      -0.343  -0.669  11.694  1.00  0.00     0.000 C 
BRANCH  23  24
ATOM     24  C   UNL     1      -1.315  -1.778  11.259  1.00  0.00    -0.000 C 
BRANCH  24  25
ATOM     25  C   UNL     1      -2.687  -1.221  10.835  1.00  0.00    -0.000 C 
BRANCH  25  26
ATOM     26  C   UNL     1      -3.261  -1.939   9.595  1.00  0.00    -0.000 C 
BRANCH  26  27
ATOM     27  C   UNL     1      -4.183  -1.056   8.730  1.00  0.00    -0.000 C 
BRANCH  27  28
ATOM     28  C   UNL     1      -3.814   0.439   8.696  1.00  0.00    -0.000 C 
BRANCH  28  29
ATOM     29  C   UNL     1      -4.742   1.361   9.515  1.00  0.00    -0.000 C 
BRANCH  29  30
ATOM     30  C   UNL     1      -4.053   2.581  10.159  1.00  0.00    -0.000 C 
BRANCH  30  31
ATOM     31  C   UNL     1      -4.311   3.919   9.443  1.00  0.00    -0.003 C 
ATOM     32  C   UNL     1      -3.056   4.783   9.329  1.00  0.00     0.004 C 
ENDBRANCH  30  31
ENDBRANCH  29  30
ENDBRANCH  28  29
ENDBRANCH  27  28
ENDBRANCH  26  27
ENDBRANCH  25  26
ENDBRANCH  24  25
ENDBRANCH  23  24
ENDBRANCH  22  23
ENDBRANCH  21  22
ENDBRANCH  20  21
ENDBRANCH  19  20
ENDBRANCH  18  19
ENDBRANCH   1  18
TORSDOF 28
ENDMDL
MODEL 5
REMARK VINA RESULT:    -3.350      3.883      8.824
REMARK INTER + INTRA:         -14.208
REMARK INTER:                 -10.576
REMARK INTRA:                  -3.633
REMARK UNBOUND:                -5.374
REMARK SMILES CCCCCCCCCCCCCCCCCCCCCCCCCCCCCC(=O)[O-]
REMARK SMILES IDX 16 1 17 2 18 3 19 4 20 5 21 6 22 7 23 8 24 9 25 10 26 11
REMARK SMILES IDX 27 12 28 13 29 14 30 15 31 16 32 17 15 18 14 19 13 20 12 21
REMARK SMILES IDX 11 22 10 23 9 24 8 25 7 26 6 27 5 28 4 29 3 30 2 31 1 32
REMARK H PARENT
REMARK Flexibility Score: inf
ROOT
ATOM      1  C   UNL     1      -0.252  -0.048   7.600  1.00  0.00     0.000 C 
ENDROOT
BRANCH   1   2
ATOM      2  C   UNL     1       0.186   1.318   8.171  1.00  0.00     0.000 C 
BRANCH   2   3
ATOM      3  C   UNL     1      -0.485   1.631   9.520  1.00  0.00     0.000 C 
BRANCH   3   4
ATOM      4  C   UNL     1      -1.583   2.704   9.405  1.00  0.00     0.000 C 
BRANCH   4   5
ATOM      5  C   UNL     1      -2.932   2.329  10.054  1.00  0.00     0.000 C 
BRANCH   5   6
ATOM      6  C   UNL     1      -3.303   0.835   9.974  1.00  0.00     0.000 C 
BRANCH   6   7
ATOM      7  C   UNL     1      -3.856   0.373   8.613  1.00  0.00     0.000 C 
BRANCH   7   8
ATOM      8  C   UNL     1      -4.468  -1.045   8.637  1.00  0.00     0.000 C 
BRANCH   8   9
ATOM      9  C   UNL     1      -3.634  -2.040   9.458  1.00  0.00     0.000 C 
BRANCH   9  10
ATOM     10  C   UNL     1      -4.265  -3.450   9.491  1.00  0.00     0.000 C 
BRANCH  10  11
ATOM     11  C   UNL     1      -5.805  -3.434   9.533  1.00  0.00     0.000 C 
BRANCH  11  12
ATOM     12  C   UNL     1      -6.484  -4.522   8.682  1.00  0.00     0.000 C 
BRANCH  12  13
ATOM     13  C   UNL     1      -5.671  -4.999   7.463  1.00  0.00     0.006 C 
BRANCH  13  14
ATOM     14  C   UNL     1      -6.361  -6.127   6.683  1.00  0.00     0.053 C 
BRANCH  14  15
ATOM     15  C   UNL     1      -6.314  -5.873   5.206  1.00  0.00     0.041 C 
ATOM     16  O   UNL     1      -5.622  -6.613   4.453  1.00  0.00    -0.550 OA
ATOM     17  O   UNL     1      -7.023  -4.808   4.664  1.00  0.00    -0.550 OA
ENDBRANCH  14  15
ENDBRANCH  13  14
ENDBRANCH  12  13
ENDBRANCH  11  12
ENDBRANCH  10  11
ENDBRANCH   9  10
ENDBRANCH   8   9
ENDBRANCH   7   8
ENDBRANCH   6   7
ENDBRANCH   5   6
ENDBRANCH   4   5
ENDBRANCH   3   4
ENDBRANCH   2   3
ENDBRANCH   1   2
BRANCH   1  18
ATOM     18  C   UNL     1      -0.359  -1.159   8.659  1.00  0.00     0.000 C 
BRANCH  18  19
ATOM     19  C   UNL     1       0.537  -2.367   8.352  1.00  0.00     0.000 C 
BRANCH  19  20
ATOM     20  C   UNL     1       1.495  -2.664   9.512  1.00  0.00     0.000 C 
BRANCH  20  21
ATOM     21  C   UNL     1       2.713  -1.726   9.463  1.00  0.00     0.000 C 
BRANCH  21  22
ATOM     22  C   UNL     1       2.610  -0.570  10.467  1.00  0.00     0.000 C 
BRANCH  22  23
ATOM     23  C   UNL     1       3.363   0.689   9.997  1.00  0.00     0.000 C 
BRANCH  23  24
ATOM     24  C   UNL     1       4.777   0.367   9.489  1.00  0.00    -0.000 C 
BRANCH  24  25
ATOM     25  C   UNL     1       5.274   1.392   8.453  1.00  0.00    -0.000 C 
BRANCH  25  26
ATOM     26  C   UNL     1       4.306   2.581   8.282  1.00  0.00    -0.000 C 
BRANCH  26  27
ATOM     27  C   UNL     1       4.911   3.779   7.524  1.00  0.00    -0.000 C 
BRANCH  27  28
ATOM     28  C   UNL     1       3.893   4.676   6.794  1.00  0.00    -0.000 C 
BRANCH  28  29
ATOM     29  C   UNL     1       2.494   4.053   6.603  1.00  0.00    -0.000 C 
BRANCH  29  30
ATOM     30  C   UNL     1       1.370   4.695   7.442  1.00  0.00    -0.000 C 
BRANCH  30  31
ATOM     31  C   UNL     1       0.177   5.222   6.625  1.00  0.00    -0.003 C 
ATOM     32  C   UNL     1      -0.381   6.537   7.169  1.00  0.00     0.004 C 
ENDBRANCH  30  31
ENDBRANCH  29  30
ENDBRANCH  28  29
ENDBRANCH  27  28
ENDBRANCH  26  27
ENDBRANCH  25  26
ENDBRANCH  24  25
ENDBRANCH  23  24
ENDBRANCH  22  23
ENDBRANCH  21  22
ENDBRANCH  20  21
ENDBRANCH  19  20
ENDBRANCH  18  19
ENDBRANCH   1  18
TORSDOF 28
ENDMDL
MODEL 6
REMARK VINA RESULT:    -3.334     10.572     13.111
REMARK INTER + INTRA:         -14.166
REMARK INTER:                 -10.514
REMARK INTRA:                  -3.652
REMARK UNBOUND:                -5.374
REMARK SMILES CCCCCCCCCCCCCCCCCCCCCCCCCCCCCC(=O)[O-]
REMARK SMILES IDX 16 1 17 2 18 3 19 4 20 5 21 6 22 7 23 8 24 9 25 10 26 11
REMARK SMILES IDX 27 12 28 13 29 14 30 15 31 16 32 17 15 18 14 19 13 20 12 21
REMARK SMILES IDX 11 22 10 23 9 24 8 25 7 26 6 27 5 28 4 29 3 30 2 31 1 32
REMARK H PARENT
REMARK Flexibility Score: inf
ROOT
ATOM      1  C   UNL     1       6.229  -6.242  -1.440  1.00  0.00     0.000 C 
ENDROOT
BRANCH   1   2
ATOM      2  C   UNL     1       6.753  -5.113  -2.352  1.00  0.00     0.000 C 
BRANCH   2   3
ATOM      3  C   UNL     1       5.634  -4.475  -3.194  1.00  0.00     0.000 C 
BRANCH   3   4
ATOM      4  C   UNL     1       5.009  -3.240  -2.519  1.00  0.00     0.000 C 
BRANCH   4   5
ATOM      5  C   UNL     1       5.440  -1.883  -3.115  1.00  0.00     0.000 C 
BRANCH   5   6
ATOM      6  C   UNL     1       4.341  -0.803  -3.143  1.00  0.00     0.000 C 
BRANCH   6   7
ATOM      7  C   UNL     1       4.047  -0.208  -4.533  1.00  0.00     0.000 C 
BRANCH   7   8
ATOM      8  C   UNL     1       2.557  -0.271  -4.936  1.00  0.00     0.000 C 
BRANCH   8   9
ATOM      9  C   UNL     1       1.900  -1.615  -4.580  1.00  0.00     0.000 C 
BRANCH   9  10
ATOM     10  C   UNL     1       0.742  -1.454  -3.571  1.00  0.00     0.000 C 
BRANCH  10  11
ATOM     11  C   UNL     1       0.977  -2.198  -2.242  1.00  0.00     0.000 C 
BRANCH  11  12
ATOM     12  C   UNL     1       1.514  -3.633  -2.392  1.00  0.00     0.000 C 
BRANCH  12  13
ATOM     13  C   UNL     1       0.511  -4.745  -2.033  1.00  0.00     0.006 C 
BRANCH  13  14
ATOM     14  C   UNL     1      -0.872  -4.537  -2.667  1.00  0.00     0.053 C 
BRANCH  14  15
ATOM     15  C   UNL     1      -1.935  -5.270  -1.905  1.00  0.00     0.041 C 
ATOM     16  O   UNL     1      -3.020  -4.698  -1.611  1.00  0.00    -0.550 OA
ATOM     17  O   UNL     1      -1.719  -6.584  -1.505  1.00  0.00    -0.550 OA
ENDBRANCH  14  15
ENDBRANCH  13  14
ENDBRANCH  12  13
ENDBRANCH  11  12
ENDBRANCH  10  11
ENDBRANCH   9  10
ENDBRANCH   8   9
ENDBRANCH   7   8
ENDBRANCH   6   7
ENDBRANCH   5   6
ENDBRANCH   4   5
ENDBRANCH   3   4
ENDBRANCH   2   3
ENDBRANCH   1   2
BRANCH   1  18
ATOM     18  C   UNL     1       6.826  -6.224  -0.022  1.00  0.00     0.000 C 
BRANCH  18  19
ATOM     19  C   UNL     1       8.158  -5.463   0.057  1.00  0.00     0.000 C 
BRANCH  19  20
ATOM     20  C   UNL     1       8.295  -4.711   1.386  1.00  0.00     0.000 C 
BRANCH  20  21
ATOM     21  C   UNL     1       7.065  -3.821   1.635  1.00  0.00     0.000 C 
BRANCH  21  22
ATOM     22  C   UNL     1       6.436  -4.055   3.016  1.00  0.00     0.000 C 
BRANCH  22  23
ATOM     23  C   UNL     1       7.246  -5.044   3.873  1.00  0.00     0.000 C 
BRANCH  23  24
ATOM     24  C   UNL     1       6.389  -6.217   4.377  1.00  0.00    -0.000 C 
BRANCH  24  25
ATOM     25  C   UNL     1       5.922  -7.135   3.233  1.00  0.00    -0.000 C 
BRANCH  25  26
ATOM     26  C   UNL     1       4.385  -7.209   3.120  1.00  0.00    -0.000 C 
BRANCH  26  27
ATOM     27  C   UNL     1       3.637  -6.433   4.223  1.00  0.00    -0.000 C 
BRANCH  27  28
ATOM     28  C   UNL     1       2.183  -6.880   4.468  1.00  0.00    -0.000 C 
BRANCH  28  29
ATOM     29  C   UNL     1       1.108  -6.014   3.780  1.00  0.00    -0.000 C 
BRANCH  29  30
ATOM     30  C   UNL     1       0.251  -6.747   2.727  1.00  0.00    -0.000 C 
BRANCH  30  31
ATOM     31  C   UNL     1       0.488  -6.293   1.275  1.00  0.00    -0.003 C 
ATOM     32  C   UNL     1       1.359  -7.268   0.483  1.00  0.00     0.004 C 
ENDBRANCH  30  31
ENDBRANCH  29  30
ENDBRANCH  28  29
ENDBRANCH  27  28
ENDBRANCH  26  27
ENDBRANCH  25  26
ENDBRANCH  24  25
ENDBRANCH  23  24
ENDBRANCH  22  23
ENDBRANCH  21  22
ENDBRANCH  20  21
ENDBRANCH  19  20
ENDBRANCH  18  19
ENDBRANCH   1  18
TORSDOF 28
ENDMDL
MODEL 7
REMARK VINA RESULT:    -3.307      4.606      9.878
REMARK INTER + INTRA:         -14.095
REMARK INTER:                 -10.569
REMARK INTRA:                  -3.526
REMARK UNBOUND:                -5.374
REMARK SMILES CCCCCCCCCCCCCCCCCCCCCCCCCCCCCC(=O)[O-]
REMARK SMILES IDX 16 1 17 2 18 3 19 4 20 5 21 6 22 7 23 8 24 9 25 10 26 11
REMARK SMILES IDX 27 12 28 13 29 14 30 15 31 16 32 17 15 18 14 19 13 20 12 21
REMARK SMILES IDX 11 22 10 23 9 24 8 25 7 26 6 27 5 28 4 29 3 30 2 31 1 32
REMARK H PARENT
REMARK Flexibility Score: inf
ROOT
ATOM      1  C   UNL     1      -0.673  -0.132   7.999  1.00  0.00     0.000 C 
ENDROOT
BRANCH   1   2
ATOM      2  C   UNL     1      -1.049  -0.407   9.471  1.00  0.00     0.000 C 
BRANCH   2   3
ATOM      3  C   UNL     1      -2.374   0.265   9.872  1.00  0.00     0.000 C 
BRANCH   3   4
ATOM      4  C   UNL     1      -3.295   0.533   8.667  1.00  0.00     0.000 C 
BRANCH   4   5
ATOM      5  C   UNL     1      -4.364  -0.550   8.409  1.00  0.00     0.000 C 
BRANCH   5   6
ATOM      6  C   UNL     1      -4.709  -1.430   9.626  1.00  0.00     0.000 C 
BRANCH   6   7
ATOM      7  C   UNL     1      -4.429  -2.934   9.442  1.00  0.00     0.000 C 
BRANCH   7   8
ATOM      8  C   UNL     1      -5.659  -3.744   8.975  1.00  0.00     0.000 C 
BRANCH   8   9
ATOM      9  C   UNL     1      -6.662  -4.010  10.109  1.00  0.00     0.000 C 
BRANCH   9  10
ATOM     10  C   UNL     1      -8.062  -4.389   9.577  1.00  0.00     0.000 C 
BRANCH  10  11
ATOM     11  C   UNL     1      -8.023  -5.296   8.332  1.00  0.00     0.000 C 
BRANCH  11  12
ATOM     12  C   UNL     1      -9.373  -5.458   7.610  1.00  0.00     0.000 C 
BRANCH  12  13
ATOM     13  C   UNL     1      -9.281  -6.001   6.171  1.00  0.00     0.006 C 
BRANCH  13  14
ATOM     14  C   UNL     1      -7.927  -6.654   5.858  1.00  0.00     0.053 C 
BRANCH  14  15
ATOM     15  C   UNL     1      -7.211  -5.921   4.764  1.00  0.00     0.041 C 
ATOM     16  O   UNL     1      -6.132  -6.373   4.292  1.00  0.00    -0.550 OA
ATOM     17  O   UNL     1      -7.730  -4.728   4.276  1.00  0.00    -0.550 OA
ENDBRANCH  14  15
ENDBRANCH  13  14
ENDBRANCH  12  13
ENDBRANCH  11  12
ENDBRANCH  10  11
ENDBRANCH   9  10
ENDBRANCH   8   9
ENDBRANCH   7   8
ENDBRANCH   6   7
ENDBRANCH   5   6
ENDBRANCH   4   5
ENDBRANCH   3   4
ENDBRANCH   2   3
ENDBRANCH   1   2
BRANCH   1  18
ATOM     18  C   UNL     1       0.508   0.839   7.830  1.00  0.00     0.000 C 
BRANCH  18  19
ATOM     19  C   UNL     1       0.460   2.018   8.812  1.00  0.00     0.000 C 
BRANCH  19  20
ATOM     20  C   UNL     1       0.235   3.346   8.081  1.00  0.00     0.000 C 
BRANCH  20  21
ATOM     21  C   UNL     1       1.493   3.753   7.295  1.00  0.00     0.000 C 
BRANCH  21  22
ATOM     22  C   UNL     1       2.761   3.735   8.159  1.00  0.00     0.000 C 
BRANCH  22  23
ATOM     23  C   UNL     1       4.015   3.339   7.358  1.00  0.00     0.000 C 
BRANCH  23  24
ATOM     24  C   UNL     1       4.778   2.172   8.007  1.00  0.00    -0.000 C 
BRANCH  24  25
ATOM     25  C   UNL     1       4.159   1.744   9.351  1.00  0.00    -0.000 C 
BRANCH  25  26
ATOM     26  C   UNL     1       3.834   0.237   9.401  1.00  0.00    -0.000 C 
BRANCH  26  27
ATOM     27  C   UNL     1       2.906  -0.166  10.564  1.00  0.00    -0.000 C 
BRANCH  27  28
ATOM     28  C   UNL     1       2.372  -1.611  10.507  1.00  0.00    -0.000 C 
BRANCH  28  29
ATOM     29  C   UNL     1       2.191  -2.184   9.086  1.00  0.00    -0.000 C 
BRANCH  29  30
ATOM     30  C   UNL     1       1.571  -3.595   9.023  1.00  0.00    -0.000 C 
BRANCH  30  31
ATOM     31  C   UNL     1       0.279  -3.694   8.191  1.00  0.00    -0.003 C 
ATOM     32  C   UNL     1       0.314  -4.834   7.174  1.00  0.00     0.004 C 
ENDBRANCH  30  31
ENDBRANCH  29  30
ENDBRANCH  28  29
ENDBRANCH  27  28
ENDBRANCH  26  27
ENDBRANCH  25  26
ENDBRANCH  24  25
ENDBRANCH  23  24
ENDBRANCH  22  23
ENDBRANCH  21  22
ENDBRANCH  20  21
ENDBRANCH  19  20
ENDBRANCH  18  19
ENDBRANCH   1  18
TORSDOF 28
ENDMDL
MODEL 8
REMARK VINA RESULT:    -3.291      3.953      8.509
REMARK INTER + INTRA:         -14.052
REMARK INTER:                  -9.328
REMARK INTRA:                  -4.724
REMARK UNBOUND:                -5.374
REMARK SMILES CCCCCCCCCCCCCCCCCCCCCCCCCCCCCC(=O)[O-]
REMARK SMILES IDX 16 1 17 2 18 3 19 4 20 5 21 6 22 7 23 8 24 9 25 10 26 11
REMARK SMILES IDX 27 12 28 13 29 14 30 15 31 16 32 17 15 18 14 19 13 20 12 21
REMARK SMILES IDX 11 22 10 23 9 24 8 25 7 26 6 27 5 28 4 29 3 30 2 31 1 32
REMARK H PARENT
REMARK Flexibility Score: inf
ROOT
ATOM      1  C   UNL     1      -1.411  -2.840   9.833  1.00  0.00     0.000 C 
ENDROOT
BRANCH   1   2
ATOM      2  C   UNL     1      -1.450  -2.420  11.317  1.00  0.00     0.000 C 
BRANCH   2   3
ATOM      3  C   UNL     1      -1.011  -0.960  11.524  1.00  0.00     0.000 C 
BRANCH   3   4
ATOM      4  C   UNL     1      -2.097   0.053  11.115  1.00  0.00     0.000 C 
BRANCH   4   5
ATOM      5  C   UNL     1      -1.793   0.850   9.829  1.00  0.00     0.000 C 
BRANCH   5   6
ATOM      6  C   UNL     1      -2.502   0.340   8.560  1.00  0.00     0.000 C 
BRANCH   6   7
ATOM      7  C   UNL     1      -4.017   0.106   8.709  1.00  0.00     0.000 C 
BRANCH   7   8
ATOM      8  C   UNL     1      -4.432  -1.379   8.614  1.00  0.00     0.000 C 
BRANCH   8   9
ATOM      9  C   UNL     1      -5.195  -1.864   9.856  1.00  0.00     0.000 C 
BRANCH   9  10
ATOM     10  C   UNL     1      -5.657  -3.333   9.726  1.00  0.00     0.000 C 
BRANCH  10  11
ATOM     11  C   UNL     1      -4.624  -4.243   9.035  1.00  0.00     0.000 C 
BRANCH  11  12
ATOM     12  C   UNL     1      -5.206  -5.174   7.954  1.00  0.00     0.000 C 
BRANCH  12  13
ATOM     13  C   UNL     1      -6.689  -4.932   7.615  1.00  0.00     0.006 C 
BRANCH  13  14
ATOM     14  C   UNL     1      -7.184  -5.782   6.436  1.00  0.00     0.053 C 
BRANCH  14  15
ATOM     15  C   UNL     1      -6.526  -5.367   5.154  1.00  0.00     0.041 C 
ATOM     16  O   UNL     1      -6.883  -4.309   4.567  1.00  0.00    -0.550 OA
ATOM     17  O   UNL     1      -5.528  -6.160   4.601  1.00  0.00    -0.550 OA
ENDBRANCH  14  15
ENDBRANCH  13  14
ENDBRANCH  12  13
ENDBRANCH  11  12
ENDBRANCH  10  11
ENDBRANCH   9  10
ENDBRANCH   8   9
ENDBRANCH   7   8
ENDBRANCH   6   7
ENDBRANCH   5   6
ENDBRANCH   4   5
ENDBRANCH   3   4
ENDBRANCH   2   3
ENDBRANCH   1   2
BRANCH   1  18
ATOM     18  C   UNL     1      -0.256  -3.796   9.486  1.00  0.00     0.000 C 
BRANCH  18  19
ATOM     19  C   UNL     1       0.646  -3.264   8.363  1.00  0.00     0.000 C 
BRANCH  19  20
ATOM     20  C   UNL     1       0.664  -1.731   8.339  1.00  0.00     0.000 C 
BRANCH  20  21
ATOM     21  C   UNL     1       1.883  -1.191   9.105  1.00  0.00     0.000 C 
BRANCH  21  22
ATOM     22  C   UNL     1       2.013   0.336   9.008  1.00  0.00     0.000 C 
BRANCH  22  23
ATOM     23  C   UNL     1       2.810   0.936  10.181  1.00  0.00     0.000 C 
BRANCH  23  24
ATOM     24  C   UNL     1       3.713   2.099   9.739  1.00  0.00    -0.000 C 
BRANCH  24  25
ATOM     25  C   UNL     1       3.812   2.213   8.207  1.00  0.00    -0.000 C 
BRANCH  25  26
ATOM     26  C   UNL     1       3.963   3.672   7.728  1.00  0.00    -0.000 C 
BRANCH  26  27
ATOM     27  C   UNL     1       2.629   4.436   7.615  1.00  0.00    -0.000 C 
BRANCH  27  28
ATOM     28  C   UNL     1       1.483   3.657   6.942  1.00  0.00    -0.000 C 
BRANCH  28  29
ATOM     29  C   UNL     1       0.292   3.321   7.863  1.00  0.00    -0.000 C 
BRANCH  29  30
ATOM     30  C   UNL     1       0.452   3.767   9.331  1.00  0.00    -0.000 C 
BRANCH  30  31
ATOM     31  C   UNL     1      -0.567   4.823   9.797  1.00  0.00    -0.003 C 
ATOM     32  C   UNL     1      -1.376   5.416   8.645  1.00  0.00     0.004 C 
ENDBRANCH  30  31
ENDBRANCH  29  30
ENDBRANCH  28  29
ENDBRANCH  27  28
ENDBRANCH  26  27
ENDBRANCH  25  26
ENDBRANCH  24  25
ENDBRANCH  23  24
ENDBRANCH  22  23
ENDBRANCH  21  22
ENDBRANCH  20  21
ENDBRANCH  19  20
ENDBRANCH  18  19
ENDBRANCH   1  18
TORSDOF 28
ENDMDL
MODEL 9
REMARK VINA RESULT:    -3.253      2.865      4.589
REMARK INTER + INTRA:         -13.950
REMARK INTER:                  -9.145
REMARK INTRA:                  -4.805
REMARK UNBOUND:                -5.374
REMARK SMILES CCCCCCCCCCCCCCCCCCCCCCCCCCCCCC(=O)[O-]
REMARK SMILES IDX 16 1 17 2 18 3 19 4 20 5 21 6 22 7 23 8 24 9 25 10 26 11
REMARK SMILES IDX 27 12 28 13 29 14 30 15 31 16 32 17 15 18 14 19 13 20 12 21
REMARK SMILES IDX 11 22 10 23 9 24 8 25 7 26 6 27 5 28 4 29 3 30 2 31 1 32
REMARK H PARENT
REMARK Flexibility Score: inf
ROOT
ATOM      1  C   UNL     1       1.161  -3.323   9.623  1.00  0.00     0.000 C 
ENDROOT
BRANCH   1   2
ATOM      2  C   UNL     1       2.601  -2.785   9.484  1.00  0.00     0.000 C 
BRANCH   2   3
ATOM      3  C   UNL     1       2.876  -1.599  10.425  1.00  0.00     0.000 C 
BRANCH   3   4
ATOM      4  C   UNL     1       3.558  -0.417   9.712  1.00  0.00     0.000 C 
BRANCH   4   5
ATOM      5  C   UNL     1       2.592   0.615   9.093  1.00  0.00     0.000 C 
BRANCH   5   6
ATOM      6  C   UNL     1       1.726   1.390  10.105  1.00  0.00     0.000 C 
BRANCH   6   7
ATOM      7  C   UNL     1       0.908   2.551   9.510  1.00  0.00     0.000 C 
BRANCH   7   8
ATOM      8  C   UNL     1       0.860   2.553   7.966  1.00  0.00     0.000 C 
BRANCH   8   9
ATOM      9  C   UNL     1       1.104   3.945   7.364  1.00  0.00     0.000 C 
BRANCH   9  10
ATOM     10  C   UNL     1       2.503   4.072   6.722  1.00  0.00     0.000 C 
BRANCH  10  11
ATOM     11  C   UNL     1       3.559   4.682   7.664  1.00  0.00     0.000 C 
BRANCH  11  12
ATOM     12  C   UNL     1       4.538   3.666   8.280  1.00  0.00     0.000 C 
BRANCH  12  13
ATOM     13  C   UNL     1       5.019   2.561   7.320  1.00  0.00     0.006 C 
BRANCH  13  14
ATOM     14  C   UNL     1       6.214   1.765   7.867  1.00  0.00     0.053 C 
BRANCH  14  15
ATOM     15  C   UNL     1       7.437   2.625   7.970  1.00  0.00     0.041 C 
ATOM     16  O   UNL     1       8.123   2.886   6.943  1.00  0.00    -0.550 OA
ATOM     17  O   UNL     1       7.829   3.127   9.205  1.00  0.00    -0.550 OA
ENDBRANCH  14  15
ENDBRANCH  13  14
ENDBRANCH  12  13
ENDBRANCH  11  12
ENDBRANCH  10  11
ENDBRANCH   9  10
ENDBRANCH   8   9
ENDBRANCH   7   8
ENDBRANCH   6   7
ENDBRANCH   5   6
ENDBRANCH   4   5
ENDBRANCH   3   4
ENDBRANCH   2   3
ENDBRANCH   1   2
BRANCH   1  18
ATOM     18  C   UNL     1       0.299  -3.125   8.364  1.00  0.00     0.000 C 
BRANCH  18  19
ATOM     19  C   UNL     1       0.148  -1.650   7.968  1.00  0.00     0.000 C 
BRANCH  19  20
ATOM     20  C   UNL     1      -0.866  -0.930   8.864  1.00  0.00     0.000 C 
BRANCH  20  21
ATOM     21  C   UNL     1      -1.614   0.157   8.073  1.00  0.00     0.000 C 
BRANCH  21  22
ATOM     22  C   UNL     1      -2.976   0.505   8.689  1.00  0.00     0.000 C 
BRANCH  22  23
ATOM     23  C   UNL     1      -2.846   1.190  10.061  1.00  0.00     0.000 C 
BRANCH  23  24
ATOM     24  C   UNL     1      -4.074   2.051  10.402  1.00  0.00    -0.000 C 
BRANCH  24  25
ATOM     25  C   UNL     1      -5.217   1.868   9.387  1.00  0.00    -0.000 C 
BRANCH  25  26
ATOM     26  C   UNL     1      -5.888   3.203   9.000  1.00  0.00    -0.000 C 
BRANCH  26  27
ATOM     27  C   UNL     1      -5.174   4.449   9.560  1.00  0.00    -0.000 C 
BRANCH  27  28
ATOM     28  C   UNL     1      -4.783   5.507   8.511  1.00  0.00    -0.000 C 
BRANCH  28  29
ATOM     29  C   UNL     1      -3.289   5.893   8.498  1.00  0.00    -0.000 C 
BRANCH  29  30
ATOM     30  C   UNL     1      -2.331   4.827   9.066  1.00  0.00    -0.000 C 
BRANCH  30  31
ATOM     31  C   UNL     1      -1.471   5.300  10.252  1.00  0.00    -0.003 C 
ATOM     32  C   UNL     1      -2.283   5.501  11.531  1.00  0.00     0.004 C 
ENDBRANCH  30  31
ENDBRANCH  29  30
ENDBRANCH  28  29
ENDBRANCH  27  28
ENDBRANCH  26  27
ENDBRANCH  25  26
ENDBRANCH  24  25
ENDBRANCH  23  24
ENDBRANCH  22  23
ENDBRANCH  21  22
ENDBRANCH  20  21
ENDBRANCH  19  20
ENDBRANCH  18  19
ENDBRANCH   1  18
TORSDOF 28
ENDMDL
