MODEL 1
REMARK VINA RESULT:    -5.943      0.000      0.000
REMARK INTER + INTRA:          -7.707
REMARK INTER:                  -7.333
REMARK INTRA:                  -0.374
REMARK UNBOUND:                -0.374
REMARK SMILES Oc1cc(O)c2cc(O)c(-c3cc(O)c(O)c(O)c3)[o+]c2c1.[Cl-]
REMARK SMILES IDX 10 1 20 2 21 3 22 4 2 5 3 6 4 7 6 8 7 9 8 10 11 11 12 12
REMARK SMILES IDX 13 13 19 14 15 15 17 16 14 17 16 19 18 21 9 23 1 25 5 27
REMARK H PARENT 14 18 16 20 18 22 9 24 1 26 5 28
REMARK Flexibility Score: inf
ROOT
ATOM      1  C   UNL     1     253.176 -24.532  46.847  1.00  0.00     0.402 A 
ATOM      2  O   UNL     1     254.281 -24.535  46.108  1.00  0.00    -0.202 OA
ATOM      3  C   UNL     1     254.274 -24.663  44.785  1.00  0.00     0.368 A 
ATOM      4  C   UNL     1     255.489 -24.659  44.095  1.00  0.00     0.162 A 
ATOM      5  C   UNL     1     255.513 -24.794  42.707  1.00  0.00     0.128 A 
ATOM      6  C   UNL     1     254.313 -24.935  42.001  1.00  0.00     0.093 A 
ATOM      7  C   UNL     1     253.082 -24.943  42.668  1.00  0.00     0.136 A 
ATOM      8  C   UNL     1     253.054 -24.803  44.080  1.00  0.00     0.125 A 
ATOM      9  C   UNL     1     251.868 -24.787  44.832  1.00  0.00     0.078 A 
ATOM     10  C   UNL     1     251.920 -24.641  46.221  1.00  0.00     0.223 A 
ENDROOT
BRANCH   1  11
ATOM     11  C   UNL     1     253.314 -24.393  48.315  1.00  0.00     0.091 A 
ATOM     12  C   UNL     1     253.265 -25.510  49.164  1.00  0.00     0.068 A 
ATOM     13  C   UNL     1     253.421 -25.359  50.548  1.00  0.00     0.162 A 
ATOM     14  C   UNL     1     253.558 -23.127  48.868  1.00  0.00     0.068 A 
ATOM     15  C   UNL     1     253.640 -24.089  51.101  1.00  0.00     0.200 A 
ATOM     16  C   UNL     1     253.715 -22.962  50.249  1.00  0.00     0.162 A 
BRANCH  13  17
ATOM     17  O   UNL     1     253.362 -26.472  51.384  1.00  0.00    -0.504 OA
ATOM     18  H   UNL     1     253.990 -26.577  52.174  1.00  0.00     0.293 HD
ENDBRANCH  13  17
BRANCH  15  19
ATOM     19  O   UNL     1     253.781 -23.994  52.488  1.00  0.00    -0.502 OA
ATOM     20  H   UNL     1     253.010 -24.030  53.138  1.00  0.00     0.293 HD
ENDBRANCH  15  19
BRANCH  16  21
ATOM     21  O   UNL     1     253.942 -21.669  50.727  1.00  0.00    -0.504 OA
ATOM     22  H   UNL     1     254.776 -21.134  50.534  1.00  0.00     0.293 HD
ENDBRANCH  16  21
ENDBRANCH   1  11
BRANCH  10  23
ATOM     23  O   UNL     1     250.740 -24.574  46.963  1.00  0.00    -0.500 OA
ATOM     24  H   UNL     1     249.899 -24.151  46.587  1.00  0.00     0.294 HD
ENDBRANCH  10  23
BRANCH   5  25
ATOM     25  O   UNL     1     256.734 -24.787  42.037  1.00  0.00    -0.507 OA
ATOM     26  H   UNL     1     257.613 -24.847  42.536  1.00  0.00     0.293 HD
ENDBRANCH   5  25
BRANCH   7  27
ATOM     27  O   UNL     1     251.929 -25.092  41.893  1.00  0.00    -0.507 OA
ATOM     28  H   UNL     1     251.271 -24.352  41.700  1.00  0.00     0.293 HD
ENDBRANCH   7  27
TORSDOF 7
ENDMDL
MODEL 2
REMARK VINA RESULT:    -5.882     13.233     14.915
REMARK INTER + INTRA:          -7.632
REMARK INTER:                  -7.314
REMARK INTRA:                  -0.318
REMARK UNBOUND:                -0.374
REMARK SMILES Oc1cc(O)c2cc(O)c(-c3cc(O)c(O)c(O)c3)[o+]c2c1.[Cl-]
REMARK SMILES IDX 10 1 20 2 21 3 22 4 2 5 3 6 4 7 6 8 7 9 8 10 11 11 12 12
REMARK SMILES IDX 13 13 19 14 15 15 17 16 14 17 16 19 18 21 9 23 1 25 5 27
REMARK H PARENT 14 18 16 20 18 22 9 24 1 26 5 28
REMARK Flexibility Score: inf
ROOT
ATOM      1  C   UNL     1     262.180 -27.883  57.564  1.00  0.00     0.402 A 
ATOM      2  O   UNL     1     263.240 -28.666  57.745  1.00  0.00    -0.202 OA
ATOM      3  C   UNL     1     264.186 -28.836  56.828  1.00  0.00     0.368 A 
ATOM      4  C   UNL     1     265.262 -29.683  57.110  1.00  0.00     0.162 A 
ATOM      5  C   UNL     1     266.268 -29.883  56.165  1.00  0.00     0.128 A 
ATOM      6  C   UNL     1     266.201 -29.234  54.927  1.00  0.00     0.093 A 
ATOM      7  C   UNL     1     265.133 -28.381  54.619  1.00  0.00     0.136 A 
ATOM      8  C   UNL     1     264.109 -28.173  55.580  1.00  0.00     0.125 A 
ATOM      9  C   UNL     1     263.009 -27.326  55.364  1.00  0.00     0.078 A 
ATOM     10  C   UNL     1     262.041 -27.167  56.360  1.00  0.00     0.223 A 
ENDROOT
BRANCH   1  11
ATOM     11  C   UNL     1     261.187 -27.782  58.659  1.00  0.00     0.091 A 
ATOM     12  C   UNL     1     259.918 -28.371  58.552  1.00  0.00     0.068 A 
ATOM     13  C   UNL     1     259.002 -28.283  59.608  1.00  0.00     0.162 A 
ATOM     14  C   UNL     1     261.540 -27.135  59.852  1.00  0.00     0.068 A 
ATOM     15  C   UNL     1     259.348 -27.615  60.791  1.00  0.00     0.200 A 
ATOM     16  C   UNL     1     260.635 -27.039  60.915  1.00  0.00     0.162 A 
BRANCH  13  17
ATOM     17  O   UNL     1     257.741 -28.864  59.491  1.00  0.00    -0.504 OA
ATOM     18  H   UNL     1     257.020 -28.715  60.189  1.00  0.00     0.293 HD
ENDBRANCH  13  17
BRANCH  15  19
ATOM     19  O   UNL     1     258.394 -27.551  61.811  1.00  0.00    -0.502 OA
ATOM     20  H   UNL     1     258.305 -28.239  62.544  1.00  0.00     0.293 HD
ENDBRANCH  15  19
BRANCH  16  21
ATOM     21  O   UNL     1     261.054 -26.368  62.067  1.00  0.00    -0.504 OA
ATOM     22  H   UNL     1     261.679 -25.576  62.063  1.00  0.00     0.293 HD
ENDBRANCH  16  21
ENDBRANCH   1  11
BRANCH  10  23
ATOM     23  O   UNL     1     260.976 -26.288  56.167  1.00  0.00    -0.500 OA
ATOM     24  H   UNL     1     260.917 -25.696  55.346  1.00  0.00     0.294 HD
ENDBRANCH  10  23
BRANCH   5  25
ATOM     25  O   UNL     1     267.332 -30.731  56.465  1.00  0.00    -0.507 OA
ATOM     26  H   UNL     1     268.065 -30.920  55.791  1.00  0.00     0.293 HD
ENDBRANCH   5  25
BRANCH   7  27
ATOM     27  O   UNL     1     265.137 -27.773  53.362  1.00  0.00    -0.507 OA
ATOM     28  H   UNL     1     264.626 -28.114  52.561  1.00  0.00     0.293 HD
ENDBRANCH   7  27
TORSDOF 7
ENDMDL
MODEL 3
REMARK VINA RESULT:    -5.881      0.415      1.842
REMARK INTER + INTRA:          -7.631
REMARK INTER:                  -7.256
REMARK INTRA:                  -0.374
REMARK UNBOUND:                -0.374
REMARK SMILES Oc1cc(O)c2cc(O)c(-c3cc(O)c(O)c(O)c3)[o+]c2c1.[Cl-]
REMARK SMILES IDX 10 1 20 2 21 3 22 4 2 5 3 6 4 7 6 8 7 9 8 10 11 11 12 12
REMARK SMILES IDX 13 13 19 14 15 15 17 16 14 17 16 19 18 21 9 23 1 25 5 27
REMARK H PARENT 14 18 16 20 18 22 9 24 1 26 5 28
REMARK Flexibility Score: inf
ROOT
ATOM      1  C   UNL     1     252.961 -24.573  47.107  1.00  0.00     0.402 A 
ATOM      2  O   UNL     1     254.028 -24.589  46.313  1.00  0.00    -0.202 OA
ATOM      3  C   UNL     1     253.953 -24.697  44.991  1.00  0.00     0.368 A 
ATOM      4  C   UNL     1     255.132 -24.709  44.242  1.00  0.00     0.162 A 
ATOM      5  C   UNL     1     255.084 -24.823  42.853  1.00  0.00     0.128 A 
ATOM      6  C   UNL     1     253.848 -24.928  42.205  1.00  0.00     0.093 A 
ATOM      7  C   UNL     1     252.651 -24.919  42.933  1.00  0.00     0.136 A 
ATOM      8  C   UNL     1     252.697 -24.800  44.346  1.00  0.00     0.125 A 
ATOM      9  C   UNL     1     251.550 -24.770  45.156  1.00  0.00     0.078 A 
ATOM     10  C   UNL     1     251.674 -24.645  46.543  1.00  0.00     0.223 A 
ENDROOT
BRANCH   1  11
ATOM     11  C   UNL     1     253.175 -24.459  48.568  1.00  0.00     0.091 A 
ATOM     12  C   UNL     1     253.307 -23.210  49.194  1.00  0.00     0.068 A 
ATOM     13  C   UNL     1     253.485 -23.125  50.580  1.00  0.00     0.162 A 
ATOM     14  C   UNL     1     253.188 -25.621  49.355  1.00  0.00     0.068 A 
ATOM     15  C   UNL     1     253.523 -24.288  51.362  1.00  0.00     0.200 A 
ATOM     16  C   UNL     1     253.367 -25.550  50.742  1.00  0.00     0.162 A 
BRANCH  13  17
ATOM     17  O   UNL     1     253.623 -21.880  51.193  1.00  0.00    -0.504 OA
ATOM     18  H   UNL     1     253.243 -21.037  50.776  1.00  0.00     0.293 HD
ENDBRANCH  13  17
BRANCH  15  19
ATOM     19  O   UNL     1     253.711 -24.145  52.740  1.00  0.00    -0.502 OA
ATOM     20  H   UNL     1     254.205 -24.813  53.314  1.00  0.00     0.293 HD
ENDBRANCH  15  19
BRANCH  16  21
ATOM     21  O   UNL     1     253.383 -26.750  51.457  1.00  0.00    -0.504 OA
ATOM     22  H   UNL     1     252.729 -26.978  52.191  1.00  0.00     0.293 HD
ENDBRANCH  16  21
ENDBRANCH   1  11
BRANCH  10  23
ATOM     23  O   UNL     1     250.534 -24.564  47.343  1.00  0.00    -0.500 OA
ATOM     24  H   UNL     1     249.960 -25.377  47.535  1.00  0.00     0.294 HD
ENDBRANCH  10  23
BRANCH   5  25
ATOM     25  O   UNL     1     256.271 -24.833  42.122  1.00  0.00    -0.507 OA
ATOM     26  H   UNL     1     257.162 -24.627  42.557  1.00  0.00     0.293 HD
ENDBRANCH   5  25
BRANCH   7  27
ATOM     27  O   UNL     1     251.459 -25.032  42.213  1.00  0.00    -0.507 OA
ATOM     28  H   UNL     1     250.642 -25.528  42.536  1.00  0.00     0.293 HD
ENDBRANCH   7  27
TORSDOF 7
ENDMDL
MODEL 4
REMARK VINA RESULT:    -5.695     16.090     17.460
REMARK INTER + INTRA:          -7.401
REMARK INTER:                  -7.017
REMARK INTRA:                  -0.385
REMARK UNBOUND:                -0.374
REMARK SMILES Oc1cc(O)c2cc(O)c(-c3cc(O)c(O)c(O)c3)[o+]c2c1.[Cl-]
REMARK SMILES IDX 10 1 20 2 21 3 22 4 2 5 3 6 4 7 6 8 7 9 8 10 11 11 12 12
REMARK SMILES IDX 13 13 19 14 15 15 17 16 14 17 16 19 18 21 9 23 1 25 5 27
REMARK H PARENT 14 18 16 20 18 22 9 24 1 26 5 28
REMARK Flexibility Score: inf
ROOT
ATOM      1  C   UNL     1     267.911 -33.713  48.729  1.00  0.00     0.402 A 
ATOM      2  O   UNL     1     267.558 -34.843  48.123  1.00  0.00    -0.202 OA
ATOM      3  C   UNL     1     267.971 -35.177  46.905  1.00  0.00     0.368 A 
ATOM      4  C   UNL     1     267.543 -36.385  46.349  1.00  0.00     0.162 A 
ATOM      5  C   UNL     1     267.958 -36.761  45.072  1.00  0.00     0.128 A 
ATOM      6  C   UNL     1     268.808 -35.923  44.342  1.00  0.00     0.093 A 
ATOM      7  C   UNL     1     269.251 -34.706  44.875  1.00  0.00     0.136 A 
ATOM      8  C   UNL     1     268.833 -34.322  46.175  1.00  0.00     0.125 A 
ATOM      9  C   UNL     1     269.236 -33.128  46.796  1.00  0.00     0.078 A 
ATOM     10  C   UNL     1     268.786 -32.820  48.082  1.00  0.00     0.223 A 
ENDROOT
BRANCH   1  11
ATOM     11  C   UNL     1     267.376 -33.447  50.085  1.00  0.00     0.091 A 
ATOM     12  C   UNL     1     266.187 -32.724  50.274  1.00  0.00     0.068 A 
ATOM     13  C   UNL     1     265.687 -32.504  51.563  1.00  0.00     0.162 A 
ATOM     14  C   UNL     1     268.036 -33.978  51.203  1.00  0.00     0.068 A 
ATOM     15  C   UNL     1     266.362 -33.014  52.681  1.00  0.00     0.200 A 
ATOM     16  C   UNL     1     267.548 -33.765  52.497  1.00  0.00     0.162 A 
BRANCH  13  17
ATOM     17  O   UNL     1     264.511 -31.779  51.743  1.00  0.00    -0.504 OA
ATOM     18  H   UNL     1     263.602 -32.179  51.534  1.00  0.00     0.293 HD
ENDBRANCH  13  17
BRANCH  15  19
ATOM     19  O   UNL     1     265.823 -32.759  53.945  1.00  0.00    -0.502 OA
ATOM     20  H   UNL     1     264.861 -32.497  54.107  1.00  0.00     0.293 HD
ENDBRANCH  15  19
BRANCH  16  21
ATOM     21  O   UNL     1     268.267 -34.313  53.561  1.00  0.00    -0.504 OA
ATOM     22  H   UNL     1     267.846 -34.646  54.416  1.00  0.00     0.293 HD
ENDBRANCH  16  21
ENDBRANCH   1  11
BRANCH  10  23
ATOM     23  O   UNL     1     269.226 -31.659  48.719  1.00  0.00    -0.500 OA
ATOM     24  H   UNL     1     268.741 -31.277  49.523  1.00  0.00     0.294 HD
ENDBRANCH  10  23
BRANCH   5  25
ATOM     25  O   UNL     1     267.521 -37.970  44.535  1.00  0.00    -0.507 OA
ATOM     26  H   UNL     1     266.650 -38.396  44.829  1.00  0.00     0.293 HD
ENDBRANCH   5  25
BRANCH   7  27
ATOM     27  O   UNL     1     270.094 -33.924  44.082  1.00  0.00    -0.507 OA
ATOM     28  H   UNL     1     271.013 -34.207  43.775  1.00  0.00     0.293 HD
ENDBRANCH   7  27
TORSDOF 7
ENDMDL
MODEL 5
REMARK VINA RESULT:    -5.657     13.751     16.239
REMARK INTER + INTRA:          -7.354
REMARK INTER:                  -6.970
REMARK INTRA:                  -0.384
REMARK UNBOUND:                -0.374
REMARK SMILES Oc1cc(O)c2cc(O)c(-c3cc(O)c(O)c(O)c3)[o+]c2c1.[Cl-]
REMARK SMILES IDX 10 1 20 2 21 3 22 4 2 5 3 6 4 7 6 8 7 9 8 10 11 11 12 12
REMARK SMILES IDX 13 13 19 14 15 15 17 16 14 17 16 19 18 21 9 23 1 25 5 27
REMARK H PARENT 14 18 16 20 18 22 9 24 1 26 5 28
REMARK Flexibility Score: inf
ROOT
ATOM      1  C   UNL     1     262.977 -28.028  57.865  1.00  0.00     0.402 A 
ATOM      2  O   UNL     1     261.711 -28.437  57.851  1.00  0.00    -0.202 OA
ATOM      3  C   UNL     1     260.846 -28.166  58.821  1.00  0.00     0.368 A 
ATOM      4  C   UNL     1     259.537 -28.643  58.718  1.00  0.00     0.162 A 
ATOM      5  C   UNL     1     258.607 -28.377  59.722  1.00  0.00     0.128 A 
ATOM      6  C   UNL     1     258.987 -27.627  60.842  1.00  0.00     0.093 A 
ATOM      7  C   UNL     1     260.292 -27.137  60.970  1.00  0.00     0.136 A 
ATOM      8  C   UNL     1     261.240 -27.405  59.948  1.00  0.00     0.125 A 
ATOM      9  C   UNL     1     262.567 -26.944  59.985  1.00  0.00     0.078 A 
ATOM     10  C   UNL     1     263.442 -27.244  58.938  1.00  0.00     0.223 A 
ENDROOT
BRANCH   1  11
ATOM     11  C   UNL     1     263.849 -28.403  56.728  1.00  0.00     0.091 A 
ATOM     12  C   UNL     1     264.679 -29.534  56.785  1.00  0.00     0.068 A 
ATOM     13  C   UNL     1     265.479 -29.884  55.689  1.00  0.00     0.162 A 
ATOM     14  C   UNL     1     263.804 -27.649  55.546  1.00  0.00     0.068 A 
ATOM     15  C   UNL     1     265.450 -29.114  54.518  1.00  0.00     0.200 A 
ATOM     16  C   UNL     1     264.598 -27.987  54.445  1.00  0.00     0.162 A 
BRANCH  13  17
ATOM     17  O   UNL     1     266.306 -31.003  55.757  1.00  0.00    -0.504 OA
ATOM     18  H   UNL     1     266.625 -31.480  54.920  1.00  0.00     0.293 HD
ENDBRANCH  13  17
BRANCH  15  19
ATOM     19  O   UNL     1     266.274 -29.504  53.458  1.00  0.00    -0.502 OA
ATOM     20  H   UNL     1     267.001 -30.201  53.534  1.00  0.00     0.293 HD
ENDBRANCH  15  19
BRANCH  16  21
ATOM     21  O   UNL     1     264.509 -27.181  53.307  1.00  0.00    -0.504 OA
ATOM     22  H   UNL     1     263.639 -26.848  52.918  1.00  0.00     0.293 HD
ENDBRANCH  16  21
ENDBRANCH   1  11
BRANCH  10  23
ATOM     23  O   UNL     1     264.745 -26.744  58.949  1.00  0.00    -0.500 OA
ATOM     24  H   UNL     1     265.549 -27.356  58.862  1.00  0.00     0.294 HD
ENDBRANCH  10  23
BRANCH   5  25
ATOM     25  O   UNL     1     257.306 -28.861  59.602  1.00  0.00    -0.507 OA
ATOM     26  H   UNL     1     256.986 -29.659  60.138  1.00  0.00     0.293 HD
ENDBRANCH   5  25
BRANCH   7  27
ATOM     27  O   UNL     1     260.594 -26.401  62.118  1.00  0.00    -0.507 OA
ATOM     28  H   UNL     1     260.750 -25.404  62.132  1.00  0.00     0.293 HD
ENDBRANCH   7  27
TORSDOF 7
ENDMDL
MODEL 6
REMARK VINA RESULT:    -5.641     11.828     13.693
REMARK INTER + INTRA:          -7.334
REMARK INTER:                  -6.993
REMARK INTRA:                  -0.342
REMARK UNBOUND:                -0.374
REMARK SMILES Oc1cc(O)c2cc(O)c(-c3cc(O)c(O)c(O)c3)[o+]c2c1.[Cl-]
REMARK SMILES IDX 10 1 20 2 21 3 22 4 2 5 3 6 4 7 6 8 7 9 8 10 11 11 12 12
REMARK SMILES IDX 13 13 19 14 15 15 17 16 14 17 16 19 18 21 9 23 1 25 5 27
REMARK H PARENT 14 18 16 20 18 22 9 24 1 26 5 28
REMARK Flexibility Score: inf
ROOT
ATOM      1  C   UNL     1     262.692 -25.274  55.362  1.00  0.00     0.402 A 
ATOM      2  O   UNL     1     263.280 -24.329  56.091  1.00  0.00    -0.202 OA
ATOM      3  C   UNL     1     263.781 -23.214  55.572  1.00  0.00     0.368 A 
ATOM      4  C   UNL     1     264.385 -22.281  56.419  1.00  0.00     0.162 A 
ATOM      5  C   UNL     1     264.922 -21.102  55.903  1.00  0.00     0.128 A 
ATOM      6  C   UNL     1     264.858 -20.852  54.527  1.00  0.00     0.093 A 
ATOM      7  C   UNL     1     264.259 -21.770  53.656  1.00  0.00     0.136 A 
ATOM      8  C   UNL     1     263.709 -22.970  54.179  1.00  0.00     0.125 A 
ATOM      9  C   UNL     1     263.079 -23.941  53.385  1.00  0.00     0.078 A 
ATOM     10  C   UNL     1     262.556 -25.096  53.972  1.00  0.00     0.223 A 
ENDROOT
BRANCH   1  11
ATOM     11  C   UNL     1     262.181 -26.479  56.056  1.00  0.00     0.091 A 
ATOM     12  C   UNL     1     260.816 -26.636  56.342  1.00  0.00     0.068 A 
ATOM     13  C   UNL     1     260.352 -27.794  56.978  1.00  0.00     0.162 A 
ATOM     14  C   UNL     1     263.070 -27.514  56.383  1.00  0.00     0.068 A 
ATOM     15  C   UNL     1     261.245 -28.816  57.327  1.00  0.00     0.200 A 
ATOM     16  C   UNL     1     262.620 -28.676  57.020  1.00  0.00     0.162 A 
BRANCH  13  17
ATOM     17  O   UNL     1     258.996 -27.938  57.266  1.00  0.00    -0.504 OA
ATOM     18  H   UNL     1     258.290 -27.893  56.538  1.00  0.00     0.293 HD
ENDBRANCH  13  17
BRANCH  15  19
ATOM     19  O   UNL     1     260.729 -29.947  57.966  1.00  0.00    -0.502 OA
ATOM     20  H   UNL     1     259.810 -30.326  57.789  1.00  0.00     0.293 HD
ENDBRANCH  15  19
BRANCH  16  21
ATOM     21  O   UNL     1     263.565 -29.657  57.327  1.00  0.00    -0.504 OA
ATOM     22  H   UNL     1     263.807 -29.935  58.267  1.00  0.00     0.293 HD
ENDBRANCH  16  21
ENDBRANCH   1  11
BRANCH  10  23
ATOM     23  O   UNL     1     261.885 -26.038  53.192  1.00  0.00    -0.500 OA
ATOM     24  H   UNL     1     261.623 -25.843  52.232  1.00  0.00     0.294 HD
ENDBRANCH  10  23
BRANCH   5  25
ATOM     25  O   UNL     1     265.520 -20.184  56.763  1.00  0.00    -0.507 OA
ATOM     26  H   UNL     1     266.469 -20.308  57.095  1.00  0.00     0.293 HD
ENDBRANCH   5  25
BRANCH   7  27
ATOM     27  O   UNL     1     264.238 -21.449  52.297  1.00  0.00    -0.507 OA
ATOM     28  H   UNL     1     264.128 -22.122  51.553  1.00  0.00     0.293 HD
ENDBRANCH   7  27
TORSDOF 7
ENDMDL
MODEL 7
REMARK VINA RESULT:    -5.626     10.835     13.727
REMARK INTER + INTRA:          -7.316
REMARK INTER:                  -7.283
REMARK INTRA:                  -0.033
REMARK UNBOUND:                -0.374
REMARK SMILES Oc1cc(O)c2cc(O)c(-c3cc(O)c(O)c(O)c3)[o+]c2c1.[Cl-]
REMARK SMILES IDX 10 1 20 2 21 3 22 4 2 5 3 6 4 7 6 8 7 9 8 10 11 11 12 12
REMARK SMILES IDX 13 13 19 14 15 15 17 16 14 17 16 19 18 21 9 23 1 25 5 27
REMARK H PARENT 14 18 16 20 18 22 9 24 1 26 5 28
REMARK Flexibility Score: inf
ROOT
ATOM      1  C   UNL     1     261.812 -27.468  57.319  1.00  0.00     0.402 A 
ATOM      2  O   UNL     1     261.261 -27.274  56.124  1.00  0.00    -0.202 OA
ATOM      3  C   UNL     1     261.961 -27.238  54.995  1.00  0.00     0.368 A 
ATOM      4  C   UNL     1     261.293 -27.025  53.787  1.00  0.00     0.162 A 
ATOM      5  C   UNL     1     262.002 -26.979  52.587  1.00  0.00     0.128 A 
ATOM      6  C   UNL     1     263.391 -27.146  52.592  1.00  0.00     0.093 A 
ATOM      7  C   UNL     1     264.086 -27.360  53.789  1.00  0.00     0.136 A 
ATOM      8  C   UNL     1     263.367 -27.410  55.012  1.00  0.00     0.125 A 
ATOM      9  C   UNL     1     263.976 -27.632  56.257  1.00  0.00     0.078 A 
ATOM     10  C   UNL     1     263.201 -27.673  57.420  1.00  0.00     0.223 A 
ENDROOT
BRANCH   1  11
ATOM     11  C   UNL     1     260.926 -27.477  58.506  1.00  0.00     0.091 A 
ATOM     12  C   UNL     1     261.265 -26.782  59.678  1.00  0.00     0.068 A 
ATOM     13  C   UNL     1     260.402 -26.786  60.781  1.00  0.00     0.162 A 
ATOM     14  C   UNL     1     259.695 -28.145  58.442  1.00  0.00     0.068 A 
ATOM     15  C   UNL     1     259.183 -27.475  60.723  1.00  0.00     0.200 A 
ATOM     16  C   UNL     1     258.823 -28.158  59.537  1.00  0.00     0.162 A 
BRANCH  13  17
ATOM     17  O   UNL     1     260.750 -26.101  61.943  1.00  0.00    -0.504 OA
ATOM     18  H   UNL     1     260.544 -26.475  62.863  1.00  0.00     0.293 HD
ENDBRANCH  13  17
BRANCH  15  19
ATOM     19  O   UNL     1     258.363 -27.452  61.855  1.00  0.00    -0.502 OA
ATOM     20  H   UNL     1     258.680 -27.678  62.787  1.00  0.00     0.293 HD
ENDBRANCH  15  19
BRANCH  16  21
ATOM     21  O   UNL     1     257.621 -28.856  59.403  1.00  0.00    -0.504 OA
ATOM     22  H   UNL     1     256.874 -28.580  58.783  1.00  0.00     0.293 HD
ENDBRANCH  16  21
ENDBRANCH   1  11
BRANCH  10  23
ATOM     23  O   UNL     1     263.798 -27.944  58.651  1.00  0.00    -0.500 OA
ATOM     24  H   UNL     1     263.750 -27.287  59.422  1.00  0.00     0.294 HD
ENDBRANCH  10  23
BRANCH   5  25
ATOM     25  O   UNL     1     261.317 -26.766  51.392  1.00  0.00    -0.507 OA
ATOM     26  H   UNL     1     260.586 -27.394  51.080  1.00  0.00     0.293 HD
ENDBRANCH   5  25
BRANCH   7  27
ATOM     27  O   UNL     1     265.472 -27.514  53.711  1.00  0.00    -0.507 OA
ATOM     28  H   UNL     1     265.943 -28.401  53.614  1.00  0.00     0.293 HD
ENDBRANCH   7  27
TORSDOF 7
ENDMDL
MODEL 8
REMARK VINA RESULT:    -5.612     13.782     16.363
REMARK INTER + INTRA:          -7.298
REMARK INTER:                  -6.931
REMARK INTRA:                  -0.367
REMARK UNBOUND:                -0.374
REMARK SMILES Oc1cc(O)c2cc(O)c(-c3cc(O)c(O)c(O)c3)[o+]c2c1.[Cl-]
REMARK SMILES IDX 10 1 20 2 21 3 22 4 2 5 3 6 4 7 6 8 7 9 8 10 11 11 12 12
REMARK SMILES IDX 13 13 19 14 15 15 17 16 14 17 16 19 18 21 9 23 1 25 5 27
REMARK H PARENT 14 18 16 20 18 22 9 24 1 26 5 28
REMARK Flexibility Score: inf
ROOT
ATOM      1  C   UNL     1     263.118 -28.111  57.708  1.00  0.00     0.402 A 
ATOM      2  O   UNL     1     261.842 -28.486  57.722  1.00  0.00    -0.202 OA
ATOM      3  C   UNL     1     261.015 -28.225  58.728  1.00  0.00     0.368 A 
ATOM      4  C   UNL     1     259.691 -28.665  58.653  1.00  0.00     0.162 A 
ATOM      5  C   UNL     1     258.801 -28.408  59.695  1.00  0.00     0.128 A 
ATOM      6  C   UNL     1     259.236 -27.706  60.825  1.00  0.00     0.093 A 
ATOM      7  C   UNL     1     260.558 -27.255  60.927  1.00  0.00     0.136 A 
ATOM      8  C   UNL     1     261.466 -27.513  59.866  1.00  0.00     0.125 A 
ATOM      9  C   UNL     1     262.804 -27.088  59.875  1.00  0.00     0.078 A 
ATOM     10  C   UNL     1     263.638 -27.375  58.790  1.00  0.00     0.223 A 
ENDROOT
BRANCH   1  11
ATOM     11  C   UNL     1     263.943 -28.471  56.532  1.00  0.00     0.091 A 
ATOM     12  C   UNL     1     263.951 -27.679  55.373  1.00  0.00     0.068 A 
ATOM     13  C   UNL     1     264.756 -28.025  54.281  1.00  0.00     0.162 A 
ATOM     14  C   UNL     1     264.779 -29.595  56.595  1.00  0.00     0.068 A 
ATOM     15  C   UNL     1     265.572 -29.163  54.337  1.00  0.00     0.200 A 
ATOM     16  C   UNL     1     265.588 -29.954  55.510  1.00  0.00     0.162 A 
BRANCH  13  17
ATOM     17  O   UNL     1     264.752 -27.238  53.131  1.00  0.00    -0.504 OA
ATOM     18  H   UNL     1     265.161 -27.564  52.262  1.00  0.00     0.293 HD
ENDBRANCH  13  17
BRANCH  15  19
ATOM     19  O   UNL     1     266.350 -29.467  53.216  1.00  0.00    -0.502 OA
ATOM     20  H   UNL     1     266.883 -28.785  52.696  1.00  0.00     0.293 HD
ENDBRANCH  15  19
BRANCH  16  21
ATOM     21  O   UNL     1     266.384 -31.094  55.642  1.00  0.00    -0.504 OA
ATOM     22  H   UNL     1     267.127 -31.341  55.005  1.00  0.00     0.293 HD
ENDBRANCH  16  21
ENDBRANCH   1  11
BRANCH  10  23
ATOM     23  O   UNL     1     264.953 -26.911  58.775  1.00  0.00    -0.500 OA
ATOM     24  H   UNL     1     265.646 -27.255  59.430  1.00  0.00     0.294 HD
ENDBRANCH  10  23
BRANCH   5  25
ATOM     25  O   UNL     1     257.485 -28.854  59.601  1.00  0.00    -0.507 OA
ATOM     26  H   UNL     1     256.707 -28.278  59.902  1.00  0.00     0.293 HD
ENDBRANCH   5  25
BRANCH   7  27
ATOM     27  O   UNL     1     260.916 -26.565  62.088  1.00  0.00    -0.507 OA
ATOM     28  H   UNL     1     260.365 -25.831  62.508  1.00  0.00     0.293 HD
ENDBRANCH   7  27
TORSDOF 7
ENDMDL
MODEL 9
REMARK VINA RESULT:    -5.533     12.562     13.948
REMARK INTER + INTRA:          -7.201
REMARK INTER:                  -6.852
REMARK INTRA:                  -0.349
REMARK UNBOUND:                -0.374
REMARK SMILES Oc1cc(O)c2cc(O)c(-c3cc(O)c(O)c(O)c3)[o+]c2c1.[Cl-]
REMARK SMILES IDX 10 1 20 2 21 3 22 4 2 5 3 6 4 7 6 8 7 9 8 10 11 11 12 12
REMARK SMILES IDX 13 13 19 14 15 15 17 16 14 17 16 19 18 21 9 23 1 25 5 27
REMARK H PARENT 14 18 16 20 18 22 9 24 1 26 5 28
REMARK Flexibility Score: inf
ROOT
ATOM      1  C   UNL     1     261.908 -27.096  57.389  1.00  0.00     0.402 A 
ATOM      2  O   UNL     1     261.912 -25.952  56.709  1.00  0.00    -0.202 OA
ATOM      3  C   UNL     1     262.692 -25.732  55.656  1.00  0.00     0.368 A 
ATOM      4  C   UNL     1     262.628 -24.496  55.009  1.00  0.00     0.162 A 
ATOM      5  C   UNL     1     263.436 -24.236  53.903  1.00  0.00     0.128 A 
ATOM      6  C   UNL     1     264.318 -25.218  53.438  1.00  0.00     0.093 A 
ATOM      7  C   UNL     1     264.403 -26.465  54.069  1.00  0.00     0.136 A 
ATOM      8  C   UNL     1     263.580 -26.734  55.194  1.00  0.00     0.125 A 
ATOM      9  C   UNL     1     263.587 -27.959  55.881  1.00  0.00     0.078 A 
ATOM     10  C   UNL     1     262.743 -28.152  56.978  1.00  0.00     0.223 A 
ENDROOT
BRANCH   1  11
ATOM     11  C   UNL     1     261.001 -27.216  58.553  1.00  0.00     0.091 A 
ATOM     12  C   UNL     1     259.768 -27.880  58.455  1.00  0.00     0.068 A 
ATOM     13  C   UNL     1     258.935 -28.003  59.574  1.00  0.00     0.162 A 
ATOM     14  C   UNL     1     261.404 -26.709  59.797  1.00  0.00     0.068 A 
ATOM     15  C   UNL     1     259.329 -27.473  60.811  1.00  0.00     0.200 A 
ATOM     16  C   UNL     1     260.581 -26.823  60.924  1.00  0.00     0.162 A 
BRANCH  13  17
ATOM     17  O   UNL     1     257.709 -28.656  59.465  1.00  0.00    -0.504 OA
ATOM     18  H   UNL     1     256.858 -28.155  59.232  1.00  0.00     0.293 HD
ENDBRANCH  13  17
BRANCH  15  19
ATOM     19  O   UNL     1     258.456 -27.617  61.893  1.00  0.00    -0.502 OA
ATOM     20  H   UNL     1     258.748 -27.598  62.860  1.00  0.00     0.293 HD
ENDBRANCH  15  19
BRANCH  16  21
ATOM     21  O   UNL     1     261.045 -26.282  62.125  1.00  0.00    -0.504 OA
ATOM     22  H   UNL     1     260.502 -26.247  62.976  1.00  0.00     0.293 HD
ENDBRANCH  16  21
ENDBRANCH   1  11
BRANCH  10  23
ATOM     23  O   UNL     1     262.713 -29.385  57.630  1.00  0.00    -0.500 OA
ATOM     24  H   UNL     1     261.838 -29.848  57.852  1.00  0.00     0.294 HD
ENDBRANCH  10  23
BRANCH   5  25
ATOM     25  O   UNL     1     263.357 -22.997  53.270  1.00  0.00    -0.507 OA
ATOM     26  H   UNL     1     262.713 -22.832  52.506  1.00  0.00     0.293 HD
ENDBRANCH   5  25
BRANCH   7  27
ATOM     27  O   UNL     1     265.310 -27.391  53.548  1.00  0.00    -0.507 OA
ATOM     28  H   UNL     1     266.171 -27.146  53.081  1.00  0.00     0.293 HD
ENDBRANCH   7  27
TORSDOF 7
ENDMDL
