MODEL 1
REMARK VINA RESULT:    -3.809      0.000      0.000
REMARK INTER + INTRA:          -7.266
REMARK INTER:                  -6.036
REMARK INTRA:                  -1.230
REMARK UNBOUND:                -1.230
REMARK SMILES CCCCCCCCCCCC(=O)[O-]
REMARK SMILES IDX 7 1 8 2 9 3 10 4 11 5 12 6 13 7 14 8 6 9 5 10 4 11 3 12 2 13
REMARK SMILES IDX 1 14
REMARK H PARENT
REMARK Flexibility Score: inf
ROOT
ATOM      1  C   UNL     1      26.931  30.541 -14.158  1.00  0.00     0.000 C 
ENDROOT
BRANCH   1   2
ATOM      2  C   UNL     1      28.351  30.539 -13.566  1.00  0.00     0.000 C 
BRANCH   2   3
ATOM      3  C   UNL     1      28.547  29.454 -12.496  1.00  0.00     0.000 C 
BRANCH   3   4
ATOM      4  C   UNL     1      28.951  30.076 -11.151  1.00  0.00     0.006 C 
BRANCH   4   5
ATOM      5  C   UNL     1      27.738  30.385 -10.265  1.00  0.00     0.053 C 
BRANCH   5   6
ATOM      6  C   UNL     1      27.252  29.164  -9.545  1.00  0.00     0.041 C 
ATOM      7  O   UNL     1      27.616  28.939  -8.361  1.00  0.00    -0.550 OA
ATOM      8  O   UNL     1      26.422  28.259 -10.194  1.00  0.00    -0.550 OA
ENDBRANCH   5   6
ENDBRANCH   4   5
ENDBRANCH   3   4
ENDBRANCH   2   3
ENDBRANCH   1   2
BRANCH   1   9
ATOM      9  C   UNL     1      26.012  29.504 -13.490  1.00  0.00     0.000 C 
BRANCH   9  10
ATOM     10  C   UNL     1      24.796  30.148 -12.804  1.00  0.00    -0.000 C 
BRANCH  10  11
ATOM     11  C   UNL     1      25.030  31.624 -12.445  1.00  0.00    -0.000 C 
BRANCH  11  12
ATOM     12  C   UNL     1      23.913  32.510 -13.018  1.00  0.00    -0.000 C 
BRANCH  12  13
ATOM     13  C   UNL     1      23.197  31.861 -14.212  1.00  0.00    -0.003 C 
ATOM     14  C   UNL     1      23.795  32.277 -15.556  1.00  0.00     0.004 C 
ENDBRANCH  12  13
ENDBRANCH  11  12
ENDBRANCH  10  11
ENDBRANCH   9  10
ENDBRANCH   1   9
TORSDOF 10
ENDMDL
MODEL 2
REMARK VINA RESULT:    -3.665      1.167      2.212
REMARK INTER + INTRA:          -7.038
REMARK INTER:                  -5.743
REMARK INTRA:                  -1.294
REMARK UNBOUND:                -1.230
REMARK SMILES CCCCCCCCCCCC(=O)[O-]
REMARK SMILES IDX 7 1 8 2 9 3 10 4 11 5 12 6 13 7 14 8 6 9 5 10 4 11 3 12 2 13
REMARK SMILES IDX 1 14
REMARK H PARENT
REMARK Flexibility Score: inf
ROOT
ATOM      1  C   UNL     1      26.310  29.917 -14.940  1.00  0.00     0.000 C 
ENDROOT
BRANCH   1   2
ATOM      2  C   UNL     1      26.912  29.543 -13.575  1.00  0.00     0.000 C 
BRANCH   2   3
ATOM      3  C   UNL     1      28.085  30.451 -13.174  1.00  0.00     0.000 C 
BRANCH   3   4
ATOM      4  C   UNL     1      28.744  29.956 -11.878  1.00  0.00     0.006 C 
BRANCH   4   5
ATOM      5  C   UNL     1      27.961  30.380 -10.629  1.00  0.00     0.053 C 
BRANCH   5   6
ATOM      6  C   UNL     1      27.475  29.196  -9.850  1.00  0.00     0.041 C 
ATOM      7  O   UNL     1      27.090  28.157 -10.450  1.00  0.00    -0.550 OA
ATOM      8  O   UNL     1      27.415  29.252  -8.464  1.00  0.00    -0.550 OA
ENDBRANCH   5   6
ENDBRANCH   4   5
ENDBRANCH   3   4
ENDBRANCH   2   3
ENDBRANCH   1   2
BRANCH   1   9
ATOM      9  C   UNL     1      24.953  30.631 -14.810  1.00  0.00     0.000 C 
BRANCH   9  10
ATOM     10  C   UNL     1      25.102  32.121 -14.463  1.00  0.00    -0.000 C 
BRANCH  10  11
ATOM     11  C   UNL     1      24.167  32.563 -13.326  1.00  0.00    -0.000 C 
BRANCH  11  12
ATOM     12  C   UNL     1      24.717  32.121 -11.961  1.00  0.00    -0.000 C 
BRANCH  12  13
ATOM     13  C   UNL     1      23.695  31.317 -11.144  1.00  0.00    -0.003 C 
ATOM     14  C   UNL     1      24.033  29.827 -11.077  1.00  0.00     0.004 C 
ENDBRANCH  12  13
ENDBRANCH  11  12
ENDBRANCH  10  11
ENDBRANCH   9  10
ENDBRANCH   1   9
TORSDOF 10
ENDMDL
MODEL 3
REMARK VINA RESULT:    -3.664      2.553      5.263
REMARK INTER + INTRA:          -7.035
REMARK INTER:                  -6.000
REMARK INTRA:                  -1.036
REMARK UNBOUND:                -1.230
REMARK SMILES CCCCCCCCCCCC(=O)[O-]
REMARK SMILES IDX 7 1 8 2 9 3 10 4 11 5 12 6 13 7 14 8 6 9 5 10 4 11 3 12 2 13
REMARK SMILES IDX 1 14
REMARK H PARENT
REMARK Flexibility Score: inf
ROOT
ATOM      1  C   UNL     1      27.162  30.154 -14.975  1.00  0.00     0.000 C 
ENDROOT
BRANCH   1   2
ATOM      2  C   UNL     1      25.957  29.210 -15.125  1.00  0.00     0.000 C 
BRANCH   2   3
ATOM      3  C   UNL     1      24.856  29.483 -14.088  1.00  0.00     0.000 C 
BRANCH   3   4
ATOM      4  C   UNL     1      23.679  30.239 -14.724  1.00  0.00     0.006 C 
BRANCH   4   5
ATOM      5  C   UNL     1      23.166  31.374 -13.828  1.00  0.00     0.053 C 
BRANCH   5   6
ATOM      6  C   UNL     1      24.181  32.467 -13.682  1.00  0.00     0.041 C 
ATOM      7  O   UNL     1      24.409  32.974 -12.552  1.00  0.00    -0.550 OA
ATOM      8  O   UNL     1      24.851  32.947 -14.800  1.00  0.00    -0.550 OA
ENDBRANCH   5   6
ENDBRANCH   4   5
ENDBRANCH   3   4
ENDBRANCH   2   3
ENDBRANCH   1   2
BRANCH   1   9
ATOM      9  C   UNL     1      27.423  30.549 -13.511  1.00  0.00     0.000 C 
BRANCH   9  10
ATOM     10  C   UNL     1      28.912  30.475 -13.137  1.00  0.00    -0.000 C 
BRANCH  10  11
ATOM     11  C   UNL     1      29.141  29.976 -11.701  1.00  0.00    -0.000 C 
BRANCH  11  12
ATOM     12  C   UNL     1      28.073  30.539 -10.750  1.00  0.00    -0.000 C 
BRANCH  12  13
ATOM     13  C   UNL     1      27.412  29.449  -9.893  1.00  0.00    -0.003 C 
ATOM     14  C   UNL     1      26.931  28.257 -10.720  1.00  0.00     0.004 C 
ENDBRANCH  12  13
ENDBRANCH  11  12
ENDBRANCH  10  11
ENDBRANCH   9  10
ENDBRANCH   1   9
TORSDOF 10
ENDMDL
MODEL 4
REMARK VINA RESULT:    -3.644      2.810      5.127
REMARK INTER + INTRA:          -7.004
REMARK INTER:                  -5.744
REMARK INTRA:                  -1.260
REMARK UNBOUND:                -1.230
REMARK SMILES CCCCCCCCCCCC(=O)[O-]
REMARK SMILES IDX 7 1 8 2 9 3 10 4 11 5 12 6 13 7 14 8 6 9 5 10 4 11 3 12 2 13
REMARK SMILES IDX 1 14
REMARK H PARENT
REMARK Flexibility Score: inf
ROOT
ATOM      1  C   UNL     1      28.451  29.628 -12.539  1.00  0.00     0.000 C 
ENDROOT
BRANCH   1   2
ATOM      2  C   UNL     1      28.025  30.505 -13.728  1.00  0.00     0.000 C 
BRANCH   2   3
ATOM      3  C   UNL     1      26.737  30.008 -14.402  1.00  0.00     0.000 C 
BRANCH   3   4
ATOM      4  C   UNL     1      25.552  30.062 -13.427  1.00  0.00     0.006 C 
BRANCH   4   5
ATOM      5  C   UNL     1      25.238  31.493 -12.971  1.00  0.00     0.053 C 
BRANCH   5   6
ATOM      6  C   UNL     1      24.425  32.233 -13.989  1.00  0.00     0.041 C 
ATOM      7  O   UNL     1      23.182  32.042 -14.070  1.00  0.00    -0.550 OA
ATOM      8  O   UNL     1      25.045  33.110 -14.870  1.00  0.00    -0.550 OA
ENDBRANCH   5   6
ENDBRANCH   4   5
ENDBRANCH   3   4
ENDBRANCH   2   3
ENDBRANCH   1   2
BRANCH   1   9
ATOM      9  C   UNL     1      29.058  30.448 -11.387  1.00  0.00     0.000 C 
BRANCH   9  10
ATOM     10  C   UNL     1      28.111  30.563 -10.182  1.00  0.00    -0.000 C 
BRANCH  10  11
ATOM     11  C   UNL     1      27.682  29.194  -9.631  1.00  0.00    -0.000 C 
BRANCH  11  12
ATOM     12  C   UNL     1      26.223  28.888 -10.001  1.00  0.00    -0.000 C 
BRANCH  12  13
ATOM     13  C   UNL     1      25.955  27.382 -10.150  1.00  0.00    -0.003 C 
ATOM     14  C   UNL     1      26.302  26.855 -11.543  1.00  0.00     0.004 C 
ENDBRANCH  12  13
ENDBRANCH  11  12
ENDBRANCH  10  11
ENDBRANCH   9  10
ENDBRANCH   1   9
TORSDOF 10
ENDMDL
MODEL 5
REMARK VINA RESULT:    -3.630      3.051      4.790
REMARK INTER + INTRA:          -6.981
REMARK INTER:                  -5.638
REMARK INTRA:                  -1.343
REMARK UNBOUND:                -1.230
REMARK SMILES CCCCCCCCCCCC(=O)[O-]
REMARK SMILES IDX 7 1 8 2 9 3 10 4 11 5 12 6 13 7 14 8 6 9 5 10 4 11 3 12 2 13
REMARK SMILES IDX 1 14
REMARK H PARENT
REMARK Flexibility Score: inf
ROOT
ATOM      1  C   UNL     1      26.297  29.041 -10.344  1.00  0.00     0.000 C 
ENDROOT
BRANCH   1   2
ATOM      2  C   UNL     1      26.078  27.543 -10.616  1.00  0.00     0.000 C 
BRANCH   2   3
ATOM      3  C   UNL     1      25.809  27.241 -12.099  1.00  0.00     0.000 C 
BRANCH   3   4
ATOM      4  C   UNL     1      27.056  26.648 -12.773  1.00  0.00     0.006 C 
BRANCH   4   5
ATOM      5  C   UNL     1      26.771  25.292 -13.432  1.00  0.00     0.053 C 
BRANCH   5   6
ATOM      6  C   UNL     1      27.334  24.157 -12.632  1.00  0.00     0.041 C 
ATOM      7  O   UNL     1      28.263  23.449 -13.102  1.00  0.00    -0.550 OA
ATOM      8  O   UNL     1      26.810  23.862 -11.379  1.00  0.00    -0.550 OA
ENDBRANCH   5   6
ENDBRANCH   4   5
ENDBRANCH   3   4
ENDBRANCH   2   3
ENDBRANCH   1   2
BRANCH   1   9
ATOM      9  C   UNL     1      27.749  29.363  -9.951  1.00  0.00     0.000 C 
BRANCH   9  10
ATOM     10  C   UNL     1      28.397  30.396 -10.888  1.00  0.00    -0.000 C 
BRANCH  10  11
ATOM     11  C   UNL     1      28.947  29.766 -12.177  1.00  0.00    -0.000 C 
BRANCH  11  12
ATOM     12  C   UNL     1      28.516  30.578 -13.409  1.00  0.00    -0.000 C 
BRANCH  12  13
ATOM     13  C   UNL     1      27.162  30.122 -13.974  1.00  0.00    -0.003 C 
ATOM     14  C   UNL     1      26.019  31.066 -13.601  1.00  0.00     0.004 C 
ENDBRANCH  12  13
ENDBRANCH  11  12
ENDBRANCH  10  11
ENDBRANCH   9  10
ENDBRANCH   1   9
TORSDOF 10
ENDMDL
MODEL 6
REMARK VINA RESULT:    -3.581      1.547      2.162
REMARK INTER + INTRA:          -6.903
REMARK INTER:                  -5.506
REMARK INTRA:                  -1.397
REMARK UNBOUND:                -1.230
REMARK SMILES CCCCCCCCCCCC(=O)[O-]
REMARK SMILES IDX 7 1 8 2 9 3 10 4 11 5 12 6 13 7 14 8 6 9 5 10 4 11 3 12 2 13
REMARK SMILES IDX 1 14
REMARK H PARENT
REMARK Flexibility Score: inf
ROOT
ATOM      1  C   UNL     1      25.926  28.496 -14.735  1.00  0.00     0.000 C 
ENDROOT
BRANCH   1   2
ATOM      2  C   UNL     1      26.579  29.730 -15.380  1.00  0.00     0.000 C 
BRANCH   2   3
ATOM      3  C   UNL     1      27.496  30.492 -14.410  1.00  0.00     0.000 C 
BRANCH   3   4
ATOM      4  C   UNL     1      27.199  30.102 -12.954  1.00  0.00     0.006 C 
BRANCH   4   5
ATOM      5  C   UNL     1      28.478  29.820 -12.155  1.00  0.00     0.053 C 
BRANCH   5   6
ATOM      6  C   UNL     1      28.263  29.997 -10.683  1.00  0.00     0.041 C 
ATOM      7  O   UNL     1      28.536  31.095 -10.129  1.00  0.00    -0.550 OA
ATOM      8  O   UNL     1      27.790  28.939  -9.917  1.00  0.00    -0.550 OA
ENDBRANCH   5   6
ENDBRANCH   4   5
ENDBRANCH   3   4
ENDBRANCH   2   3
ENDBRANCH   1   2
BRANCH   1   9
ATOM      9  C   UNL     1      24.397  28.477 -14.914  1.00  0.00     0.000 C 
BRANCH   9  10
ATOM     10  C   UNL     1      23.653  29.016 -13.681  1.00  0.00    -0.000 C 
BRANCH  10  11
ATOM     11  C   UNL     1      23.219  30.481 -13.842  1.00  0.00    -0.000 C 
BRANCH  11  12
ATOM     12  C   UNL     1      23.686  31.325 -12.647  1.00  0.00    -0.000 C 
BRANCH  12  13
ATOM     13  C   UNL     1      24.370  32.632 -13.077  1.00  0.00    -0.003 C 
ATOM     14  C   UNL     1      24.583  32.717 -14.588  1.00  0.00     0.004 C 
ENDBRANCH  12  13
ENDBRANCH  11  12
ENDBRANCH  10  11
ENDBRANCH   9  10
ENDBRANCH   1   9
TORSDOF 10
ENDMDL
MODEL 7
REMARK VINA RESULT:    -3.551      3.214      5.142
REMARK INTER + INTRA:          -6.856
REMARK INTER:                  -5.529
REMARK INTRA:                  -1.328
REMARK UNBOUND:                -1.230
REMARK SMILES CCCCCCCCCCCC(=O)[O-]
REMARK SMILES IDX 7 1 8 2 9 3 10 4 11 5 12 6 13 7 14 8 6 9 5 10 4 11 3 12 2 13
REMARK SMILES IDX 1 14
REMARK H PARENT
REMARK Flexibility Score: inf
ROOT
ATOM      1  C   UNL     1      26.114  29.665 -14.514  1.00  0.00     0.000 C 
ENDROOT
BRANCH   1   2
ATOM      2  C   UNL     1      25.512  28.393 -13.893  1.00  0.00     0.000 C 
BRANCH   2   3
ATOM      3  C   UNL     1      26.297  27.124 -14.259  1.00  0.00     0.000 C 
BRANCH   3   4
ATOM      4  C   UNL     1      27.108  26.615 -13.058  1.00  0.00     0.006 C 
BRANCH   4   5
ATOM      5  C   UNL     1      26.608  25.255 -12.554  1.00  0.00     0.053 C 
BRANCH   5   6
ATOM      6  C   UNL     1      27.098  24.130 -13.415  1.00  0.00     0.041 C 
ATOM      7  O   UNL     1      26.385  23.695 -14.357  1.00  0.00    -0.550 OA
ATOM      8  O   UNL     1      28.330  23.542 -13.155  1.00  0.00    -0.550 OA
ENDBRANCH   5   6
ENDBRANCH   4   5
ENDBRANCH   3   4
ENDBRANCH   2   3
ENDBRANCH   1   2
BRANCH   1   9
ATOM      9  C   UNL     1      26.780  30.574 -13.466  1.00  0.00     0.000 C 
BRANCH   9  10
ATOM     10  C   UNL     1      28.315  30.505 -13.517  1.00  0.00    -0.000 C 
BRANCH  10  11
ATOM     11  C   UNL     1      28.923  29.864 -12.260  1.00  0.00    -0.000 C 
BRANCH  11  12
ATOM     12  C   UNL     1      28.176  30.319 -10.997  1.00  0.00    -0.000 C 
BRANCH  12  13
ATOM     13  C   UNL     1      27.715  29.141 -10.125  1.00  0.00    -0.003 C 
ATOM     14  C   UNL     1      26.206  28.905 -10.201  1.00  0.00     0.004 C 
ENDBRANCH  12  13
ENDBRANCH  11  12
ENDBRANCH  10  11
ENDBRANCH   9  10
ENDBRANCH   1   9
TORSDOF 10
ENDMDL
MODEL 8
REMARK VINA RESULT:    -3.538      1.665      2.979
REMARK INTER + INTRA:          -6.836
REMARK INTER:                  -5.164
REMARK INTRA:                  -1.672
REMARK UNBOUND:                -1.230
REMARK SMILES CCCCCCCCCCCC(=O)[O-]
REMARK SMILES IDX 7 1 8 2 9 3 10 4 11 5 12 6 13 7 14 8 6 9 5 10 4 11 3 12 2 13
REMARK SMILES IDX 1 14
REMARK H PARENT
REMARK Flexibility Score: inf
ROOT
ATOM      1  C   UNL     1      28.951  29.831 -11.825  1.00  0.00     0.000 C 
ENDROOT
BRANCH   1   2
ATOM      2  C   UNL     1      28.570  30.878 -10.765  1.00  0.00     0.000 C 
BRANCH   2   3
ATOM      3  C   UNL     1      27.758  30.281  -9.605  1.00  0.00     0.000 C 
BRANCH   3   4
ATOM      4  C   UNL     1      27.290  28.856  -9.940  1.00  0.00     0.006 C 
BRANCH   4   5
ATOM      5  C   UNL     1      25.809  28.637  -9.604  1.00  0.00     0.053 C 
BRANCH   5   6
ATOM      6  C   UNL     1      25.637  27.936  -8.291  1.00  0.00     0.041 C 
ATOM      7  O   UNL     1      25.624  28.594  -7.217  1.00  0.00    -0.550 OA
ATOM      8  O   UNL     1      25.522  26.552  -8.251  1.00  0.00    -0.550 OA
ENDBRANCH   5   6
ENDBRANCH   4   5
ENDBRANCH   3   4
ENDBRANCH   2   3
ENDBRANCH   1   2
BRANCH   1   9
ATOM      9  C   UNL     1      29.100  30.440 -13.230  1.00  0.00     0.000 C 
BRANCH   9  10
ATOM     10  C   UNL     1      27.771  30.470 -14.003  1.00  0.00    -0.000 C 
BRANCH  10  11
ATOM     11  C   UNL     1      26.858  29.283 -13.660  1.00  0.00    -0.000 C 
BRANCH  11  12
ATOM     12  C   UNL     1      25.482  29.771 -13.179  1.00  0.00    -0.000 C 
BRANCH  12  13
ATOM     13  C   UNL     1      25.444  31.288 -12.940  1.00  0.00    -0.003 C 
ATOM     14  C   UNL     1      24.773  31.661 -11.618  1.00  0.00     0.004 C 
ENDBRANCH  12  13
ENDBRANCH  11  12
ENDBRANCH  10  11
ENDBRANCH   9  10
ENDBRANCH   1   9
TORSDOF 10
ENDMDL
MODEL 9
REMARK VINA RESULT:    -3.529      2.903      5.020
REMARK INTER + INTRA:          -6.822
REMARK INTER:                  -5.376
REMARK INTRA:                  -1.446
REMARK UNBOUND:                -1.230
REMARK SMILES CCCCCCCCCCCC(=O)[O-]
REMARK SMILES IDX 7 1 8 2 9 3 10 4 11 5 12 6 13 7 14 8 6 9 5 10 4 11 3 12 2 13
REMARK SMILES IDX 1 14
REMARK H PARENT
REMARK Flexibility Score: inf
ROOT
ATOM      1  C   UNL     1      28.068  30.275 -10.941  1.00  0.00     0.000 C 
ENDROOT
BRANCH   1   2
ATOM      2  C   UNL     1      28.876  29.885 -12.191  1.00  0.00     0.000 C 
BRANCH   2   3
ATOM      3  C   UNL     1      28.277  30.453 -13.486  1.00  0.00     0.000 C 
BRANCH   3   4
ATOM      4  C   UNL     1      26.784  30.770 -13.308  1.00  0.00     0.006 C 
BRANCH   4   5
ATOM      5  C   UNL     1      26.011  30.694 -14.631  1.00  0.00     0.053 C 
BRANCH   5   6
ATOM      6  C   UNL     1      24.798  31.573 -14.616  1.00  0.00     0.041 C 
ATOM      7  O   UNL     1      23.760  31.233 -15.243  1.00  0.00    -0.550 OA
ATOM      8  O   UNL     1      24.826  32.784 -13.936  1.00  0.00    -0.550 OA
ENDBRANCH   5   6
ENDBRANCH   4   5
ENDBRANCH   3   4
ENDBRANCH   2   3
ENDBRANCH   1   2
BRANCH   1   9
ATOM      9  C   UNL     1      27.758  29.068 -10.038  1.00  0.00     0.000 C 
BRANCH   9  10
ATOM     10  C   UNL     1      26.256  28.747  -9.979  1.00  0.00    -0.000 C 
BRANCH  10  11
ATOM     11  C   UNL     1      25.747  28.050 -11.250  1.00  0.00    -0.000 C 
BRANCH  11  12
ATOM     12  C   UNL     1      26.551  26.772 -11.533  1.00  0.00    -0.000 C 
BRANCH  12  13
ATOM     13  C   UNL     1      27.085  26.716 -12.972  1.00  0.00    -0.003 C 
ATOM     14  C   UNL     1      26.002  26.987 -14.016  1.00  0.00     0.004 C 
ENDBRANCH  12  13
ENDBRANCH  11  12
ENDBRANCH  10  11
ENDBRANCH   9  10
ENDBRANCH   1   9
TORSDOF 10
ENDMDL
