MODEL 1
REMARK VINA RESULT:    -5.552      0.000      0.000
REMARK INTER + INTRA:         -15.172
REMARK INTER:                 -12.043
REMARK INTRA:                  -3.129
REMARK UNBOUND:                -3.129
REMARK SMILES CCCCCCCCCCCCCCCCCCCCCC(=O)[O-]
REMARK SMILES IDX 12 1 11 2 10 3 9 4 8 5 7 6 6 7 5 8 4 9 3 10 2 11 1 12 13 13
REMARK SMILES IDX 14 14 15 15 16 16 17 17 18 18 19 19 20 20 21 21 22 22 23 23
REMARK SMILES IDX 24 24
REMARK H PARENT
REMARK Flexibility Score: inf
ROOT
ATOM      1  C   UNL     1      53.964  13.986   0.161  1.00  0.00     0.000 C 
ENDROOT
BRANCH   1   2
ATOM      2  C   UNL     1      52.954  14.621  -0.812  1.00  0.00     0.000 C 
BRANCH   2   3
ATOM      3  C   UNL     1      53.568  15.558  -1.867  1.00  0.00     0.000 C 
BRANCH   3   4
ATOM      4  C   UNL     1      52.989  16.980  -1.819  1.00  0.00    -0.000 C 
BRANCH   4   5
ATOM      5  C   UNL     1      53.953  17.938  -1.106  1.00  0.00    -0.000 C 
BRANCH   5   6
ATOM      6  C   UNL     1      55.332  17.310  -0.838  1.00  0.00    -0.000 C 
BRANCH   6   7
ATOM      7  C   UNL     1      55.925  17.613   0.553  1.00  0.00    -0.000 C 
BRANCH   7   8
ATOM      8  C   UNL     1      57.145  16.756   0.946  1.00  0.00    -0.000 C 
BRANCH   8   9
ATOM      9  C   UNL     1      57.298  15.443   0.157  1.00  0.00    -0.000 C 
BRANCH   9  10
ATOM     10  C   UNL     1      58.556  14.655   0.547  1.00  0.00    -0.000 C 
BRANCH  10  11
ATOM     11  C   UNL     1      58.435  13.185   0.129  1.00  0.00    -0.003 C 
ATOM     12  C   UNL     1      57.270  12.503   0.839  1.00  0.00     0.004 C 
ENDBRANCH  10  11
ENDBRANCH   9  10
ENDBRANCH   8   9
ENDBRANCH   7   8
ENDBRANCH   6   7
ENDBRANCH   5   6
ENDBRANCH   4   5
ENDBRANCH   3   4
ENDBRANCH   2   3
ENDBRANCH   1   2
BRANCH   1  13
ATOM     13  C   UNL     1      53.897  14.583   1.575  1.00  0.00     0.000 C 
BRANCH  13  14
ATOM     14  C   UNL     1      52.738  15.584   1.695  1.00  0.00     0.000 C 
BRANCH  14  15
ATOM     15  C   UNL     1      53.182  16.944   2.257  1.00  0.00     0.000 C 
BRANCH  15  16
ATOM     16  C   UNL     1      51.997  17.885   2.540  1.00  0.00     0.000 C 
BRANCH  16  17
ATOM     17  C   UNL     1      50.809  17.653   1.589  1.00  0.00     0.000 C 
BRANCH  17  18
ATOM     18  C   UNL     1      50.139  18.934   1.059  1.00  0.00     0.000 C 
BRANCH  18  19
ATOM     19  C   UNL     1      50.643  19.341  -0.334  1.00  0.00     0.000 C 
BRANCH  19  20
ATOM     20  C   UNL     1      49.503  19.319  -1.358  1.00  0.00     0.006 C 
BRANCH  20  21
ATOM     21  C   UNL     1      48.358  20.241  -0.929  1.00  0.00     0.053 C 
BRANCH  21  22
ATOM     22  C   UNL     1      48.333  21.474  -1.776  1.00  0.00     0.041 C 
ATOM     23  O   UNL     1      47.236  22.019  -2.069  1.00  0.00    -0.550 OA
ATOM     24  O   UNL     1      49.516  21.986  -2.293  1.00  0.00    -0.550 OA
ENDBRANCH  21  22
ENDBRANCH  20  21
ENDBRANCH  19  20
ENDBRANCH  18  19
ENDBRANCH  17  18
ENDBRANCH  16  17
ENDBRANCH  15  16
ENDBRANCH  14  15
ENDBRANCH  13  14
ENDBRANCH   1  13
TORSDOF 20
ENDMDL
MODEL 2
REMARK VINA RESULT:    -5.547      2.856      4.957
REMARK INTER + INTRA:         -15.161
REMARK INTER:                 -12.716
REMARK INTRA:                  -2.446
REMARK UNBOUND:                -3.129
REMARK SMILES CCCCCCCCCCCCCCCCCCCCCC(=O)[O-]
REMARK SMILES IDX 12 1 11 2 10 3 9 4 8 5 7 6 6 7 5 8 4 9 3 10 2 11 1 12 13 13
REMARK SMILES IDX 14 14 15 15 16 16 17 17 18 18 19 19 20 20 21 21 22 22 23 23
REMARK SMILES IDX 24 24
REMARK H PARENT
REMARK Flexibility Score: inf
ROOT
ATOM      1  C   UNL     1      53.585  15.398  -1.771  1.00  0.00     0.000 C 
ENDROOT
BRANCH   1   2
ATOM      2  C   UNL     1      53.292  14.349  -0.683  1.00  0.00     0.000 C 
BRANCH   2   3
ATOM      3  C   UNL     1      54.394  13.292  -0.484  1.00  0.00     0.000 C 
BRANCH   3   4
ATOM      4  C   UNL     1      55.393  13.666   0.620  1.00  0.00    -0.000 C 
BRANCH   4   5
ATOM      5  C   UNL     1      56.602  12.719   0.605  1.00  0.00    -0.000 C 
BRANCH   5   6
ATOM      6  C   UNL     1      57.864  13.369   0.012  1.00  0.00    -0.000 C 
BRANCH   6   7
ATOM      7  C   UNL     1      59.167  12.575   0.231  1.00  0.00    -0.000 C 
BRANCH   7   8
ATOM      8  C   UNL     1      59.016  11.042   0.179  1.00  0.00    -0.000 C 
BRANCH   8   9
ATOM      9  C   UNL     1      60.041  10.258   1.019  1.00  0.00    -0.000 C 
BRANCH   9  10
ATOM     10  C   UNL     1      61.131   9.595   0.167  1.00  0.00    -0.000 C 
BRANCH  10  11
ATOM     11  C   UNL     1      60.606   8.316  -0.496  1.00  0.00    -0.003 C 
ATOM     12  C   UNL     1      60.847   7.096   0.388  1.00  0.00     0.004 C 
ENDBRANCH  10  11
ENDBRANCH   9  10
ENDBRANCH   8   9
ENDBRANCH   7   8
ENDBRANCH   6   7
ENDBRANCH   5   6
ENDBRANCH   4   5
ENDBRANCH   3   4
ENDBRANCH   2   3
ENDBRANCH   1   2
BRANCH   1  13
ATOM     13  C   UNL     1      53.059  16.797  -1.416  1.00  0.00     0.000 C 
BRANCH  13  14
ATOM     14  C   UNL     1      54.217  17.758  -1.108  1.00  0.00     0.000 C 
BRANCH  14  15
ATOM     15  C   UNL     1      55.567  17.037  -0.960  1.00  0.00     0.000 C 
BRANCH  15  16
ATOM     16  C   UNL     1      56.181  17.205   0.441  1.00  0.00     0.000 C 
BRANCH  16  17
ATOM     17  C   UNL     1      55.209  17.852   1.445  1.00  0.00     0.000 C 
BRANCH  17  18
ATOM     18  C   UNL     1      54.571  16.879   2.453  1.00  0.00     0.000 C 
BRANCH  18  19
ATOM     19  C   UNL     1      53.093  16.589   2.151  1.00  0.00     0.000 C 
BRANCH  19  20
ATOM     20  C   UNL     1      52.211  17.785   2.528  1.00  0.00     0.006 C 
BRANCH  20  21
ATOM     21  C   UNL     1      50.988  17.879   1.611  1.00  0.00     0.053 C 
BRANCH  21  22
ATOM     22  C   UNL     1      49.788  18.327   2.384  1.00  0.00     0.041 C 
ATOM     23  O   UNL     1      48.883  17.504   2.682  1.00  0.00    -0.550 OA
ATOM     24  O   UNL     1      49.637  19.666   2.720  1.00  0.00    -0.550 OA
ENDBRANCH  21  22
ENDBRANCH  20  21
ENDBRANCH  19  20
ENDBRANCH  18  19
ENDBRANCH  17  18
ENDBRANCH  16  17
ENDBRANCH  15  16
ENDBRANCH  14  15
ENDBRANCH  13  14
ENDBRANCH   1  13
TORSDOF 20
ENDMDL
MODEL 3
REMARK VINA RESULT:    -5.541      1.682      3.035
REMARK INTER + INTRA:         -15.147
REMARK INTER:                 -12.271
REMARK INTRA:                  -2.876
REMARK UNBOUND:                -3.129
REMARK SMILES CCCCCCCCCCCCCCCCCCCCCC(=O)[O-]
REMARK SMILES IDX 12 1 11 2 10 3 9 4 8 5 7 6 6 7 5 8 4 9 3 10 2 11 1 12 13 13
REMARK SMILES IDX 14 14 15 15 16 16 17 17 18 18 19 19 20 20 21 21 22 22 23 23
REMARK SMILES IDX 24 24
REMARK H PARENT
REMARK Flexibility Score: inf
ROOT
ATOM      1  C   UNL     1      55.575  17.067  -0.844  1.00  0.00     0.000 C 
ENDROOT
BRANCH   1   2
ATOM      2  C   UNL     1      54.389  18.028  -1.045  1.00  0.00     0.000 C 
BRANCH   2   3
ATOM      3  C   UNL     1      53.028  17.344  -1.272  1.00  0.00     0.000 C 
BRANCH   3   4
ATOM      4  C   UNL     1      53.156  15.933  -1.863  1.00  0.00    -0.000 C 
BRANCH   4   5
ATOM      5  C   UNL     1      52.892  14.866  -0.791  1.00  0.00    -0.000 C 
BRANCH   5   6
ATOM      6  C   UNL     1      53.971  13.769  -0.760  1.00  0.00    -0.000 C 
BRANCH   6   7
ATOM      7  C   UNL     1      54.826  13.737   0.522  1.00  0.00    -0.000 C 
BRANCH   7   8
ATOM      8  C   UNL     1      56.289  13.293   0.322  1.00  0.00    -0.000 C 
BRANCH   8   9
ATOM      9  C   UNL     1      56.518  11.771   0.352  1.00  0.00    -0.000 C 
BRANCH   9  10
ATOM     10  C   UNL     1      57.554  11.301  -0.677  1.00  0.00    -0.000 C 
BRANCH  10  11
ATOM     11  C   UNL     1      58.843  10.840   0.012  1.00  0.00    -0.003 C 
ATOM     12  C   UNL     1      58.564  10.323   1.419  1.00  0.00     0.004 C 
ENDBRANCH  10  11
ENDBRANCH   9  10
ENDBRANCH   8   9
ENDBRANCH   7   8
ENDBRANCH   6   7
ENDBRANCH   5   6
ENDBRANCH   4   5
ENDBRANCH   3   4
ENDBRANCH   2   3
ENDBRANCH   1   2
BRANCH   1  13
ATOM     13  C   UNL     1      56.224  17.192   0.543  1.00  0.00     0.000 C 
BRANCH  13  14
ATOM     14  C   UNL     1      55.301  17.941   1.516  1.00  0.00     0.000 C 
BRANCH  14  15
ATOM     15  C   UNL     1      54.654  17.013   2.557  1.00  0.00     0.000 C 
BRANCH  15  16
ATOM     16  C   UNL     1      53.164  16.749   2.274  1.00  0.00     0.000 C 
BRANCH  16  17
ATOM     17  C   UNL     1      52.252  17.885   2.774  1.00  0.00     0.000 C 
BRANCH  17  18
ATOM     18  C   UNL     1      50.861  17.940   2.117  1.00  0.00     0.000 C 
BRANCH  18  19
ATOM     19  C   UNL     1      50.734  19.066   1.080  1.00  0.00     0.000 C 
BRANCH  19  20
ATOM     20  C   UNL     1      49.686  18.717   0.015  1.00  0.00     0.006 C 
BRANCH  20  21
ATOM     21  C   UNL     1      49.909  19.527  -1.265  1.00  0.00     0.053 C 
BRANCH  21  22
ATOM     22  C   UNL     1      49.610  18.694  -2.470  1.00  0.00     0.041 C 
ATOM     23  O   UNL     1      50.518  18.440  -3.305  1.00  0.00    -0.550 OA
ATOM     24  O   UNL     1      48.316  18.251  -2.705  1.00  0.00    -0.550 OA
ENDBRANCH  21  22
ENDBRANCH  20  21
ENDBRANCH  19  20
ENDBRANCH  18  19
ENDBRANCH  17  18
ENDBRANCH  16  17
ENDBRANCH  15  16
ENDBRANCH  14  15
ENDBRANCH  13  14
ENDBRANCH   1  13
TORSDOF 20
ENDMDL
MODEL 4
REMARK VINA RESULT:    -5.536      4.428      9.131
REMARK INTER + INTRA:         -15.138
REMARK INTER:                 -12.555
REMARK INTRA:                  -2.583
REMARK UNBOUND:                -3.129
REMARK SMILES CCCCCCCCCCCCCCCCCCCCCC(=O)[O-]
REMARK SMILES IDX 12 1 11 2 10 3 9 4 8 5 7 6 6 7 5 8 4 9 3 10 2 11 1 12 13 13
REMARK SMILES IDX 14 14 15 15 16 16 17 17 18 18 19 19 20 20 21 21 22 22 23 23
REMARK SMILES IDX 24 24
REMARK H PARENT
REMARK Flexibility Score: inf
ROOT
ATOM      1  C   UNL     1      55.083  17.916   1.482  1.00  0.00     0.000 C 
ENDROOT
BRANCH   1   2
ATOM      2  C   UNL     1      54.496  16.917   2.494  1.00  0.00     0.000 C 
BRANCH   2   3
ATOM      3  C   UNL     1      53.007  16.581   2.288  1.00  0.00     0.000 C 
BRANCH   3   4
ATOM      4  C   UNL     1      52.098  17.817   2.349  1.00  0.00    -0.000 C 
BRANCH   4   5
ATOM      5  C   UNL     1      51.372  18.026   1.013  1.00  0.00    -0.000 C 
BRANCH   5   6
ATOM      6  C   UNL     1      49.969  18.638   1.183  1.00  0.00    -0.000 C 
BRANCH   6   7
ATOM      7  C   UNL     1      49.748  19.397   2.505  1.00  0.00    -0.000 C 
BRANCH   7   8
ATOM      8  C   UNL     1      48.502  20.305   2.539  1.00  0.00    -0.000 C 
BRANCH   8   9
ATOM      9  C   UNL     1      47.156  19.560   2.596  1.00  0.00    -0.000 C 
BRANCH   9  10
ATOM     10  C   UNL     1      45.957  20.470   2.302  1.00  0.00    -0.000 C 
BRANCH  10  11
ATOM     11  C   UNL     1      45.446  21.138   3.584  1.00  0.00    -0.003 C 
ATOM     12  C   UNL     1      44.171  21.933   3.323  1.00  0.00     0.004 C 
ENDBRANCH  10  11
ENDBRANCH   9  10
ENDBRANCH   8   9
ENDBRANCH   7   8
ENDBRANCH   6   7
ENDBRANCH   5   6
ENDBRANCH   4   5
ENDBRANCH   3   4
ENDBRANCH   2   3
ENDBRANCH   1   2
BRANCH   1  13
ATOM     13  C   UNL     1      56.141  17.290   0.560  1.00  0.00     0.000 C 
BRANCH  13  14
ATOM     14  C   UNL     1      55.600  17.129  -0.868  1.00  0.00     0.000 C 
BRANCH  14  15
ATOM     15  C   UNL     1      54.258  17.847  -1.082  1.00  0.00     0.000 C 
BRANCH  15  16
ATOM     16  C   UNL     1      53.217  16.963  -1.792  1.00  0.00     0.000 C 
BRANCH  16  17
ATOM     17  C   UNL     1      53.639  15.484  -1.863  1.00  0.00     0.000 C 
BRANCH  17  18
ATOM     18  C   UNL     1      53.230  14.631  -0.648  1.00  0.00     0.000 C 
BRANCH  18  19
ATOM     19  C   UNL     1      54.155  13.425  -0.426  1.00  0.00     0.000 C 
BRANCH  19  20
ATOM     20  C   UNL     1      55.144  13.694   0.714  1.00  0.00     0.006 C 
BRANCH  20  21
ATOM     21  C   UNL     1      56.591  13.623   0.217  1.00  0.00     0.053 C 
BRANCH  21  22
ATOM     22  C   UNL     1      57.129  12.236   0.368  1.00  0.00     0.041 C 
ATOM     23  O   UNL     1      57.726  11.680  -0.592  1.00  0.00    -0.550 OA
ATOM     24  O   UNL     1      56.918  11.533   1.547  1.00  0.00    -0.550 OA
ENDBRANCH  21  22
ENDBRANCH  20  21
ENDBRANCH  19  20
ENDBRANCH  18  19
ENDBRANCH  17  18
ENDBRANCH  16  17
ENDBRANCH  15  16
ENDBRANCH  14  15
ENDBRANCH  13  14
ENDBRANCH   1  13
TORSDOF 20
ENDMDL
MODEL 5
REMARK VINA RESULT:    -5.530      1.522      3.633
REMARK INTER + INTRA:         -15.125
REMARK INTER:                 -12.044
REMARK INTRA:                  -3.081
REMARK UNBOUND:                -3.129
REMARK SMILES CCCCCCCCCCCCCCCCCCCCCC(=O)[O-]
REMARK SMILES IDX 12 1 11 2 10 3 9 4 8 5 7 6 6 7 5 8 4 9 3 10 2 11 1 12 13 13
REMARK SMILES IDX 14 14 15 15 16 16 17 17 18 18 19 19 20 20 21 21 22 22 23 23
REMARK SMILES IDX 24 24
REMARK H PARENT
REMARK Flexibility Score: inf
ROOT
ATOM      1  C   UNL     1      51.677  17.503  -1.819  1.00  0.00     0.000 C 
ENDROOT
BRANCH   1   2
ATOM      2  C   UNL     1      53.162  17.234  -1.519  1.00  0.00     0.000 C 
BRANCH   2   3
ATOM      3  C   UNL     1      53.645  15.809  -1.847  1.00  0.00     0.000 C 
BRANCH   3   4
ATOM      4  C   UNL     1      53.019  14.738  -0.941  1.00  0.00    -0.000 C 
BRANCH   4   5
ATOM      5  C   UNL     1      54.067  14.151   0.014  1.00  0.00    -0.000 C 
BRANCH   5   6
ATOM      6  C   UNL     1      53.799  14.504   1.488  1.00  0.00    -0.000 C 
BRANCH   6   7
ATOM      7  C   UNL     1      52.679  15.539   1.714  1.00  0.00    -0.000 C 
BRANCH   7   8
ATOM      8  C   UNL     1      53.160  16.948   2.114  1.00  0.00    -0.000 C 
BRANCH   8   9
ATOM      9  C   UNL     1      54.673  17.071   2.367  1.00  0.00    -0.000 C 
BRANCH   9  10
ATOM     10  C   UNL     1      55.408  17.819   1.247  1.00  0.00    -0.000 C 
BRANCH  10  11
ATOM     11  C   UNL     1      56.840  17.297   1.086  1.00  0.00    -0.003 C 
ATOM     12  C   UNL     1      56.904  16.160   0.072  1.00  0.00     0.004 C 
ENDBRANCH  10  11
ENDBRANCH   9  10
ENDBRANCH   8   9
ENDBRANCH   7   8
ENDBRANCH   6   7
ENDBRANCH   5   6
ENDBRANCH   4   5
ENDBRANCH   3   4
ENDBRANCH   2   3
ENDBRANCH   1   2
BRANCH   1  13
ATOM     13  C   UNL     1      51.276  18.971  -1.609  1.00  0.00     0.000 C 
BRANCH  13  14
ATOM     14  C   UNL     1      49.903  19.074  -0.928  1.00  0.00     0.000 C 
BRANCH  14  15
ATOM     15  C   UNL     1      49.875  18.412   0.460  1.00  0.00     0.000 C 
BRANCH  15  16
ATOM     16  C   UNL     1      50.450  19.319   1.563  1.00  0.00     0.000 C 
BRANCH  16  17
ATOM     17  C   UNL     1      49.398  19.724   2.611  1.00  0.00     0.000 C 
BRANCH  17  18
ATOM     18  C   UNL     1      47.995  19.130   2.389  1.00  0.00     0.000 C 
BRANCH  18  19
ATOM     19  C   UNL     1      46.909  20.205   2.231  1.00  0.00     0.000 C 
BRANCH  19  20
ATOM     20  C   UNL     1      47.157  21.056   0.980  1.00  0.00     0.006 C 
BRANCH  20  21
ATOM     21  C   UNL     1      46.279  20.593  -0.186  1.00  0.00     0.053 C 
BRANCH  21  22
ATOM     22  C   UNL     1      46.805  21.127  -1.481  1.00  0.00     0.041 C 
ATOM     23  O   UNL     1      46.397  20.652  -2.574  1.00  0.00    -0.550 OA
ATOM     24  O   UNL     1      47.792  22.104  -1.481  1.00  0.00    -0.550 OA
ENDBRANCH  21  22
ENDBRANCH  20  21
ENDBRANCH  19  20
ENDBRANCH  18  19
ENDBRANCH  17  18
ENDBRANCH  16  17
ENDBRANCH  15  16
ENDBRANCH  14  15
ENDBRANCH  13  14
ENDBRANCH   1  13
TORSDOF 20
ENDMDL
MODEL 6
REMARK VINA RESULT:    -5.527      2.234      3.563
REMARK INTER + INTRA:         -15.117
REMARK INTER:                 -12.144
REMARK INTRA:                  -2.973
REMARK UNBOUND:                -3.129
REMARK SMILES CCCCCCCCCCCCCCCCCCCCCC(=O)[O-]
REMARK SMILES IDX 12 1 11 2 10 3 9 4 8 5 7 6 6 7 5 8 4 9 3 10 2 11 1 12 13 13
REMARK SMILES IDX 14 14 15 15 16 16 17 17 18 18 19 19 20 20 21 21 22 22 23 23
REMARK SMILES IDX 24 24
REMARK H PARENT
REMARK Flexibility Score: inf
ROOT
ATOM      1  C   UNL     1      53.949  14.118   0.045  1.00  0.00     0.000 C 
ENDROOT
BRANCH   1   2
ATOM      2  C   UNL     1      53.683  14.644   1.467  1.00  0.00     0.000 C 
BRANCH   2   3
ATOM      3  C   UNL     1      52.550  15.680   1.578  1.00  0.00     0.000 C 
BRANCH   3   4
ATOM      4  C   UNL     1      53.042  17.065   2.023  1.00  0.00    -0.000 C 
BRANCH   4   5
ATOM      5  C   UNL     1      54.545  17.035   2.335  1.00  0.00    -0.000 C 
BRANCH   5   6
ATOM      6  C   UNL     1      55.382  17.840   1.325  1.00  0.00    -0.000 C 
BRANCH   6   7
ATOM      7  C   UNL     1      56.809  17.305   1.091  1.00  0.00    -0.000 C 
BRANCH   7   8
ATOM      8  C   UNL     1      56.906  16.091   0.146  1.00  0.00    -0.000 C 
BRANCH   8   9
ATOM      9  C   UNL     1      58.217  15.290   0.249  1.00  0.00    -0.000 C 
BRANCH   9  10
ATOM     10  C   UNL     1      59.367  16.102   0.858  1.00  0.00    -0.000 C 
BRANCH  10  11
ATOM     11  C   UNL     1      60.404  15.180   1.511  1.00  0.00    -0.003 C 
ATOM     12  C   UNL     1      60.826  14.063   0.563  1.00  0.00     0.004 C 
ENDBRANCH  10  11
ENDBRANCH   9  10
ENDBRANCH   8   9
ENDBRANCH   7   8
ENDBRANCH   6   7
ENDBRANCH   5   6
ENDBRANCH   4   5
ENDBRANCH   3   4
ENDBRANCH   2   3
ENDBRANCH   1   2
BRANCH   1  13
ATOM     13  C   UNL     1      53.045  14.766  -1.015  1.00  0.00     0.000 C 
BRANCH  13  14
ATOM     14  C   UNL     1      53.809  15.831  -1.814  1.00  0.00     0.000 C 
BRANCH  14  15
ATOM     15  C   UNL     1      53.160  17.222  -1.728  1.00  0.00     0.000 C 
BRANCH  15  16
ATOM     16  C   UNL     1      51.627  17.171  -1.855  1.00  0.00     0.000 C 
BRANCH  16  17
ATOM     17  C   UNL     1      51.007  18.550  -2.148  1.00  0.00     0.000 C 
BRANCH  17  18
ATOM     18  C   UNL     1      49.917  18.997  -1.156  1.00  0.00     0.000 C 
BRANCH  18  19
ATOM     19  C   UNL     1      50.429  19.101   0.288  1.00  0.00     0.000 C 
BRANCH  19  20
ATOM     20  C   UNL     1      49.551  18.282   1.242  1.00  0.00     0.006 C 
BRANCH  20  21
ATOM     21  C   UNL     1      48.897  19.179   2.297  1.00  0.00     0.053 C 
BRANCH  21  22
ATOM     22  C   UNL     1      49.911  19.637   3.297  1.00  0.00     0.041 C 
ATOM     23  O   UNL     1      50.667  18.801   3.859  1.00  0.00    -0.550 OA
ATOM     24  O   UNL     1      49.980  20.977   3.654  1.00  0.00    -0.550 OA
ENDBRANCH  21  22
ENDBRANCH  20  21
ENDBRANCH  19  20
ENDBRANCH  18  19
ENDBRANCH  17  18
ENDBRANCH  16  17
ENDBRANCH  15  16
ENDBRANCH  14  15
ENDBRANCH  13  14
ENDBRANCH   1  13
TORSDOF 20
ENDMDL
MODEL 7
REMARK VINA RESULT:    -5.515      3.955      8.378
REMARK INTER + INTRA:         -15.092
REMARK INTER:                 -12.011
REMARK INTRA:                  -3.081
REMARK UNBOUND:                -3.129
REMARK SMILES CCCCCCCCCCCCCCCCCCCCCC(=O)[O-]
REMARK SMILES IDX 12 1 11 2 10 3 9 4 8 5 7 6 6 7 5 8 4 9 3 10 2 11 1 12 13 13
REMARK SMILES IDX 14 14 15 15 16 16 17 17 18 18 19 19 20 20 21 21 22 22 23 23
REMARK SMILES IDX 24 24
REMARK H PARENT
REMARK Flexibility Score: inf
ROOT
ATOM      1  C   UNL     1      56.115  17.294   0.672  1.00  0.00     0.000 C 
ENDROOT
BRANCH   1   2
ATOM      2  C   UNL     1      55.027  17.894   1.581  1.00  0.00     0.000 C 
BRANCH   2   3
ATOM      3  C   UNL     1      54.374  16.899   2.558  1.00  0.00     0.000 C 
BRANCH   3   4
ATOM      4  C   UNL     1      52.878  16.683   2.284  1.00  0.00    -0.000 C 
BRANCH   4   5
ATOM      5  C   UNL     1      52.191  18.010   1.932  1.00  0.00    -0.000 C 
BRANCH   5   6
ATOM      6  C   UNL     1      51.245  18.506   3.040  1.00  0.00    -0.000 C 
BRANCH   6   7
ATOM      7  C   UNL     1      50.193  19.535   2.582  1.00  0.00    -0.000 C 
BRANCH   7   8
ATOM      8  C   UNL     1      49.086  18.977   1.664  1.00  0.00    -0.000 C 
BRANCH   8   9
ATOM      9  C   UNL     1      48.215  20.042   0.974  1.00  0.00    -0.000 C 
BRANCH   9  10
ATOM     10  C   UNL     1      48.521  20.186  -0.523  1.00  0.00    -0.000 C 
BRANCH  10  11
ATOM     11  C   UNL     1      49.540  19.136  -0.979  1.00  0.00    -0.003 C 
ATOM     12  C   UNL     1      50.808  19.793  -1.517  1.00  0.00     0.004 C 
ENDBRANCH  10  11
ENDBRANCH   9  10
ENDBRANCH   8   9
ENDBRANCH   7   8
ENDBRANCH   6   7
ENDBRANCH   5   6
ENDBRANCH   4   5
ENDBRANCH   3   4
ENDBRANCH   2   3
ENDBRANCH   1   2
BRANCH   1  13
ATOM     13  C   UNL     1      55.656  17.122  -0.784  1.00  0.00     0.000 C 
BRANCH  13  14
ATOM     14  C   UNL     1      54.367  17.914  -1.052  1.00  0.00     0.000 C 
BRANCH  14  15
ATOM     15  C   UNL     1      53.182  17.012  -1.435  1.00  0.00     0.000 C 
BRANCH  15  16
ATOM     16  C   UNL     1      53.626  15.627  -1.935  1.00  0.00     0.000 C 
BRANCH  16  17
ATOM     17  C   UNL     1      53.023  14.473  -1.113  1.00  0.00     0.000 C 
BRANCH  17  18
ATOM     18  C   UNL     1      53.856  14.036   0.106  1.00  0.00     0.000 C 
BRANCH  18  19
ATOM     19  C   UNL     1      55.057  13.157  -0.275  1.00  0.00     0.000 C 
BRANCH  19  20
ATOM     20  C   UNL     1      56.339  13.654   0.403  1.00  0.00     0.006 C 
BRANCH  20  21
ATOM     21  C   UNL     1      57.495  12.673   0.184  1.00  0.00     0.053 C 
BRANCH  21  22
ATOM     22  C   UNL     1      58.805  13.340   0.457  1.00  0.00     0.041 C 
ATOM     23  O   UNL     1      59.884  12.753   0.179  1.00  0.00    -0.550 OA
ATOM     24  O   UNL     1      58.838  14.583   1.075  1.00  0.00    -0.550 OA
ENDBRANCH  21  22
ENDBRANCH  20  21
ENDBRANCH  19  20
ENDBRANCH  18  19
ENDBRANCH  17  18
ENDBRANCH  16  17
ENDBRANCH  15  16
ENDBRANCH  14  15
ENDBRANCH  13  14
ENDBRANCH   1  13
TORSDOF 20
ENDMDL
MODEL 8
REMARK VINA RESULT:    -5.494      1.931      3.219
REMARK INTER + INTRA:         -15.046
REMARK INTER:                 -12.245
REMARK INTRA:                  -2.801
REMARK UNBOUND:                -3.129
REMARK SMILES CCCCCCCCCCCCCCCCCCCCCC(=O)[O-]
REMARK SMILES IDX 12 1 11 2 10 3 9 4 8 5 7 6 6 7 5 8 4 9 3 10 2 11 1 12 13 13
REMARK SMILES IDX 14 14 15 15 16 16 17 17 18 18 19 19 20 20 21 21 22 22 23 23
REMARK SMILES IDX 24 24
REMARK H PARENT
REMARK Flexibility Score: inf
ROOT
ATOM      1  C   UNL     1      56.060  17.139   0.519  1.00  0.00     0.000 C 
ENDROOT
BRANCH   1   2
ATOM      2  C   UNL     1      55.515  17.157  -0.920  1.00  0.00     0.000 C 
BRANCH   2   3
ATOM      3  C   UNL     1      54.163  17.873  -1.096  1.00  0.00     0.000 C 
BRANCH   3   4
ATOM      4  C   UNL     1      53.021  16.918  -1.474  1.00  0.00    -0.000 C 
BRANCH   4   5
ATOM      5  C   UNL     1      53.558  15.503  -1.735  1.00  0.00    -0.000 C 
BRANCH   5   6
ATOM      6  C   UNL     1      53.265  14.529  -0.580  1.00  0.00    -0.000 C 
BRANCH   6   7
ATOM      7  C   UNL     1      54.253  13.352  -0.457  1.00  0.00    -0.000 C 
BRANCH   7   8
ATOM      8  C   UNL     1      55.548  13.662   0.320  1.00  0.00    -0.000 C 
BRANCH   8   9
ATOM      9  C   UNL     1      56.650  12.594   0.201  1.00  0.00    -0.000 C 
BRANCH   9  10
ATOM     10  C   UNL     1      58.001  13.175  -0.237  1.00  0.00    -0.000 C 
BRANCH  10  11
ATOM     11  C   UNL     1      58.492  14.233   0.758  1.00  0.00    -0.003 C 
ATOM     12  C   UNL     1      59.223  15.366   0.045  1.00  0.00     0.004 C 
ENDBRANCH  10  11
ENDBRANCH   9  10
ENDBRANCH   8   9
ENDBRANCH   7   8
ENDBRANCH   6   7
ENDBRANCH   5   6
ENDBRANCH   4   5
ENDBRANCH   3   4
ENDBRANCH   2   3
ENDBRANCH   1   2
BRANCH   1  13
ATOM     13  C   UNL     1      55.218  17.977   1.493  1.00  0.00     0.000 C 
BRANCH  13  14
ATOM     14  C   UNL     1      54.634  17.101   2.610  1.00  0.00     0.000 C 
BRANCH  14  15
ATOM     15  C   UNL     1      53.182  16.676   2.337  1.00  0.00     0.000 C 
BRANCH  15  16
ATOM     16  C   UNL     1      52.196  17.857   2.393  1.00  0.00     0.000 C 
BRANCH  16  17
ATOM     17  C   UNL     1      51.027  17.707   1.402  1.00  0.00     0.000 C 
BRANCH  17  18
ATOM     18  C   UNL     1      50.536  19.022   0.770  1.00  0.00     0.000 C 
BRANCH  18  19
ATOM     19  C   UNL     1      49.090  19.367   1.157  1.00  0.00     0.000 C 
BRANCH  19  20
ATOM     20  C   UNL     1      48.999  19.780   2.630  1.00  0.00     0.006 C 
BRANCH  20  21
ATOM     21  C   UNL     1      48.207  21.081   2.791  1.00  0.00     0.053 C 
BRANCH  21  22
ATOM     22  C   UNL     1      46.757  20.850   2.502  1.00  0.00     0.041 C 
ATOM     23  O   UNL     1      46.151  19.886   3.039  1.00  0.00    -0.550 OA
ATOM     24  O   UNL     1      46.092  21.661   1.592  1.00  0.00    -0.550 OA
ENDBRANCH  21  22
ENDBRANCH  20  21
ENDBRANCH  19  20
ENDBRANCH  18  19
ENDBRANCH  17  18
ENDBRANCH  16  17
ENDBRANCH  15  16
ENDBRANCH  14  15
ENDBRANCH  13  14
ENDBRANCH   1  13
TORSDOF 20
ENDMDL
MODEL 9
REMARK VINA RESULT:    -5.418      1.783      3.010
REMARK INTER + INTRA:         -14.882
REMARK INTER:                 -11.987
REMARK INTRA:                  -2.895
REMARK UNBOUND:                -3.129
REMARK SMILES CCCCCCCCCCCCCCCCCCCCCC(=O)[O-]
REMARK SMILES IDX 12 1 11 2 10 3 9 4 8 5 7 6 6 7 5 8 4 9 3 10 2 11 1 12 13 13
REMARK SMILES IDX 14 14 15 15 16 16 17 17 18 18 19 19 20 20 21 21 22 22 23 23
REMARK SMILES IDX 24 24
REMARK H PARENT
REMARK Flexibility Score: inf
ROOT
ATOM      1  C   UNL     1      52.773  15.517   1.754  1.00  0.00     0.000 C 
ENDROOT
BRANCH   1   2
ATOM      2  C   UNL     1      53.898  14.493   1.522  1.00  0.00     0.000 C 
BRANCH   2   3
ATOM      3  C   UNL     1      54.090  14.058   0.057  1.00  0.00     0.000 C 
BRANCH   3   4
ATOM      4  C   UNL     1      52.989  14.585  -0.875  1.00  0.00    -0.000 C 
BRANCH   4   5
ATOM      5  C   UNL     1      53.557  15.616  -1.861  1.00  0.00    -0.000 C 
BRANCH   5   6
ATOM      6  C   UNL     1      53.193  17.064  -1.489  1.00  0.00    -0.000 C 
BRANCH   6   7
ATOM      7  C   UNL     1      54.380  17.937  -1.038  1.00  0.00    -0.000 C 
BRANCH   7   8
ATOM      8  C   UNL     1      55.728  17.197  -0.916  1.00  0.00    -0.000 C 
BRANCH   8   9
ATOM      9  C   UNL     1      56.302  17.124   0.510  1.00  0.00    -0.000 C 
BRANCH   9  10
ATOM     10  C   UNL     1      57.262  15.943   0.708  1.00  0.00    -0.000 C 
BRANCH  10  11
ATOM     11  C   UNL     1      58.718  16.422   0.762  1.00  0.00    -0.003 C 
ATOM     12  C   UNL     1      59.686  15.279   0.476  1.00  0.00     0.004 C 
ENDBRANCH  10  11
ENDBRANCH   9  10
ENDBRANCH   8   9
ENDBRANCH   7   8
ENDBRANCH   6   7
ENDBRANCH   5   6
ENDBRANCH   4   5
ENDBRANCH   3   4
ENDBRANCH   2   3
ENDBRANCH   1   2
BRANCH   1  13
ATOM     13  C   UNL     1      53.290  16.887   2.217  1.00  0.00     0.000 C 
BRANCH  13  14
ATOM     14  C   UNL     1      52.131  17.876   2.410  1.00  0.00     0.000 C 
BRANCH  14  15
ATOM     15  C   UNL     1      50.963  17.622   1.444  1.00  0.00     0.000 C 
BRANCH  15  16
ATOM     16  C   UNL     1      50.271  18.920   0.992  1.00  0.00     0.000 C 
BRANCH  16  17
ATOM     17  C   UNL     1      50.502  19.231  -0.499  1.00  0.00     0.000 C 
BRANCH  17  18
ATOM     18  C   UNL     1      49.224  19.296  -1.356  1.00  0.00     0.000 C 
BRANCH  18  19
ATOM     19  C   UNL     1      48.472  20.628  -1.207  1.00  0.00     0.000 C 
BRANCH  19  20
ATOM     20  C   UNL     1      47.188  20.446  -0.390  1.00  0.00     0.006 C 
BRANCH  20  21
ATOM     21  C   UNL     1      47.062  21.527   0.687  1.00  0.00     0.053 C 
BRANCH  21  22
ATOM     22  C   UNL     1      47.181  20.924   2.051  1.00  0.00     0.041 C 
ATOM     23  O   UNL     1      48.199  21.151   2.757  1.00  0.00    -0.550 OA
ATOM     24  O   UNL     1      46.199  20.061   2.518  1.00  0.00    -0.550 OA
ENDBRANCH  21  22
ENDBRANCH  20  21
ENDBRANCH  19  20
ENDBRANCH  18  19
ENDBRANCH  17  18
ENDBRANCH  16  17
ENDBRANCH  15  16
ENDBRANCH  14  15
ENDBRANCH  13  14
ENDBRANCH   1  13
TORSDOF 20
ENDMDL
