MODEL 1
REMARK VINA RESULT:    -3.620      0.000      0.000
REMARK INTER + INTRA:         -13.886
REMARK INTER:                  -9.123
REMARK INTRA:                  -4.763
REMARK UNBOUND:                -4.763
REMARK SMILES CCCCCCCCCCCCCCCCCCCCCCCCCCCC(=O)[O-]
REMARK SMILES IDX 15 1 16 2 17 3 18 4 19 5 20 6 21 7 22 8 23 9 24 10 25 11
REMARK SMILES IDX 26 12 27 13 28 14 29 15 30 16 14 17 13 18 12 19 11 20 10 21
REMARK SMILES IDX 9 22 8 23 7 24 6 25 5 26 4 27 3 28 2 29 1 30
REMARK H PARENT
REMARK Flexibility Score: inf
ROOT
ATOM      1  C   UNL     1      -0.528  -9.543  39.456  1.00  0.00     0.000 C 
ENDROOT
BRANCH   1   2
ATOM      2  C   UNL     1      -1.447  -8.433  39.996  1.00  0.00     0.000 C 
BRANCH   2   3
ATOM      3  C   UNL     1      -1.998  -7.519  38.884  1.00  0.00     0.000 C 
BRANCH   3   4
ATOM      4  C   UNL     1      -1.414  -7.770  37.481  1.00  0.00     0.000 C 
BRANCH   4   5
ATOM      5  C   UNL     1      -2.255  -7.223  36.311  1.00  0.00     0.000 C 
BRANCH   5   6
ATOM      6  C   UNL     1      -3.694  -7.780  36.260  1.00  0.00     0.000 C 
BRANCH   6   7
ATOM      7  C   UNL     1      -4.728  -6.813  36.866  1.00  0.00     0.000 C 
BRANCH   7   8
ATOM      8  C   UNL     1      -5.551  -6.088  35.779  1.00  0.00     0.000 C 
BRANCH   8   9
ATOM      9  C   UNL     1      -5.390  -4.558  35.798  1.00  0.00     0.000 C 
BRANCH   9  10
ATOM     10  C   UNL     1      -4.913  -3.989  34.455  1.00  0.00     0.000 C 
BRANCH  10  11
ATOM     11  C   UNL     1      -3.510  -4.508  34.103  1.00  0.00     0.000 C 
BRANCH  11  12
ATOM     12  C   UNL     1      -3.494  -5.349  32.817  1.00  0.00     0.006 C 
BRANCH  12  13
ATOM     13  C   UNL     1      -2.312  -6.326  32.761  1.00  0.00     0.053 C 
BRANCH  13  14
ATOM     14  C   UNL     1      -2.120  -6.834  31.366  1.00  0.00     0.041 C 
ATOM     15  O   UNL     1      -1.239  -7.701  31.123  1.00  0.00    -0.550 OA
ATOM     16  O   UNL     1      -2.891  -6.323  30.329  1.00  0.00    -0.550 OA
ENDBRANCH  13  14
ENDBRANCH  12  13
ENDBRANCH  11  12
ENDBRANCH  10  11
ENDBRANCH   9  10
ENDBRANCH   8   9
ENDBRANCH   7   8
ENDBRANCH   6   7
ENDBRANCH   5   6
ENDBRANCH   4   5
ENDBRANCH   3   4
ENDBRANCH   2   3
ENDBRANCH   1   2
BRANCH   1  17
ATOM     17  C   UNL     1      -0.619 -10.840  40.277  1.00  0.00     0.000 C 
BRANCH  17  18
ATOM     18  C   UNL     1      -1.642 -10.747  41.422  1.00  0.00     0.000 C 
BRANCH  18  19
ATOM     19  C   UNL     1      -1.893 -12.103  42.107  1.00  0.00     0.000 C 
BRANCH  19  20
ATOM     20  C   UNL     1      -2.937 -13.003  41.414  1.00  0.00     0.000 C 
BRANCH  20  21
ATOM     21  C   UNL     1      -3.763 -13.897  42.359  1.00  0.00     0.000 C 
BRANCH  21  22
ATOM     22  C   UNL     1      -5.264 -13.552  42.445  1.00  0.00    -0.000 C 
BRANCH  22  23
ATOM     23  C   UNL     1      -5.650 -12.600  43.592  1.00  0.00    -0.000 C 
BRANCH  23  24
ATOM     24  C   UNL     1      -6.161 -11.238  43.091  1.00  0.00    -0.000 C 
BRANCH  24  25
ATOM     25  C   UNL     1      -5.056 -10.169  43.076  1.00  0.00    -0.000 C 
BRANCH  25  26
ATOM     26  C   UNL     1      -4.962  -9.436  41.725  1.00  0.00    -0.000 C 
BRANCH  26  27
ATOM     27  C   UNL     1      -5.437 -10.299  40.541  1.00  0.00    -0.000 C 
BRANCH  27  28
ATOM     28  C   UNL     1      -4.683 -10.069  39.219  1.00  0.00    -0.000 C 
BRANCH  28  29
ATOM     29  C   UNL     1      -4.386 -11.372  38.463  1.00  0.00    -0.003 C 
ATOM     30  C   UNL     1      -3.151 -11.225  37.578  1.00  0.00     0.004 C 
ENDBRANCH  28  29
ENDBRANCH  27  28
ENDBRANCH  26  27
ENDBRANCH  25  26
ENDBRANCH  24  25
ENDBRANCH  23  24
ENDBRANCH  22  23
ENDBRANCH  21  22
ENDBRANCH  20  21
ENDBRANCH  19  20
ENDBRANCH  18  19
ENDBRANCH  17  18
ENDBRANCH   1  17
TORSDOF 26
ENDMDL
MODEL 2
REMARK VINA RESULT:    -3.576      2.098      8.104
REMARK INTER + INTRA:         -13.774
REMARK INTER:                  -8.742
REMARK INTRA:                  -5.032
REMARK UNBOUND:                -4.763
REMARK SMILES CCCCCCCCCCCCCCCCCCCCCCCCCCCC(=O)[O-]
REMARK SMILES IDX 15 1 16 2 17 3 18 4 19 5 20 6 21 7 22 8 23 9 24 10 25 11
REMARK SMILES IDX 26 12 27 13 28 14 29 15 30 16 14 17 13 18 12 19 11 20 10 21
REMARK SMILES IDX 9 22 8 23 7 24 6 25 5 26 4 27 3 28 2 29 1 30
REMARK H PARENT
REMARK Flexibility Score: inf
ROOT
ATOM      1  C   UNL     1      -2.276  -7.063  36.465  1.00  0.00     0.000 C 
ENDROOT
BRANCH   1   2
ATOM      2  C   UNL     1      -1.121  -7.703  37.254  1.00  0.00     0.000 C 
BRANCH   2   3
ATOM      3  C   UNL     1      -1.515  -8.071  38.698  1.00  0.00     0.000 C 
BRANCH   3   4
ATOM      4  C   UNL     1      -0.436  -8.821  39.501  1.00  0.00     0.000 C 
BRANCH   4   5
ATOM      5  C   UNL     1      -0.575 -10.356  39.516  1.00  0.00     0.000 C 
BRANCH   5   6
ATOM      6  C   UNL     1      -1.123 -10.922  40.844  1.00  0.00     0.000 C 
BRANCH   6   7
ATOM      7  C   UNL     1      -2.029  -9.923  41.587  1.00  0.00     0.000 C 
BRANCH   7   8
ATOM      8  C   UNL     1      -3.446 -10.488  41.822  1.00  0.00     0.000 C 
BRANCH   8   9
ATOM      9  C   UNL     1      -4.573  -9.505  41.460  1.00  0.00     0.000 C 
BRANCH   9  10
ATOM     10  C   UNL     1      -4.441  -8.938  40.039  1.00  0.00     0.000 C 
BRANCH  10  11
ATOM     11  C   UNL     1      -5.069  -9.886  39.007  1.00  0.00     0.000 C 
BRANCH  11  12
ATOM     12  C   UNL     1      -4.021 -10.709  38.240  1.00  0.00     0.006 C 
BRANCH  12  13
ATOM     13  C   UNL     1      -4.298 -10.768  36.733  1.00  0.00     0.053 C 
BRANCH  13  14
ATOM     14  C   UNL     1      -3.019 -10.658  35.962  1.00  0.00     0.041 C 
ATOM     15  O   UNL     1      -1.949 -11.119  36.441  1.00  0.00    -0.550 OA
ATOM     16  O   UNL     1      -3.004 -10.017  34.730  1.00  0.00    -0.550 OA
ENDBRANCH  13  14
ENDBRANCH  12  13
ENDBRANCH  11  12
ENDBRANCH  10  11
ENDBRANCH   9  10
ENDBRANCH   8   9
ENDBRANCH   7   8
ENDBRANCH   6   7
ENDBRANCH   5   6
ENDBRANCH   4   5
ENDBRANCH   3   4
ENDBRANCH   2   3
ENDBRANCH   1   2
BRANCH   1  17
ATOM     17  C   UNL     1      -3.260  -6.299  37.366  1.00  0.00     0.000 C 
BRANCH  17  18
ATOM     18  C   UNL     1      -4.726  -6.689  37.108  1.00  0.00     0.000 C 
BRANCH  18  19
ATOM     19  C   UNL     1      -4.943  -7.302  35.712  1.00  0.00     0.000 C 
BRANCH  19  20
ATOM     20  C   UNL     1      -6.180  -6.778  34.954  1.00  0.00     0.000 C 
BRANCH  20  21
ATOM     21  C   UNL     1      -6.374  -5.249  34.993  1.00  0.00     0.000 C 
BRANCH  21  22
ATOM     22  C   UNL     1      -5.588  -4.460  33.926  1.00  0.00    -0.000 C 
BRANCH  22  23
ATOM     23  C   UNL     1      -4.200  -3.963  34.372  1.00  0.00    -0.000 C 
BRANCH  23  24
ATOM     24  C   UNL     1      -3.048  -4.764  33.741  1.00  0.00    -0.000 C 
BRANCH  24  25
ATOM     25  C   UNL     1      -3.495  -5.550  32.497  1.00  0.00    -0.000 C 
BRANCH  25  26
ATOM     26  C   UNL     1      -2.895  -6.967  32.446  1.00  0.00    -0.000 C 
BRANCH  26  27
ATOM     27  C   UNL     1      -1.422  -7.010  32.895  1.00  0.00    -0.000 C 
BRANCH  27  28
ATOM     28  C   UNL     1      -0.408  -7.336  31.784  1.00  0.00    -0.000 C 
BRANCH  28  29
ATOM     29  C   UNL     1      -1.039  -7.354  30.384  1.00  0.00    -0.003 C 
ATOM     30  C   UNL     1      -0.918  -8.734  29.743  1.00  0.00     0.004 C 
ENDBRANCH  28  29
ENDBRANCH  27  28
ENDBRANCH  26  27
ENDBRANCH  25  26
ENDBRANCH  24  25
ENDBRANCH  23  24
ENDBRANCH  22  23
ENDBRANCH  21  22
ENDBRANCH  20  21
ENDBRANCH  19  20
ENDBRANCH  18  19
ENDBRANCH  17  18
ENDBRANCH   1  17
TORSDOF 26
ENDMDL
MODEL 3
REMARK VINA RESULT:    -3.556      3.746      8.612
REMARK INTER + INTRA:         -13.724
REMARK INTER:                  -8.156
REMARK INTRA:                  -5.568
REMARK UNBOUND:                -4.763
REMARK SMILES CCCCCCCCCCCCCCCCCCCCCCCCCCCC(=O)[O-]
REMARK SMILES IDX 15 1 16 2 17 3 18 4 19 5 20 6 21 7 22 8 23 9 24 10 25 11
REMARK SMILES IDX 26 12 27 13 28 14 29 15 30 16 14 17 13 18 12 19 11 20 10 21
REMARK SMILES IDX 9 22 8 23 7 24 6 25 5 26 4 27 3 28 2 29 1 30
REMARK H PARENT
REMARK Flexibility Score: inf
ROOT
ATOM      1  C   UNL     1      -2.426  -7.222  37.085  1.00  0.00     0.000 C 
ENDROOT
BRANCH   1   2
ATOM      2  C   UNL     1      -1.714  -7.704  38.361  1.00  0.00     0.000 C 
BRANCH   2   3
ATOM      3  C   UNL     1      -0.573  -8.697  38.071  1.00  0.00     0.000 C 
BRANCH   3   4
ATOM      4  C   UNL     1      -0.639  -9.387  36.695  1.00  0.00     0.000 C 
BRANCH   4   5
ATOM      5  C   UNL     1      -1.033 -10.877  36.725  1.00  0.00     0.000 C 
BRANCH   5   6
ATOM      6  C   UNL     1      -2.539 -11.131  36.499  1.00  0.00     0.000 C 
BRANCH   6   7
ATOM      7  C   UNL     1      -3.302 -11.389  37.812  1.00  0.00     0.000 C 
BRANCH   7   8
ATOM      8  C   UNL     1      -4.436 -10.366  38.034  1.00  0.00     0.000 C 
BRANCH   8   9
ATOM      9  C   UNL     1      -4.946 -10.313  39.485  1.00  0.00     0.000 C 
BRANCH   9  10
ATOM     10  C   UNL     1      -4.309  -9.182  40.303  1.00  0.00     0.000 C 
BRANCH  10  11
ATOM     11  C   UNL     1      -3.574  -9.737  41.533  1.00  0.00     0.000 C 
BRANCH  11  12
ATOM     12  C   UNL     1      -2.045  -9.651  41.400  1.00  0.00     0.006 C 
BRANCH  12  13
ATOM     13  C   UNL     1      -1.411 -10.979  40.966  1.00  0.00     0.053 C 
BRANCH  13  14
ATOM     14  C   UNL     1      -1.427 -11.960  42.096  1.00  0.00     0.041 C 
ATOM     15  O   UNL     1      -0.538 -11.916  42.987  1.00  0.00    -0.550 OA
ATOM     16  O   UNL     1      -2.406 -12.945  42.147  1.00  0.00    -0.550 OA
ENDBRANCH  13  14
ENDBRANCH  12  13
ENDBRANCH  11  12
ENDBRANCH  10  11
ENDBRANCH   9  10
ENDBRANCH   8   9
ENDBRANCH   7   8
ENDBRANCH   6   7
ENDBRANCH   5   6
ENDBRANCH   4   5
ENDBRANCH   3   4
ENDBRANCH   2   3
ENDBRANCH   1   2
BRANCH   1  17
ATOM     17  C   UNL     1      -3.747  -6.494  37.381  1.00  0.00     0.000 C 
BRANCH  17  18
ATOM     18  C   UNL     1      -4.940  -7.091  36.614  1.00  0.00     0.000 C 
BRANCH  18  19
ATOM     19  C   UNL     1      -5.839  -6.015  35.979  1.00  0.00     0.000 C 
BRANCH  19  20
ATOM     20  C   UNL     1      -5.199  -4.617  35.858  1.00  0.00     0.000 C 
BRANCH  20  21
ATOM     21  C   UNL     1      -4.939  -4.136  34.417  1.00  0.00     0.000 C 
BRANCH  21  22
ATOM     22  C   UNL     1      -5.419  -5.096  33.308  1.00  0.00    -0.000 C 
BRANCH  22  23
ATOM     23  C   UNL     1      -4.301  -5.698  32.437  1.00  0.00    -0.000 C 
BRANCH  23  24
ATOM     24  C   UNL     1      -2.893  -5.303  32.916  1.00  0.00    -0.000 C 
BRANCH  24  25
ATOM     25  C   UNL     1      -2.211  -6.425  33.716  1.00  0.00    -0.000 C 
BRANCH  25  26
ATOM     26  C   UNL     1      -1.979  -7.693  32.874  1.00  0.00    -0.000 C 
BRANCH  26  27
ATOM     27  C   UNL     1      -2.523  -8.968  33.546  1.00  0.00    -0.000 C 
BRANCH  27  28
ATOM     28  C   UNL     1      -3.837  -9.509  32.957  1.00  0.00    -0.000 C 
BRANCH  28  29
ATOM     29  C   UNL     1      -5.079  -9.038  33.728  1.00  0.00    -0.003 C 
ATOM     30  C   UNL     1      -5.670 -10.171  34.562  1.00  0.00     0.004 C 
ENDBRANCH  28  29
ENDBRANCH  27  28
ENDBRANCH  26  27
ENDBRANCH  25  26
ENDBRANCH  24  25
ENDBRANCH  23  24
ENDBRANCH  22  23
ENDBRANCH  21  22
ENDBRANCH  20  21
ENDBRANCH  19  20
ENDBRANCH  18  19
ENDBRANCH  17  18
ENDBRANCH   1  17
TORSDOF 26
ENDMDL
MODEL 4
REMARK VINA RESULT:    -3.543      3.278      8.075
REMARK INTER + INTRA:         -13.692
REMARK INTER:                  -8.428
REMARK INTRA:                  -5.264
REMARK UNBOUND:                -4.763
REMARK SMILES CCCCCCCCCCCCCCCCCCCCCCCCCCCC(=O)[O-]
REMARK SMILES IDX 15 1 16 2 17 3 18 4 19 5 20 6 21 7 22 8 23 9 24 10 25 11
REMARK SMILES IDX 26 12 27 13 28 14 29 15 30 16 14 17 13 18 12 19 11 20 10 21
REMARK SMILES IDX 9 22 8 23 7 24 6 25 5 26 4 27 3 28 2 29 1 30
REMARK H PARENT
REMARK Flexibility Score: inf
ROOT
ATOM      1  C   UNL     1      -0.987 -10.764  40.420  1.00  0.00     0.000 C 
ENDROOT
BRANCH   1   2
ATOM      2  C   UNL     1      -1.729 -10.226  41.656  1.00  0.00     0.000 C 
BRANCH   2   3
ATOM      3  C   UNL     1      -2.742 -11.234  42.232  1.00  0.00     0.000 C 
BRANCH   3   4
ATOM      4  C   UNL     1      -2.508 -12.702  41.826  1.00  0.00     0.000 C 
BRANCH   4   5
ATOM      5  C   UNL     1      -3.725 -13.633  41.996  1.00  0.00     0.000 C 
BRANCH   5   6
ATOM      6  C   UNL     1      -4.973 -12.933  42.573  1.00  0.00     0.000 C 
BRANCH   6   7
ATOM      7  C   UNL     1      -6.164 -12.941  41.597  1.00  0.00     0.000 C 
BRANCH   7   8
ATOM      8  C   UNL     1      -5.774 -13.493  40.209  1.00  0.00     0.000 C 
BRANCH   8   9
ATOM      9  C   UNL     1      -5.763 -12.428  39.099  1.00  0.00     0.000 C 
BRANCH   9  10
ATOM     10  C   UNL     1      -4.347 -12.049  38.645  1.00  0.00     0.000 C 
BRANCH  10  11
ATOM     11  C   UNL     1      -4.178 -10.523  38.583  1.00  0.00     0.000 C 
BRANCH  11  12
ATOM     12  C   UNL     1      -5.381  -9.767  39.168  1.00  0.00     0.006 C 
BRANCH  12  13
ATOM     13  C   UNL     1      -5.013  -8.918  40.391  1.00  0.00     0.053 C 
BRANCH  13  14
ATOM     14  C   UNL     1      -5.927  -9.225  41.536  1.00  0.00     0.041 C 
ATOM     15  O   UNL     1      -7.149  -9.452  41.328  1.00  0.00    -0.550 OA
ATOM     16  O   UNL     1      -5.437  -9.227  42.836  1.00  0.00    -0.550 OA
ENDBRANCH  13  14
ENDBRANCH  12  13
ENDBRANCH  11  12
ENDBRANCH  10  11
ENDBRANCH   9  10
ENDBRANCH   8   9
ENDBRANCH   7   8
ENDBRANCH   6   7
ENDBRANCH   5   6
ENDBRANCH   4   5
ENDBRANCH   3   4
ENDBRANCH   2   3
ENDBRANCH   1   2
BRANCH   1  17
ATOM     17  C   UNL     1      -0.613  -9.655  39.423  1.00  0.00     0.000 C 
BRANCH  17  18
ATOM     18  C   UNL     1      -1.101  -8.265  39.870  1.00  0.00     0.000 C 
BRANCH  18  19
ATOM     19  C   UNL     1      -1.986  -7.577  38.815  1.00  0.00     0.000 C 
BRANCH  19  20
ATOM     20  C   UNL     1      -1.697  -7.983  37.355  1.00  0.00     0.000 C 
BRANCH  20  21
ATOM     21  C   UNL     1      -2.511  -7.223  36.290  1.00  0.00     0.000 C 
BRANCH  21  22
ATOM     22  C   UNL     1      -3.950  -7.735  36.073  1.00  0.00    -0.000 C 
BRANCH  22  23
ATOM     23  C   UNL     1      -5.038  -6.975  36.855  1.00  0.00    -0.000 C 
BRANCH  23  24
ATOM     24  C   UNL     1      -5.750  -5.910  36.003  1.00  0.00    -0.000 C 
BRANCH  24  25
ATOM     25  C   UNL     1      -5.036  -4.549  36.051  1.00  0.00    -0.000 C 
BRANCH  25  26
ATOM     26  C   UNL     1      -4.720  -3.998  34.649  1.00  0.00    -0.000 C 
BRANCH  26  27
ATOM     27  C   UNL     1      -5.283  -4.879  33.518  1.00  0.00    -0.000 C 
BRANCH  27  28
ATOM     28  C   UNL     1      -4.258  -5.802  32.835  1.00  0.00    -0.000 C 
BRANCH  28  29
ATOM     29  C   UNL     1      -2.804  -5.402  33.127  1.00  0.00    -0.003 C 
ATOM     30  C   UNL     1      -1.845  -6.548  32.813  1.00  0.00     0.004 C 
ENDBRANCH  28  29
ENDBRANCH  27  28
ENDBRANCH  26  27
ENDBRANCH  25  26
ENDBRANCH  24  25
ENDBRANCH  23  24
ENDBRANCH  22  23
ENDBRANCH  21  22
ENDBRANCH  20  21
ENDBRANCH  19  20
ENDBRANCH  18  19
ENDBRANCH  17  18
ENDBRANCH   1  17
TORSDOF 26
ENDMDL
MODEL 5
REMARK VINA RESULT:    -3.540      2.609      3.735
REMARK INTER + INTRA:         -13.682
REMARK INTER:                  -8.377
REMARK INTRA:                  -5.305
REMARK UNBOUND:                -4.763
REMARK SMILES CCCCCCCCCCCCCCCCCCCCCCCCCCCC(=O)[O-]
REMARK SMILES IDX 15 1 16 2 17 3 18 4 19 5 20 6 21 7 22 8 23 9 24 10 25 11
REMARK SMILES IDX 26 12 27 13 28 14 29 15 30 16 14 17 13 18 12 19 11 20 10 21
REMARK SMILES IDX 9 22 8 23 7 24 6 25 5 26 4 27 3 28 2 29 1 30
REMARK H PARENT
REMARK Flexibility Score: inf
ROOT
ATOM      1  C   UNL     1      -1.358  -8.315  40.286  1.00  0.00     0.000 C 
ENDROOT
BRANCH   1   2
ATOM      2  C   UNL     1      -0.407  -8.882  39.218  1.00  0.00     0.000 C 
BRANCH   2   3
ATOM      3  C   UNL     1      -0.876  -8.585  37.781  1.00  0.00     0.000 C 
BRANCH   3   4
ATOM      4  C   UNL     1      -1.967  -7.504  37.658  1.00  0.00     0.000 C 
BRANCH   4   5
ATOM      5  C   UNL     1      -2.229  -6.993  36.228  1.00  0.00     0.000 C 
BRANCH   5   6
ATOM      6  C   UNL     1      -2.866  -8.044  35.294  1.00  0.00     0.000 C 
BRANCH   6   7
ATOM      7  C   UNL     1      -3.150  -7.492  33.884  1.00  0.00     0.000 C 
BRANCH   7   8
ATOM      8  C   UNL     1      -2.617  -6.054  33.705  1.00  0.00     0.000 C 
BRANCH   8   9
ATOM      9  C   UNL     1      -3.698  -5.039  33.297  1.00  0.00     0.000 C 
BRANCH   9  10
ATOM     10  C   UNL     1      -3.941  -3.960  34.361  1.00  0.00     0.000 C 
BRANCH  10  11
ATOM     11  C   UNL     1      -4.606  -4.559  35.610  1.00  0.00     0.000 C 
BRANCH  11  12
ATOM     12  C   UNL     1      -5.968  -5.203  35.308  1.00  0.00     0.006 C 
BRANCH  12  13
ATOM     13  C   UNL     1      -6.335  -6.312  36.301  1.00  0.00     0.053 C 
BRANCH  13  14
ATOM     14  C   UNL     1      -7.287  -5.795  37.334  1.00  0.00     0.041 C 
ATOM     15  O   UNL     1      -7.948  -4.745  37.118  1.00  0.00    -0.550 OA
ATOM     16  O   UNL     1      -7.417  -6.453  38.551  1.00  0.00    -0.550 OA
ENDBRANCH  13  14
ENDBRANCH  12  13
ENDBRANCH  11  12
ENDBRANCH  10  11
ENDBRANCH   9  10
ENDBRANCH   8   9
ENDBRANCH   7   8
ENDBRANCH   6   7
ENDBRANCH   5   6
ENDBRANCH   4   5
ENDBRANCH   3   4
ENDBRANCH   2   3
ENDBRANCH   1   2
BRANCH   1  17
ATOM     17  C   UNL     1      -1.763  -9.362  41.337  1.00  0.00     0.000 C 
BRANCH  17  18
ATOM     18  C   UNL     1      -1.382 -10.794  40.924  1.00  0.00     0.000 C 
BRANCH  18  19
ATOM     19  C   UNL     1      -2.404 -11.843  41.401  1.00  0.00     0.000 C 
BRANCH  19  20
ATOM     20  C   UNL     1      -3.420 -11.337  42.445  1.00  0.00     0.000 C 
BRANCH  20  21
ATOM     21  C   UNL     1      -4.852 -11.884  42.286  1.00  0.00     0.000 C 
BRANCH  21  22
ATOM     22  C   UNL     1      -5.975 -10.833  42.411  1.00  0.00    -0.000 C 
BRANCH  22  23
ATOM     23  C   UNL     1      -5.525  -9.372  42.221  1.00  0.00    -0.000 C 
BRANCH  23  24
ATOM     24  C   UNL     1      -6.048  -8.753  40.913  1.00  0.00    -0.000 C 
BRANCH  24  25
ATOM     25  C   UNL     1      -4.924  -8.506  39.893  1.00  0.00    -0.000 C 
BRANCH  25  26
ATOM     26  C   UNL     1      -5.145  -9.272  38.575  1.00  0.00    -0.000 C 
BRANCH  26  27
ATOM     27  C   UNL     1      -4.673 -10.737  38.647  1.00  0.00    -0.000 C 
BRANCH  27  28
ATOM     28  C   UNL     1      -3.381 -11.046  37.871  1.00  0.00    -0.000 C 
BRANCH  28  29
ATOM     29  C   UNL     1      -3.639 -11.448  36.412  1.00  0.00    -0.003 C 
ATOM     30  C   UNL     1      -2.366 -11.969  35.751  1.00  0.00     0.004 C 
ENDBRANCH  28  29
ENDBRANCH  27  28
ENDBRANCH  26  27
ENDBRANCH  25  26
ENDBRANCH  24  25
ENDBRANCH  23  24
ENDBRANCH  22  23
ENDBRANCH  21  22
ENDBRANCH  20  21
ENDBRANCH  19  20
ENDBRANCH  18  19
ENDBRANCH  17  18
ENDBRANCH   1  17
TORSDOF 26
ENDMDL
MODEL 6
REMARK VINA RESULT:    -3.528      3.767      9.795
REMARK INTER + INTRA:         -13.652
REMARK INTER:                  -8.710
REMARK INTRA:                  -4.943
REMARK UNBOUND:                -4.763
REMARK SMILES CCCCCCCCCCCCCCCCCCCCCCCCCCCC(=O)[O-]
REMARK SMILES IDX 15 1 16 2 17 3 18 4 19 5 20 6 21 7 22 8 23 9 24 10 25 11
REMARK SMILES IDX 26 12 27 13 28 14 29 15 30 16 14 17 13 18 12 19 11 20 10 21
REMARK SMILES IDX 9 22 8 23 7 24 6 25 5 26 4 27 3 28 2 29 1 30
REMARK H PARENT
REMARK Flexibility Score: inf
ROOT
ATOM      1  C   UNL     1      -5.935  -5.246  34.941  1.00  0.00     0.000 C 
ENDROOT
BRANCH   1   2
ATOM      2  C   UNL     1      -5.303  -5.286  36.343  1.00  0.00     0.000 C 
BRANCH   2   3
ATOM      3  C   UNL     1      -5.494  -6.642  37.047  1.00  0.00     0.000 C 
BRANCH   3   4
ATOM      4  C   UNL     1      -4.215  -7.253  37.651  1.00  0.00     0.000 C 
BRANCH   4   5
ATOM      5  C   UNL     1      -2.908  -6.512  37.310  1.00  0.00     0.000 C 
BRANCH   5   6
ATOM      6  C   UNL     1      -1.899  -7.358  36.504  1.00  0.00     0.000 C 
BRANCH   6   7
ATOM      7  C   UNL     1      -2.331  -8.830  36.370  1.00  0.00     0.000 C 
BRANCH   7   8
ATOM      8  C   UNL     1      -1.424  -9.777  37.185  1.00  0.00     0.000 C 
BRANCH   8   9
ATOM      9  C   UNL     1      -0.236  -9.069  37.858  1.00  0.00     0.000 C 
BRANCH   9  10
ATOM     10  C   UNL     1      -0.225  -9.236  39.384  1.00  0.00     0.000 C 
BRANCH  10  11
ATOM     11  C   UNL     1      -1.287  -8.343  40.044  1.00  0.00     0.000 C 
BRANCH  11  12
ATOM     12  C   UNL     1      -2.048  -9.060  41.170  1.00  0.00     0.006 C 
BRANCH  12  13
ATOM     13  C   UNL     1      -2.659 -10.394  40.721  1.00  0.00     0.053 C 
BRANCH  13  14
ATOM     14  C   UNL     1      -2.266 -11.491  41.661  1.00  0.00     0.041 C 
ATOM     15  O   UNL     1      -1.065 -11.619  42.019  1.00  0.00    -0.550 OA
ATOM     16  O   UNL     1      -3.221 -12.393  42.114  1.00  0.00    -0.550 OA
ENDBRANCH  13  14
ENDBRANCH  12  13
ENDBRANCH  11  12
ENDBRANCH  10  11
ENDBRANCH   9  10
ENDBRANCH   8   9
ENDBRANCH   7   8
ENDBRANCH   6   7
ENDBRANCH   5   6
ENDBRANCH   4   5
ENDBRANCH   3   4
ENDBRANCH   2   3
ENDBRANCH   1   2
BRANCH   1  17
ATOM     17  C   UNL     1      -5.150  -4.359  33.961  1.00  0.00     0.000 C 
BRANCH  17  18
ATOM     18  C   UNL     1      -3.639  -4.353  34.246  1.00  0.00     0.000 C 
BRANCH  18  19
ATOM     19  C   UNL     1      -2.883  -5.452  33.477  1.00  0.00     0.000 C 
BRANCH  19  20
ATOM     20  C   UNL     1      -3.360  -5.682  32.029  1.00  0.00     0.000 C 
BRANCH  20  21
ATOM     21  C   UNL     1      -2.511  -6.672  31.208  1.00  0.00     0.000 C 
BRANCH  21  22
ATOM     22  C   UNL     1      -3.096  -7.057  29.833  1.00  0.00    -0.000 C 
BRANCH  22  23
ATOM     23  C   UNL     1      -3.475  -5.869  28.929  1.00  0.00    -0.000 C 
BRANCH  23  24
ATOM     24  C   UNL     1      -4.922  -5.951  28.413  1.00  0.00    -0.000 C 
BRANCH  24  25
ATOM     25  C   UNL     1      -5.832  -6.766  29.347  1.00  0.00    -0.000 C 
BRANCH  25  26
ATOM     26  C   UNL     1      -6.531  -5.891  30.403  1.00  0.00    -0.000 C 
BRANCH  26  27
ATOM     27  C   UNL     1      -7.001  -6.693  31.631  1.00  0.00    -0.000 C 
BRANCH  27  28
ATOM     28  C   UNL     1      -6.297  -8.046  31.838  1.00  0.00    -0.000 C 
BRANCH  28  29
ATOM     29  C   UNL     1      -6.246  -8.476  33.311  1.00  0.00    -0.003 C 
ATOM     30  C   UNL     1      -4.805  -8.625  33.791  1.00  0.00     0.004 C 
ENDBRANCH  28  29
ENDBRANCH  27  28
ENDBRANCH  26  27
ENDBRANCH  25  26
ENDBRANCH  24  25
ENDBRANCH  23  24
ENDBRANCH  22  23
ENDBRANCH  21  22
ENDBRANCH  20  21
ENDBRANCH  19  20
ENDBRANCH  18  19
ENDBRANCH  17  18
ENDBRANCH   1  17
TORSDOF 26
ENDMDL
MODEL 7
REMARK VINA RESULT:    -3.500      3.846      8.670
REMARK INTER + INTRA:         -13.583
REMARK INTER:                  -8.705
REMARK INTRA:                  -4.877
REMARK UNBOUND:                -4.763
REMARK SMILES CCCCCCCCCCCCCCCCCCCCCCCCCCCC(=O)[O-]
REMARK SMILES IDX 15 1 16 2 17 3 18 4 19 5 20 6 21 7 22 8 23 9 24 10 25 11
REMARK SMILES IDX 26 12 27 13 28 14 29 15 30 16 14 17 13 18 12 19 11 20 10 21
REMARK SMILES IDX 9 22 8 23 7 24 6 25 5 26 4 27 3 28 2 29 1 30
REMARK H PARENT
REMARK Flexibility Score: inf
ROOT
ATOM      1  C   UNL     1      -2.164 -10.578  36.193  1.00  0.00     0.000 C 
ENDROOT
BRANCH   1   2
ATOM      2  C   UNL     1      -1.951 -11.033  37.647  1.00  0.00     0.000 C 
BRANCH   2   3
ATOM      3  C   UNL     1      -0.536 -10.721  38.170  1.00  0.00     0.000 C 
BRANCH   3   4
ATOM      4  C   UNL     1      -0.481 -10.094  39.577  1.00  0.00     0.000 C 
BRANCH   4   5
ATOM      5  C   UNL     1      -1.732  -9.295  39.991  1.00  0.00     0.000 C 
BRANCH   5   6
ATOM      6  C   UNL     1      -2.266  -9.651  41.394  1.00  0.00     0.000 C 
BRANCH   6   7
ATOM      7  C   UNL     1      -3.781  -9.409  41.532  1.00  0.00     0.000 C 
BRANCH   7   8
ATOM      8  C   UNL     1      -4.463  -9.200  40.163  1.00  0.00     0.000 C 
BRANCH   8   9
ATOM      9  C   UNL     1      -5.603 -10.194  39.881  1.00  0.00     0.000 C 
BRANCH   9  10
ATOM     10  C   UNL     1      -5.124 -11.475  39.184  1.00  0.00     0.000 C 
BRANCH  10  11
ATOM     11  C   UNL     1      -4.984 -12.629  40.188  1.00  0.00     0.000 C 
BRANCH  11  12
ATOM     12  C   UNL     1      -3.523 -13.057  40.402  1.00  0.00     0.006 C 
BRANCH  12  13
ATOM     13  C   UNL     1      -3.127 -13.104  41.883  1.00  0.00     0.053 C 
BRANCH  13  14
ATOM     14  C   UNL     1      -2.757 -14.498  42.281  1.00  0.00     0.041 C 
ATOM     15  O   UNL     1      -1.971 -14.695  43.246  1.00  0.00    -0.550 OA
ATOM     16  O   UNL     1      -3.252 -15.580  41.564  1.00  0.00    -0.550 OA
ENDBRANCH  13  14
ENDBRANCH  12  13
ENDBRANCH  11  12
ENDBRANCH  10  11
ENDBRANCH   9  10
ENDBRANCH   8   9
ENDBRANCH   7   8
ENDBRANCH   6   7
ENDBRANCH   5   6
ENDBRANCH   4   5
ENDBRANCH   3   4
ENDBRANCH   2   3
ENDBRANCH   1   2
BRANCH   1  17
ATOM     17  C   UNL     1      -1.099  -9.575  35.722  1.00  0.00     0.000 C 
BRANCH  17  18
ATOM     18  C   UNL     1      -1.649  -8.144  35.591  1.00  0.00     0.000 C 
BRANCH  18  19
ATOM     19  C   UNL     1      -1.524  -7.336  36.896  1.00  0.00     0.000 C 
BRANCH  19  20
ATOM     20  C   UNL     1      -2.822  -6.644  37.362  1.00  0.00     0.000 C 
BRANCH  20  21
ATOM     21  C   UNL     1      -4.124  -7.392  37.016  1.00  0.00     0.000 C 
BRANCH  21  22
ATOM     22  C   UNL     1      -5.185  -6.555  36.273  1.00  0.00    -0.000 C 
BRANCH  22  23
ATOM     23  C   UNL     1      -4.989  -5.030  36.355  1.00  0.00    -0.000 C 
BRANCH  23  24
ATOM     24  C   UNL     1      -5.167  -4.331  34.996  1.00  0.00    -0.000 C 
BRANCH  24  25
ATOM     25  C   UNL     1      -3.829  -3.863  34.399  1.00  0.00    -0.000 C 
BRANCH  25  26
ATOM     26  C   UNL     1      -3.082  -4.993  33.667  1.00  0.00    -0.000 C 
BRANCH  26  27
ATOM     27  C   UNL     1      -3.987  -5.786  32.705  1.00  0.00    -0.000 C 
BRANCH  27  28
ATOM     28  C   UNL     1      -3.599  -7.262  32.508  1.00  0.00    -0.000 C 
BRANCH  28  29
ATOM     29  C   UNL     1      -2.214  -7.437  31.870  1.00  0.00    -0.003 C 
ATOM     30  C   UNL     1      -2.207  -6.945  30.425  1.00  0.00     0.004 C 
ENDBRANCH  28  29
ENDBRANCH  27  28
ENDBRANCH  26  27
ENDBRANCH  25  26
ENDBRANCH  24  25
ENDBRANCH  23  24
ENDBRANCH  22  23
ENDBRANCH  21  22
ENDBRANCH  20  21
ENDBRANCH  19  20
ENDBRANCH  18  19
ENDBRANCH  17  18
ENDBRANCH   1  17
TORSDOF 26
ENDMDL
MODEL 8
REMARK VINA RESULT:    -3.488      3.684      8.537
REMARK INTER + INTRA:         -13.552
REMARK INTER:                  -8.537
REMARK INTRA:                  -5.014
REMARK UNBOUND:                -4.763
REMARK SMILES CCCCCCCCCCCCCCCCCCCCCCCCCCCC(=O)[O-]
REMARK SMILES IDX 15 1 16 2 17 3 18 4 19 5 20 6 21 7 22 8 23 9 24 10 25 11
REMARK SMILES IDX 26 12 27 13 28 14 29 15 30 16 14 17 13 18 12 19 11 20 10 21
REMARK SMILES IDX 9 22 8 23 7 24 6 25 5 26 4 27 3 28 2 29 1 30
REMARK H PARENT
REMARK Flexibility Score: inf
ROOT
ATOM      1  C   UNL     1      -0.998  -8.133  38.771  1.00  0.00     0.000 C 
ENDROOT
BRANCH   1   2
ATOM      2  C   UNL     1      -0.015  -9.309  38.913  1.00  0.00     0.000 C 
BRANCH   2   3
ATOM      3  C   UNL     1      -0.713 -10.681  38.862  1.00  0.00     0.000 C 
BRANCH   3   4
ATOM      4  C   UNL     1      -1.148 -11.144  37.459  1.00  0.00     0.000 C 
BRANCH   4   5
ATOM      5  C   UNL     1      -2.659 -11.043  37.172  1.00  0.00     0.000 C 
BRANCH   5   6
ATOM      6  C   UNL     1      -3.531 -10.918  38.439  1.00  0.00     0.000 C 
BRANCH   6   7
ATOM      7  C   UNL     1      -4.574  -9.790  38.335  1.00  0.00     0.000 C 
BRANCH   7   8
ATOM      8  C   UNL     1      -4.494  -8.814  39.529  1.00  0.00     0.000 C 
BRANCH   8   9
ATOM      9  C   UNL     1      -3.752  -9.387  40.749  1.00  0.00     0.000 C 
BRANCH   9  10
ATOM     10  C   UNL     1      -4.674  -9.632  41.951  1.00  0.00     0.000 C 
BRANCH  10  11
ATOM     11  C   UNL     1      -4.294 -10.928  42.683  1.00  0.00     0.000 C 
BRANCH  11  12
ATOM     12  C   UNL     1      -3.885 -12.055  41.721  1.00  0.00     0.006 C 
BRANCH  12  13
ATOM     13  C   UNL     1      -2.479 -12.598  42.005  1.00  0.00     0.053 C 
BRANCH  13  14
ATOM     14  C   UNL     1      -2.531 -14.070  42.273  1.00  0.00     0.041 C 
ATOM     15  O   UNL     1      -1.926 -14.555  43.264  1.00  0.00    -0.550 OA
ATOM     16  O   UNL     1      -3.221 -14.909  41.406  1.00  0.00    -0.550 OA
ENDBRANCH  13  14
ENDBRANCH  12  13
ENDBRANCH  11  12
ENDBRANCH  10  11
ENDBRANCH   9  10
ENDBRANCH   8   9
ENDBRANCH   7   8
ENDBRANCH   6   7
ENDBRANCH   5   6
ENDBRANCH   4   5
ENDBRANCH   3   4
ENDBRANCH   2   3
ENDBRANCH   1   2
BRANCH   1  17
ATOM     17  C   UNL     1      -0.990  -7.520  37.361  1.00  0.00     0.000 C 
BRANCH  17  18
ATOM     18  C   UNL     1      -2.387  -7.063  36.905  1.00  0.00     0.000 C 
BRANCH  18  19
ATOM     19  C   UNL     1      -2.863  -7.785  35.631  1.00  0.00     0.000 C 
BRANCH  19  20
ATOM     20  C   UNL     1      -2.096  -7.415  34.345  1.00  0.00     0.000 C 
BRANCH  20  21
ATOM     21  C   UNL     1      -2.959  -6.821  33.214  1.00  0.00     0.000 C 
BRANCH  21  22
ATOM     22  C   UNL     1      -3.127  -5.288  33.252  1.00  0.00    -0.000 C 
BRANCH  22  23
ATOM     23  C   UNL     1      -4.544  -4.795  33.595  1.00  0.00    -0.000 C 
BRANCH  23  24
ATOM     24  C   UNL     1      -4.589  -3.959  34.886  1.00  0.00    -0.000 C 
BRANCH  24  25
ATOM     25  C   UNL     1      -5.027  -4.789  36.104  1.00  0.00    -0.000 C 
BRANCH  25  26
ATOM     26  C   UNL     1      -6.556  -4.805  36.288  1.00  0.00    -0.000 C 
BRANCH  26  27
ATOM     27  C   UNL     1      -7.205  -6.113  35.795  1.00  0.00    -0.000 C 
BRANCH  27  28
ATOM     28  C   UNL     1      -6.569  -7.404  36.339  1.00  0.00    -0.000 C 
BRANCH  28  29
ATOM     29  C   UNL     1      -6.293  -8.444  35.243  1.00  0.00    -0.003 C 
ATOM     30  C   UNL     1      -6.570  -7.868  33.857  1.00  0.00     0.004 C 
ENDBRANCH  28  29
ENDBRANCH  27  28
ENDBRANCH  26  27
ENDBRANCH  25  26
ENDBRANCH  24  25
ENDBRANCH  23  24
ENDBRANCH  22  23
ENDBRANCH  21  22
ENDBRANCH  20  21
ENDBRANCH  19  20
ENDBRANCH  18  19
ENDBRANCH  17  18
ENDBRANCH   1  17
TORSDOF 26
ENDMDL
MODEL 9
REMARK VINA RESULT:    -3.480      1.939      4.882
REMARK INTER + INTRA:         -13.531
REMARK INTER:                  -8.079
REMARK INTRA:                  -5.452
REMARK UNBOUND:                -4.763
REMARK SMILES CCCCCCCCCCCCCCCCCCCCCCCCCCCC(=O)[O-]
REMARK SMILES IDX 15 1 16 2 17 3 18 4 19 5 20 6 21 7 22 8 23 9 24 10 25 11
REMARK SMILES IDX 26 12 27 13 28 14 29 15 30 16 14 17 13 18 12 19 11 20 10 21
REMARK SMILES IDX 9 22 8 23 7 24 6 25 5 26 4 27 3 28 2 29 1 30
REMARK H PARENT
REMARK Flexibility Score: inf
ROOT
ATOM      1  C   UNL     1      -3.724 -11.353  37.865  1.00  0.00     0.000 C 
ENDROOT
BRANCH   1   2
ATOM      2  C   UNL     1      -4.281 -10.030  38.420  1.00  0.00     0.000 C 
BRANCH   2   3
ATOM      3  C   UNL     1      -5.814  -9.932  38.302  1.00  0.00     0.000 C 
BRANCH   3   4
ATOM      4  C   UNL     1      -6.369  -8.502  38.153  1.00  0.00     0.000 C 
BRANCH   4   5
ATOM      5  C   UNL     1      -5.309  -7.403  37.945  1.00  0.00     0.000 C 
BRANCH   5   6
ATOM      6  C   UNL     1      -5.454  -6.637  36.614  1.00  0.00     0.000 C 
BRANCH   6   7
ATOM      7  C   UNL     1      -4.473  -5.455  36.498  1.00  0.00     0.000 C 
BRANCH   7   8
ATOM      8  C   UNL     1      -4.997  -4.356  35.548  1.00  0.00     0.000 C 
BRANCH   8   9
ATOM      9  C   UNL     1      -4.085  -4.100  34.336  1.00  0.00     0.000 C 
BRANCH   9  10
ATOM     10  C   UNL     1      -3.215  -5.311  33.973  1.00  0.00     0.000 C 
BRANCH  10  11
ATOM     11  C   UNL     1      -3.170  -5.522  32.452  1.00  0.00     0.000 C 
BRANCH  11  12
ATOM     12  C   UNL     1      -4.180  -6.575  31.969  1.00  0.00     0.006 C 
BRANCH  12  13
ATOM     13  C   UNL     1      -4.730  -7.440  33.110  1.00  0.00     0.053 C 
BRANCH  13  14
ATOM     14  C   UNL     1      -6.223  -7.511  33.039  1.00  0.00     0.041 C 
ATOM     15  O   UNL     1      -6.788  -8.544  32.593  1.00  0.00    -0.550 OA
ATOM     16  O   UNL     1      -6.990  -6.421  33.433  1.00  0.00    -0.550 OA
ENDBRANCH  13  14
ENDBRANCH  12  13
ENDBRANCH  11  12
ENDBRANCH  10  11
ENDBRANCH   9  10
ENDBRANCH   8   9
ENDBRANCH   7   8
ENDBRANCH   6   7
ENDBRANCH   5   6
ENDBRANCH   4   5
ENDBRANCH   3   4
ENDBRANCH   2   3
ENDBRANCH   1   2
BRANCH   1  17
ATOM     17  C   UNL     1      -2.692 -11.139  36.745  1.00  0.00     0.000 C 
BRANCH  17  18
ATOM     18  C   UNL     1      -3.082  -9.997  35.791  1.00  0.00     0.000 C 
BRANCH  18  19
ATOM     19  C   UNL     1      -1.866  -9.182  35.310  1.00  0.00     0.000 C 
BRANCH  19  20
ATOM     20  C   UNL     1      -1.755  -7.763  35.904  1.00  0.00     0.000 C 
BRANCH  20  21
ATOM     21  C   UNL     1      -0.954  -7.663  37.217  1.00  0.00     0.000 C 
BRANCH  21  22
ATOM     22  C   UNL     1      -1.804  -7.475  38.491  1.00  0.00    -0.000 C 
BRANCH  22  23
ATOM     23  C   UNL     1      -1.375  -8.335  39.694  1.00  0.00    -0.000 C 
BRANCH  23  24
ATOM     24  C   UNL     1      -0.347  -9.416  39.318  1.00  0.00    -0.000 C 
BRANCH  24  25
ATOM     25  C   UNL     1      -0.666 -10.775  39.961  1.00  0.00    -0.000 C 
BRANCH  25  26
ATOM     26  C   UNL     1      -1.434 -10.635  41.288  1.00  0.00    -0.000 C 
BRANCH  26  27
ATOM     27  C   UNL     1      -2.676 -11.545  41.360  1.00  0.00    -0.000 C 
BRANCH  27  28
ATOM     28  C   UNL     1      -3.818 -11.023  42.250  1.00  0.00    -0.000 C 
BRANCH  28  29
ATOM     29  C   UNL     1      -4.297  -9.621  41.850  1.00  0.00    -0.003 C 
ATOM     30  C   UNL     1      -5.799  -9.467  42.078  1.00  0.00     0.004 C 
ENDBRANCH  28  29
ENDBRANCH  27  28
ENDBRANCH  26  27
ENDBRANCH  25  26
ENDBRANCH  24  25
ENDBRANCH  23  24
ENDBRANCH  22  23
ENDBRANCH  21  22
ENDBRANCH  20  21
ENDBRANCH  19  20
ENDBRANCH  18  19
ENDBRANCH  17  18
ENDBRANCH   1  17
TORSDOF 26
ENDMDL
