MODEL 1
REMARK VINA RESULT:    -3.436      0.000      0.000
REMARK INTER + INTRA:          -6.941
REMARK INTER:                  -5.445
REMARK INTRA:                  -1.496
REMARK UNBOUND:                -1.496
REMARK SMILES CCCCCCCCCCCC(=O)[O-]
REMARK SMILES IDX 7 1 8 2 9 3 10 4 11 5 12 6 13 7 14 8 6 9 5 10 4 11 3 12 2 13
REMARK SMILES IDX 1 14
REMARK H PARENT
REMARK Flexibility Score: inf
ROOT
ATOM      1  C   UNL     1       5.797   0.558  49.366  1.00  0.00     0.000 C 
ENDROOT
BRANCH   1   2
ATOM      2  C   UNL     1       5.774   0.938  50.854  1.00  0.00     0.000 C 
BRANCH   2   3
ATOM      3  C   UNL     1       4.445   1.603  51.232  1.00  0.00     0.000 C 
BRANCH   3   4
ATOM      4  C   UNL     1       3.484   1.630  50.039  1.00  0.00     0.006 C 
BRANCH   4   5
ATOM      5  C   UNL     1       2.100   1.109  50.436  1.00  0.00     0.053 C 
BRANCH   5   6
ATOM      6  C   UNL     1       1.793  -0.165  49.714  1.00  0.00     0.041 C 
ATOM      7  O   UNL     1       2.440  -1.214  49.977  1.00  0.00    -0.550 OA
ATOM      8  O   UNL     1       0.760  -0.208  48.788  1.00  0.00    -0.550 OA
ENDBRANCH   5   6
ENDBRANCH   4   5
ENDBRANCH   3   4
ENDBRANCH   2   3
ENDBRANCH   1   2
BRANCH   1   9
ATOM      9  C   UNL     1       7.012   1.158  48.628  1.00  0.00     0.000 C 
BRANCH   9  10
ATOM     10  C   UNL     1       6.633   2.010  47.405  1.00  0.00    -0.000 C 
BRANCH  10  11
ATOM     11  C   UNL     1       5.779   3.235  47.772  1.00  0.00    -0.000 C 
BRANCH  11  12
ATOM     12  C   UNL     1       6.607   4.364  48.406  1.00  0.00    -0.000 C 
BRANCH  12  13
ATOM     13  C   UNL     1       6.197   4.655  49.858  1.00  0.00    -0.003 C 
ATOM     14  C   UNL     1       7.325   4.309  50.827  1.00  0.00     0.004 C 
ENDBRANCH  12  13
ENDBRANCH  11  12
ENDBRANCH  10  11
ENDBRANCH   9  10
ENDBRANCH   1   9
TORSDOF 10
ENDMDL
MODEL 2
REMARK VINA RESULT:    -3.402      3.420      5.287
REMARK INTER + INTRA:          -6.887
REMARK INTER:                  -5.400
REMARK INTRA:                  -1.487
REMARK UNBOUND:                -1.496
REMARK SMILES CCCCCCCCCCCC(=O)[O-]
REMARK SMILES IDX 7 1 8 2 9 3 10 4 11 5 12 6 13 7 14 8 6 9 5 10 4 11 3 12 2 13
REMARK SMILES IDX 1 14
REMARK H PARENT
REMARK Flexibility Score: inf
ROOT
ATOM      1  C   UNL     1       5.992   0.096  49.057  1.00  0.00     0.000 C 
ENDROOT
BRANCH   1   2
ATOM      2  C   UNL     1       6.942   1.276  48.800  1.00  0.00     0.000 C 
BRANCH   2   3
ATOM      3  C   UNL     1       6.546   2.035  47.528  1.00  0.00     0.000 C 
BRANCH   3   4
ATOM      4  C   UNL     1       5.775   3.316  47.869  1.00  0.00     0.006 C 
BRANCH   4   5
ATOM      5  C   UNL     1       6.116   3.801  49.281  1.00  0.00     0.053 C 
BRANCH   5   6
ATOM      6  C   UNL     1       6.983   5.019  49.222  1.00  0.00     0.041 C 
ATOM      7  O   UNL     1       7.244   5.558  48.113  1.00  0.00    -0.550 OA
ATOM      8  O   UNL     1       7.463   5.589  50.393  1.00  0.00    -0.550 OA
ENDBRANCH   5   6
ENDBRANCH   4   5
ENDBRANCH   3   4
ENDBRANCH   2   3
ENDBRANCH   1   2
BRANCH   1   9
ATOM      9  C   UNL     1       5.849  -0.221  50.560  1.00  0.00     0.000 C 
BRANCH   9  10
ATOM     10  C   UNL     1       6.410   0.877  51.480  1.00  0.00    -0.000 C 
BRANCH  10  11
ATOM     11  C   UNL     1       5.374   1.397  52.489  1.00  0.00    -0.000 C 
BRANCH  11  12
ATOM     12  C   UNL     1       3.927   1.171  52.020  1.00  0.00    -0.000 C 
BRANCH  12  13
ATOM     13  C   UNL     1       3.344   2.390  51.290  1.00  0.00    -0.003 C 
ATOM     14  C   UNL     1       2.931   2.030  49.865  1.00  0.00     0.004 C 
ENDBRANCH  12  13
ENDBRANCH  11  12
ENDBRANCH  10  11
ENDBRANCH   9  10
ENDBRANCH   1   9
TORSDOF 10
ENDMDL
MODEL 3
REMARK VINA RESULT:    -3.371      4.358      6.238
REMARK INTER + INTRA:          -6.837
REMARK INTER:                  -5.677
REMARK INTRA:                  -1.160
REMARK UNBOUND:                -1.496
REMARK SMILES CCCCCCCCCCCC(=O)[O-]
REMARK SMILES IDX 7 1 8 2 9 3 10 4 11 5 12 6 13 7 14 8 6 9 5 10 4 11 3 12 2 13
REMARK SMILES IDX 1 14
REMARK H PARENT
REMARK Flexibility Score: inf
ROOT
ATOM      1  C   UNL     1       6.382   2.233  47.531  1.00  0.00     0.000 C 
ENDROOT
BRANCH   1   2
ATOM      2  C   UNL     1       5.994   3.628  48.044  1.00  0.00     0.000 C 
BRANCH   2   3
ATOM      3  C   UNL     1       6.668   3.928  49.389  1.00  0.00     0.000 C 
BRANCH   3   4
ATOM      4  C   UNL     1       7.022   5.415  49.507  1.00  0.00     0.006 C 
BRANCH   4   5
ATOM      5  C   UNL     1       7.498   5.974  48.163  1.00  0.00     0.053 C 
BRANCH   5   6
ATOM      6  C   UNL     1       7.919   7.402  48.310  1.00  0.00     0.041 C 
ATOM      7  O   UNL     1       7.665   8.032  49.371  1.00  0.00    -0.550 OA
ATOM      8  O   UNL     1       8.637   8.023  47.297  1.00  0.00    -0.550 OA
ENDBRANCH   5   6
ENDBRANCH   4   5
ENDBRANCH   3   4
ENDBRANCH   2   3
ENDBRANCH   1   2
BRANCH   1   9
ATOM      9  C   UNL     1       6.923   1.327  48.657  1.00  0.00     0.000 C 
BRANCH   9  10
ATOM     10  C   UNL     1       5.917   0.264  49.132  1.00  0.00    -0.000 C 
BRANCH  10  11
ATOM     11  C   UNL     1       5.340   0.569  50.524  1.00  0.00    -0.000 C 
BRANCH  11  12
ATOM     12  C   UNL     1       3.806   0.670  50.518  1.00  0.00    -0.000 C 
BRANCH  12  13
ATOM     13  C   UNL     1       3.295   1.869  49.705  1.00  0.00    -0.003 C 
ATOM     14  C   UNL     1       3.169   3.112  50.581  1.00  0.00     0.004 C 
ENDBRANCH  12  13
ENDBRANCH  11  12
ENDBRANCH  10  11
ENDBRANCH   9  10
ENDBRANCH   1   9
TORSDOF 10
ENDMDL
MODEL 4
REMARK VINA RESULT:    -3.328      4.045      5.860
REMARK INTER + INTRA:          -6.770
REMARK INTER:                  -5.461
REMARK INTRA:                  -1.308
REMARK UNBOUND:                -1.496
REMARK SMILES CCCCCCCCCCCC(=O)[O-]
REMARK SMILES IDX 7 1 8 2 9 3 10 4 11 5 12 6 13 7 14 8 6 9 5 10 4 11 3 12 2 13
REMARK SMILES IDX 1 14
REMARK H PARENT
REMARK Flexibility Score: inf
ROOT
ATOM      1  C   UNL     1       5.031   3.646  48.966  1.00  0.00     0.000 C 
ENDROOT
BRANCH   1   2
ATOM      2  C   UNL     1       5.402   4.398  50.253  1.00  0.00     0.000 C 
BRANCH   2   3
ATOM      3  C   UNL     1       6.921   4.414  50.464  1.00  0.00     0.000 C 
BRANCH   3   4
ATOM      4  C   UNL     1       7.452   5.850  50.532  1.00  0.00     0.006 C 
BRANCH   4   5
ATOM      5  C   UNL     1       6.513   6.818  49.806  1.00  0.00     0.053 C 
BRANCH   5   6
ATOM      6  C   UNL     1       7.121   7.269  48.516  1.00  0.00     0.041 C 
ATOM      7  O   UNL     1       7.946   6.532  47.912  1.00  0.00    -0.550 OA
ATOM      8  O   UNL     1       6.741   8.480  47.954  1.00  0.00    -0.550 OA
ENDBRANCH   5   6
ENDBRANCH   4   5
ENDBRANCH   3   4
ENDBRANCH   2   3
ENDBRANCH   1   2
BRANCH   1   9
ATOM      9  C   UNL     1       6.258   3.393  48.064  1.00  0.00     0.000 C 
BRANCH   9  10
ATOM     10  C   UNL     1       6.468   1.911  47.708  1.00  0.00    -0.000 C 
BRANCH  10  11
ATOM     11  C   UNL     1       6.915   1.066  48.912  1.00  0.00    -0.000 C 
BRANCH  11  12
ATOM     12  C   UNL     1       5.822   0.097  49.392  1.00  0.00    -0.000 C 
BRANCH  12  13
ATOM     13  C   UNL     1       5.334   0.413  50.813  1.00  0.00    -0.003 C 
ATOM     14  C   UNL     1       6.471   0.954  51.676  1.00  0.00     0.004 C 
ENDBRANCH  12  13
ENDBRANCH  11  12
ENDBRANCH  10  11
ENDBRANCH   9  10
ENDBRANCH   1   9
TORSDOF 10
ENDMDL
MODEL 5
REMARK VINA RESULT:    -3.316      4.556      6.343
REMARK INTER + INTRA:          -6.750
REMARK INTER:                  -5.262
REMARK INTRA:                  -1.488
REMARK UNBOUND:                -1.496
REMARK SMILES CCCCCCCCCCCC(=O)[O-]
REMARK SMILES IDX 7 1 8 2 9 3 10 4 11 5 12 6 13 7 14 8 6 9 5 10 4 11 3 12 2 13
REMARK SMILES IDX 1 14
REMARK H PARENT
REMARK Flexibility Score: inf
ROOT
ATOM      1  C   UNL     1       6.710   3.623  52.319  1.00  0.00     0.000 C 
ENDROOT
BRANCH   1   2
ATOM      2  C   UNL     1       6.468   5.015  51.715  1.00  0.00     0.000 C 
BRANCH   2   3
ATOM      3  C   UNL     1       7.428   5.284  50.549  1.00  0.00     0.000 C 
BRANCH   3   4
ATOM      4  C   UNL     1       6.784   6.208  49.509  1.00  0.00     0.006 C 
BRANCH   4   5
ATOM      5  C   UNL     1       7.603   6.233  48.215  1.00  0.00     0.053 C 
BRANCH   5   6
ATOM      6  C   UNL     1       7.877   7.643  47.796  1.00  0.00     0.041 C 
ATOM      7  O   UNL     1       9.032   7.980  47.421  1.00  0.00    -0.550 OA
ATOM      8  O   UNL     1       6.847   8.573  47.769  1.00  0.00    -0.550 OA
ENDBRANCH   5   6
ENDBRANCH   4   5
ENDBRANCH   3   4
ENDBRANCH   2   3
ENDBRANCH   1   2
BRANCH   1   9
ATOM      9  C   UNL     1       7.499   2.702  51.364  1.00  0.00     0.000 C 
BRANCH   9  10
ATOM     10  C   UNL     1       6.839   1.330  51.144  1.00  0.00    -0.000 C 
BRANCH  10  11
ATOM     11  C   UNL     1       6.057   1.249  49.823  1.00  0.00    -0.000 C 
BRANCH  11  12
ATOM     12  C   UNL     1       6.771   1.971  48.669  1.00  0.00    -0.000 C 
BRANCH  12  13
ATOM     13  C   UNL     1       5.840   2.916  47.896  1.00  0.00    -0.003 C 
ATOM     14  C   UNL     1       4.608   3.272  48.725  1.00  0.00     0.004 C 
ENDBRANCH  12  13
ENDBRANCH  11  12
ENDBRANCH  10  11
ENDBRANCH   9  10
ENDBRANCH   1   9
TORSDOF 10
ENDMDL
MODEL 6
REMARK VINA RESULT:    -3.312      2.859      4.806
REMARK INTER + INTRA:          -6.744
REMARK INTER:                  -5.334
REMARK INTRA:                  -1.410
REMARK UNBOUND:                -1.496
REMARK SMILES CCCCCCCCCCCC(=O)[O-]
REMARK SMILES IDX 7 1 8 2 9 3 10 4 11 5 12 6 13 7 14 8 6 9 5 10 4 11 3 12 2 13
REMARK SMILES IDX 1 14
REMARK H PARENT
REMARK Flexibility Score: inf
ROOT
ATOM      1  C   UNL     1       6.927   1.164  48.793  1.00  0.00     0.000 C 
ENDROOT
BRANCH   1   2
ATOM      2  C   UNL     1       6.614   1.948  47.509  1.00  0.00     0.000 C 
BRANCH   2   3
ATOM      3  C   UNL     1       5.755   3.181  47.812  1.00  0.00     0.000 C 
BRANCH   3   4
ATOM      4  C   UNL     1       6.573   4.259  48.532  1.00  0.00     0.006 C 
BRANCH   4   5
ATOM      5  C   UNL     1       5.859   4.735  49.800  1.00  0.00     0.053 C 
BRANCH   5   6
ATOM      6  C   UNL     1       6.491   4.132  51.015  1.00  0.00     0.041 C 
ATOM      7  O   UNL     1       7.734   3.931  51.049  1.00  0.00    -0.550 OA
ATOM      8  O   UNL     1       5.716   3.838  52.129  1.00  0.00    -0.550 OA
ENDBRANCH   5   6
ENDBRANCH   4   5
ENDBRANCH   3   4
ENDBRANCH   2   3
ENDBRANCH   1   2
BRANCH   1   9
ATOM      9  C   UNL     1       5.752   0.261  49.225  1.00  0.00     0.000 C 
BRANCH   9  10
ATOM     10  C   UNL     1       5.029   0.751  50.491  1.00  0.00    -0.000 C 
BRANCH  10  11
ATOM     11  C   UNL     1       3.508   0.870  50.301  1.00  0.00    -0.000 C 
BRANCH  11  12
ATOM     12  C   UNL     1       3.058   2.315  50.030  1.00  0.00    -0.000 C 
BRANCH  12  13
ATOM     13  C   UNL     1       2.423   2.978  51.262  1.00  0.00    -0.003 C 
ATOM     14  C   UNL     1       2.422   4.498  51.128  1.00  0.00     0.004 C 
ENDBRANCH  12  13
ENDBRANCH  11  12
ENDBRANCH  10  11
ENDBRANCH   9  10
ENDBRANCH   1   9
TORSDOF 10
ENDMDL
MODEL 7
REMARK VINA RESULT:    -3.301      4.652      6.460
REMARK INTER + INTRA:          -6.727
REMARK INTER:                  -5.658
REMARK INTRA:                  -1.069
REMARK UNBOUND:                -1.496
REMARK SMILES CCCCCCCCCCCC(=O)[O-]
REMARK SMILES IDX 7 1 8 2 9 3 10 4 11 5 12 6 13 7 14 8 6 9 5 10 4 11 3 12 2 13
REMARK SMILES IDX 1 14
REMARK H PARENT
REMARK Flexibility Score: inf
ROOT
ATOM      1  C   UNL     1       5.714   3.336  47.877  1.00  0.00     0.000 C 
ENDROOT
BRANCH   1   2
ATOM      2  C   UNL     1       6.751   4.410  48.241  1.00  0.00     0.000 C 
BRANCH   2   3
ATOM      3  C   UNL     1       6.339   5.167  49.509  1.00  0.00     0.000 C 
BRANCH   3   4
ATOM      4  C   UNL     1       7.200   6.419  49.706  1.00  0.00     0.006 C 
BRANCH   4   5
ATOM      5  C   UNL     1       7.912   6.806  48.407  1.00  0.00     0.053 C 
BRANCH   5   6
ATOM      6  C   UNL     1       7.736   8.265  48.127  1.00  0.00     0.041 C 
ATOM      7  O   UNL     1       6.592   8.728  47.874  1.00  0.00    -0.550 OA
ATOM      8  O   UNL     1       8.826   9.123  48.193  1.00  0.00    -0.550 OA
ENDBRANCH   5   6
ENDBRANCH   4   5
ENDBRANCH   3   4
ENDBRANCH   2   3
ENDBRANCH   1   2
BRANCH   1   9
ATOM      9  C   UNL     1       6.374   1.999  47.479  1.00  0.00     0.000 C 
BRANCH   9  10
ATOM     10  C   UNL     1       6.961   1.221  48.669  1.00  0.00    -0.000 C 
BRANCH  10  11
ATOM     11  C   UNL     1       5.879   0.619  49.580  1.00  0.00    -0.000 C 
BRANCH  11  12
ATOM     12  C   UNL     1       5.857   1.264  50.976  1.00  0.00    -0.000 C 
BRANCH  12  13
ATOM     13  C   UNL     1       7.124   2.081  51.270  1.00  0.00    -0.003 C 
ATOM     14  C   UNL     1       6.957   2.915  52.537  1.00  0.00     0.004 C 
ENDBRANCH  12  13
ENDBRANCH  11  12
ENDBRANCH  10  11
ENDBRANCH   9  10
ENDBRANCH   1   9
TORSDOF 10
ENDMDL
MODEL 8
REMARK VINA RESULT:    -3.286      1.119      2.544
REMARK INTER + INTRA:          -6.703
REMARK INTER:                  -5.095
REMARK INTRA:                  -1.608
REMARK UNBOUND:                -1.496
REMARK SMILES CCCCCCCCCCCC(=O)[O-]
REMARK SMILES IDX 7 1 8 2 9 3 10 4 11 5 12 6 13 7 14 8 6 9 5 10 4 11 3 12 2 13
REMARK SMILES IDX 1 14
REMARK H PARENT
REMARK Flexibility Score: inf
ROOT
ATOM      1  C   UNL     1       6.726   2.151  51.874  1.00  0.00     0.000 C 
ENDROOT
BRANCH   1   2
ATOM      2  C   UNL     1       6.469   1.005  50.883  1.00  0.00     0.000 C 
BRANCH   2   3
ATOM      3  C   UNL     1       4.989   0.605  50.875  1.00  0.00     0.000 C 
BRANCH   3   4
ATOM      4  C   UNL     1       4.085   1.840  50.968  1.00  0.00     0.006 C 
BRANCH   4   5
ATOM      5  C   UNL     1       3.036   1.838  49.852  1.00  0.00     0.053 C 
BRANCH   5   6
ATOM      6  C   UNL     1       1.879   0.965  50.223  1.00  0.00     0.041 C 
ATOM      7  O   UNL     1       1.586  -0.034  49.513  1.00  0.00    -0.550 OA
ATOM      8  O   UNL     1       1.153   1.225  51.378  1.00  0.00    -0.550 OA
ENDBRANCH   5   6
ENDBRANCH   4   5
ENDBRANCH   3   4
ENDBRANCH   2   3
ENDBRANCH   1   2
BRANCH   1   9
ATOM      9  C   UNL     1       7.463   3.336  51.216  1.00  0.00     0.000 C 
BRANCH   9  10
ATOM     10  C   UNL     1       6.655   4.645  51.219  1.00  0.00    -0.000 C 
BRANCH  10  11
ATOM     11  C   UNL     1       5.914   4.891  49.894  1.00  0.00    -0.000 C 
BRANCH  11  12
ATOM     12  C   UNL     1       6.652   4.294  48.685  1.00  0.00    -0.000 C 
BRANCH  12  13
ATOM     13  C   UNL     1       5.779   3.318  47.882  1.00  0.00    -0.003 C 
ATOM     14  C   UNL     1       6.581   2.094  47.448  1.00  0.00     0.004 C 
ENDBRANCH  12  13
ENDBRANCH  11  12
ENDBRANCH  10  11
ENDBRANCH   9  10
ENDBRANCH   1   9
TORSDOF 10
ENDMDL
MODEL 9
REMARK VINA RESULT:    -3.260      1.069      2.610
REMARK INTER + INTRA:          -6.661
REMARK INTER:                  -5.283
REMARK INTRA:                  -1.379
REMARK UNBOUND:                -1.496
REMARK SMILES CCCCCCCCCCCC(=O)[O-]
REMARK SMILES IDX 7 1 8 2 9 3 10 4 11 5 12 6 13 7 14 8 6 9 5 10 4 11 3 12 2 13
REMARK SMILES IDX 1 14
REMARK H PARENT
REMARK Flexibility Score: inf
ROOT
ATOM      1  C   UNL     1       5.264   4.159  50.389  1.00  0.00     0.000 C 
ENDROOT
BRANCH   1   2
ATOM      2  C   UNL     1       3.781   3.860  50.125  1.00  0.00     0.000 C 
BRANCH   2   3
ATOM      3  C   UNL     1       3.343   2.573  50.834  1.00  0.00     0.000 C 
BRANCH   3   4
ATOM      4  C   UNL     1       2.621   1.629  49.866  1.00  0.00     0.006 C 
BRANCH   4   5
ATOM      5  C   UNL     1       2.333   0.278  50.528  1.00  0.00     0.053 C 
BRANCH   5   6
ATOM      6  C   UNL     1       1.151  -0.377  49.888  1.00  0.00     0.041 C 
ATOM      7  O   UNL     1       0.462  -1.211  50.534  1.00  0.00    -0.550 OA
ATOM      8  O   UNL     1       0.779  -0.032  48.596  1.00  0.00    -0.550 OA
ENDBRANCH   5   6
ENDBRANCH   4   5
ENDBRANCH   3   4
ENDBRANCH   2   3
ENDBRANCH   1   2
BRANCH   1   9
ATOM      9  C   UNL     1       6.115   4.074  49.104  1.00  0.00     0.000 C 
BRANCH   9  10
ATOM     10  C   UNL     1       5.487   3.200  48.005  1.00  0.00    -0.000 C 
BRANCH  10  11
ATOM     11  C   UNL     1       6.480   2.191  47.405  1.00  0.00    -0.000 C 
BRANCH  11  12
ATOM     12  C   UNL     1       7.086   1.258  48.467  1.00  0.00    -0.000 C 
BRANCH  12  13
ATOM     13  C   UNL     1       6.026   0.405  49.179  1.00  0.00    -0.003 C 
ATOM     14  C   UNL     1       6.274   0.366  50.685  1.00  0.00     0.004 C 
ENDBRANCH  12  13
ENDBRANCH  11  12
ENDBRANCH  10  11
ENDBRANCH   9  10
ENDBRANCH   1   9
TORSDOF 10
ENDMDL
