MODEL 1
REMARK VINA RESULT:    -3.094      0.000      0.000
REMARK INTER + INTRA:          -6.288
REMARK INTER:                  -4.903
REMARK INTRA:                  -1.385
REMARK UNBOUND:                -1.385
REMARK SMILES CCCCCCCCCCCC(=O)[O-]
REMARK SMILES IDX 7 1 8 2 9 3 10 4 11 5 12 6 13 7 14 8 6 9 5 10 4 11 3 12 2 13
REMARK SMILES IDX 1 14
REMARK H PARENT
REMARK Flexibility Score: inf
ROOT
ATOM      1  C   UNL     1      -5.491  -8.241  -7.992  1.00  0.00     0.000 C 
ENDROOT
BRANCH   1   2
ATOM      2  C   UNL     1      -5.221  -7.831  -6.535  1.00  0.00     0.000 C 
BRANCH   2   3
ATOM      3  C   UNL     1      -5.697  -8.888  -5.526  1.00  0.00     0.000 C 
BRANCH   3   4
ATOM      4  C   UNL     1      -6.961  -8.416  -4.792  1.00  0.00     0.006 C 
BRANCH   4   5
ATOM      5  C   UNL     1      -7.405  -7.017  -5.242  1.00  0.00     0.053 C 
BRANCH   5   6
ATOM      6  C   UNL     1      -8.714  -6.625  -4.627  1.00  0.00     0.041 C 
ATOM      7  O   UNL     1      -9.232  -7.341  -3.731  1.00  0.00    -0.550 OA
ATOM      8  O   UNL     1      -9.344  -5.450  -5.019  1.00  0.00    -0.550 OA
ENDBRANCH   5   6
ENDBRANCH   4   5
ENDBRANCH   3   4
ENDBRANCH   2   3
ENDBRANCH   1   2
BRANCH   1   9
ATOM      9  C   UNL     1      -5.904  -9.714  -8.128  1.00  0.00     0.000 C 
BRANCH   9  10
ATOM     10  C   UNL     1      -6.947  -9.890  -9.242  1.00  0.00    -0.000 C 
BRANCH  10  11
ATOM     11  C   UNL     1      -8.390  -9.963  -8.708  1.00  0.00    -0.000 C 
BRANCH  11  12
ATOM     12  C   UNL     1      -8.974  -8.622  -8.226  1.00  0.00    -0.000 C 
BRANCH  12  13
ATOM     13  C   UNL     1     -10.112  -8.796  -7.211  1.00  0.00    -0.003 C 
ATOM     14  C   UNL     1      -9.863  -9.999  -6.307  1.00  0.00     0.004 C 
ENDBRANCH  12  13
ENDBRANCH  11  12
ENDBRANCH  10  11
ENDBRANCH   9  10
ENDBRANCH   1   9
TORSDOF 10
ENDMDL
MODEL 2
REMARK VINA RESULT:    -2.696     13.805     15.609
REMARK INTER + INTRA:          -5.658
REMARK INTER:                  -4.403
REMARK INTRA:                  -1.255
REMARK UNBOUND:                -1.385
REMARK SMILES CCCCCCCCCCCC(=O)[O-]
REMARK SMILES IDX 7 1 8 2 9 3 10 4 11 5 12 6 13 7 14 8 6 9 5 10 4 11 3 12 2 13
REMARK SMILES IDX 1 14
REMARK H PARENT
REMARK Flexibility Score: inf
ROOT
ATOM      1  C   UNL     1       5.375  -8.978  -7.656  1.00  0.00     0.000 C 
ENDROOT
BRANCH   1   2
ATOM      2  C   UNL     1       6.378 -10.074  -7.262  1.00  0.00     0.000 C 
BRANCH   2   3
ATOM      3  C   UNL     1       6.892  -9.915  -5.823  1.00  0.00     0.000 C 
BRANCH   3   4
ATOM      4  C   UNL     1       6.431  -8.579  -5.221  1.00  0.00     0.006 C 
BRANCH   4   5
ATOM      5  C   UNL     1       6.836  -8.435  -3.747  1.00  0.00     0.053 C 
BRANCH   5   6
ATOM      6  C   UNL     1       8.091  -7.632  -3.590  1.00  0.00     0.041 C 
ATOM      7  O   UNL     1       9.214  -8.176  -3.760  1.00  0.00    -0.550 OA
ATOM      8  O   UNL     1       8.019  -6.278  -3.291  1.00  0.00    -0.550 OA
ENDBRANCH   5   6
ENDBRANCH   4   5
ENDBRANCH   3   4
ENDBRANCH   2   3
ENDBRANCH   1   2
BRANCH   1   9
ATOM      9  C   UNL     1       5.768  -8.252  -8.952  1.00  0.00     0.000 C 
BRANCH   9  10
ATOM     10  C   UNL     1       6.338  -6.858  -8.648  1.00  0.00    -0.000 C 
BRANCH  10  11
ATOM     11  C   UNL     1       7.596  -6.531  -9.473  1.00  0.00    -0.000 C 
BRANCH  11  12
ATOM     12  C   UNL     1       8.931  -6.878  -8.789  1.00  0.00    -0.000 C 
BRANCH  12  13
ATOM     13  C   UNL     1       8.807  -7.000  -7.264  1.00  0.00    -0.003 C 
ATOM     14  C   UNL     1       9.652  -5.943  -6.557  1.00  0.00     0.004 C 
ENDBRANCH  12  13
ENDBRANCH  11  12
ENDBRANCH  10  11
ENDBRANCH   9  10
ENDBRANCH   1   9
TORSDOF 10
ENDMDL
MODEL 3
REMARK VINA RESULT:    -2.696      3.029      5.006
REMARK INTER + INTRA:          -5.658
REMARK INTER:                  -4.566
REMARK INTRA:                  -1.092
REMARK UNBOUND:                -1.385
REMARK SMILES CCCCCCCCCCCC(=O)[O-]
REMARK SMILES IDX 7 1 8 2 9 3 10 4 11 5 12 6 13 7 14 8 6 9 5 10 4 11 3 12 2 13
REMARK SMILES IDX 1 14
REMARK H PARENT
REMARK Flexibility Score: inf
ROOT
ATOM      1  C   UNL     1      -9.048  -9.621  -7.184  1.00  0.00     0.000 C 
ENDROOT
BRANCH   1   2
ATOM      2  C   UNL     1      -7.877  -9.206  -8.090  1.00  0.00     0.000 C 
BRANCH   2   3
ATOM      3  C   UNL     1      -6.579  -9.959  -7.761  1.00  0.00     0.000 C 
BRANCH   3   4
ATOM      4  C   UNL     1      -5.390  -9.362  -8.529  1.00  0.00     0.006 C 
BRANCH   4   5
ATOM      5  C   UNL     1      -5.166  -7.881  -8.195  1.00  0.00     0.053 C 
BRANCH   5   6
ATOM      6  C   UNL     1      -4.023  -7.302  -8.972  1.00  0.00     0.041 C 
ATOM      7  O   UNL     1      -3.789  -6.066  -8.924  1.00  0.00    -0.550 OA
ATOM      8  O   UNL     1      -3.197  -8.131  -9.719  1.00  0.00    -0.550 OA
ENDBRANCH   5   6
ENDBRANCH   4   5
ENDBRANCH   3   4
ENDBRANCH   2   3
ENDBRANCH   1   2
BRANCH   1   9
ATOM      9  C   UNL     1     -10.125  -8.532  -7.069  1.00  0.00     0.000 C 
BRANCH   9  10
ATOM     10  C   UNL     1      -9.531  -7.232  -6.507  1.00  0.00    -0.000 C 
BRANCH  10  11
ATOM     11  C   UNL     1      -8.877  -7.418  -5.126  1.00  0.00    -0.000 C 
BRANCH  11  12
ATOM     12  C   UNL     1      -7.692  -6.478  -4.836  1.00  0.00    -0.000 C 
BRANCH  12  13
ATOM     13  C   UNL     1      -6.331  -7.118  -5.143  1.00  0.00    -0.003 C 
ATOM     14  C   UNL     1      -6.220  -8.503  -4.512  1.00  0.00     0.004 C 
ENDBRANCH  12  13
ENDBRANCH  11  12
ENDBRANCH  10  11
ENDBRANCH   9  10
ENDBRANCH   1   9
TORSDOF 10
ENDMDL
MODEL 4
REMARK VINA RESULT:    -2.665      1.223      2.227
REMARK INTER + INTRA:          -5.608
REMARK INTER:                  -4.582
REMARK INTRA:                  -1.027
REMARK UNBOUND:                -1.385
REMARK SMILES CCCCCCCCCCCC(=O)[O-]
REMARK SMILES IDX 7 1 8 2 9 3 10 4 11 5 12 6 13 7 14 8 6 9 5 10 4 11 3 12 2 13
REMARK SMILES IDX 1 14
REMARK H PARENT
REMARK Flexibility Score: inf
ROOT
ATOM      1  C   UNL     1      -4.784  -7.921  -7.184  1.00  0.00     0.000 C 
ENDROOT
BRANCH   1   2
ATOM      2  C   UNL     1      -6.224  -7.491  -6.862  1.00  0.00     0.000 C 
BRANCH   2   3
ATOM      3  C   UNL     1      -6.583  -7.691  -5.382  1.00  0.00     0.000 C 
BRANCH   3   4
ATOM      4  C   UNL     1      -7.730  -8.701  -5.227  1.00  0.00     0.006 C 
BRANCH   4   5
ATOM      5  C   UNL     1      -9.102  -8.069  -5.496  1.00  0.00     0.053 C 
BRANCH   5   6
ATOM      6  C   UNL     1      -9.374  -6.917  -4.577  1.00  0.00     0.041 C 
ATOM      7  O   UNL     1      -9.586  -7.120  -3.353  1.00  0.00    -0.550 OA
ATOM      8  O   UNL     1      -9.357  -5.617  -5.066  1.00  0.00    -0.550 OA
ENDBRANCH   5   6
ENDBRANCH   4   5
ENDBRANCH   3   4
ENDBRANCH   2   3
ENDBRANCH   1   2
BRANCH   1   9
ATOM      9  C   UNL     1      -4.326  -7.466  -8.578  1.00  0.00     0.000 C 
BRANCH   9  10
ATOM     10  C   UNL     1      -4.175  -8.666  -9.524  1.00  0.00    -0.000 C 
BRANCH  10  11
ATOM     11  C   UNL     1      -5.078  -9.852  -9.139  1.00  0.00    -0.000 C 
BRANCH  11  12
ATOM     12  C   UNL     1      -6.466  -9.856  -9.806  1.00  0.00    -0.000 C 
BRANCH  12  13
ATOM     13  C   UNL     1      -7.606 -10.125  -8.815  1.00  0.00    -0.003 C 
ATOM     14  C   UNL     1      -8.872  -9.373  -9.215  1.00  0.00     0.004 C 
ENDBRANCH  12  13
ENDBRANCH  11  12
ENDBRANCH  10  11
ENDBRANCH   9  10
ENDBRANCH   1   9
TORSDOF 10
ENDMDL
MODEL 5
REMARK VINA RESULT:    -2.628     13.636     15.389
REMARK INTER + INTRA:          -5.549
REMARK INTER:                  -4.183
REMARK INTRA:                  -1.366
REMARK UNBOUND:                -1.385
REMARK SMILES CCCCCCCCCCCC(=O)[O-]
REMARK SMILES IDX 7 1 8 2 9 3 10 4 11 5 12 6 13 7 14 8 6 9 5 10 4 11 3 12 2 13
REMARK SMILES IDX 1 14
REMARK H PARENT
REMARK Flexibility Score: inf
ROOT
ATOM      1  C   UNL     1       8.783  -6.404  -8.790  1.00  0.00     0.000 C 
ENDROOT
BRANCH   1   2
ATOM      2  C   UNL     1       9.440  -7.685  -8.251  1.00  0.00     0.000 C 
BRANCH   2   3
ATOM      3  C   UNL     1       9.401  -7.769  -6.718  1.00  0.00     0.000 C 
BRANCH   3   4
ATOM      4  C   UNL     1       8.803  -6.490  -6.113  1.00  0.00     0.006 C 
BRANCH   4   5
ATOM      5  C   UNL     1       7.604  -6.784  -5.201  1.00  0.00     0.053 C 
BRANCH   5   6
ATOM      6  C   UNL     1       8.010  -6.885  -3.763  1.00  0.00     0.041 C 
ATOM      7  O   UNL     1       7.788  -7.942  -3.116  1.00  0.00    -0.550 OA
ATOM      8  O   UNL     1       8.666  -5.826  -3.147  1.00  0.00    -0.550 OA
ENDBRANCH   5   6
ENDBRANCH   4   5
ENDBRANCH   3   4
ENDBRANCH   2   3
ENDBRANCH   1   2
BRANCH   1   9
ATOM      9  C   UNL     1       7.603  -6.691  -9.730  1.00  0.00     0.000 C 
BRANCH   9  10
ATOM     10  C   UNL     1       6.292  -6.821  -8.940  1.00  0.00    -0.000 C 
BRANCH  10  11
ATOM     11  C   UNL     1       5.341  -7.882  -9.525  1.00  0.00    -0.000 C 
BRANCH  11  12
ATOM     12  C   UNL     1       4.734  -8.850  -8.493  1.00  0.00    -0.000 C 
BRANCH  12  13
ATOM     13  C   UNL     1       5.607  -9.016  -7.241  1.00  0.00    -0.003 C 
ATOM     14  C   UNL     1       6.639 -10.123  -7.434  1.00  0.00     0.004 C 
ENDBRANCH  12  13
ENDBRANCH  11  12
ENDBRANCH  10  11
ENDBRANCH   9  10
ENDBRANCH   1   9
TORSDOF 10
ENDMDL
MODEL 6
REMARK VINA RESULT:    -2.593     14.106     15.721
REMARK INTER + INTRA:          -5.495
REMARK INTER:                  -4.081
REMARK INTRA:                  -1.414
REMARK UNBOUND:                -1.385
REMARK SMILES CCCCCCCCCCCC(=O)[O-]
REMARK SMILES IDX 7 1 8 2 9 3 10 4 11 5 12 6 13 7 14 8 6 9 5 10 4 11 3 12 2 13
REMARK SMILES IDX 1 14
REMARK H PARENT
REMARK Flexibility Score: inf
ROOT
ATOM      1  C   UNL     1       8.812  -9.201  -7.389  1.00  0.00     0.000 C 
ENDROOT
BRANCH   1   2
ATOM      2  C   UNL     1       8.062  -9.926  -6.260  1.00  0.00     0.000 C 
BRANCH   2   3
ATOM      3  C   UNL     1       6.572  -9.553  -6.205  1.00  0.00     0.000 C 
BRANCH   3   4
ATOM      4  C   UNL     1       6.351  -8.309  -5.332  1.00  0.00     0.006 C 
BRANCH   4   5
ATOM      5  C   UNL     1       6.731  -8.553  -3.865  1.00  0.00     0.053 C 
BRANCH   5   6
ATOM      6  C   UNL     1       7.830  -7.639  -3.415  1.00  0.00     0.041 C 
ATOM      7  O   UNL     1       7.969  -6.507  -3.949  1.00  0.00    -0.550 OA
ATOM      8  O   UNL     1       8.676  -8.022  -2.383  1.00  0.00    -0.550 OA
ENDBRANCH   5   6
ENDBRANCH   4   5
ENDBRANCH   3   4
ENDBRANCH   2   3
ENDBRANCH   1   2
BRANCH   1   9
ATOM      9  C   UNL     1       9.570  -7.959  -6.895  1.00  0.00     0.000 C 
BRANCH   9  10
ATOM     10  C   UNL     1       9.005  -6.682  -7.534  1.00  0.00    -0.000 C 
BRANCH  10  11
ATOM     11  C   UNL     1       8.892  -6.776  -9.067  1.00  0.00    -0.000 C 
BRANCH  11  12
ATOM     12  C   UNL     1       7.534  -6.341  -9.647  1.00  0.00    -0.000 C 
BRANCH  12  13
ATOM     13  C   UNL     1       6.350  -6.715  -8.745  1.00  0.00    -0.003 C 
ATOM     14  C   UNL     1       5.539  -7.858  -9.347  1.00  0.00     0.004 C 
ENDBRANCH  12  13
ENDBRANCH  11  12
ENDBRANCH  10  11
ENDBRANCH   9  10
ENDBRANCH   1   9
TORSDOF 10
ENDMDL
MODEL 7
REMARK VINA RESULT:    -2.540     13.854     15.645
REMARK INTER + INTRA:          -5.411
REMARK INTER:                  -4.209
REMARK INTRA:                  -1.202
REMARK UNBOUND:                -1.385
REMARK SMILES CCCCCCCCCCCC(=O)[O-]
REMARK SMILES IDX 7 1 8 2 9 3 10 4 11 5 12 6 13 7 14 8 6 9 5 10 4 11 3 12 2 13
REMARK SMILES IDX 1 14
REMARK H PARENT
REMARK Flexibility Score: inf
ROOT
ATOM      1  C   UNL     1       6.685  -9.248  -5.811  1.00  0.00     0.000 C 
ENDROOT
BRANCH   1   2
ATOM      2  C   UNL     1       6.752  -9.530  -4.301  1.00  0.00     0.000 C 
BRANCH   2   3
ATOM      3  C   UNL     1       7.061  -8.270  -3.478  1.00  0.00     0.000 C 
BRANCH   3   4
ATOM      4  C   UNL     1       8.334  -8.461  -2.641  1.00  0.00     0.006 C 
BRANCH   4   5
ATOM      5  C   UNL     1       9.572  -7.858  -3.320  1.00  0.00     0.053 C 
BRANCH   5   6
ATOM      6  C   UNL     1       9.382  -6.406  -3.636  1.00  0.00     0.041 C 
ATOM      7  O   UNL     1       9.296  -5.563  -2.705  1.00  0.00    -0.550 OA
ATOM      8  O   UNL     1       9.336  -5.980  -4.957  1.00  0.00    -0.550 OA
ENDBRANCH   5   6
ENDBRANCH   4   5
ENDBRANCH   3   4
ENDBRANCH   2   3
ENDBRANCH   1   2
BRANCH   1   9
ATOM      9  C   UNL     1       8.073  -9.187  -6.465  1.00  0.00     0.000 C 
BRANCH   9  10
ATOM     10  C   UNL     1       8.136  -8.065  -7.513  1.00  0.00    -0.000 C 
BRANCH  10  11
ATOM     11  C   UNL     1       6.952  -7.085  -7.415  1.00  0.00    -0.000 C 
BRANCH  11  12
ATOM     12  C   UNL     1       6.303  -6.713  -8.760  1.00  0.00    -0.000 C 
BRANCH  12  13
ATOM     13  C   UNL     1       5.880  -7.940  -9.580  1.00  0.00    -0.003 C 
ATOM     14  C   UNL     1       4.690  -8.646  -8.936  1.00  0.00     0.004 C 
ENDBRANCH  12  13
ENDBRANCH  11  12
ENDBRANCH  10  11
ENDBRANCH   9  10
ENDBRANCH   1   9
TORSDOF 10
ENDMDL
MODEL 8
REMARK VINA RESULT:    -2.518     14.254     16.347
REMARK INTER + INTRA:          -5.375
REMARK INTER:                  -4.061
REMARK INTRA:                  -1.314
REMARK UNBOUND:                -1.385
REMARK SMILES CCCCCCCCCCCC(=O)[O-]
REMARK SMILES IDX 7 1 8 2 9 3 10 4 11 5 12 6 13 7 14 8 6 9 5 10 4 11 3 12 2 13
REMARK SMILES IDX 1 14
REMARK H PARENT
REMARK Flexibility Score: inf
ROOT
ATOM      1  C   UNL     1       6.746  -8.707  -3.731  1.00  0.00     0.000 C 
ENDROOT
BRANCH   1   2
ATOM      2  C   UNL     1       6.805  -9.634  -4.956  1.00  0.00     0.000 C 
BRANCH   2   3
ATOM      3  C   UNL     1       6.290  -8.957  -6.235  1.00  0.00     0.000 C 
BRANCH   3   4
ATOM      4  C   UNL     1       7.416  -8.183  -6.937  1.00  0.00     0.006 C 
BRANCH   4   5
ATOM      5  C   UNL     1       6.959  -6.798  -7.415  1.00  0.00     0.053 C 
BRANCH   5   6
ATOM      6  C   UNL     1       6.678  -6.781  -8.886  1.00  0.00     0.041 C 
ATOM      7  O   UNL     1       7.530  -6.317  -9.688  1.00  0.00    -0.550 OA
ATOM      8  O   UNL     1       5.490  -7.310  -9.375  1.00  0.00    -0.550 OA
ENDBRANCH   5   6
ENDBRANCH   4   5
ENDBRANCH   3   4
ENDBRANCH   2   3
ENDBRANCH   1   2
BRANCH   1   9
ATOM      9  C   UNL     1       7.595  -9.218  -2.558  1.00  0.00     0.000 C 
BRANCH   9  10
ATOM     10  C   UNL     1       9.029  -9.526  -3.013  1.00  0.00    -0.000 C 
BRANCH  10  11
ATOM     11  C   UNL     1       9.934  -8.281  -3.032  1.00  0.00    -0.000 C 
BRANCH  11  12
ATOM     12  C   UNL     1      10.125  -7.637  -4.417  1.00  0.00    -0.000 C 
BRANCH  12  13
ATOM     13  C   UNL     1       9.533  -6.223  -4.507  1.00  0.00    -0.003 C 
ATOM     14  C   UNL     1       8.972  -5.776  -3.160  1.00  0.00     0.004 C 
ENDBRANCH  12  13
ENDBRANCH  11  12
ENDBRANCH  10  11
ENDBRANCH   9  10
ENDBRANCH   1   9
TORSDOF 10
ENDMDL
MODEL 9
REMARK VINA RESULT:    -1.939      1.844      3.869
REMARK INTER + INTRA:          -4.457
REMARK INTER:                  -3.923
REMARK INTRA:                  -0.535
REMARK UNBOUND:                -1.385
REMARK SMILES CCCCCCCCCCCC(=O)[O-]
REMARK SMILES IDX 7 1 8 2 9 3 10 4 11 5 12 6 13 7 14 8 6 9 5 10 4 11 3 12 2 13
REMARK SMILES IDX 1 14
REMARK H PARENT
REMARK Flexibility Score: inf
ROOT
ATOM      1  C   UNL     1      -9.118  -7.500  -7.575  1.00  0.00     0.000 C 
ENDROOT
BRANCH   1   2
ATOM      2  C   UNL     1     -10.125  -6.954  -6.550  1.00  0.00     0.000 C 
BRANCH   2   3
ATOM      3  C   UNL     1      -9.448  -6.163  -5.420  1.00  0.00     0.000 C 
BRANCH   3   4
ATOM      4  C   UNL     1      -8.651  -7.098  -4.499  1.00  0.00     0.006 C 
BRANCH   4   5
ATOM      5  C   UNL     1      -7.215  -7.317  -4.993  1.00  0.00     0.053 C 
BRANCH   5   6
ATOM      6  C   UNL     1      -6.686  -8.660  -4.593  1.00  0.00     0.041 C 
ATOM      7  O   UNL     1      -5.639  -8.747  -3.900  1.00  0.00    -0.550 OA
ATOM      8  O   UNL     1      -7.369  -9.814  -4.956  1.00  0.00    -0.550 OA
ENDBRANCH   5   6
ENDBRANCH   4   5
ENDBRANCH   3   4
ENDBRANCH   2   3
ENDBRANCH   1   2
BRANCH   1   9
ATOM      9  C   UNL     1      -9.577  -8.820  -8.212  1.00  0.00     0.000 C 
BRANCH   9  10
ATOM     10  C   UNL     1      -8.430  -9.478  -8.995  1.00  0.00    -0.000 C 
BRANCH  10  11
ATOM     11  C   UNL     1      -7.181  -9.730  -8.131  1.00  0.00    -0.000 C 
BRANCH  11  12
ATOM     12  C   UNL     1      -5.867  -9.176  -8.712  1.00  0.00    -0.000 C 
BRANCH  12  13
ATOM     13  C   UNL     1      -5.293  -8.012  -7.891  1.00  0.00    -0.003 C 
ATOM     14  C   UNL     1      -4.109  -7.367  -8.606  1.00  0.00     0.004 C 
ENDBRANCH  12  13
ENDBRANCH  11  12
ENDBRANCH  10  11
ENDBRANCH   9  10
ENDBRANCH   1   9
TORSDOF 10
ENDMDL
