MODEL 1
REMARK VINA RESULT:    -4.727      0.000      0.000
REMARK INTER + INTRA:          -9.168
REMARK INTER:                  -8.043
REMARK INTRA:                  -1.125
REMARK UNBOUND:                -1.125
REMARK SMILES CCCCCCCCCCCCCC(=O)[O-]
REMARK SMILES IDX 8 1 9 2 10 3 11 4 12 5 13 6 14 7 15 8 16 9 7 10 6 11 5 12
REMARK SMILES IDX 4 13 3 14 2 15 1 16
REMARK H PARENT
REMARK Flexibility Score: inf
ROOT
ATOM      1  C   UNL     1     -47.500  25.554 -14.264  1.00  0.00     0.000 C 
ENDROOT
BRANCH   1   2
ATOM      2  C   UNL     1     -46.263  26.307 -13.743  1.00  0.00     0.000 C 
BRANCH   2   3
ATOM      3  C   UNL     1     -45.111  26.346 -14.765  1.00  0.00     0.000 C 
BRANCH   3   4
ATOM      4  C   UNL     1     -44.980  27.656 -15.562  1.00  0.00     0.000 C 
BRANCH   4   5
ATOM      5  C   UNL     1     -44.916  27.432 -17.083  1.00  0.00     0.006 C 
BRANCH   5   6
ATOM      6  C   UNL     1     -46.301  27.174 -17.690  1.00  0.00     0.053 C 
BRANCH   6   7
ATOM      7  C   UNL     1     -46.441  25.766 -18.182  1.00  0.00     0.041 C 
ATOM      8  O   UNL     1     -47.480  25.105 -17.922  1.00  0.00    -0.550 OA
ATOM      9  O   UNL     1     -45.412  25.175 -18.903  1.00  0.00    -0.550 OA
ENDBRANCH   6   7
ENDBRANCH   5   6
ENDBRANCH   4   5
ENDBRANCH   3   4
ENDBRANCH   2   3
ENDBRANCH   1   2
BRANCH   1  10
ATOM     10  C   UNL     1     -48.605  26.496 -14.778  1.00  0.00     0.000 C 
BRANCH  10  11
ATOM     11  C   UNL     1     -49.863  25.802 -15.335  1.00  0.00    -0.000 C 
BRANCH  11  12
ATOM     12  C   UNL     1     -49.814  24.270 -15.201  1.00  0.00    -0.000 C 
BRANCH  12  13
ATOM     13  C   UNL     1     -51.179  23.656 -14.846  1.00  0.00    -0.000 C 
BRANCH  13  14
ATOM     14  C   UNL     1     -52.266  24.663 -14.418  1.00  0.00    -0.000 C 
BRANCH  14  15
ATOM     15  C   UNL     1     -53.452  24.054 -13.650  1.00  0.00    -0.003 C 
ATOM     16  C   UNL     1     -53.017  23.215 -12.449  1.00  0.00     0.004 C 
ENDBRANCH  14  15
ENDBRANCH  13  14
ENDBRANCH  12  13
ENDBRANCH  11  12
ENDBRANCH  10  11
ENDBRANCH   1  10
TORSDOF 12
ENDMDL
MODEL 2
REMARK VINA RESULT:    -4.712      2.036      3.093
REMARK INTER + INTRA:          -9.142
REMARK INTER:                  -7.742
REMARK INTRA:                  -1.400
REMARK UNBOUND:                -1.125
REMARK SMILES CCCCCCCCCCCCCC(=O)[O-]
REMARK SMILES IDX 8 1 9 2 10 3 11 4 12 5 13 6 14 7 15 8 16 9 7 10 6 11 5 12
REMARK SMILES IDX 4 13 3 14 2 15 1 16
REMARK H PARENT
REMARK Flexibility Score: inf
ROOT
ATOM      1  C   UNL     1     -48.634  26.601 -17.444  1.00  0.00     0.000 C 
ENDROOT
BRANCH   1   2
ATOM      2  C   UNL     1     -47.335  27.163 -18.050  1.00  0.00     0.000 C 
BRANCH   2   3
ATOM      3  C   UNL     1     -46.230  26.100 -18.191  1.00  0.00     0.000 C 
BRANCH   3   4
ATOM      4  C   UNL     1     -44.883  26.459 -17.537  1.00  0.00     0.000 C 
BRANCH   4   5
ATOM      5  C   UNL     1     -45.025  27.456 -16.374  1.00  0.00     0.006 C 
BRANCH   5   6
ATOM      6  C   UNL     1     -45.151  26.751 -15.017  1.00  0.00     0.053 C 
BRANCH   6   7
ATOM      7  C   UNL     1     -46.324  27.255 -14.233  1.00  0.00     0.041 C 
ATOM      8  O   UNL     1     -47.020  28.205 -14.676  1.00  0.00    -0.550 OA
ATOM      9  O   UNL     1     -46.630  26.694 -13.000  1.00  0.00    -0.550 OA
ENDBRANCH   6   7
ENDBRANCH   5   6
ENDBRANCH   4   5
ENDBRANCH   3   4
ENDBRANCH   2   3
ENDBRANCH   1   2
BRANCH   1  10
ATOM     10  C   UNL     1     -48.408  25.317 -16.624  1.00  0.00     0.000 C 
BRANCH  10  11
ATOM     11  C   UNL     1     -49.209  25.218 -15.312  1.00  0.00    -0.000 C 
BRANCH  11  12
ATOM     12  C   UNL     1     -50.291  26.304 -15.185  1.00  0.00    -0.000 C 
BRANCH  12  13
ATOM     13  C   UNL     1     -51.713  25.723 -15.092  1.00  0.00    -0.000 C 
BRANCH  13  14
ATOM     14  C   UNL     1     -51.794  24.222 -14.751  1.00  0.00    -0.000 C 
BRANCH  14  15
ATOM     15  C   UNL     1     -52.947  23.828 -13.811  1.00  0.00    -0.003 C 
ATOM     16  C   UNL     1     -52.463  23.176 -12.517  1.00  0.00     0.004 C 
ENDBRANCH  14  15
ENDBRANCH  13  14
ENDBRANCH  12  13
ENDBRANCH  11  12
ENDBRANCH  10  11
ENDBRANCH   1  10
TORSDOF 12
ENDMDL
MODEL 3
REMARK VINA RESULT:    -4.672      2.636      6.411
REMARK INTER + INTRA:          -9.075
REMARK INTER:                  -7.363
REMARK INTRA:                  -1.711
REMARK UNBOUND:                -1.125
REMARK SMILES CCCCCCCCCCCCCC(=O)[O-]
REMARK SMILES IDX 8 1 9 2 10 3 11 4 12 5 13 6 14 7 15 8 16 9 7 10 6 11 5 12
REMARK SMILES IDX 4 13 3 14 2 15 1 16
REMARK H PARENT
REMARK Flexibility Score: inf
ROOT
ATOM      1  C   UNL     1     -48.195  27.892 -14.606  1.00  0.00     0.000 C 
ENDROOT
BRANCH   1   2
ATOM      2  C   UNL     1     -48.450  27.965 -16.122  1.00  0.00     0.000 C 
BRANCH   2   3
ATOM      3  C   UNL     1     -49.025  26.657 -16.698  1.00  0.00     0.000 C 
BRANCH   3   4
ATOM      4  C   UNL     1     -48.260  25.376 -16.316  1.00  0.00     0.000 C 
BRANCH   4   5
ATOM      5  C   UNL     1     -49.120  24.376 -15.523  1.00  0.00     0.006 C 
BRANCH   5   6
ATOM      6  C   UNL     1     -50.477  24.969 -15.122  1.00  0.00     0.053 C 
BRANCH   6   7
ATOM      7  C   UNL     1     -51.473  23.903 -14.779  1.00  0.00     0.041 C 
ATOM      8  O   UNL     1     -51.297  22.722 -15.177  1.00  0.00    -0.550 OA
ATOM      9  O   UNL     1     -52.607  24.220 -14.045  1.00  0.00    -0.550 OA
ENDBRANCH   6   7
ENDBRANCH   5   6
ENDBRANCH   4   5
ENDBRANCH   3   4
ENDBRANCH   2   3
ENDBRANCH   1   2
BRANCH   1  10
ATOM     10  C   UNL     1     -46.720  28.132 -14.232  1.00  0.00     0.000 C 
BRANCH  10  11
ATOM     11  C   UNL     1     -45.838  26.871 -14.168  1.00  0.00    -0.000 C 
BRANCH  11  12
ATOM     12  C   UNL     1     -44.872  26.751 -15.358  1.00  0.00    -0.000 C 
BRANCH  12  13
ATOM     13  C   UNL     1     -44.735  28.062 -16.153  1.00  0.00    -0.000 C 
BRANCH  13  14
ATOM     14  C   UNL     1     -44.598  27.897 -17.680  1.00  0.00    -0.000 C 
BRANCH  14  15
ATOM     15  C   UNL     1     -45.661  26.999 -18.337  1.00  0.00    -0.003 C 
ATOM     16  C   UNL     1     -45.088  25.684 -18.862  1.00  0.00     0.004 C 
ENDBRANCH  14  15
ENDBRANCH  13  14
ENDBRANCH  12  13
ENDBRANCH  11  12
ENDBRANCH  10  11
ENDBRANCH   1  10
TORSDOF 12
ENDMDL
MODEL 4
REMARK VINA RESULT:    -4.671      2.432      3.033
REMARK INTER + INTRA:          -9.073
REMARK INTER:                  -7.370
REMARK INTRA:                  -1.703
REMARK UNBOUND:                -1.125
REMARK SMILES CCCCCCCCCCCCCC(=O)[O-]
REMARK SMILES IDX 8 1 9 2 10 3 11 4 12 5 13 6 14 7 15 8 16 9 7 10 6 11 5 12
REMARK SMILES IDX 4 13 3 14 2 15 1 16
REMARK H PARENT
REMARK Flexibility Score: inf
ROOT
ATOM      1  C   UNL     1     -45.936  26.148 -13.517  1.00  0.00     0.000 C 
ENDROOT
BRANCH   1   2
ATOM      2  C   UNL     1     -46.065  27.662 -13.761  1.00  0.00     0.000 C 
BRANCH   2   3
ATOM      3  C   UNL     1     -45.043  28.194 -14.784  1.00  0.00     0.000 C 
BRANCH   3   4
ATOM      4  C   UNL     1     -45.630  28.623 -16.141  1.00  0.00     0.000 C 
BRANCH   4   5
ATOM      5  C   UNL     1     -44.836  28.077 -17.340  1.00  0.00     0.006 C 
BRANCH   5   6
ATOM      6  C   UNL     1     -44.787  26.544 -17.353  1.00  0.00     0.053 C 
BRANCH   6   7
ATOM      7  C   UNL     1     -44.852  25.995 -18.746  1.00  0.00     0.041 C 
ATOM      8  O   UNL     1     -45.417  24.892 -18.967  1.00  0.00    -0.550 OA
ATOM      9  O   UNL     1     -44.263  26.689 -19.795  1.00  0.00    -0.550 OA
ENDBRANCH   6   7
ENDBRANCH   5   6
ENDBRANCH   4   5
ENDBRANCH   3   4
ENDBRANCH   2   3
ENDBRANCH   1   2
BRANCH   1  10
ATOM     10  C   UNL     1     -47.149  25.351 -14.031  1.00  0.00     0.000 C 
BRANCH  10  11
ATOM     11  C   UNL     1     -48.144  26.143 -14.900  1.00  0.00    -0.000 C 
BRANCH  11  12
ATOM     12  C   UNL     1     -48.392  25.496 -16.273  1.00  0.00    -0.000 C 
BRANCH  12  13
ATOM     13  C   UNL     1     -48.539  26.529 -17.405  1.00  0.00    -0.000 C 
BRANCH  13  14
ATOM     14  C   UNL     1     -49.453  27.731 -17.089  1.00  0.00    -0.000 C 
BRANCH  14  15
ATOM     15  C   UNL     1     -50.945  27.513 -17.397  1.00  0.00    -0.003 C 
ATOM     16  C   UNL     1     -51.749  27.082 -16.171  1.00  0.00     0.004 C 
ENDBRANCH  14  15
ENDBRANCH  13  14
ENDBRANCH  12  13
ENDBRANCH  11  12
ENDBRANCH  10  11
ENDBRANCH   1  10
TORSDOF 12
ENDMDL
MODEL 5
REMARK VINA RESULT:    -4.666      2.402      6.395
REMARK INTER + INTRA:          -9.064
REMARK INTER:                  -7.355
REMARK INTRA:                  -1.709
REMARK UNBOUND:                -1.125
REMARK SMILES CCCCCCCCCCCCCC(=O)[O-]
REMARK SMILES IDX 8 1 9 2 10 3 11 4 12 5 13 6 14 7 15 8 16 9 7 10 6 11 5 12
REMARK SMILES IDX 4 13 3 14 2 15 1 16
REMARK H PARENT
REMARK Flexibility Score: inf
ROOT
ATOM      1  C   UNL     1     -47.937  24.988 -14.693  1.00  0.00     0.000 C 
ENDROOT
BRANCH   1   2
ATOM      2  C   UNL     1     -48.769  25.832 -15.676  1.00  0.00     0.000 C 
BRANCH   2   3
ATOM      3  C   UNL     1     -49.405  27.069 -15.015  1.00  0.00     0.000 C 
BRANCH   3   4
ATOM      4  C   UNL     1     -50.902  26.943 -14.681  1.00  0.00     0.000 C 
BRANCH   4   5
ATOM      5  C   UNL     1     -51.618  25.873 -15.523  1.00  0.00     0.006 C 
BRANCH   5   6
ATOM      6  C   UNL     1     -52.403  24.881 -14.654  1.00  0.00     0.053 C 
BRANCH   6   7
ATOM      7  C   UNL     1     -51.593  23.664 -14.326  1.00  0.00     0.041 C 
ATOM      8  O   UNL     1     -50.956  23.065 -15.230  1.00  0.00    -0.550 OA
ATOM      9  O   UNL     1     -51.566  23.177 -13.026  1.00  0.00    -0.550 OA
ENDBRANCH   6   7
ENDBRANCH   5   6
ENDBRANCH   4   5
ENDBRANCH   3   4
ENDBRANCH   2   3
ENDBRANCH   1   2
BRANCH   1  10
ATOM     10  C   UNL     1     -47.227  25.838 -13.623  1.00  0.00     0.000 C 
BRANCH  10  11
ATOM     11  C   UNL     1     -45.762  26.204 -13.931  1.00  0.00    -0.000 C 
BRANCH  11  12
ATOM     12  C   UNL     1     -45.581  27.678 -14.329  1.00  0.00    -0.000 C 
BRANCH  12  13
ATOM     13  C   UNL     1     -45.495  27.882 -15.852  1.00  0.00    -0.000 C 
BRANCH  13  14
ATOM     14  C   UNL     1     -44.957  26.677 -16.650  1.00  0.00    -0.000 C 
BRANCH  14  15
ATOM     15  C   UNL     1     -45.639  26.440 -18.009  1.00  0.00    -0.003 C 
ATOM     16  C   UNL     1     -46.851  27.343 -18.233  1.00  0.00     0.004 C 
ENDBRANCH  14  15
ENDBRANCH  13  14
ENDBRANCH  12  13
ENDBRANCH  11  12
ENDBRANCH  10  11
ENDBRANCH   1  10
TORSDOF 12
ENDMDL
MODEL 6
REMARK VINA RESULT:    -4.655      2.778      6.776
REMARK INTER + INTRA:          -9.046
REMARK INTER:                  -7.586
REMARK INTRA:                  -1.461
REMARK UNBOUND:                -1.125
REMARK SMILES CCCCCCCCCCCCCC(=O)[O-]
REMARK SMILES IDX 8 1 9 2 10 3 11 4 12 5 13 6 14 7 15 8 16 9 7 10 6 11 5 12
REMARK SMILES IDX 4 13 3 14 2 15 1 16
REMARK H PARENT
REMARK Flexibility Score: inf
ROOT
ATOM      1  C   UNL     1     -44.968  26.768 -14.939  1.00  0.00     0.000 C 
ENDROOT
BRANCH   1   2
ATOM      2  C   UNL     1     -45.631  27.316 -13.663  1.00  0.00     0.000 C 
BRANCH   2   3
ATOM      3  C   UNL     1     -47.025  26.714 -13.405  1.00  0.00     0.000 C 
BRANCH   3   4
ATOM      4  C   UNL     1     -47.214  25.261 -13.878  1.00  0.00     0.000 C 
BRANCH   4   5
ATOM      5  C   UNL     1     -48.352  25.104 -14.901  1.00  0.00     0.006 C 
BRANCH   5   6
ATOM      6  C   UNL     1     -49.096  26.424 -15.148  1.00  0.00     0.053 C 
BRANCH   6   7
ATOM      7  C   UNL     1     -50.553  26.202 -15.414  1.00  0.00     0.041 C 
ATOM      8  O   UNL     1     -51.154  26.902 -16.270  1.00  0.00    -0.550 OA
ATOM      9  O   UNL     1     -51.253  25.240 -14.697  1.00  0.00    -0.550 OA
ENDBRANCH   6   7
ENDBRANCH   5   6
ENDBRANCH   4   5
ENDBRANCH   3   4
ENDBRANCH   2   3
ENDBRANCH   1   2
BRANCH   1  10
ATOM     10  C   UNL     1     -45.086  27.728 -16.137  1.00  0.00     0.000 C 
BRANCH  10  11
ATOM     11  C   UNL     1     -46.153  27.356 -17.183  1.00  0.00    -0.000 C 
BRANCH  11  12
ATOM     12  C   UNL     1     -45.717  26.205 -18.105  1.00  0.00    -0.000 C 
BRANCH  12  13
ATOM     13  C   UNL     1     -44.265  26.349 -18.595  1.00  0.00    -0.000 C 
BRANCH  13  14
ATOM     14  C   UNL     1     -44.100  26.927 -20.015  1.00  0.00    -0.000 C 
BRANCH  14  15
ATOM     15  C   UNL     1     -43.457  28.324 -20.079  1.00  0.00    -0.003 C 
ATOM     16  C   UNL     1     -42.707  28.693 -18.800  1.00  0.00     0.004 C 
ENDBRANCH  14  15
ENDBRANCH  13  14
ENDBRANCH  12  13
ENDBRANCH  11  12
ENDBRANCH  10  11
ENDBRANCH   1  10
TORSDOF 12
ENDMDL
MODEL 7
REMARK VINA RESULT:    -4.644      2.933      5.696
REMARK INTER + INTRA:          -9.027
REMARK INTER:                  -7.096
REMARK INTRA:                  -1.932
REMARK UNBOUND:                -1.125
REMARK SMILES CCCCCCCCCCCCCC(=O)[O-]
REMARK SMILES IDX 8 1 9 2 10 3 11 4 12 5 13 6 14 7 15 8 16 9 7 10 6 11 5 12
REMARK SMILES IDX 4 13 3 14 2 15 1 16
REMARK H PARENT
REMARK Flexibility Score: inf
ROOT
ATOM      1  C   UNL     1     -45.006  26.499 -17.433  1.00  0.00     0.000 C 
ENDROOT
BRANCH   1   2
ATOM      2  C   UNL     1     -46.347  26.178 -18.115  1.00  0.00     0.000 C 
BRANCH   2   3
ATOM      3  C   UNL     1     -47.431  27.237 -17.837  1.00  0.00     0.000 C 
BRANCH   3   4
ATOM      4  C   UNL     1     -48.518  26.820 -16.830  1.00  0.00     0.000 C 
BRANCH   4   5
ATOM      5  C   UNL     1     -49.009  27.988 -15.957  1.00  0.00     0.006 C 
BRANCH   5   6
ATOM      6  C   UNL     1     -49.932  27.517 -14.824  1.00  0.00     0.053 C 
BRANCH   6   7
ATOM      7  C   UNL     1     -50.962  26.545 -15.312  1.00  0.00     0.041 C 
ATOM      8  O   UNL     1     -50.948  25.353 -14.909  1.00  0.00    -0.550 OA
ATOM      9  O   UNL     1     -51.921  26.950 -16.231  1.00  0.00    -0.550 OA
ENDBRANCH   6   7
ENDBRANCH   5   6
ENDBRANCH   4   5
ENDBRANCH   3   4
ENDBRANCH   2   3
ENDBRANCH   1   2
BRANCH   1  10
ATOM     10  C   UNL     1     -44.520  27.935 -17.707  1.00  0.00     0.000 C 
BRANCH  10  11
ATOM     11  C   UNL     1     -44.387  28.839 -16.467  1.00  0.00    -0.000 C 
BRANCH  11  12
ATOM     12  C   UNL     1     -44.482  28.061 -15.143  1.00  0.00    -0.000 C 
BRANCH  12  13
ATOM     13  C   UNL     1     -45.720  28.443 -14.311  1.00  0.00    -0.000 C 
BRANCH  13  14
ATOM     14  C   UNL     1     -46.166  27.396 -13.271  1.00  0.00    -0.000 C 
BRANCH  14  15
ATOM     15  C   UNL     1     -45.920  25.931 -13.674  1.00  0.00    -0.003 C 
ATOM     16  C   UNL     1     -47.214  25.148 -13.892  1.00  0.00     0.004 C 
ENDBRANCH  14  15
ENDBRANCH  13  14
ENDBRANCH  12  13
ENDBRANCH  11  12
ENDBRANCH  10  11
ENDBRANCH   1  10
TORSDOF 12
ENDMDL
MODEL 8
REMARK VINA RESULT:    -4.641      2.257      5.777
REMARK INTER + INTRA:          -9.021
REMARK INTER:                  -7.285
REMARK INTRA:                  -1.736
REMARK UNBOUND:                -1.125
REMARK SMILES CCCCCCCCCCCCCC(=O)[O-]
REMARK SMILES IDX 8 1 9 2 10 3 11 4 12 5 13 6 14 7 15 8 16 9 7 10 6 11 5 12
REMARK SMILES IDX 4 13 3 14 2 15 1 16
REMARK H PARENT
REMARK Flexibility Score: inf
ROOT
ATOM      1  C   UNL     1     -47.498  25.679 -17.480  1.00  0.00     0.000 C 
ENDROOT
BRANCH   1   2
ATOM      2  C   UNL     1     -48.745  26.573 -17.596  1.00  0.00     0.000 C 
BRANCH   2   3
ATOM      3  C   UNL     1     -48.886  27.560 -16.421  1.00  0.00     0.000 C 
BRANCH   3   4
ATOM      4  C   UNL     1     -50.327  27.814 -15.943  1.00  0.00     0.000 C 
BRANCH   4   5
ATOM      5  C   UNL     1     -50.736  26.919 -14.761  1.00  0.00     0.006 C 
BRANCH   5   6
ATOM      6  C   UNL     1     -51.730  25.826 -15.177  1.00  0.00     0.053 C 
BRANCH   6   7
ATOM      7  C   UNL     1     -51.214  24.454 -14.865  1.00  0.00     0.041 C 
ATOM      8  O   UNL     1     -51.942  23.628 -14.257  1.00  0.00    -0.550 OA
ATOM      9  O   UNL     1     -49.920  24.099 -15.222  1.00  0.00    -0.550 OA
ENDBRANCH   6   7
ENDBRANCH   5   6
ENDBRANCH   4   5
ENDBRANCH   3   4
ENDBRANCH   2   3
ENDBRANCH   1   2
BRANCH   1  10
ATOM     10  C   UNL     1     -46.303  26.204 -18.299  1.00  0.00     0.000 C 
BRANCH  10  11
ATOM     11  C   UNL     1     -44.980  26.349 -17.524  1.00  0.00    -0.000 C 
BRANCH  11  12
ATOM     12  C   UNL     1     -45.031  27.445 -16.447  1.00  0.00    -0.000 C 
BRANCH  12  13
ATOM     13  C   UNL     1     -45.013  26.879 -15.015  1.00  0.00    -0.000 C 
BRANCH  13  14
ATOM     14  C   UNL     1     -45.856  27.659 -13.986  1.00  0.00    -0.000 C 
BRANCH  14  15
ATOM     15  C   UNL     1     -46.987  26.852 -13.324  1.00  0.00    -0.003 C 
ATOM     16  C   UNL     1     -47.019  25.392 -13.774  1.00  0.00     0.004 C 
ENDBRANCH  14  15
ENDBRANCH  13  14
ENDBRANCH  12  13
ENDBRANCH  11  12
ENDBRANCH  10  11
ENDBRANCH   1  10
TORSDOF 12
ENDMDL
MODEL 9
REMARK VINA RESULT:    -4.565      1.819      3.047
REMARK INTER + INTRA:          -8.892
REMARK INTER:                  -6.767
REMARK INTRA:                  -2.125
REMARK UNBOUND:                -1.125
REMARK SMILES CCCCCCCCCCCCCC(=O)[O-]
REMARK SMILES IDX 8 1 9 2 10 3 11 4 12 5 13 6 14 7 15 8 16 9 7 10 6 11 5 12
REMARK SMILES IDX 4 13 3 14 2 15 1 16
REMARK H PARENT
REMARK Flexibility Score: inf
ROOT
ATOM      1  C   UNL     1     -47.225  25.968 -14.546  1.00  0.00     0.000 C 
ENDROOT
BRANCH   1   2
ATOM      2  C   UNL     1     -48.351  24.927 -14.668  1.00  0.00     0.000 C 
BRANCH   2   3
ATOM      3  C   UNL     1     -48.722  24.611 -16.129  1.00  0.00     0.000 C 
BRANCH   3   4
ATOM      4  C   UNL     1     -47.768  25.189 -17.191  1.00  0.00     0.000 C 
BRANCH   4   5
ATOM      5  C   UNL     1     -48.423  26.278 -18.059  1.00  0.00     0.006 C 
BRANCH   5   6
ATOM      6  C   UNL     1     -47.608  27.579 -18.068  1.00  0.00     0.053 C 
BRANCH   6   7
ATOM      7  C   UNL     1     -46.134  27.313 -18.117  1.00  0.00     0.041 C 
ATOM      8  O   UNL     1     -45.390  27.700 -17.179  1.00  0.00    -0.550 OA
ATOM      9  O   UNL     1     -45.579  26.665 -19.213  1.00  0.00    -0.550 OA
ENDBRANCH   6   7
ENDBRANCH   5   6
ENDBRANCH   4   5
ENDBRANCH   3   4
ENDBRANCH   2   3
ENDBRANCH   1   2
BRANCH   1  10
ATOM     10  C   UNL     1     -47.672  27.258 -13.834  1.00  0.00     0.000 C 
BRANCH  10  11
ATOM     11  C   UNL     1     -48.435  28.269 -14.710  1.00  0.00    -0.000 C 
BRANCH  11  12
ATOM     12  C   UNL     1     -49.961  28.176 -14.546  1.00  0.00    -0.000 C 
BRANCH  12  13
ATOM     13  C   UNL     1     -50.707  28.148 -15.893  1.00  0.00    -0.000 C 
BRANCH  13  14
ATOM     14  C   UNL     1     -51.612  26.920 -16.122  1.00  0.00    -0.000 C 
BRANCH  14  15
ATOM     15  C   UNL     1     -52.158  26.265 -14.840  1.00  0.00    -0.003 C 
ATOM     16  C   UNL     1     -52.121  24.738 -14.890  1.00  0.00     0.004 C 
ENDBRANCH  14  15
ENDBRANCH  13  14
ENDBRANCH  12  13
ENDBRANCH  11  12
ENDBRANCH  10  11
ENDBRANCH   1  10
TORSDOF 12
ENDMDL
