MODEL 1
REMARK VINA RESULT:    -5.048      0.000      0.000
REMARK INTER + INTRA:          -5.343
REMARK INTER:                  -5.343
REMARK INTRA:                   0.000
REMARK UNBOUND:                 0.000
REMARK SMILES O=c1ccc2cc(O)c(O)cc2o1
REMARK SMILES IDX 4 1 3 2 2 3 1 4 13 5 12 6 11 7 9 8 7 9 6 10 5 11 8 12 10 14
REMARK H PARENT 8 13 10 15
REMARK Flexibility Score: inf
ROOT
ATOM      1  C   UNL     1       4.885 -17.127  14.487  1.00  0.00     0.019 A 
ATOM      2  C   UNL     1       6.256 -17.058  14.245  1.00  0.00     0.094 A 
ATOM      3  C   UNL     1       6.886 -15.810  14.261  1.00  0.00     0.336 A 
ATOM      4  O   UNL     1       8.124 -15.728  14.044  1.00  0.00    -0.246 OA
ATOM      5  O   UNL     1       6.186 -14.704  14.504  1.00  0.00    -0.423 OA
ATOM      6  C   UNL     1       4.876 -14.726  14.739  1.00  0.00     0.142 A 
ATOM      7  C   UNL     1       4.192 -13.531  14.989  1.00  0.00     0.098 A 
ATOM      8  C   UNL     1       2.812 -13.547  15.238  1.00  0.00     0.161 A 
ATOM      9  C   UNL     1       2.113 -14.763  15.239  1.00  0.00     0.158 A 
ATOM     10  C   UNL     1       2.794 -15.964  14.989  1.00  0.00     0.062 A 
ATOM     11  C   UNL     1       4.174 -15.950  14.740  1.00  0.00     0.022 A 
ENDROOT
BRANCH   9  12
ATOM     12  O   UNL     1       0.742 -14.770  15.487  1.00  0.00    -0.504 OA
ATOM     13  H   UNL     1       0.172 -15.586  15.297  1.00  0.00     0.293 HD
ENDBRANCH   9  12
BRANCH   8  14
ATOM     14  O   UNL     1       2.128 -12.359  15.487  1.00  0.00    -0.504 OA
ATOM     15  H   UNL     1       2.522 -11.459  15.241  1.00  0.00     0.293 HD
ENDBRANCH   8  14
TORSDOF 2
ENDMDL
MODEL 2
REMARK VINA RESULT:    -4.825      1.149      2.254
REMARK INTER + INTRA:          -5.107
REMARK INTER:                  -5.107
REMARK INTRA:                   0.000
REMARK UNBOUND:                 0.000
REMARK SMILES O=c1ccc2cc(O)c(O)cc2o1
REMARK SMILES IDX 4 1 3 2 2 3 1 4 13 5 12 6 11 7 9 8 7 9 6 10 5 11 8 12 10 14
REMARK H PARENT 8 13 10 15
REMARK Flexibility Score: inf
ROOT
ATOM      1  C   UNL     1       6.256 -14.648  14.749  1.00  0.00     0.019 A 
ATOM      2  C   UNL     1       6.883 -15.858  14.456  1.00  0.00     0.094 A 
ATOM      3  C   UNL     1       6.100 -17.006  14.294  1.00  0.00     0.336 A 
ATOM      4  O   UNL     1       6.648 -18.108  14.030  1.00  0.00    -0.246 OA
ATOM      5  O   UNL     1       4.776 -16.941  14.418  1.00  0.00    -0.423 OA
ATOM      6  C   UNL     1       4.139 -15.807  14.697  1.00  0.00     0.142 A 
ATOM      7  C   UNL     1       2.745 -15.799  14.815  1.00  0.00     0.098 A 
ATOM      8  C   UNL     1       2.069 -14.606  15.109  1.00  0.00     0.161 A 
ATOM      9  C   UNL     1       2.788 -13.415  15.284  1.00  0.00     0.158 A 
ATOM     10  C   UNL     1       4.186 -13.417  15.166  1.00  0.00     0.062 A 
ATOM     11  C   UNL     1       4.865 -14.608  14.873  1.00  0.00     0.022 A 
ENDROOT
BRANCH   9  12
ATOM     12  O   UNL     1       2.108 -12.235  15.575  1.00  0.00    -0.504 OA
ATOM     13  H   UNL     1       1.222 -12.240  16.067  1.00  0.00     0.293 HD
ENDBRANCH   9  12
BRANCH   8  14
ATOM     14  O   UNL     1       0.679 -14.596  15.227  1.00  0.00    -0.504 OA
ATOM     15  H   UNL     1       0.211 -15.034  16.011  1.00  0.00     0.293 HD
ENDBRANCH   8  14
TORSDOF 2
ENDMDL
MODEL 3
REMARK VINA RESULT:    -4.823      2.075      2.432
REMARK INTER + INTRA:          -5.105
REMARK INTER:                  -5.105
REMARK INTRA:                   0.000
REMARK UNBOUND:                 0.000
REMARK SMILES O=c1ccc2cc(O)c(O)cc2o1
REMARK SMILES IDX 4 1 3 2 2 3 1 4 13 5 12 6 11 7 9 8 7 9 6 10 5 11 8 12 10 14
REMARK H PARENT 8 13 10 15
REMARK Flexibility Score: inf
ROOT
ATOM      1  C   UNL     1       5.067 -17.161  16.661  1.00  0.00     0.019 A 
ATOM      2  C   UNL     1       5.533 -18.110  15.753  1.00  0.00     0.094 A 
ATOM      3  C   UNL     1       5.046 -18.091  14.442  1.00  0.00     0.336 A 
ATOM      4  O   UNL     1       5.454 -18.941  13.608  1.00  0.00    -0.246 OA
ATOM      5  O   UNL     1       4.151 -17.180  14.069  1.00  0.00    -0.423 OA
ATOM      6  C   UNL     1       3.680 -16.257  14.904  1.00  0.00     0.142 A 
ATOM      7  C   UNL     1       2.740 -15.323  14.455  1.00  0.00     0.098 A 
ATOM      8  C   UNL     1       2.241 -14.348  15.331  1.00  0.00     0.161 A 
ATOM      9  C   UNL     1       2.685 -14.305  16.661  1.00  0.00     0.158 A 
ATOM     10  C   UNL     1       3.628 -15.239  17.116  1.00  0.00     0.062 A 
ATOM     11  C   UNL     1       4.128 -16.214  16.242  1.00  0.00     0.022 A 
ENDROOT
BRANCH   9  12
ATOM     12  O   UNL     1       2.184 -13.332  17.524  1.00  0.00    -0.504 OA
ATOM     13  H   UNL     1       2.328 -13.387  18.526  1.00  0.00     0.293 HD
ENDBRANCH   9  12
BRANCH   8  14
ATOM     14  O   UNL     1       1.305 -13.416  14.887  1.00  0.00    -0.504 OA
ATOM     15  H   UNL     1       1.432 -12.909  14.019  1.00  0.00     0.293 HD
ENDBRANCH   8  14
TORSDOF 2
ENDMDL
MODEL 4
REMARK VINA RESULT:    -4.465      2.792      5.223
REMARK INTER + INTRA:          -4.726
REMARK INTER:                  -4.726
REMARK INTRA:                   0.000
REMARK UNBOUND:                 0.000
REMARK SMILES O=c1ccc2cc(O)c(O)cc2o1
REMARK SMILES IDX 4 1 3 2 2 3 1 4 13 5 12 6 11 7 9 8 7 9 6 10 5 11 8 12 10 14
REMARK H PARENT 8 13 10 15
REMARK Flexibility Score: inf
ROOT
ATOM      1  C   UNL     1       3.883 -16.182  16.744  1.00  0.00     0.019 A 
ATOM      2  C   UNL     1       3.198 -15.213  16.013  1.00  0.00     0.094 A 
ATOM      3  C   UNL     1       3.146 -15.324  14.620  1.00  0.00     0.336 A 
ATOM      4  O   UNL     1       2.533 -14.458  13.943  1.00  0.00    -0.246 OA
ATOM      5  O   UNL     1       3.743 -16.341  14.003  1.00  0.00    -0.423 OA
ATOM      6  C   UNL     1       4.407 -17.287  14.662  1.00  0.00     0.142 A 
ATOM      7  C   UNL     1       5.015 -18.333  13.960  1.00  0.00     0.098 A 
ATOM      8  C   UNL     1       5.716 -19.333  14.650  1.00  0.00     0.161 A 
ATOM      9  C   UNL     1       5.809 -19.287  16.049  1.00  0.00     0.158 A 
ATOM     10  C   UNL     1       5.202 -18.240  16.758  1.00  0.00     0.062 A 
ATOM     11  C   UNL     1       4.501 -17.240  16.070  1.00  0.00     0.022 A 
ENDROOT
BRANCH   9  12
ATOM     12  O   UNL     1       6.507 -20.285  16.726  1.00  0.00    -0.504 OA
ATOM     13  H   UNL     1       7.496 -20.196  16.930  1.00  0.00     0.293 HD
ENDBRANCH   9  12
BRANCH   8  14
ATOM     14  O   UNL     1       6.321 -20.377  13.952  1.00  0.00    -0.504 OA
ATOM     15  H   UNL     1       7.324 -20.408  13.810  1.00  0.00     0.293 HD
ENDBRANCH   8  14
TORSDOF 2
ENDMDL
MODEL 5
REMARK VINA RESULT:    -4.246      1.783      4.734
REMARK INTER + INTRA:          -4.494
REMARK INTER:                  -4.494
REMARK INTRA:                   0.000
REMARK UNBOUND:                 0.000
REMARK SMILES O=c1ccc2cc(O)c(O)cc2o1
REMARK SMILES IDX 4 1 3 2 2 3 1 4 13 5 12 6 11 7 9 8 7 9 6 10 5 11 8 12 10 14
REMARK H PARENT 8 13 10 15
REMARK Flexibility Score: inf
ROOT
ATOM      1  C   UNL     1       6.166 -13.620  15.078  1.00  0.00     0.019 A 
ATOM      2  C   UNL     1       5.164 -12.723  15.449  1.00  0.00     0.094 A 
ATOM      3  C   UNL     1       3.838 -13.166  15.489  1.00  0.00     0.336 A 
ATOM      4  O   UNL     1       2.920 -12.371  15.820  1.00  0.00    -0.246 OA
ATOM      5  O   UNL     1       3.538 -14.425  15.178  1.00  0.00    -0.423 OA
ATOM      6  C   UNL     1       4.463 -15.312  14.820  1.00  0.00     0.142 A 
ATOM      7  C   UNL     1       4.089 -16.623  14.505  1.00  0.00     0.098 A 
ATOM      8  C   UNL     1       5.060 -17.562  14.126  1.00  0.00     0.161 A 
ATOM      9  C   UNL     1       6.411 -17.190  14.064  1.00  0.00     0.158 A 
ATOM     10  C   UNL     1       6.792 -15.877  14.380  1.00  0.00     0.062 A 
ATOM     11  C   UNL     1       5.823 -14.937  14.758  1.00  0.00     0.022 A 
ENDROOT
BRANCH   9  12
ATOM     12  O   UNL     1       7.368 -18.130  13.688  1.00  0.00    -0.504 OA
ATOM     13  H   UNL     1       8.215 -17.859  13.203  1.00  0.00     0.293 HD
ENDBRANCH   9  12
BRANCH   8  14
ATOM     14  O   UNL     1       4.690 -18.869  13.812  1.00  0.00    -0.504 OA
ATOM     15  H   UNL     1       3.736 -19.191  13.925  1.00  0.00     0.293 HD
ENDBRANCH   8  14
TORSDOF 2
ENDMDL
MODEL 6
REMARK VINA RESULT:    -4.193      2.470      4.318
REMARK INTER + INTRA:          -4.438
REMARK INTER:                  -4.438
REMARK INTRA:                   0.000
REMARK UNBOUND:                 0.000
REMARK SMILES O=c1ccc2cc(O)c(O)cc2o1
REMARK SMILES IDX 4 1 3 2 2 3 1 4 13 5 12 6 11 7 9 8 7 9 6 10 5 11 8 12 10 14
REMARK H PARENT 8 13 10 15
REMARK Flexibility Score: inf
ROOT
ATOM      1  C   UNL     1       4.250 -14.405  15.248  1.00  0.00     0.019 A 
ATOM      2  C   UNL     1       4.845 -13.167  15.492  1.00  0.00     0.094 A 
ATOM      3  C   UNL     1       6.209 -13.006  15.227  1.00  0.00     0.336 A 
ATOM      4  O   UNL     1       6.764 -11.897  15.442  1.00  0.00    -0.246 OA
ATOM      5  O   UNL     1       6.927 -14.020  14.749  1.00  0.00    -0.423 OA
ATOM      6  C   UNL     1       6.399 -15.216  14.503  1.00  0.00     0.142 A 
ATOM      7  C   UNL     1       7.203 -16.245  14.000  1.00  0.00     0.098 A 
ATOM      8  C   UNL     1       6.651 -17.507  13.738  1.00  0.00     0.161 A 
ATOM      9  C   UNL     1       5.290 -17.743  13.979  1.00  0.00     0.158 A 
ATOM     10  C   UNL     1       4.478 -16.715  14.483  1.00  0.00     0.062 A 
ATOM     11  C   UNL     1       5.028 -15.452  14.745  1.00  0.00     0.022 A 
ENDROOT
BRANCH   9  12
ATOM     12  O   UNL     1       4.750 -19.000  13.715  1.00  0.00    -0.504 OA
ATOM     13  H   UNL     1       3.792 -19.112  13.403  1.00  0.00     0.293 HD
ENDBRANCH   9  12
BRANCH   8  14
ATOM     14  O   UNL     1       7.450 -18.534  13.237  1.00  0.00    -0.504 OA
ATOM     15  H   UNL     1       7.658 -18.609  12.248  1.00  0.00     0.293 HD
ENDBRANCH   8  14
TORSDOF 2
ENDMDL
MODEL 7
REMARK VINA RESULT:    -4.159     13.374     14.356
REMARK INTER + INTRA:          -4.402
REMARK INTER:                  -4.402
REMARK INTRA:                   0.000
REMARK UNBOUND:                 0.000
REMARK SMILES O=c1ccc2cc(O)c(O)cc2o1
REMARK SMILES IDX 4 1 3 2 2 3 1 4 13 5 12 6 11 7 9 8 7 9 6 10 5 11 8 12 10 14
REMARK H PARENT 8 13 10 15
REMARK Flexibility Score: inf
ROOT
ATOM      1  C   UNL     1       3.004 -23.924   2.280  1.00  0.00     0.019 A 
ATOM      2  C   UNL     1       4.278 -23.454   2.596  1.00  0.00     0.094 A 
ATOM      3  C   UNL     1       4.632 -23.308   3.942  1.00  0.00     0.336 A 
ATOM      4  O   UNL     1       5.777 -22.884   4.247  1.00  0.00    -0.246 OA
ATOM      5  O   UNL     1       3.765 -23.615   4.904  1.00  0.00    -0.423 OA
ATOM      6  C   UNL     1       2.540 -24.066   4.645  1.00  0.00     0.142 A 
ATOM      7  C   UNL     1       1.671 -24.373   5.697  1.00  0.00     0.098 A 
ATOM      8  C   UNL     1       0.380 -24.850   5.430  1.00  0.00     0.161 A 
ATOM      9  C   UNL     1      -0.045 -25.022   4.104  1.00  0.00     0.158 A 
ATOM     10  C   UNL     1       0.822 -24.716   3.045  1.00  0.00     0.062 A 
ATOM     11  C   UNL     1       2.113 -24.239   3.310  1.00  0.00     0.022 A 
ENDROOT
BRANCH   9  12
ATOM     12  O   UNL     1      -1.330 -25.496   3.848  1.00  0.00    -0.504 OA
ATOM     13  H   UNL     1      -1.990 -25.672   4.597  1.00  0.00     0.293 HD
ENDBRANCH   9  12
BRANCH   8  14
ATOM     14  O   UNL     1      -0.488 -25.157   6.477  1.00  0.00    -0.504 OA
ATOM     15  H   UNL     1      -0.143 -25.471   7.376  1.00  0.00     0.293 HD
ENDBRANCH   8  14
TORSDOF 2
ENDMDL
MODEL 8
REMARK VINA RESULT:    -4.071      2.521      4.956
REMARK INTER + INTRA:          -4.309
REMARK INTER:                  -4.309
REMARK INTRA:                   0.000
REMARK UNBOUND:                 0.000
REMARK SMILES O=c1ccc2cc(O)c(O)cc2o1
REMARK SMILES IDX 4 1 3 2 2 3 1 4 13 5 12 6 11 7 9 8 7 9 6 10 5 11 8 12 10 14
REMARK H PARENT 8 13 10 15
REMARK Flexibility Score: inf
ROOT
ATOM      1  C   UNL     1       3.182 -15.242  14.454  1.00  0.00     0.019 A 
ATOM      2  C   UNL     1       2.690 -14.323  15.379  1.00  0.00     0.094 A 
ATOM      3  C   UNL     1       2.921 -14.543  16.742  1.00  0.00     0.336 A 
ATOM      4  O   UNL     1       2.483 -13.724  17.592  1.00  0.00    -0.246 OA
ATOM      5  O   UNL     1       3.599 -15.614  17.146  1.00  0.00    -0.423 OA
ATOM      6  C   UNL     1       4.085 -16.515  16.296  1.00  0.00     0.142 A 
ATOM      7  C   UNL     1       4.792 -17.621  16.779  1.00  0.00     0.098 A 
ATOM      8  C   UNL     1       5.306 -18.574  15.888  1.00  0.00     0.161 A 
ATOM      9  C   UNL     1       5.115 -18.419  14.507  1.00  0.00     0.158 A 
ATOM     10  C   UNL     1       4.408 -17.311  14.017  1.00  0.00     0.062 A 
ATOM     11  C   UNL     1       3.892 -16.358  14.906  1.00  0.00     0.022 A 
ENDROOT
BRANCH   9  12
ATOM     12  O   UNL     1       5.631 -19.370  13.629  1.00  0.00    -0.504 OA
ATOM     13  H   UNL     1       5.510 -19.287  12.626  1.00  0.00     0.293 HD
ENDBRANCH   9  12
BRANCH   8  14
ATOM     14  O   UNL     1       6.011 -19.677  16.367  1.00  0.00    -0.504 OA
ATOM     15  H   UNL     1       6.372 -20.388  15.741  1.00  0.00     0.293 HD
ENDBRANCH   8  14
TORSDOF 2
ENDMDL
MODEL 9
REMARK VINA RESULT:    -4.063     13.770     14.754
REMARK INTER + INTRA:          -4.301
REMARK INTER:                  -4.301
REMARK INTRA:                   0.000
REMARK UNBOUND:                 0.000
REMARK SMILES O=c1ccc2cc(O)c(O)cc2o1
REMARK SMILES IDX 4 1 3 2 2 3 1 4 13 5 12 6 11 7 9 8 7 9 6 10 5 11 8 12 10 14
REMARK H PARENT 8 13 10 15
REMARK Flexibility Score: inf
ROOT
ATOM      1  C   UNL     1       3.723 -23.508   4.617  1.00  0.00     0.019 A 
ATOM      2  C   UNL     1       4.503 -23.222   3.498  1.00  0.00     0.094 A 
ATOM      3  C   UNL     1       3.975 -23.458   2.224  1.00  0.00     0.336 A 
ATOM      4  O   UNL     1       4.664 -23.206   1.201  1.00  0.00    -0.246 OA
ATOM      5  O   UNL     1       2.745 -23.947   2.085  1.00  0.00    -0.423 OA
ATOM      6  C   UNL     1       1.968 -24.234   3.127  1.00  0.00     0.142 A 
ATOM      7  C   UNL     1       0.683 -24.747   2.920  1.00  0.00     0.098 A 
ATOM      8  C   UNL     1      -0.140 -25.050   4.014  1.00  0.00     0.161 A 
ATOM      9  C   UNL     1       0.323 -24.840   5.321  1.00  0.00     0.158 A 
ATOM     10  C   UNL     1       1.610 -24.326   5.535  1.00  0.00     0.062 A 
ATOM     11  C   UNL     1       2.435 -24.021   4.442  1.00  0.00     0.022 A 
ENDROOT
BRANCH   9  12
ATOM     12  O   UNL     1      -0.502 -25.144   6.402  1.00  0.00    -0.504 OA
ATOM     13  H   UNL     1      -0.427 -26.026   6.895  1.00  0.00     0.293 HD
ENDBRANCH   9  12
BRANCH   8  14
ATOM     14  O   UNL     1      -1.421 -25.561   3.810  1.00  0.00    -0.504 OA
ATOM     15  H   UNL     1      -2.055 -25.725   4.583  1.00  0.00     0.293 HD
ENDBRANCH   8  14
TORSDOF 2
ENDMDL
