MODEL 1
REMARK VINA RESULT:    -5.851      0.000      0.000
REMARK INTER + INTRA:         -16.763
REMARK INTER:                 -13.376
REMARK INTRA:                  -3.387
REMARK UNBOUND:                -3.387
REMARK SMILES CCCCCCCCCCCCCCCCCCCCCCCC(=O)[O-]
REMARK SMILES IDX 13 1 14 2 15 3 16 4 17 5 18 6 19 7 20 8 21 9 22 10 23 11
REMARK SMILES IDX 24 12 25 13 26 14 12 15 11 16 10 17 9 18 8 19 7 20 6 21 5 22
REMARK SMILES IDX 4 23 3 24 2 25 1 26
REMARK H PARENT
REMARK Flexibility Score: inf
ROOT
ATOM      1  C   UNL     1     112.665 -79.896  21.368  1.00  0.00     0.000 C 
ENDROOT
BRANCH   1   2
ATOM      2  C   UNL     1     111.925 -81.132  20.831  1.00  0.00     0.000 C 
BRANCH   2   3
ATOM      3  C   UNL     1     111.781 -82.243  21.880  1.00  0.00     0.000 C 
BRANCH   3   4
ATOM      4  C   UNL     1     112.925 -83.257  21.762  1.00  0.00     0.000 C 
BRANCH   4   5
ATOM      5  C   UNL     1     113.404 -83.386  20.308  1.00  0.00     0.000 C 
BRANCH   5   6
ATOM      6  C   UNL     1     114.938 -83.405  20.181  1.00  0.00     0.000 C 
BRANCH   6   7
ATOM      7  C   UNL     1     115.701 -83.478  21.516  1.00  0.00     0.000 C 
BRANCH   7   8
ATOM      8  C   UNL     1     117.218 -83.282  21.353  1.00  0.00     0.000 C 
BRANCH   8   9
ATOM      9  C   UNL     1     117.888 -82.793  22.655  1.00  0.00     0.000 C 
BRANCH   9  10
ATOM     10  C   UNL     1     119.385 -83.143  22.748  1.00  0.00     0.006 C 
BRANCH  10  11
ATOM     11  C   UNL     1     120.255 -82.042  23.378  1.00  0.00     0.053 C 
BRANCH  11  12
ATOM     12  C   UNL     1     119.715 -81.572  24.696  1.00  0.00     0.041 C 
ATOM     13  O   UNL     1     119.347 -80.377  24.842  1.00  0.00    -0.550 OA
ATOM     14  O   UNL     1     119.649 -82.446  25.773  1.00  0.00    -0.550 OA
ENDBRANCH  11  12
ENDBRANCH  10  11
ENDBRANCH   9  10
ENDBRANCH   8   9
ENDBRANCH   7   8
ENDBRANCH   6   7
ENDBRANCH   5   6
ENDBRANCH   4   5
ENDBRANCH   3   4
ENDBRANCH   2   3
ENDBRANCH   1   2
BRANCH   1  15
ATOM     15  C   UNL     1     113.556 -79.228  20.304  1.00  0.00     0.000 C 
BRANCH  15  16
ATOM     16  C   UNL     1     115.019 -79.720  20.353  1.00  0.00     0.000 C 
BRANCH  16  17
ATOM     17  C   UNL     1     115.571 -79.906  21.779  1.00  0.00     0.000 C 
BRANCH  17  18
ATOM     18  C   UNL     1     116.861 -79.125  22.090  1.00  0.00    -0.000 C 
BRANCH  18  19
ATOM     19  C   UNL     1     116.652 -77.674  22.574  1.00  0.00    -0.000 C 
BRANCH  19  20
ATOM     20  C   UNL     1     115.900 -77.532  23.910  1.00  0.00    -0.000 C 
BRANCH  20  21
ATOM     21  C   UNL     1     114.468 -77.004  23.740  1.00  0.00    -0.000 C 
BRANCH  21  22
ATOM     22  C   UNL     1     114.466 -75.478  23.562  1.00  0.00    -0.000 C 
BRANCH  22  23
ATOM     23  C   UNL     1     113.631 -75.025  22.353  1.00  0.00    -0.000 C 
BRANCH  23  24
ATOM     24  C   UNL     1     112.726 -76.142  21.809  1.00  0.00    -0.000 C 
BRANCH  24  25
ATOM     25  C   UNL     1     111.249 -75.741  21.895  1.00  0.00    -0.003 C 
ATOM     26  C   UNL     1     110.337 -76.948  21.692  1.00  0.00     0.004 C 
ENDBRANCH  24  25
ENDBRANCH  23  24
ENDBRANCH  22  23
ENDBRANCH  21  22
ENDBRANCH  20  21
ENDBRANCH  19  20
ENDBRANCH  18  19
ENDBRANCH  17  18
ENDBRANCH  16  17
ENDBRANCH  15  16
ENDBRANCH   1  15
TORSDOF 22
ENDMDL
MODEL 2
REMARK VINA RESULT:    -5.784      5.622      8.903
REMARK INTER + INTRA:         -16.610
REMARK INTER:                 -13.246
REMARK INTRA:                  -3.364
REMARK UNBOUND:                -3.387
REMARK SMILES CCCCCCCCCCCCCCCCCCCCCCCC(=O)[O-]
REMARK SMILES IDX 13 1 14 2 15 3 16 4 17 5 18 6 19 7 20 8 21 9 22 10 23 11
REMARK SMILES IDX 24 12 25 13 26 14 12 15 11 16 10 17 9 18 8 19 7 20 6 21 5 22
REMARK SMILES IDX 4 23 3 24 2 25 1 26
REMARK H PARENT
REMARK Flexibility Score: inf
ROOT
ATOM      1  C   UNL     1     106.775 -81.876  20.339  1.00  0.00     0.000 C 
ENDROOT
BRANCH   1   2
ATOM      2  C   UNL     1     106.476 -80.457  20.849  1.00  0.00     0.000 C 
BRANCH   2   3
ATOM      3  C   UNL     1     107.375 -80.043  22.022  1.00  0.00     0.000 C 
BRANCH   3   4
ATOM      4  C   UNL     1     108.805 -79.765  21.542  1.00  0.00     0.000 C 
BRANCH   4   5
ATOM      5  C   UNL     1     109.810 -79.881  22.698  1.00  0.00     0.000 C 
BRANCH   5   6
ATOM      6  C   UNL     1     111.025 -80.762  22.350  1.00  0.00     0.000 C 
BRANCH   6   7
ATOM      7  C   UNL     1     110.891 -82.242  22.750  1.00  0.00     0.000 C 
BRANCH   7   8
ATOM      8  C   UNL     1     112.025 -83.120  22.193  1.00  0.00     0.000 C 
BRANCH   8   9
ATOM      9  C   UNL     1     112.485 -82.660  20.792  1.00  0.00     0.000 C 
BRANCH   9  10
ATOM     10  C   UNL     1     113.924 -83.087  20.445  1.00  0.00     0.006 C 
BRANCH  10  11
ATOM     11  C   UNL     1     115.012 -82.353  21.247  1.00  0.00     0.053 C 
BRANCH  11  12
ATOM     12  C   UNL     1     114.975 -80.868  21.035  1.00  0.00     0.041 C 
ATOM     13  O   UNL     1     115.463 -80.364  19.990  1.00  0.00    -0.550 OA
ATOM     14  O   UNL     1     114.431 -80.039  22.007  1.00  0.00    -0.550 OA
ENDBRANCH  11  12
ENDBRANCH  10  11
ENDBRANCH   9  10
ENDBRANCH   8   9
ENDBRANCH   7   8
ENDBRANCH   6   7
ENDBRANCH   5   6
ENDBRANCH   4   5
ENDBRANCH   3   4
ENDBRANCH   2   3
ENDBRANCH   1   2
BRANCH   1  15
ATOM     15  C   UNL     1     106.034 -82.205  19.029  1.00  0.00     0.000 C 
BRANCH  15  16
ATOM     16  C   UNL     1     104.999 -83.339  19.193  1.00  0.00     0.000 C 
BRANCH  16  17
ATOM     17  C   UNL     1     103.549 -82.846  19.358  1.00  0.00     0.000 C 
BRANCH  17  18
ATOM     18  C   UNL     1     102.648 -83.737  20.231  1.00  0.00    -0.000 C 
BRANCH  18  19
ATOM     19  C   UNL     1     102.572 -83.338  21.720  1.00  0.00    -0.000 C 
BRANCH  19  20
ATOM     20  C   UNL     1     103.338 -82.056  22.094  1.00  0.00    -0.000 C 
BRANCH  20  21
ATOM     21  C   UNL     1     104.327 -82.262  23.250  1.00  0.00    -0.000 C 
BRANCH  21  22
ATOM     22  C   UNL     1     105.136 -83.553  23.054  1.00  0.00    -0.000 C 
BRANCH  22  23
ATOM     23  C   UNL     1     106.120 -83.816  24.205  1.00  0.00    -0.000 C 
BRANCH  23  24
ATOM     24  C   UNL     1     107.534 -83.292  23.904  1.00  0.00    -0.000 C 
BRANCH  24  25
ATOM     25  C   UNL     1     107.949 -82.221  24.919  1.00  0.00    -0.003 C 
ATOM     26  C   UNL     1     107.013 -82.213  26.125  1.00  0.00     0.004 C 
ENDBRANCH  24  25
ENDBRANCH  23  24
ENDBRANCH  22  23
ENDBRANCH  21  22
ENDBRANCH  20  21
ENDBRANCH  19  20
ENDBRANCH  18  19
ENDBRANCH  17  18
ENDBRANCH  16  17
ENDBRANCH  15  16
ENDBRANCH   1  15
TORSDOF 22
ENDMDL
MODEL 3
REMARK VINA RESULT:    -5.767      5.993      9.075
REMARK INTER + INTRA:         -16.571
REMARK INTER:                 -13.081
REMARK INTRA:                  -3.490
REMARK UNBOUND:                -3.387
REMARK SMILES CCCCCCCCCCCCCCCCCCCCCCCC(=O)[O-]
REMARK SMILES IDX 13 1 14 2 15 3 16 4 17 5 18 6 19 7 20 8 21 9 22 10 23 11
REMARK SMILES IDX 24 12 25 13 26 14 12 15 11 16 10 17 9 18 8 19 7 20 6 21 5 22
REMARK SMILES IDX 4 23 3 24 2 25 1 26
REMARK H PARENT
REMARK Flexibility Score: inf
ROOT
ATOM      1  C   UNL     1     102.973 -82.312  21.542  1.00  0.00     0.000 C 
ENDROOT
BRANCH   1   2
ATOM      2  C   UNL     1     103.585 -81.989  22.915  1.00  0.00     0.000 C 
BRANCH   2   3
ATOM      3  C   UNL     1     104.897 -82.742  23.176  1.00  0.00     0.000 C 
BRANCH   3   4
ATOM      4  C   UNL     1     105.903 -81.848  23.911  1.00  0.00     0.000 C 
BRANCH   4   5
ATOM      5  C   UNL     1     107.074 -82.672  24.468  1.00  0.00     0.000 C 
BRANCH   5   6
ATOM      6  C   UNL     1     107.958 -83.281  23.364  1.00  0.00     0.000 C 
BRANCH   6   7
ATOM      7  C   UNL     1     109.441 -82.872  23.418  1.00  0.00     0.000 C 
BRANCH   7   8
ATOM      8  C   UNL     1     109.649 -81.427  23.904  1.00  0.00     0.000 C 
BRANCH   8   9
ATOM      9  C   UNL     1     110.040 -80.474  22.754  1.00  0.00     0.000 C 
BRANCH   9  10
ATOM     10  C   UNL     1     110.219 -81.184  21.399  1.00  0.00     0.006 C 
BRANCH  10  11
ATOM     11  C   UNL     1     111.584 -80.942  20.732  1.00  0.00     0.053 C 
BRANCH  11  12
ATOM     12  C   UNL     1     112.624 -81.922  21.188  1.00  0.00     0.041 C 
ATOM     13  O   UNL     1     112.297 -83.099  21.492  1.00  0.00    -0.550 OA
ATOM     14  O   UNL     1     113.950 -81.525  21.307  1.00  0.00    -0.550 OA
ENDBRANCH  11  12
ENDBRANCH  10  11
ENDBRANCH   9  10
ENDBRANCH   8   9
ENDBRANCH   7   8
ENDBRANCH   6   7
ENDBRANCH   5   6
ENDBRANCH   4   5
ENDBRANCH   3   4
ENDBRANCH   2   3
ENDBRANCH   1   2
BRANCH   1  15
ATOM     15  C   UNL     1     103.584 -83.573  20.902  1.00  0.00     0.000 C 
BRANCH  15  16
ATOM     16  C   UNL     1     103.812 -83.424  19.383  1.00  0.00     0.000 C 
BRANCH  16  17
ATOM     17  C   UNL     1     105.295 -83.464  18.964  1.00  0.00     0.000 C 
BRANCH  17  18
ATOM     18  C   UNL     1     106.001 -82.097  18.919  1.00  0.00    -0.000 C 
BRANCH  18  19
ATOM     19  C   UNL     1     106.777 -81.715  20.197  1.00  0.00    -0.000 C 
BRANCH  19  20
ATOM     20  C   UNL     1     106.589 -80.261  20.667  1.00  0.00    -0.000 C 
BRANCH  20  21
ATOM     21  C   UNL     1     105.182 -79.715  20.383  1.00  0.00    -0.000 C 
BRANCH  21  22
ATOM     22  C   UNL     1     105.250 -78.465  19.493  1.00  0.00    -0.000 C 
BRANCH  22  23
ATOM     23  C   UNL     1     106.023 -77.311  20.152  1.00  0.00    -0.000 C 
BRANCH  23  24
ATOM     24  C   UNL     1     105.093 -76.257  20.774  1.00  0.00    -0.000 C 
BRANCH  24  25
ATOM     25  C   UNL     1     103.665 -76.401  20.237  1.00  0.00    -0.003 C 
ATOM     26  C   UNL     1     102.641 -75.919  21.260  1.00  0.00     0.004 C 
ENDBRANCH  24  25
ENDBRANCH  23  24
ENDBRANCH  22  23
ENDBRANCH  21  22
ENDBRANCH  20  21
ENDBRANCH  19  20
ENDBRANCH  18  19
ENDBRANCH  17  18
ENDBRANCH  16  17
ENDBRANCH  15  16
ENDBRANCH   1  15
TORSDOF 22
ENDMDL
MODEL 4
REMARK VINA RESULT:    -5.754      5.605      8.967
REMARK INTER + INTRA:         -16.542
REMARK INTER:                 -12.586
REMARK INTRA:                  -3.957
REMARK UNBOUND:                -3.387
REMARK SMILES CCCCCCCCCCCCCCCCCCCCCCCC(=O)[O-]
REMARK SMILES IDX 13 1 14 2 15 3 16 4 17 5 18 6 19 7 20 8 21 9 22 10 23 11
REMARK SMILES IDX 24 12 25 13 26 14 12 15 11 16 10 17 9 18 8 19 7 20 6 21 5 22
REMARK SMILES IDX 4 23 3 24 2 25 1 26
REMARK H PARENT
REMARK Flexibility Score: inf
ROOT
ATOM      1  C   UNL     1     104.495 -82.414  23.068  1.00  0.00     0.000 C 
ENDROOT
BRANCH   1   2
ATOM      2  C   UNL     1     104.998 -83.865  23.113  1.00  0.00     0.000 C 
BRANCH   2   3
ATOM      3  C   UNL     1     106.447 -83.979  23.608  1.00  0.00     0.000 C 
BRANCH   3   4
ATOM      4  C   UNL     1     106.687 -83.059  24.811  1.00  0.00     0.000 C 
BRANCH   4   5
ATOM      5  C   UNL     1     107.976 -82.242  24.636  1.00  0.00     0.000 C 
BRANCH   5   6
ATOM      6  C   UNL     1     108.964 -82.884  23.645  1.00  0.00     0.000 C 
BRANCH   6   7
ATOM      7  C   UNL     1     109.701 -81.893  22.726  1.00  0.00     0.000 C 
BRANCH   7   8
ATOM      8  C   UNL     1     110.123 -80.603  23.449  1.00  0.00     0.000 C 
BRANCH   8   9
ATOM      9  C   UNL     1     109.584 -79.337  22.750  1.00  0.00     0.000 C 
BRANCH   9  10
ATOM     10  C   UNL     1     110.362 -78.957  21.476  1.00  0.00     0.006 C 
BRANCH  10  11
ATOM     11  C   UNL     1     111.842 -78.614  21.718  1.00  0.00     0.053 C 
BRANCH  11  12
ATOM     12  C   UNL     1     112.767 -79.461  20.895  1.00  0.00     0.041 C 
ATOM     13  O   UNL     1     113.038 -80.637  21.253  1.00  0.00    -0.550 OA
ATOM     14  O   UNL     1     113.354 -78.940  19.749  1.00  0.00    -0.550 OA
ENDBRANCH  11  12
ENDBRANCH  10  11
ENDBRANCH   9  10
ENDBRANCH   8   9
ENDBRANCH   7   8
ENDBRANCH   6   7
ENDBRANCH   5   6
ENDBRANCH   4   5
ENDBRANCH   3   4
ENDBRANCH   2   3
ENDBRANCH   1   2
BRANCH   1  15
ATOM     15  C   UNL     1     103.335 -82.218  22.074  1.00  0.00     0.000 C 
BRANCH  15  16
ATOM     16  C   UNL     1     103.196 -83.388  21.076  1.00  0.00     0.000 C 
BRANCH  16  17
ATOM     17  C   UNL     1     103.566 -83.023  19.626  1.00  0.00     0.000 C 
BRANCH  17  18
ATOM     18  C   UNL     1     105.008 -83.366  19.210  1.00  0.00    -0.000 C 
BRANCH  18  19
ATOM     19  C   UNL     1     105.969 -82.162  19.111  1.00  0.00    -0.000 C 
BRANCH  19  20
ATOM     20  C   UNL     1     106.793 -81.877  20.380  1.00  0.00    -0.000 C 
BRANCH  20  21
ATOM     21  C   UNL     1     106.640 -80.434  20.883  1.00  0.00    -0.000 C 
BRANCH  21  22
ATOM     22  C   UNL     1     105.420 -79.757  20.240  1.00  0.00    -0.000 C 
BRANCH  22  23
ATOM     23  C   UNL     1     105.561 -78.228  20.170  1.00  0.00    -0.000 C 
BRANCH  23  24
ATOM     24  C   UNL     1     106.866 -77.725  20.808  1.00  0.00    -0.000 C 
BRANCH  24  25
ATOM     25  C   UNL     1     106.651 -76.378  21.506  1.00  0.00    -0.003 C 
ATOM     26  C   UNL     1     107.623 -76.197  22.668  1.00  0.00     0.004 C 
ENDBRANCH  24  25
ENDBRANCH  23  24
ENDBRANCH  22  23
ENDBRANCH  21  22
ENDBRANCH  20  21
ENDBRANCH  19  20
ENDBRANCH  18  19
ENDBRANCH  17  18
ENDBRANCH  16  17
ENDBRANCH  15  16
ENDBRANCH   1  15
TORSDOF 22
ENDMDL
MODEL 5
REMARK VINA RESULT:    -5.730      7.365     10.754
REMARK INTER + INTRA:         -16.487
REMARK INTER:                 -12.856
REMARK INTRA:                  -3.631
REMARK UNBOUND:                -3.387
REMARK SMILES CCCCCCCCCCCCCCCCCCCCCCCC(=O)[O-]
REMARK SMILES IDX 13 1 14 2 15 3 16 4 17 5 18 6 19 7 20 8 21 9 22 10 23 11
REMARK SMILES IDX 24 12 25 13 26 14 12 15 11 16 10 17 9 18 8 19 7 20 6 21 5 22
REMARK SMILES IDX 4 23 3 24 2 25 1 26
REMARK H PARENT
REMARK Flexibility Score: inf
ROOT
ATOM      1  C   UNL     1     102.821 -81.911  21.881  1.00  0.00     0.000 C 
ENDROOT
BRANCH   1   2
ATOM      2  C   UNL     1     101.748 -82.958  21.540  1.00  0.00     0.000 C 
BRANCH   2   3
ATOM      3  C   UNL     1     101.992 -83.642  20.187  1.00  0.00     0.000 C 
BRANCH   3   4
ATOM      4  C   UNL     1     103.181 -83.005  19.459  1.00  0.00     0.000 C 
BRANCH   4   5
ATOM      5  C   UNL     1     104.314 -84.020  19.251  1.00  0.00     0.000 C 
BRANCH   5   6
ATOM      6  C   UNL     1     105.618 -83.371  18.752  1.00  0.00     0.000 C 
BRANCH   6   7
ATOM      7  C   UNL     1     105.763 -81.872  19.072  1.00  0.00     0.000 C 
BRANCH   7   8
ATOM      8  C   UNL     1     106.689 -81.601  20.270  1.00  0.00     0.000 C 
BRANCH   8   9
ATOM      9  C   UNL     1     106.121 -80.520  21.215  1.00  0.00     0.000 C 
BRANCH   9  10
ATOM     10  C   UNL     1     106.396 -79.080  20.741  1.00  0.00     0.006 C 
BRANCH  10  11
ATOM     11  C   UNL     1     105.223 -78.427  19.991  1.00  0.00     0.053 C 
BRANCH  11  12
ATOM     12  C   UNL     1     105.320 -76.930  19.973  1.00  0.00     0.041 C 
ATOM     13  O   UNL     1     104.618 -76.238  20.756  1.00  0.00    -0.550 OA
ATOM     14  O   UNL     1     106.163 -76.298  19.068  1.00  0.00    -0.550 OA
ENDBRANCH  11  12
ENDBRANCH  10  11
ENDBRANCH   9  10
ENDBRANCH   8   9
ENDBRANCH   7   8
ENDBRANCH   6   7
ENDBRANCH   5   6
ENDBRANCH   4   5
ENDBRANCH   3   4
ENDBRANCH   2   3
ENDBRANCH   1   2
BRANCH   1  15
ATOM     15  C   UNL     1     103.719 -82.343  23.055  1.00  0.00     0.000 C 
BRANCH  15  16
ATOM     16  C   UNL     1     104.084 -83.843  23.012  1.00  0.00     0.000 C 
BRANCH  16  17
ATOM     17  C   UNL     1     105.557 -84.120  22.653  1.00  0.00     0.000 C 
BRANCH  17  18
ATOM     18  C   UNL     1     106.562 -83.905  23.799  1.00  0.00    -0.000 C 
BRANCH  18  19
ATOM     19  C   UNL     1     107.970 -83.449  23.363  1.00  0.00    -0.000 C 
BRANCH  19  20
ATOM     20  C   UNL     1     108.386 -82.049  23.850  1.00  0.00    -0.000 C 
BRANCH  20  21
ATOM     21  C   UNL     1     109.901 -81.911  24.060  1.00  0.00    -0.000 C 
BRANCH  21  22
ATOM     22  C   UNL     1     110.363 -80.473  23.777  1.00  0.00    -0.000 C 
BRANCH  22  23
ATOM     23  C   UNL     1     109.438 -79.736  22.796  1.00  0.00    -0.000 C 
BRANCH  23  24
ATOM     24  C   UNL     1     110.071 -79.563  21.405  1.00  0.00    -0.000 C 
BRANCH  24  25
ATOM     25  C   UNL     1     110.474 -78.104  21.165  1.00  0.00    -0.003 C 
ATOM     26  C   UNL     1     109.514 -77.420  20.196  1.00  0.00     0.004 C 
ENDBRANCH  24  25
ENDBRANCH  23  24
ENDBRANCH  22  23
ENDBRANCH  21  22
ENDBRANCH  20  21
ENDBRANCH  19  20
ENDBRANCH  18  19
ENDBRANCH  17  18
ENDBRANCH  16  17
ENDBRANCH  15  16
ENDBRANCH   1  15
TORSDOF 22
ENDMDL
MODEL 6
REMARK VINA RESULT:    -5.696      3.068      6.580
REMARK INTER + INTRA:         -16.408
REMARK INTER:                 -12.134
REMARK INTRA:                  -4.274
REMARK UNBOUND:                -3.387
REMARK SMILES CCCCCCCCCCCCCCCCCCCCCCCC(=O)[O-]
REMARK SMILES IDX 13 1 14 2 15 3 16 4 17 5 18 6 19 7 20 8 21 9 22 10 23 11
REMARK SMILES IDX 24 12 25 13 26 14 12 15 11 16 10 17 9 18 8 19 7 20 6 21 5 22
REMARK SMILES IDX 4 23 3 24 2 25 1 26
REMARK H PARENT
REMARK Flexibility Score: inf
ROOT
ATOM      1  C   UNL     1     115.101 -81.149  21.545  1.00  0.00     0.000 C 
ENDROOT
BRANCH   1   2
ATOM      2  C   UNL     1     115.441 -79.934  20.669  1.00  0.00     0.000 C 
BRANCH   2   3
ATOM      3  C   UNL     1     115.952 -78.736  21.482  1.00  0.00     0.000 C 
BRANCH   3   4
ATOM      4  C   UNL     1     115.607 -78.897  22.967  1.00  0.00     0.000 C 
BRANCH   4   5
ATOM      5  C   UNL     1     114.537 -77.884  23.401  1.00  0.00     0.000 C 
BRANCH   5   6
ATOM      6  C   UNL     1     114.680 -76.521  22.699  1.00  0.00     0.000 C 
BRANCH   6   7
ATOM      7  C   UNL     1     113.470 -76.097  21.847  1.00  0.00     0.000 C 
BRANCH   7   8
ATOM      8  C   UNL     1     112.367 -77.168  21.797  1.00  0.00     0.000 C 
BRANCH   8   9
ATOM      9  C   UNL     1     112.374 -77.953  20.467  1.00  0.00     0.000 C 
BRANCH   9  10
ATOM     10  C   UNL     1     111.584 -79.274  20.526  1.00  0.00     0.006 C 
BRANCH  10  11
ATOM     11  C   UNL     1     111.715 -80.029  21.860  1.00  0.00     0.053 C 
BRANCH  11  12
ATOM     12  C   UNL     1     111.044 -81.371  21.824  1.00  0.00     0.041 C 
ATOM     13  O   UNL     1     109.788 -81.454  21.847  1.00  0.00    -0.550 OA
ATOM     14  O   UNL     1     111.808 -82.530  21.799  1.00  0.00    -0.550 OA
ENDBRANCH  11  12
ENDBRANCH  10  11
ENDBRANCH   9  10
ENDBRANCH   8   9
ENDBRANCH   7   8
ENDBRANCH   6   7
ENDBRANCH   5   6
ENDBRANCH   4   5
ENDBRANCH   3   4
ENDBRANCH   2   3
ENDBRANCH   1   2
BRANCH   1  15
ATOM     15  C   UNL     1     115.241 -82.484  20.790  1.00  0.00     0.000 C 
BRANCH  15  16
ATOM     16  C   UNL     1     116.453 -83.316  21.261  1.00  0.00     0.000 C 
BRANCH  16  17
ATOM     17  C   UNL     1     117.478 -82.518  22.089  1.00  0.00     0.000 C 
BRANCH  17  18
ATOM     18  C   UNL     1     118.648 -81.920  21.285  1.00  0.00    -0.000 C 
BRANCH  18  19
ATOM     19  C   UNL     1     119.473 -80.845  22.023  1.00  0.00    -0.000 C 
BRANCH  19  20
ATOM     20  C   UNL     1     119.145 -80.682  23.519  1.00  0.00    -0.000 C 
BRANCH  20  21
ATOM     21  C   UNL     1     119.588 -79.325  24.086  1.00  0.00    -0.000 C 
BRANCH  21  22
ATOM     22  C   UNL     1     119.255 -78.188  23.107  1.00  0.00    -0.000 C 
BRANCH  22  23
ATOM     23  C   UNL     1     119.296 -76.804  23.773  1.00  0.00    -0.000 C 
BRANCH  23  24
ATOM     24  C   UNL     1     117.931 -76.380  24.340  1.00  0.00    -0.000 C 
BRANCH  24  25
ATOM     25  C   UNL     1     117.875 -76.599  25.856  1.00  0.00    -0.003 C 
ATOM     26  C   UNL     1     117.063 -77.844  26.203  1.00  0.00     0.004 C 
ENDBRANCH  24  25
ENDBRANCH  23  24
ENDBRANCH  22  23
ENDBRANCH  21  22
ENDBRANCH  20  21
ENDBRANCH  19  20
ENDBRANCH  18  19
ENDBRANCH  17  18
ENDBRANCH  16  17
ENDBRANCH  15  16
ENDBRANCH   1  15
TORSDOF 22
ENDMDL
MODEL 7
REMARK VINA RESULT:    -5.668      4.021      6.507
REMARK INTER + INTRA:         -16.345
REMARK INTER:                 -13.546
REMARK INTRA:                  -2.800
REMARK UNBOUND:                -3.387
REMARK SMILES CCCCCCCCCCCCCCCCCCCCCCCC(=O)[O-]
REMARK SMILES IDX 13 1 14 2 15 3 16 4 17 5 18 6 19 7 20 8 21 9 22 10 23 11
REMARK SMILES IDX 24 12 25 13 26 14 12 15 11 16 10 17 9 18 8 19 7 20 6 21 5 22
REMARK SMILES IDX 4 23 3 24 2 25 1 26
REMARK H PARENT
REMARK Flexibility Score: inf
ROOT
ATOM      1  C   UNL     1     115.619 -82.538  21.546  1.00  0.00     0.000 C 
ENDROOT
BRANCH   1   2
ATOM      2  C   UNL     1     115.200 -83.462  20.391  1.00  0.00     0.000 C 
BRANCH   2   3
ATOM      3  C   UNL     1     113.689 -83.735  20.363  1.00  0.00     0.000 C 
BRANCH   3   4
ATOM      4  C   UNL     1     113.005 -83.147  21.603  1.00  0.00     0.000 C 
BRANCH   4   5
ATOM      5  C   UNL     1     111.762 -82.332  21.216  1.00  0.00     0.000 C 
BRANCH   5   6
ATOM      6  C   UNL     1     112.086 -80.863  20.887  1.00  0.00     0.000 C 
BRANCH   6   7
ATOM      7  C   UNL     1     111.383 -79.825  21.780  1.00  0.00     0.000 C 
BRANCH   7   8
ATOM      8  C   UNL     1     110.115 -80.375  22.456  1.00  0.00     0.000 C 
BRANCH   8   9
ATOM      9  C   UNL     1     110.293 -80.547  23.980  1.00  0.00     0.000 C 
BRANCH   9  10
ATOM     10  C   UNL     1     109.793 -81.904  24.510  1.00  0.00     0.006 C 
BRANCH  10  11
ATOM     11  C   UNL     1     108.525 -82.427  23.814  1.00  0.00     0.053 C 
BRANCH  11  12
ATOM     12  C   UNL     1     107.397 -82.652  24.777  1.00  0.00     0.041 C 
ATOM     13  O   UNL     1     106.650 -83.658  24.655  1.00  0.00    -0.550 OA
ATOM     14  O   UNL     1     107.151 -81.734  25.789  1.00  0.00    -0.550 OA
ENDBRANCH  11  12
ENDBRANCH  10  11
ENDBRANCH   9  10
ENDBRANCH   8   9
ENDBRANCH   7   8
ENDBRANCH   6   7
ENDBRANCH   5   6
ENDBRANCH   4   5
ENDBRANCH   3   4
ENDBRANCH   2   3
ENDBRANCH   1   2
BRANCH   1  15
ATOM     15  C   UNL     1     116.863 -83.050  22.295  1.00  0.00     0.000 C 
BRANCH  15  16
ATOM     16  C   UNL     1     118.149 -82.977  21.444  1.00  0.00     0.000 C 
BRANCH  16  17
ATOM     17  C   UNL     1     119.165 -81.926  21.930  1.00  0.00     0.000 C 
BRANCH  17  18
ATOM     18  C   UNL     1     119.359 -80.720  20.993  1.00  0.00    -0.000 C 
BRANCH  18  19
ATOM     19  C   UNL     1     118.105 -79.848  20.775  1.00  0.00    -0.000 C 
BRANCH  19  20
ATOM     20  C   UNL     1     117.798 -78.848  21.905  1.00  0.00    -0.000 C 
BRANCH  20  21
ATOM     21  C   UNL     1     116.388 -79.017  22.490  1.00  0.00    -0.000 C 
BRANCH  21  22
ATOM     22  C   UNL     1     115.327 -78.973  21.380  1.00  0.00    -0.000 C 
BRANCH  22  23
ATOM     23  C   UNL     1     114.388 -77.762  21.507  1.00  0.00    -0.000 C 
BRANCH  23  24
ATOM     24  C   UNL     1     114.178 -77.330  22.967  1.00  0.00    -0.000 C 
BRANCH  24  25
ATOM     25  C   UNL     1     114.675 -75.897  23.191  1.00  0.00    -0.003 C 
ATOM     26  C   UNL     1     113.600 -74.877  22.829  1.00  0.00     0.004 C 
ENDBRANCH  24  25
ENDBRANCH  23  24
ENDBRANCH  22  23
ENDBRANCH  21  22
ENDBRANCH  20  21
ENDBRANCH  19  20
ENDBRANCH  18  19
ENDBRANCH  17  18
ENDBRANCH  16  17
ENDBRANCH  15  16
ENDBRANCH   1  15
TORSDOF 22
ENDMDL
MODEL 8
REMARK VINA RESULT:    -5.666      4.772      8.042
REMARK INTER + INTRA:         -16.340
REMARK INTER:                 -12.815
REMARK INTRA:                  -3.525
REMARK UNBOUND:                -3.387
REMARK SMILES CCCCCCCCCCCCCCCCCCCCCCCC(=O)[O-]
REMARK SMILES IDX 13 1 14 2 15 3 16 4 17 5 18 6 19 7 20 8 21 9 22 10 23 11
REMARK SMILES IDX 24 12 25 13 26 14 12 15 11 16 10 17 9 18 8 19 7 20 6 21 5 22
REMARK SMILES IDX 4 23 3 24 2 25 1 26
REMARK H PARENT
REMARK Flexibility Score: inf
ROOT
ATOM      1  C   UNL     1     111.019 -81.382  22.251  1.00  0.00     0.000 C 
ENDROOT
BRANCH   1   2
ATOM      2  C   UNL     1     110.295 -82.378  23.170  1.00  0.00     0.000 C 
BRANCH   2   3
ATOM      3  C   UNL     1     109.683 -81.710  24.410  1.00  0.00     0.000 C 
BRANCH   3   4
ATOM      4  C   UNL     1     108.264 -82.231  24.666  1.00  0.00     0.000 C 
BRANCH   4   5
ATOM      5  C   UNL     1     107.732 -83.010  23.454  1.00  0.00     0.000 C 
BRANCH   5   6
ATOM      6  C   UNL     1     106.634 -82.251  22.686  1.00  0.00     0.000 C 
BRANCH   6   7
ATOM      7  C   UNL     1     107.080 -81.645  21.342  1.00  0.00     0.000 C 
BRANCH   7   8
ATOM      8  C   UNL     1     106.854 -80.126  21.263  1.00  0.00     0.000 C 
BRANCH   8   9
ATOM      9  C   UNL     1     107.874 -79.339  22.115  1.00  0.00     0.000 C 
BRANCH   9  10
ATOM     10  C   UNL     1     107.876 -77.825  21.832  1.00  0.00     0.006 C 
BRANCH  10  11
ATOM     11  C   UNL     1     107.308 -77.438  20.456  1.00  0.00     0.053 C 
BRANCH  11  12
ATOM     12  C   UNL     1     106.953 -75.983  20.372  1.00  0.00     0.041 C 
ATOM     13  O   UNL     1     106.614 -75.474  19.272  1.00  0.00    -0.550 OA
ATOM     14  O   UNL     1     107.027 -75.182  21.504  1.00  0.00    -0.550 OA
ENDBRANCH  11  12
ENDBRANCH  10  11
ENDBRANCH   9  10
ENDBRANCH   8   9
ENDBRANCH   7   8
ENDBRANCH   6   7
ENDBRANCH   5   6
ENDBRANCH   4   5
ENDBRANCH   3   4
ENDBRANCH   2   3
ENDBRANCH   1   2
BRANCH   1  15
ATOM     15  C   UNL     1     111.757 -82.074  21.090  1.00  0.00     0.000 C 
BRANCH  15  16
ATOM     16  C   UNL     1     112.706 -83.195  21.565  1.00  0.00     0.000 C 
BRANCH  16  17
ATOM     17  C   UNL     1     113.755 -83.615  20.517  1.00  0.00     0.000 C 
BRANCH  17  18
ATOM     18  C   UNL     1     114.989 -82.699  20.421  1.00  0.00    -0.000 C 
BRANCH  18  19
ATOM     19  C   UNL     1     115.379 -81.980  21.730  1.00  0.00    -0.000 C 
BRANCH  19  20
ATOM     20  C   UNL     1     115.384 -80.442  21.656  1.00  0.00    -0.000 C 
BRANCH  20  21
ATOM     21  C   UNL     1     114.809 -79.903  20.338  1.00  0.00    -0.000 C 
BRANCH  21  22
ATOM     22  C   UNL     1     113.815 -78.761  20.602  1.00  0.00    -0.000 C 
BRANCH  22  23
ATOM     23  C   UNL     1     112.562 -78.851  19.716  1.00  0.00    -0.000 C 
BRANCH  23  24
ATOM     24  C   UNL     1     111.362 -78.098  20.313  1.00  0.00    -0.000 C 
BRANCH  24  25
ATOM     25  C   UNL     1     111.754 -77.383  21.611  1.00  0.00    -0.003 C 
ATOM     26  C   UNL     1     110.982 -76.077  21.775  1.00  0.00     0.004 C 
ENDBRANCH  24  25
ENDBRANCH  23  24
ENDBRANCH  22  23
ENDBRANCH  21  22
ENDBRANCH  20  21
ENDBRANCH  19  20
ENDBRANCH  18  19
ENDBRANCH  17  18
ENDBRANCH  16  17
ENDBRANCH  15  16
ENDBRANCH   1  15
TORSDOF 22
ENDMDL
MODEL 9
REMARK VINA RESULT:    -5.664      2.007      5.414
REMARK INTER + INTRA:         -16.336
REMARK INTER:                 -12.830
REMARK INTRA:                  -3.507
REMARK UNBOUND:                -3.387
REMARK SMILES CCCCCCCCCCCCCCCCCCCCCCCC(=O)[O-]
REMARK SMILES IDX 13 1 14 2 15 3 16 4 17 5 18 6 19 7 20 8 21 9 22 10 23 11
REMARK SMILES IDX 24 12 25 13 26 14 12 15 11 16 10 17 9 18 8 19 7 20 6 21 5 22
REMARK SMILES IDX 4 23 3 24 2 25 1 26
REMARK H PARENT
REMARK Flexibility Score: inf
ROOT
ATOM      1  C   UNL     1     116.042 -83.518  21.406  1.00  0.00     0.000 C 
ENDROOT
BRANCH   1   2
ATOM      2  C   UNL     1     117.090 -82.439  21.725  1.00  0.00     0.000 C 
BRANCH   2   3
ATOM      3  C   UNL     1     118.525 -82.984  21.735  1.00  0.00     0.000 C 
BRANCH   3   4
ATOM      4  C   UNL     1     119.070 -83.061  23.166  1.00  0.00     0.000 C 
BRANCH   4   5
ATOM      5  C   UNL     1     120.152 -81.998  23.405  1.00  0.00     0.000 C 
BRANCH   5   6
ATOM      6  C   UNL     1     119.856 -81.104  24.624  1.00  0.00     0.000 C 
BRANCH   6   7
ATOM      7  C   UNL     1     118.948 -79.894  24.339  1.00  0.00     0.000 C 
BRANCH   7   8
ATOM      8  C   UNL     1     119.119 -79.337  22.915  1.00  0.00     0.000 C 
BRANCH   8   9
ATOM      9  C   UNL     1     119.175 -77.794  22.894  1.00  0.00     0.000 C 
BRANCH   9  10
ATOM     10  C   UNL     1     119.389 -77.166  24.285  1.00  0.00     0.006 C 
BRANCH  10  11
ATOM     11  C   UNL     1     118.467 -75.973  24.588  1.00  0.00     0.053 C 
BRANCH  11  12
ATOM     12  C   UNL     1     117.863 -76.052  25.959  1.00  0.00     0.041 C 
ATOM     13  O   UNL     1     117.761 -75.017  26.669  1.00  0.00    -0.550 OA
ATOM     14  O   UNL     1     117.443 -77.275  26.466  1.00  0.00    -0.550 OA
ENDBRANCH  11  12
ENDBRANCH  10  11
ENDBRANCH   9  10
ENDBRANCH   8   9
ENDBRANCH   7   8
ENDBRANCH   6   7
ENDBRANCH   5   6
ENDBRANCH   4   5
ENDBRANCH   3   4
ENDBRANCH   2   3
ENDBRANCH   1   2
BRANCH   1  15
ATOM     15  C   UNL     1     115.155 -83.146  20.203  1.00  0.00     0.000 C 
BRANCH  15  16
ATOM     16  C   UNL     1     113.693 -83.614  20.369  1.00  0.00     0.000 C 
BRANCH  16  17
ATOM     17  C   UNL     1     113.054 -83.214  21.713  1.00  0.00     0.000 C 
BRANCH  17  18
ATOM     18  C   UNL     1     111.819 -82.302  21.606  1.00  0.00    -0.000 C 
BRANCH  18  19
ATOM     19  C   UNL     1     112.004 -81.043  20.732  1.00  0.00    -0.000 C 
BRANCH  19  20
ATOM     20  C   UNL     1     112.933 -79.967  21.323  1.00  0.00    -0.000 C 
BRANCH  20  21
ATOM     21  C   UNL     1     114.061 -79.556  20.365  1.00  0.00    -0.000 C 
BRANCH  21  22
ATOM     22  C   UNL     1     115.406 -79.483  21.103  1.00  0.00    -0.000 C 
BRANCH  22  23
ATOM     23  C   UNL     1     115.615 -78.140  21.821  1.00  0.00    -0.000 C 
BRANCH  23  24
ATOM     24  C   UNL     1     115.549 -78.272  23.351  1.00  0.00    -0.000 C 
BRANCH  24  25
ATOM     25  C   UNL     1     114.885 -77.042  23.979  1.00  0.00    -0.003 C 
ATOM     26  C   UNL     1     114.551 -75.995  22.920  1.00  0.00     0.004 C 
ENDBRANCH  24  25
ENDBRANCH  23  24
ENDBRANCH  22  23
ENDBRANCH  21  22
ENDBRANCH  20  21
ENDBRANCH  19  20
ENDBRANCH  18  19
ENDBRANCH  17  18
ENDBRANCH  16  17
ENDBRANCH  15  16
ENDBRANCH   1  15
TORSDOF 22
ENDMDL
