MODEL 1
REMARK VINA RESULT:    -5.123      0.000      0.000
REMARK INTER + INTRA:         -11.178
REMARK INTER:                  -9.315
REMARK INTRA:                  -1.863
REMARK UNBOUND:                -1.863
REMARK SMILES CCCCCCCCCCCCCCCC(=O)[O-]
REMARK SMILES IDX 9 1 10 2 11 3 12 4 13 5 14 6 15 7 16 8 17 9 18 10 8 11 7 12
REMARK SMILES IDX 6 13 5 14 4 15 3 16 2 17 1 18
REMARK H PARENT
REMARK Flexibility Score: inf
ROOT
ATOM      1  C   UNL     1      11.656  13.094 164.491  1.00  0.00     0.000 C 
ENDROOT
BRANCH   1   2
ATOM      2  C   UNL     1      11.318  14.297 165.387  1.00  0.00     0.000 C 
BRANCH   2   3
ATOM      3  C   UNL     1      11.676  15.641 164.735  1.00  0.00     0.000 C 
BRANCH   3   4
ATOM      4  C   UNL     1      10.495  16.621 164.819  1.00  0.00     0.000 C 
BRANCH   4   5
ATOM      5  C   UNL     1      10.508  17.660 163.686  1.00  0.00     0.000 C 
BRANCH   5   6
ATOM      6  C   UNL     1      11.631  17.410 162.665  1.00  0.00     0.006 C 
BRANCH   6   7
ATOM      7  C   UNL     1      11.207  17.776 161.236  1.00  0.00     0.053 C 
BRANCH   7   8
ATOM      8  C   UNL     1      11.074  16.563 160.367  1.00  0.00     0.041 C 
ATOM      9  O   UNL     1      10.032  15.859 160.421  1.00  0.00    -0.550 OA
ATOM     10  O   UNL     1      12.115  16.191 159.526  1.00  0.00    -0.550 OA
ENDBRANCH   7   8
ENDBRANCH   6   7
ENDBRANCH   5   6
ENDBRANCH   4   5
ENDBRANCH   3   4
ENDBRANCH   2   3
ENDBRANCH   1   2
BRANCH   1  11
ATOM     11  C   UNL     1      10.822  13.065 163.198  1.00  0.00     0.000 C 
BRANCH  11  12
ATOM     12  C   UNL     1      11.702  13.160 161.933  1.00  0.00    -0.000 C 
BRANCH  12  13
ATOM     13  C   UNL     1      13.213  13.216 162.235  1.00  0.00    -0.000 C 
BRANCH  13  14
ATOM     14  C   UNL     1      13.894  14.545 161.868  1.00  0.00    -0.000 C 
BRANCH  14  15
ATOM     15  C   UNL     1      14.880  15.026 162.947  1.00  0.00    -0.000 C 
BRANCH  15  16
ATOM     16  C   UNL     1      16.095  14.083 163.087  1.00  0.00    -0.000 C 
BRANCH  16  17
ATOM     17  C   UNL     1      17.174  14.308 162.015  1.00  0.00    -0.003 C 
ATOM     18  C   UNL     1      18.593  14.110 162.544  1.00  0.00     0.004 C 
ENDBRANCH  16  17
ENDBRANCH  15  16
ENDBRANCH  14  15
ENDBRANCH  13  14
ENDBRANCH  12  13
ENDBRANCH  11  12
ENDBRANCH   1  11
TORSDOF 14
ENDMDL
MODEL 2
REMARK VINA RESULT:    -5.112      2.314      5.230
REMARK INTER + INTRA:         -11.158
REMARK INTER:                  -9.182
REMARK INTRA:                  -1.977
REMARK UNBOUND:                -1.863
REMARK SMILES CCCCCCCCCCCCCCCC(=O)[O-]
REMARK SMILES IDX 9 1 10 2 11 3 12 4 13 5 14 6 15 7 16 8 17 9 18 10 8 11 7 12
REMARK SMILES IDX 6 13 5 14 4 15 3 16 2 17 1 18
REMARK H PARENT
REMARK Flexibility Score: inf
ROOT
ATOM      1  C   UNL     1      11.606  17.832 162.834  1.00  0.00     0.000 C 
ENDROOT
BRANCH   1   2
ATOM      2  C   UNL     1      11.245  18.401 161.452  1.00  0.00     0.000 C 
BRANCH   2   3
ATOM      3  C   UNL     1      11.073  17.308 160.387  1.00  0.00     0.000 C 
BRANCH   3   4
ATOM      4  C   UNL     1      11.528  15.943 160.926  1.00  0.00     0.000 C 
BRANCH   4   5
ATOM      5  C   UNL     1      12.732  15.375 160.156  1.00  0.00     0.000 C 
BRANCH   5   6
ATOM      6  C   UNL     1      13.632  14.490 161.035  1.00  0.00     0.006 C 
BRANCH   6   7
ATOM      7  C   UNL     1      14.261  15.274 162.195  1.00  0.00     0.053 C 
BRANCH   7   8
ATOM      8  C   UNL     1      15.276  14.455 162.933  1.00  0.00     0.041 C 
ATOM      9  O   UNL     1      14.927  13.754 163.918  1.00  0.00    -0.550 OA
ATOM     10  O   UNL     1      16.612  14.496 162.555  1.00  0.00    -0.550 OA
ENDBRANCH   7   8
ENDBRANCH   6   7
ENDBRANCH   5   6
ENDBRANCH   4   5
ENDBRANCH   3   4
ENDBRANCH   2   3
ENDBRANCH   1   2
BRANCH   1  11
ATOM     11  C   UNL     1      10.431  17.893 163.826  1.00  0.00     0.000 C 
BRANCH  11  12
ATOM     12  C   UNL     1      10.343  16.626 164.704  1.00  0.00    -0.000 C 
BRANCH  12  13
ATOM     13  C   UNL     1      11.518  15.648 164.498  1.00  0.00    -0.000 C 
BRANCH  13  14
ATOM     14  C   UNL     1      11.386  14.316 165.253  1.00  0.00    -0.000 C 
BRANCH  14  15
ATOM     15  C   UNL     1      11.596  13.093 164.343  1.00  0.00    -0.000 C 
BRANCH  15  16
ATOM     16  C   UNL     1      10.764  13.184 163.046  1.00  0.00    -0.000 C 
BRANCH  16  17
ATOM     17  C   UNL     1      11.299  12.299 161.908  1.00  0.00    -0.003 C 
ATOM     18  C   UNL     1      10.191  11.617 161.108  1.00  0.00     0.004 C 
ENDBRANCH  16  17
ENDBRANCH  15  16
ENDBRANCH  14  15
ENDBRANCH  13  14
ENDBRANCH  12  13
ENDBRANCH  11  12
ENDBRANCH   1  11
TORSDOF 14
ENDMDL
MODEL 3
REMARK VINA RESULT:    -5.063      2.246      3.518
REMARK INTER + INTRA:         -11.070
REMARK INTER:                  -9.233
REMARK INTRA:                  -1.837
REMARK UNBOUND:                -1.863
REMARK SMILES CCCCCCCCCCCCCCCC(=O)[O-]
REMARK SMILES IDX 9 1 10 2 11 3 12 4 13 5 14 6 15 7 16 8 17 9 18 10 8 11 7 12
REMARK SMILES IDX 6 13 5 14 4 15 3 16 2 17 1 18
REMARK H PARENT
REMARK Flexibility Score: inf
ROOT
ATOM      1  C   UNL     1       9.819  14.863 161.952  1.00  0.00     0.000 C 
ENDROOT
BRANCH   1   2
ATOM      2  C   UNL     1      10.205  15.545 160.629  1.00  0.00     0.000 C 
BRANCH   2   3
ATOM      3  C   UNL     1      11.416  16.478 160.774  1.00  0.00     0.000 C 
BRANCH   3   4
ATOM      4  C   UNL     1      11.050  17.725 161.594  1.00  0.00     0.000 C 
BRANCH   4   5
ATOM      5  C   UNL     1      11.854  17.830 162.900  1.00  0.00     0.000 C 
BRANCH   5   6
ATOM      6  C   UNL     1      11.109  17.227 164.104  1.00  0.00     0.006 C 
BRANCH   6   7
ATOM      7  C   UNL     1      11.898  16.088 164.762  1.00  0.00     0.053 C 
BRANCH   7   8
ATOM      8  C   UNL     1      11.057  15.316 165.732  1.00  0.00     0.041 C 
ATOM      9  O   UNL     1      11.195  14.070 165.836  1.00  0.00    -0.550 OA
ATOM     10  O   UNL     1      10.097  15.969 166.495  1.00  0.00    -0.550 OA
ENDBRANCH   7   8
ENDBRANCH   6   7
ENDBRANCH   5   6
ENDBRANCH   4   5
ENDBRANCH   3   4
ENDBRANCH   2   3
ENDBRANCH   1   2
BRANCH   1  11
ATOM     11  C   UNL     1       9.592  13.349 161.795  1.00  0.00     0.000 C 
BRANCH  11  12
ATOM     12  C   UNL     1      10.920  12.565 161.715  1.00  0.00    -0.000 C 
BRANCH  12  13
ATOM     13  C   UNL     1      11.973  13.028 162.741  1.00  0.00    -0.000 C 
BRANCH  13  14
ATOM     14  C   UNL     1      13.412  13.093 162.202  1.00  0.00    -0.000 C 
BRANCH  14  15
ATOM     15  C   UNL     1      13.868  14.532 161.899  1.00  0.00    -0.000 C 
BRANCH  15  16
ATOM     16  C   UNL     1      14.904  15.042 162.924  1.00  0.00    -0.000 C 
BRANCH  16  17
ATOM     17  C   UNL     1      15.987  14.007 163.271  1.00  0.00    -0.003 C 
ATOM     18  C   UNL     1      17.245  14.148 162.416  1.00  0.00     0.004 C 
ENDBRANCH  16  17
ENDBRANCH  15  16
ENDBRANCH  14  15
ENDBRANCH  13  14
ENDBRANCH  12  13
ENDBRANCH  11  12
ENDBRANCH   1  11
TORSDOF 14
ENDMDL
MODEL 4
REMARK VINA RESULT:    -4.929      2.903      5.181
REMARK INTER + INTRA:         -10.826
REMARK INTER:                  -8.783
REMARK INTRA:                  -2.043
REMARK UNBOUND:                -1.863
REMARK SMILES CCCCCCCCCCCCCCCC(=O)[O-]
REMARK SMILES IDX 9 1 10 2 11 3 12 4 13 5 14 6 15 7 16 8 17 9 18 10 8 11 7 12
REMARK SMILES IDX 6 13 5 14 4 15 3 16 2 17 1 18
REMARK H PARENT
REMARK Flexibility Score: inf
ROOT
ATOM      1  C   UNL     1      12.868  14.672 160.626  1.00  0.00     0.000 C 
ENDROOT
BRANCH   1   2
ATOM      2  C   UNL     1      12.087  15.909 160.153  1.00  0.00     0.000 C 
BRANCH   2   3
ATOM      3  C   UNL     1      10.961  16.305 161.120  1.00  0.00     0.000 C 
BRANCH   3   4
ATOM      4  C   UNL     1      11.288  17.628 161.828  1.00  0.00     0.000 C 
BRANCH   4   5
ATOM      5  C   UNL     1      11.404  17.470 163.353  1.00  0.00     0.000 C 
BRANCH   5   6
ATOM      6  C   UNL     1      10.125  17.899 164.092  1.00  0.00     0.006 C 
BRANCH   6   7
ATOM      7  C   UNL     1       9.708  16.885 165.166  1.00  0.00     0.053 C 
BRANCH   7   8
ATOM      8  C   UNL     1       8.567  17.390 165.994  1.00  0.00     0.041 C 
ATOM      9  O   UNL     1       7.861  18.347 165.581  1.00  0.00    -0.550 OA
ATOM     10  O   UNL     1       8.305  16.828 167.237  1.00  0.00    -0.550 OA
ENDBRANCH   7   8
ENDBRANCH   6   7
ENDBRANCH   5   6
ENDBRANCH   4   5
ENDBRANCH   3   4
ENDBRANCH   2   3
ENDBRANCH   1   2
BRANCH   1  11
ATOM     11  C   UNL     1      13.832  14.985 161.784  1.00  0.00     0.000 C 
BRANCH  11  12
ATOM     12  C   UNL     1      13.794  13.903 162.884  1.00  0.00    -0.000 C 
BRANCH  12  13
ATOM     13  C   UNL     1      13.129  14.374 164.192  1.00  0.00    -0.000 C 
BRANCH  13  14
ATOM     14  C   UNL     1      11.644  14.000 164.329  1.00  0.00    -0.000 C 
BRANCH  14  15
ATOM     15  C   UNL     1      11.290  12.691 163.601  1.00  0.00    -0.000 C 
BRANCH  15  16
ATOM     16  C   UNL     1      10.270  12.915 162.464  1.00  0.00    -0.000 C 
BRANCH  16  17
ATOM     17  C   UNL     1      10.462  11.967 161.269  1.00  0.00    -0.003 C 
ATOM     18  C   UNL     1       9.726  10.639 161.434  1.00  0.00     0.004 C 
ENDBRANCH  16  17
ENDBRANCH  15  16
ENDBRANCH  14  15
ENDBRANCH  13  14
ENDBRANCH  12  13
ENDBRANCH  11  12
ENDBRANCH   1  11
TORSDOF 14
ENDMDL
MODEL 5
REMARK VINA RESULT:    -4.926      3.493      5.225
REMARK INTER + INTRA:         -10.821
REMARK INTER:                  -8.526
REMARK INTRA:                  -2.295
REMARK UNBOUND:                -1.863
REMARK SMILES CCCCCCCCCCCCCCCC(=O)[O-]
REMARK SMILES IDX 9 1 10 2 11 3 12 4 13 5 14 6 15 7 16 8 17 9 18 10 8 11 7 12
REMARK SMILES IDX 6 13 5 14 4 15 3 16 2 17 1 18
REMARK H PARENT
REMARK Flexibility Score: inf
ROOT
ATOM      1  C   UNL     1      13.984  15.676 162.974  1.00  0.00     0.000 C 
ENDROOT
BRANCH   1   2
ATOM      2  C   UNL     1      12.989  16.662 163.608  1.00  0.00     0.000 C 
BRANCH   2   3
ATOM      3  C   UNL     1      12.355  16.118 164.897  1.00  0.00     0.000 C 
BRANCH   3   4
ATOM      4  C   UNL     1      10.836  15.960 164.735  1.00  0.00     0.000 C 
BRANCH   4   5
ATOM      5  C   UNL     1      10.128  17.298 164.470  1.00  0.00     0.000 C 
BRANCH   5   6
ATOM      6  C   UNL     1       9.005  17.585 165.482  1.00  0.00     0.006 C 
BRANCH   6   7
ATOM      7  C   UNL     1       8.966  16.549 166.613  1.00  0.00     0.053 C 
BRANCH   7   8
ATOM      8  C   UNL     1       7.872  16.839 167.595  1.00  0.00     0.041 C 
ATOM      9  O   UNL     1       7.378  15.908 168.282  1.00  0.00    -0.550 OA
ATOM     10  O   UNL     1       7.376  18.129 167.724  1.00  0.00    -0.550 OA
ENDBRANCH   7   8
ENDBRANCH   6   7
ENDBRANCH   5   6
ENDBRANCH   4   5
ENDBRANCH   3   4
ENDBRANCH   2   3
ENDBRANCH   1   2
BRANCH   1  11
ATOM     11  C   UNL     1      13.877  14.260 163.567  1.00  0.00     0.000 C 
BRANCH  11  12
ATOM     12  C   UNL     1      13.100  13.298 162.643  1.00  0.00    -0.000 C 
BRANCH  12  13
ATOM     13  C   UNL     1      11.801  12.754 163.270  1.00  0.00    -0.000 C 
BRANCH  13  14
ATOM     14  C   UNL     1      10.509  13.226 162.582  1.00  0.00    -0.000 C 
BRANCH  14  15
ATOM     15  C   UNL     1      10.777  13.973 161.263  1.00  0.00    -0.000 C 
BRANCH  15  16
ATOM     16  C   UNL     1      10.124  15.372 161.246  1.00  0.00    -0.000 C 
BRANCH  16  17
ATOM     17  C   UNL     1      10.978  16.441 160.543  1.00  0.00    -0.003 C 
ATOM     18  C   UNL     1      12.205  15.861 159.844  1.00  0.00     0.004 C 
ENDBRANCH  16  17
ENDBRANCH  15  16
ENDBRANCH  14  15
ENDBRANCH  13  14
ENDBRANCH  12  13
ENDBRANCH  11  12
ENDBRANCH   1  11
TORSDOF 14
ENDMDL
MODEL 6
REMARK VINA RESULT:    -4.918      2.218      5.995
REMARK INTER + INTRA:         -10.805
REMARK INTER:                  -8.873
REMARK INTRA:                  -1.932
REMARK UNBOUND:                -1.863
REMARK SMILES CCCCCCCCCCCCCCCC(=O)[O-]
REMARK SMILES IDX 9 1 10 2 11 3 12 4 13 5 14 6 15 7 16 8 17 9 18 10 8 11 7 12
REMARK SMILES IDX 6 13 5 14 4 15 3 16 2 17 1 18
REMARK H PARENT
REMARK Flexibility Score: inf
ROOT
ATOM      1  C   UNL     1      10.372  15.296 160.773  1.00  0.00     0.000 C 
ENDROOT
BRANCH   1   2
ATOM      2  C   UNL     1       9.724  14.489 161.910  1.00  0.00     0.000 C 
BRANCH   2   3
ATOM      3  C   UNL     1       9.950  12.976 161.767  1.00  0.00     0.000 C 
BRANCH   3   4
ATOM      4  C   UNL     1      11.275  12.558 162.423  1.00  0.00     0.000 C 
BRANCH   4   5
ATOM      5  C   UNL     1      11.422  13.099 163.855  1.00  0.00     0.000 C 
BRANCH   5   6
ATOM      6  C   UNL     1      12.707  13.924 164.047  1.00  0.00     0.006 C 
BRANCH   6   7
ATOM      7  C   UNL     1      13.742  13.647 162.949  1.00  0.00     0.053 C 
BRANCH   7   8
ATOM      8  C   UNL     1      14.847  14.659 162.958  1.00  0.00     0.041 C 
ATOM      9  O   UNL     1      14.577  15.889 162.955  1.00  0.00    -0.550 OA
ATOM     10  O   UNL     1      16.172  14.245 162.934  1.00  0.00    -0.550 OA
ENDBRANCH   7   8
ENDBRANCH   6   7
ENDBRANCH   5   6
ENDBRANCH   4   5
ENDBRANCH   3   4
ENDBRANCH   2   3
ENDBRANCH   1   2
BRANCH   1  11
ATOM     11  C   UNL     1      11.552  16.159 161.256  1.00  0.00     0.000 C 
BRANCH  11  12
ATOM     12  C   UNL     1      11.202  17.662 161.284  1.00  0.00    -0.000 C 
BRANCH  12  13
ATOM     13  C   UNL     1      11.356  18.306 162.676  1.00  0.00    -0.000 C 
BRANCH  13  14
ATOM     14  C   UNL     1      11.374  17.310 163.847  1.00  0.00    -0.000 C 
BRANCH  14  15
ATOM     15  C   UNL     1       9.981  17.094 164.466  1.00  0.00    -0.000 C 
BRANCH  15  16
ATOM     16  C   UNL     1       9.285  18.429 164.808  1.00  0.00    -0.000 C 
BRANCH  16  17
ATOM     17  C   UNL     1       8.230  18.306 165.920  1.00  0.00    -0.003 C 
ATOM     18  C   UNL     1       8.323  16.991 166.690  1.00  0.00     0.004 C 
ENDBRANCH  16  17
ENDBRANCH  15  16
ENDBRANCH  14  15
ENDBRANCH  13  14
ENDBRANCH  12  13
ENDBRANCH  11  12
ENDBRANCH   1  11
TORSDOF 14
ENDMDL
MODEL 7
REMARK VINA RESULT:    -4.912      3.192      5.199
REMARK INTER + INTRA:         -10.794
REMARK INTER:                  -8.578
REMARK INTRA:                  -2.216
REMARK UNBOUND:                -1.863
REMARK SMILES CCCCCCCCCCCCCCCC(=O)[O-]
REMARK SMILES IDX 9 1 10 2 11 3 12 4 13 5 14 6 15 7 16 8 17 9 18 10 8 11 7 12
REMARK SMILES IDX 6 13 5 14 4 15 3 16 2 17 1 18
REMARK H PARENT
REMARK Flexibility Score: inf
ROOT
ATOM      1  C   UNL     1      11.100  16.297 160.662  1.00  0.00     0.000 C 
ENDROOT
BRANCH   1   2
ATOM      2  C   UNL     1      11.229  17.751 161.142  1.00  0.00     0.000 C 
BRANCH   2   3
ATOM      3  C   UNL     1      10.930  17.910 162.641  1.00  0.00     0.000 C 
BRANCH   3   4
ATOM      4  C   UNL     1      10.582  16.554 163.276  1.00  0.00     0.000 C 
BRANCH   4   5
ATOM      5  C   UNL     1      11.024  16.459 164.745  1.00  0.00     0.000 C 
BRANCH   5   6
ATOM      6  C   UNL     1       9.841  16.247 165.706  1.00  0.00     0.006 C 
BRANCH   6   7
ATOM      7  C   UNL     1       8.760  17.323 165.541  1.00  0.00     0.053 C 
BRANCH   7   8
ATOM      8  C   UNL     1       7.673  17.180 166.562  1.00  0.00     0.041 C 
ATOM      9  O   UNL     1       7.889  17.494 167.762  1.00  0.00    -0.550 OA
ATOM     10  O   UNL     1       6.435  16.669 166.196  1.00  0.00    -0.550 OA
ENDBRANCH   7   8
ENDBRANCH   6   7
ENDBRANCH   5   6
ENDBRANCH   4   5
ENDBRANCH   3   4
ENDBRANCH   2   3
ENDBRANCH   1   2
BRANCH   1  11
ATOM     11  C   UNL     1      12.330  15.823 159.867  1.00  0.00     0.000 C 
BRANCH  11  12
ATOM     12  C   UNL     1      13.088  14.686 160.585  1.00  0.00    -0.000 C 
BRANCH  12  13
ATOM     13  C   UNL     1      13.787  15.134 161.884  1.00  0.00    -0.000 C 
BRANCH  13  14
ATOM     14  C   UNL     1      13.454  14.283 163.121  1.00  0.00    -0.000 C 
BRANCH  14  15
ATOM     15  C   UNL     1      12.751  12.962 162.761  1.00  0.00    -0.000 C 
BRANCH  15  16
ATOM     16  C   UNL     1      11.308  12.903 163.307  1.00  0.00    -0.000 C 
BRANCH  16  17
ATOM     17  C   UNL     1      10.232  12.978 162.212  1.00  0.00    -0.003 C 
ATOM     18  C   UNL     1      10.457  11.976 161.082  1.00  0.00     0.004 C 
ENDBRANCH  16  17
ENDBRANCH  15  16
ENDBRANCH  14  15
ENDBRANCH  13  14
ENDBRANCH  12  13
ENDBRANCH  11  12
ENDBRANCH   1  11
TORSDOF 14
ENDMDL
MODEL 8
REMARK VINA RESULT:    -4.898      2.429      4.082
REMARK INTER + INTRA:         -10.770
REMARK INTER:                  -8.953
REMARK INTRA:                  -1.817
REMARK UNBOUND:                -1.863
REMARK SMILES CCCCCCCCCCCCCCCC(=O)[O-]
REMARK SMILES IDX 9 1 10 2 11 3 12 4 13 5 14 6 15 7 16 8 17 9 18 10 8 11 7 12
REMARK SMILES IDX 6 13 5 14 4 15 3 16 2 17 1 18
REMARK H PARENT
REMARK Flexibility Score: inf
ROOT
ATOM      1  C   UNL     1      11.445  16.400 160.707  1.00  0.00     0.000 C 
ENDROOT
BRANCH   1   2
ATOM      2  C   UNL     1      11.144  17.792 160.128  1.00  0.00     0.000 C 
BRANCH   2   3
ATOM      3  C   UNL     1      11.190  18.899 161.192  1.00  0.00     0.000 C 
BRANCH   3   4
ATOM      4  C   UNL     1      11.580  18.324 162.563  1.00  0.00     0.000 C 
BRANCH   4   5
ATOM      5  C   UNL     1      10.475  18.507 163.616  1.00  0.00     0.000 C 
BRANCH   5   6
ATOM      6  C   UNL     1      10.115  17.193 164.331  1.00  0.00     0.006 C 
BRANCH   6   7
ATOM      7  C   UNL     1      11.360  16.381 164.711  1.00  0.00     0.053 C 
BRANCH   7   8
ATOM      8  C   UNL     1      11.016  15.214 165.586  1.00  0.00     0.041 C 
ATOM      9  O   UNL     1      10.456  15.401 166.698  1.00  0.00    -0.550 OA
ATOM     10  O   UNL     1      11.347  13.925 165.190  1.00  0.00    -0.550 OA
ENDBRANCH   7   8
ENDBRANCH   6   7
ENDBRANCH   5   6
ENDBRANCH   4   5
ENDBRANCH   3   4
ENDBRANCH   2   3
ENDBRANCH   1   2
BRANCH   1  11
ATOM     11  C   UNL     1      10.234  15.452 160.632  1.00  0.00     0.000 C 
BRANCH  11  12
ATOM     12  C   UNL     1      10.128  14.542 161.876  1.00  0.00    -0.000 C 
BRANCH  12  13
ATOM     13  C   UNL     1      10.254  13.040 161.555  1.00  0.00    -0.000 C 
BRANCH  13  14
ATOM     14  C   UNL     1      11.660  12.454 161.764  1.00  0.00    -0.000 C 
BRANCH  14  15
ATOM     15  C   UNL     1      12.733  13.539 161.967  1.00  0.00    -0.000 C 
BRANCH  15  16
ATOM     16  C   UNL     1      13.867  13.068 162.902  1.00  0.00    -0.000 C 
BRANCH  16  17
ATOM     17  C   UNL     1      14.920  14.152 163.188  1.00  0.00    -0.003 C 
ATOM     18  C   UNL     1      14.409  15.567 162.922  1.00  0.00     0.004 C 
ENDBRANCH  16  17
ENDBRANCH  15  16
ENDBRANCH  14  15
ENDBRANCH  13  14
ENDBRANCH  12  13
ENDBRANCH  11  12
ENDBRANCH   1  11
TORSDOF 14
ENDMDL
MODEL 9
REMARK VINA RESULT:    -4.844      3.631      5.633
REMARK INTER + INTRA:         -10.670
REMARK INTER:                  -8.814
REMARK INTRA:                  -1.856
REMARK UNBOUND:                -1.863
REMARK SMILES CCCCCCCCCCCCCCCC(=O)[O-]
REMARK SMILES IDX 9 1 10 2 11 3 12 4 13 5 14 6 15 7 16 8 17 9 18 10 8 11 7 12
REMARK SMILES IDX 6 13 5 14 4 15 3 16 2 17 1 18
REMARK H PARENT
REMARK Flexibility Score: inf
ROOT
ATOM      1  C   UNL     1      12.386  16.120 164.758  1.00  0.00     0.000 C 
ENDROOT
BRANCH   1   2
ATOM      2  C   UNL     1      10.867  16.333 164.656  1.00  0.00     0.000 C 
BRANCH   2   3
ATOM      3  C   UNL     1      10.499  17.658 163.970  1.00  0.00     0.000 C 
BRANCH   3   4
ATOM      4  C   UNL     1       9.425  18.409 164.773  1.00  0.00     0.000 C 
BRANCH   4   5
ATOM      5  C   UNL     1       8.535  17.464 165.596  1.00  0.00     0.000 C 
BRANCH   5   6
ATOM      6  C   UNL     1       7.401  18.205 166.326  1.00  0.00     0.006 C 
BRANCH   6   7
ATOM      7  C   UNL     1       7.266  17.759 167.789  1.00  0.00     0.053 C 
BRANCH   7   8
ATOM      8  C   UNL     1       6.852  16.324 167.896  1.00  0.00     0.041 C 
ATOM      9  O   UNL     1       5.712  15.964 167.502  1.00  0.00    -0.550 OA
ATOM     10  O   UNL     1       7.710  15.391 168.464  1.00  0.00    -0.550 OA
ENDBRANCH   7   8
ENDBRANCH   6   7
ENDBRANCH   5   6
ENDBRANCH   4   5
ENDBRANCH   3   4
ENDBRANCH   2   3
ENDBRANCH   1   2
BRANCH   1  11
ATOM     11  C   UNL     1      13.141  16.624 163.515  1.00  0.00     0.000 C 
BRANCH  11  12
ATOM     12  C   UNL     1      13.996  15.516 162.863  1.00  0.00    -0.000 C 
BRANCH  12  13
ATOM     13  C   UNL     1      13.828  14.135 163.526  1.00  0.00    -0.000 C 
BRANCH  13  14
ATOM     14  C   UNL     1      13.271  13.041 162.600  1.00  0.00    -0.000 C 
BRANCH  14  15
ATOM     15  C   UNL     1      12.171  13.562 161.659  1.00  0.00    -0.000 C 
BRANCH  15  16
ATOM     16  C   UNL     1      10.755  13.295 162.215  1.00  0.00    -0.000 C 
BRANCH  16  17
ATOM     17  C   UNL     1       9.744  14.404 161.881  1.00  0.00    -0.003 C 
ATOM     18  C   UNL     1      10.326  15.496 160.986  1.00  0.00     0.004 C 
ENDBRANCH  16  17
ENDBRANCH  15  16
ENDBRANCH  14  15
ENDBRANCH  13  14
ENDBRANCH  12  13
ENDBRANCH  11  12
ENDBRANCH   1  11
TORSDOF 14
ENDMDL
