MODEL 1
REMARK VINA RESULT:    -4.643      0.000      0.000
REMARK INTER + INTRA:         -11.013
REMARK INTER:                  -8.444
REMARK INTRA:                  -2.569
REMARK UNBOUND:                -2.569
REMARK SMILES CCCCCCCCCCCCCCCC(=O)[O-]
REMARK SMILES IDX 9 1 10 2 11 3 12 4 13 5 14 6 15 7 16 8 17 9 18 10 8 11 7 12
REMARK SMILES IDX 6 13 5 14 4 15 3 16 2 17 1 18
REMARK H PARENT
REMARK Flexibility Score: inf
ROOT
ATOM      1  C   UNL     1      42.156  48.671   9.415  1.00  0.00     0.000 C 
ENDROOT
BRANCH   1   2
ATOM      2  C   UNL     1      42.931  47.370   9.684  1.00  0.00     0.000 C 
BRANCH   2   3
ATOM      3  C   UNL     1      43.037  47.045  11.183  1.00  0.00     0.000 C 
BRANCH   3   4
ATOM      4  C   UNL     1      42.093  47.898  12.043  1.00  0.00     0.000 C 
BRANCH   4   5
ATOM      5  C   UNL     1      42.836  48.497  13.244  1.00  0.00     0.000 C 
BRANCH   5   6
ATOM      6  C   UNL     1      42.294  49.894  13.586  1.00  0.00     0.006 C 
BRANCH   6   7
ATOM      7  C   UNL     1      40.915  50.149  12.968  1.00  0.00     0.053 C 
BRANCH   7   8
ATOM      8  C   UNL     1      40.024  50.919  13.896  1.00  0.00     0.041 C 
ATOM      9  O   UNL     1      38.882  51.288  13.518  1.00  0.00    -0.550 OA
ATOM     10  O   UNL     1      40.472  51.258  15.166  1.00  0.00    -0.550 OA
ENDBRANCH   7   8
ENDBRANCH   6   7
ENDBRANCH   5   6
ENDBRANCH   4   5
ENDBRANCH   3   4
ENDBRANCH   2   3
ENDBRANCH   1   2
BRANCH   1  11
ATOM     11  C   UNL     1      43.075  49.841   9.019  1.00  0.00     0.000 C 
BRANCH  11  12
ATOM     12  C   UNL     1      43.282  50.910  10.111  1.00  0.00    -0.000 C 
BRANCH  12  13
ATOM     13  C   UNL     1      44.750  51.268  10.410  1.00  0.00    -0.000 C 
BRANCH  13  14
ATOM     14  C   UNL     1      45.384  50.479  11.570  1.00  0.00    -0.000 C 
BRANCH  14  15
ATOM     15  C   UNL     1      46.688  49.770  11.165  1.00  0.00    -0.000 C 
BRANCH  15  16
ATOM     16  C   UNL     1      46.788  49.528   9.649  1.00  0.00    -0.000 C 
BRANCH  16  17
ATOM     17  C   UNL     1      46.440  48.098   9.201  1.00  0.00    -0.003 C 
ATOM     18  C   UNL     1      46.822  47.037  10.233  1.00  0.00     0.004 C 
ENDBRANCH  16  17
ENDBRANCH  15  16
ENDBRANCH  14  15
ENDBRANCH  13  14
ENDBRANCH  12  13
ENDBRANCH  11  12
ENDBRANCH   1  11
TORSDOF 14
ENDMDL
MODEL 2
REMARK VINA RESULT:    -4.545      0.899      2.653
REMARK INTER + INTRA:         -10.834
REMARK INTER:                  -8.490
REMARK INTRA:                  -2.344
REMARK UNBOUND:                -2.569
REMARK SMILES CCCCCCCCCCCCCCCC(=O)[O-]
REMARK SMILES IDX 9 1 10 2 11 3 12 4 13 5 14 6 15 7 16 8 17 9 18 10 8 11 7 12
REMARK SMILES IDX 6 13 5 14 4 15 3 16 2 17 1 18
REMARK H PARENT
REMARK Flexibility Score: inf
ROOT
ATOM      1  C   UNL     1      45.027  47.705   9.337  1.00  0.00     0.000 C 
ENDROOT
BRANCH   1   2
ATOM      2  C   UNL     1      44.295  47.263  10.616  1.00  0.00     0.000 C 
BRANCH   2   3
ATOM      3  C   UNL     1      42.804  47.635  10.600  1.00  0.00     0.000 C 
BRANCH   3   4
ATOM      4  C   UNL     1      42.177  47.630  12.003  1.00  0.00     0.000 C 
BRANCH   4   5
ATOM      5  C   UNL     1      42.947  48.557  12.951  1.00  0.00     0.000 C 
BRANCH   5   6
ATOM      6  C   UNL     1      42.162  49.851  13.215  1.00  0.00     0.006 C 
BRANCH   6   7
ATOM      7  C   UNL     1      40.722  49.773  12.694  1.00  0.00     0.053 C 
BRANCH   7   8
ATOM      8  C   UNL     1      39.829  50.761  13.380  1.00  0.00     0.041 C 
ATOM      9  O   UNL     1      38.880  51.301  12.753  1.00  0.00    -0.550 OA
ATOM     10  O   UNL     1      40.067  51.111  14.703  1.00  0.00    -0.550 OA
ENDBRANCH   7   8
ENDBRANCH   6   7
ENDBRANCH   5   6
ENDBRANCH   4   5
ENDBRANCH   3   4
ENDBRANCH   2   3
ENDBRANCH   1   2
BRANCH   1  11
ATOM     11  C   UNL     1      46.556  47.562   9.446  1.00  0.00     0.000 C 
BRANCH  11  12
ATOM     12  C   UNL     1      47.201  48.309  10.631  1.00  0.00    -0.000 C 
BRANCH  12  13
ATOM     13  C   UNL     1      47.080  49.845  10.584  1.00  0.00    -0.000 C 
BRANCH  13  14
ATOM     14  C   UNL     1      46.139  50.451  11.641  1.00  0.00    -0.000 C 
BRANCH  14  15
ATOM     15  C   UNL     1      44.891  51.104  11.021  1.00  0.00    -0.000 C 
BRANCH  15  16
ATOM     16  C   UNL     1      45.025  51.325   9.505  1.00  0.00    -0.000 C 
BRANCH  16  17
ATOM     17  C   UNL     1      43.699  51.265   8.726  1.00  0.00    -0.003 C 
ATOM     18  C   UNL     1      42.488  51.013   9.624  1.00  0.00     0.004 C 
ENDBRANCH  16  17
ENDBRANCH  15  16
ENDBRANCH  14  15
ENDBRANCH  13  14
ENDBRANCH  12  13
ENDBRANCH  11  12
ENDBRANCH   1  11
TORSDOF 14
ENDMDL
MODEL 3
REMARK VINA RESULT:    -4.449      2.955      6.132
REMARK INTER + INTRA:         -10.659
REMARK INTER:                  -9.045
REMARK INTRA:                  -1.614
REMARK UNBOUND:                -2.569
REMARK SMILES CCCCCCCCCCCCCCCC(=O)[O-]
REMARK SMILES IDX 9 1 10 2 11 3 12 4 13 5 14 6 15 7 16 8 17 9 18 10 8 11 7 12
REMARK SMILES IDX 6 13 5 14 4 15 3 16 2 17 1 18
REMARK H PARENT
REMARK Flexibility Score: inf
ROOT
ATOM      1  C   UNL     1      46.013  51.283   9.992  1.00  0.00     0.000 C 
ENDROOT
BRANCH   1   2
ATOM      2  C   UNL     1      47.064  50.285   9.477  1.00  0.00     0.000 C 
BRANCH   2   3
ATOM      3  C   UNL     1      47.840  49.604  10.616  1.00  0.00     0.000 C 
BRANCH   3   4
ATOM      4  C   UNL     1      47.653  48.080  10.632  1.00  0.00     0.000 C 
BRANCH   4   5
ATOM      5  C   UNL     1      46.794  47.620   9.448  1.00  0.00     0.000 C 
BRANCH   5   6
ATOM      6  C   UNL     1      46.770  46.087   9.347  1.00  0.00     0.006 C 
BRANCH   6   7
ATOM      7  C   UNL     1      46.153  45.433  10.589  1.00  0.00     0.053 C 
BRANCH   7   8
ATOM      8  C   UNL     1      44.661  45.560  10.601  1.00  0.00     0.041 C 
ATOM      9  O   UNL     1      44.011  45.509   9.524  1.00  0.00    -0.550 OA
ATOM     10  O   UNL     1      43.990  45.768  11.800  1.00  0.00    -0.550 OA
ENDBRANCH   7   8
ENDBRANCH   6   7
ENDBRANCH   5   6
ENDBRANCH   4   5
ENDBRANCH   3   4
ENDBRANCH   2   3
ENDBRANCH   1   2
BRANCH   1  11
ATOM     11  C   UNL     1      45.840  51.231  11.521  1.00  0.00     0.000 C 
BRANCH  11  12
ATOM     12  C   UNL     1      44.500  50.646  12.008  1.00  0.00    -0.000 C 
BRANCH  12  13
ATOM     13  C   UNL     1      44.164  49.240  11.475  1.00  0.00    -0.000 C 
BRANCH  13  14
ATOM     14  C   UNL     1      42.680  49.016  11.132  1.00  0.00    -0.000 C 
BRANCH  14  15
ATOM     15  C   UNL     1      41.836  48.637  12.361  1.00  0.00    -0.000 C 
BRANCH  15  16
ATOM     16  C   UNL     1      41.108  49.844  12.979  1.00  0.00    -0.000 C 
BRANCH  16  17
ATOM     17  C   UNL     1      41.703  50.345  14.306  1.00  0.00    -0.003 C 
ATOM     18  C   UNL     1      40.827  51.390  14.998  1.00  0.00     0.004 C 
ENDBRANCH  16  17
ENDBRANCH  15  16
ENDBRANCH  14  15
ENDBRANCH  13  14
ENDBRANCH  12  13
ENDBRANCH  11  12
ENDBRANCH   1  11
TORSDOF 14
ENDMDL
MODEL 4
REMARK VINA RESULT:    -4.315      1.303      3.595
REMARK INTER + INTRA:         -10.416
REMARK INTER:                  -8.804
REMARK INTRA:                  -1.612
REMARK UNBOUND:                -2.569
REMARK SMILES CCCCCCCCCCCCCCCC(=O)[O-]
REMARK SMILES IDX 9 1 10 2 11 3 12 4 13 5 14 6 15 7 16 8 17 9 18 10 8 11 7 12
REMARK SMILES IDX 6 13 5 14 4 15 3 16 2 17 1 18
REMARK H PARENT
REMARK Flexibility Score: inf
ROOT
ATOM      1  C   UNL     1      46.599  51.028  11.386  1.00  0.00     0.000 C 
ENDROOT
BRANCH   1   2
ATOM      2  C   UNL     1      45.464  51.536  10.480  1.00  0.00     0.000 C 
BRANCH   2   3
ATOM      3  C   UNL     1      44.179  50.705  10.623  1.00  0.00     0.000 C 
BRANCH   3   4
ATOM      4  C   UNL     1      44.069  50.012  11.989  1.00  0.00     0.000 C 
BRANCH   4   5
ATOM      5  C   UNL     1      43.202  48.750  11.896  1.00  0.00     0.000 C 
BRANCH   5   6
ATOM      6  C   UNL     1      41.837  48.968  12.566  1.00  0.00     0.006 C 
BRANCH   6   7
ATOM      7  C   UNL     1      41.925  49.914  13.769  1.00  0.00     0.053 C 
BRANCH   7   8
ATOM      8  C   UNL     1      40.648  50.668  13.978  1.00  0.00     0.041 C 
ATOM      9  O   UNL     1      39.746  50.643  13.100  1.00  0.00    -0.550 OA
ATOM     10  O   UNL     1      40.468  51.426  15.128  1.00  0.00    -0.550 OA
ENDBRANCH   7   8
ENDBRANCH   6   7
ENDBRANCH   5   6
ENDBRANCH   4   5
ENDBRANCH   3   4
ENDBRANCH   2   3
ENDBRANCH   1   2
BRANCH   1  11
ATOM     11  C   UNL     1      47.703  50.293  10.604  1.00  0.00     0.000 C 
BRANCH  11  12
ATOM     12  C   UNL     1      47.610  48.754  10.631  1.00  0.00    -0.000 C 
BRANCH  12  13
ATOM     13  C   UNL     1      46.730  48.130   9.530  1.00  0.00    -0.000 C 
BRANCH  13  14
ATOM     14  C   UNL     1      46.877  46.606   9.373  1.00  0.00    -0.000 C 
BRANCH  14  15
ATOM     15  C   UNL     1      46.440  45.834  10.630  1.00  0.00    -0.000 C 
BRANCH  15  16
ATOM     16  C   UNL     1      44.923  45.583  10.679  1.00  0.00    -0.000 C 
BRANCH  16  17
ATOM     17  C   UNL     1      44.259  45.375   9.306  1.00  0.00    -0.003 C 
ATOM     18  C   UNL     1      43.130  46.368   9.032  1.00  0.00     0.004 C 
ENDBRANCH  16  17
ENDBRANCH  15  16
ENDBRANCH  14  15
ENDBRANCH  13  14
ENDBRANCH  12  13
ENDBRANCH  11  12
ENDBRANCH   1  11
TORSDOF 14
ENDMDL
MODEL 5
REMARK VINA RESULT:    -4.304      1.719      4.789
REMARK INTER + INTRA:         -10.396
REMARK INTER:                  -8.623
REMARK INTRA:                  -1.773
REMARK UNBOUND:                -2.569
REMARK SMILES CCCCCCCCCCCCCCCC(=O)[O-]
REMARK SMILES IDX 9 1 10 2 11 3 12 4 13 5 14 6 15 7 16 8 17 9 18 10 8 11 7 12
REMARK SMILES IDX 6 13 5 14 4 15 3 16 2 17 1 18
REMARK H PARENT
REMARK Flexibility Score: inf
ROOT
ATOM      1  C   UNL     1      46.448  48.305   9.206  1.00  0.00     0.000 C 
ENDROOT
BRANCH   1   2
ATOM      2  C   UNL     1      47.007  49.707   9.504  1.00  0.00     0.000 C 
BRANCH   2   3
ATOM      3  C   UNL     1      47.252  49.938  11.004  1.00  0.00     0.000 C 
BRANCH   3   4
ATOM      4  C   UNL     1      46.478  51.146  11.552  1.00  0.00     0.000 C 
BRANCH   4   5
ATOM      5  C   UNL     1      44.991  51.057  11.186  1.00  0.00     0.000 C 
BRANCH   5   6
ATOM      6  C   UNL     1      44.284  49.973  12.014  1.00  0.00     0.006 C 
BRANCH   6   7
ATOM      7  C   UNL     1      42.777  49.919  11.733  1.00  0.00     0.053 C 
BRANCH   7   8
ATOM      8  C   UNL     1      41.982  49.772  12.994  1.00  0.00     0.041 C 
ATOM      9  O   UNL     1      42.560  49.515  14.082  1.00  0.00    -0.550 OA
ATOM     10  O   UNL     1      40.598  49.885  12.960  1.00  0.00    -0.550 OA
ENDBRANCH   7   8
ENDBRANCH   6   7
ENDBRANCH   5   6
ENDBRANCH   4   5
ENDBRANCH   3   4
ENDBRANCH   2   3
ENDBRANCH   1   2
BRANCH   1  11
ATOM     11  C   UNL     1      46.868  47.260  10.255  1.00  0.00     0.000 C 
BRANCH  11  12
ATOM     12  C   UNL     1      45.848  46.130  10.497  1.00  0.00    -0.000 C 
BRANCH  12  13
ATOM     13  C   UNL     1      44.370  46.566  10.489  1.00  0.00    -0.000 C 
BRANCH  13  14
ATOM     14  C   UNL     1      43.596  46.250  11.782  1.00  0.00    -0.000 C 
BRANCH  14  15
ATOM     15  C   UNL     1      42.073  46.391  11.612  1.00  0.00    -0.000 C 
BRANCH  15  16
ATOM     16  C   UNL     1      41.669  46.840  10.197  1.00  0.00    -0.000 C 
BRANCH  16  17
ATOM     17  C   UNL     1      40.446  46.111   9.615  1.00  0.00    -0.003 C 
ATOM     18  C   UNL     1      39.380  45.797  10.665  1.00  0.00     0.004 C 
ENDBRANCH  16  17
ENDBRANCH  15  16
ENDBRANCH  14  15
ENDBRANCH  13  14
ENDBRANCH  12  13
ENDBRANCH  11  12
ENDBRANCH   1  11
TORSDOF 14
ENDMDL
MODEL 6
REMARK VINA RESULT:    -4.265      3.212      4.448
REMARK INTER + INTRA:         -10.326
REMARK INTER:                  -8.571
REMARK INTRA:                  -1.755
REMARK UNBOUND:                -2.569
REMARK SMILES CCCCCCCCCCCCCCCC(=O)[O-]
REMARK SMILES IDX 9 1 10 2 11 3 12 4 13 5 14 6 15 7 16 8 17 9 18 10 8 11 7 12
REMARK SMILES IDX 6 13 5 14 4 15 3 16 2 17 1 18
REMARK H PARENT
REMARK Flexibility Score: inf
ROOT
ATOM      1  C   UNL     1      44.102  50.448  11.286  1.00  0.00     0.000 C 
ENDROOT
BRANCH   1   2
ATOM      2  C   UNL     1      43.713  49.112  11.941  1.00  0.00     0.000 C 
BRANCH   2   3
ATOM      3  C   UNL     1      42.262  48.705  11.637  1.00  0.00     0.000 C 
BRANCH   3   4
ATOM      4  C   UNL     1      41.902  47.323  12.203  1.00  0.00     0.000 C 
BRANCH   4   5
ATOM      5  C   UNL     1      40.381  47.131  12.253  1.00  0.00     0.000 C 
BRANCH   5   6
ATOM      6  C   UNL     1      39.943  45.964  11.356  1.00  0.00     0.006 C 
BRANCH   6   7
ATOM      7  C   UNL     1      40.477  46.100   9.925  1.00  0.00     0.053 C 
BRANCH   7   8
ATOM      8  C   UNL     1      39.607  45.384   8.937  1.00  0.00     0.041 C 
ATOM      9  O   UNL     1      39.894  44.214   8.570  1.00  0.00    -0.550 OA
ATOM     10  O   UNL     1      38.499  46.023   8.396  1.00  0.00    -0.550 OA
ENDBRANCH   7   8
ENDBRANCH   6   7
ENDBRANCH   5   6
ENDBRANCH   4   5
ENDBRANCH   3   4
ENDBRANCH   2   3
ENDBRANCH   1   2
BRANCH   1  11
ATOM     11  C   UNL     1      45.522  50.906  11.662  1.00  0.00     0.000 C 
BRANCH  11  12
ATOM     12  C   UNL     1      46.469  51.149  10.470  1.00  0.00    -0.000 C 
BRANCH  12  13
ATOM     13  C   UNL     1      46.995  49.876   9.779  1.00  0.00    -0.000 C 
BRANCH  13  14
ATOM     14  C   UNL     1      47.428  48.752  10.738  1.00  0.00    -0.000 C 
BRANCH  14  15
ATOM     15  C   UNL     1      46.963  47.361  10.272  1.00  0.00    -0.000 C 
BRANCH  15  16
ATOM     16  C   UNL     1      45.787  47.426   9.282  1.00  0.00    -0.000 C 
BRANCH  16  17
ATOM     17  C   UNL     1      44.624  46.470   9.601  1.00  0.00    -0.003 C 
ATOM     18  C   UNL     1      44.853  45.651  10.871  1.00  0.00     0.004 C 
ENDBRANCH  16  17
ENDBRANCH  15  16
ENDBRANCH  14  15
ENDBRANCH  13  14
ENDBRANCH  12  13
ENDBRANCH  11  12
ENDBRANCH   1  11
TORSDOF 14
ENDMDL
MODEL 7
REMARK VINA RESULT:    -4.254      3.101      6.452
REMARK INTER + INTRA:         -10.304
REMARK INTER:                  -9.083
REMARK INTRA:                  -1.221
REMARK UNBOUND:                -2.569
REMARK SMILES CCCCCCCCCCCCCCCC(=O)[O-]
REMARK SMILES IDX 9 1 10 2 11 3 12 4 13 5 14 6 15 7 16 8 17 9 18 10 8 11 7 12
REMARK SMILES IDX 6 13 5 14 4 15 3 16 2 17 1 18
REMARK H PARENT
REMARK Flexibility Score: inf
ROOT
ATOM      1  C   UNL     1      44.268  50.905  10.400  1.00  0.00     0.000 C 
ENDROOT
BRANCH   1   2
ATOM      2  C   UNL     1      45.316  50.624  11.490  1.00  0.00     0.000 C 
BRANCH   2   3
ATOM      3  C   UNL     1      46.744  50.971  11.039  1.00  0.00     0.000 C 
BRANCH   3   4
ATOM      4  C   UNL     1      47.309  49.961  10.029  1.00  0.00     0.000 C 
BRANCH   4   5
ATOM      5  C   UNL     1      47.335  48.548  10.623  1.00  0.00     0.000 C 
BRANCH   5   6
ATOM      6  C   UNL     1      46.581  47.557   9.724  1.00  0.00     0.006 C 
BRANCH   6   7
ATOM      7  C   UNL     1      46.495  46.158  10.345  1.00  0.00     0.053 C 
BRANCH   7   8
ATOM      8  C   UNL     1      45.092  45.632  10.339  1.00  0.00     0.041 C 
ATOM      9  O   UNL     1      44.371  45.736  11.366  1.00  0.00    -0.550 OA
ATOM     10  O   UNL     1      44.592  44.997   9.209  1.00  0.00    -0.550 OA
ENDBRANCH   7   8
ENDBRANCH   6   7
ENDBRANCH   5   6
ENDBRANCH   4   5
ENDBRANCH   3   4
ENDBRANCH   2   3
ENDBRANCH   1   2
BRANCH   1  11
ATOM     11  C   UNL     1      43.027  50.002  10.520  1.00  0.00     0.000 C 
BRANCH  11  12
ATOM     12  C   UNL     1      43.160  48.836  11.519  1.00  0.00    -0.000 C 
BRANCH  12  13
ATOM     13  C   UNL     1      42.344  48.986  12.817  1.00  0.00    -0.000 C 
BRANCH  13  14
ATOM     14  C   UNL     1      42.640  50.264  13.623  1.00  0.00    -0.000 C 
BRANCH  14  15
ATOM     15  C   UNL     1      41.876  50.317  14.957  1.00  0.00    -0.000 C 
BRANCH  15  16
ATOM     16  C   UNL     1      40.767  51.384  14.967  1.00  0.00    -0.000 C 
BRANCH  16  17
ATOM     17  C   UNL     1      39.491  50.994  14.201  1.00  0.00    -0.003 C 
ATOM     18  C   UNL     1      39.292  51.805  12.920  1.00  0.00     0.004 C 
ENDBRANCH  16  17
ENDBRANCH  15  16
ENDBRANCH  14  15
ENDBRANCH  13  14
ENDBRANCH  12  13
ENDBRANCH  11  12
ENDBRANCH   1  11
TORSDOF 14
ENDMDL
MODEL 8
REMARK VINA RESULT:    -4.245      3.376      6.225
REMARK INTER + INTRA:         -10.289
REMARK INTER:                  -8.652
REMARK INTRA:                  -1.637
REMARK UNBOUND:                -2.569
REMARK SMILES CCCCCCCCCCCCCCCC(=O)[O-]
REMARK SMILES IDX 9 1 10 2 11 3 12 4 13 5 14 6 15 7 16 8 17 9 18 10 8 11 7 12
REMARK SMILES IDX 6 13 5 14 4 15 3 16 2 17 1 18
REMARK H PARENT
REMARK Flexibility Score: inf
ROOT
ATOM      1  C   UNL     1      46.798  50.941  11.403  1.00  0.00     0.000 C 
ENDROOT
BRANCH   1   2
ATOM      2  C   UNL     1      47.563  50.107  10.361  1.00  0.00     0.000 C 
BRANCH   2   3
ATOM      3  C   UNL     1      47.581  48.608  10.703  1.00  0.00     0.000 C 
BRANCH   3   4
ATOM      4  C   UNL     1      46.734  47.769   9.734  1.00  0.00     0.000 C 
BRANCH   4   5
ATOM      5  C   UNL     1      46.226  46.492  10.416  1.00  0.00     0.000 C 
BRANCH   5   6
ATOM      6  C   UNL     1      44.692  46.422  10.382  1.00  0.00     0.006 C 
BRANCH   6   7
ATOM      7  C   UNL     1      44.100  47.222   9.216  1.00  0.00     0.053 C 
BRANCH   7   8
ATOM      8  C   UNL     1      43.600  46.326   8.125  1.00  0.00     0.041 C 
ATOM      9  O   UNL     1      43.517  46.752   6.943  1.00  0.00    -0.550 OA
ATOM     10  O   UNL     1      43.194  45.031   8.420  1.00  0.00    -0.550 OA
ENDBRANCH   7   8
ENDBRANCH   6   7
ENDBRANCH   5   6
ENDBRANCH   4   5
ENDBRANCH   3   4
ENDBRANCH   2   3
ENDBRANCH   1   2
BRANCH   1  11
ATOM     11  C   UNL     1      45.504  51.556  10.841  1.00  0.00     0.000 C 
BRANCH  11  12
ATOM     12  C   UNL     1      44.283  50.613  10.828  1.00  0.00    -0.000 C 
BRANCH  12  13
ATOM     13  C   UNL     1      44.021  49.860  12.147  1.00  0.00    -0.000 C 
BRANCH  13  14
ATOM     14  C   UNL     1      42.724  49.031  12.171  1.00  0.00    -0.000 C 
BRANCH  14  15
ATOM     15  C   UNL     1      41.613  49.690  13.005  1.00  0.00    -0.000 C 
BRANCH  15  16
ATOM     16  C   UNL     1      42.134  50.299  14.318  1.00  0.00    -0.000 C 
BRANCH  16  17
ATOM     17  C   UNL     1      41.137  51.223  15.040  1.00  0.00    -0.003 C 
ATOM     18  C   UNL     1      39.785  51.315  14.332  1.00  0.00     0.004 C 
ENDBRANCH  16  17
ENDBRANCH  15  16
ENDBRANCH  14  15
ENDBRANCH  13  14
ENDBRANCH  12  13
ENDBRANCH  11  12
ENDBRANCH   1  11
TORSDOF 14
ENDMDL
MODEL 9
REMARK VINA RESULT:    -4.192      1.298      4.026
REMARK INTER + INTRA:         -10.193
REMARK INTER:                  -8.117
REMARK INTRA:                  -2.076
REMARK UNBOUND:                -2.569
REMARK SMILES CCCCCCCCCCCCCCCC(=O)[O-]
REMARK SMILES IDX 9 1 10 2 11 3 12 4 13 5 14 6 15 7 16 8 17 9 18 10 8 11 7 12
REMARK SMILES IDX 6 13 5 14 4 15 3 16 2 17 1 18
REMARK H PARENT
REMARK Flexibility Score: inf
ROOT
ATOM      1  C   UNL     1      47.211  49.763   9.731  1.00  0.00     0.000 C 
ENDROOT
BRANCH   1   2
ATOM      2  C   UNL     1      46.529  50.892  10.523  1.00  0.00     0.000 C 
BRANCH   2   3
ATOM      3  C   UNL     1      45.542  50.362  11.576  1.00  0.00     0.000 C 
BRANCH   3   4
ATOM      4  C   UNL     1      44.076  50.625  11.201  1.00  0.00     0.000 C 
BRANCH   4   5
ATOM      5  C   UNL     1      43.130  49.780  12.064  1.00  0.00     0.000 C 
BRANCH   5   6
ATOM      6  C   UNL     1      41.673  49.941  11.603  1.00  0.00     0.006 C 
BRANCH   6   7
ATOM      7  C   UNL     1      40.673  49.470  12.665  1.00  0.00     0.053 C 
BRANCH   7   8
ATOM      8  C   UNL     1      40.237  50.593  13.555  1.00  0.00     0.041 C 
ATOM      9  O   UNL     1      39.143  51.180  13.347  1.00  0.00    -0.550 OA
ATOM     10  O   UNL     1      41.057  51.015  14.595  1.00  0.00    -0.550 OA
ENDBRANCH   7   8
ENDBRANCH   6   7
ENDBRANCH   5   6
ENDBRANCH   4   5
ENDBRANCH   3   4
ENDBRANCH   2   3
ENDBRANCH   1   2
BRANCH   1  11
ATOM     11  C   UNL     1      47.660  48.594  10.627  1.00  0.00     0.000 C 
BRANCH  11  12
ATOM     12  C   UNL     1      46.990  47.240  10.319  1.00  0.00    -0.000 C 
BRANCH  12  13
ATOM     13  C   UNL     1      45.961  47.261   9.172  1.00  0.00    -0.000 C 
BRANCH  13  14
ATOM     14  C   UNL     1      44.490  47.204   9.623  1.00  0.00    -0.000 C 
BRANCH  14  15
ATOM     15  C   UNL     1      43.551  47.982   8.686  1.00  0.00    -0.000 C 
BRANCH  15  16
ATOM     16  C   UNL     1      42.080  47.551   8.823  1.00  0.00    -0.000 C 
BRANCH  16  17
ATOM     17  C   UNL     1      41.798  46.586   9.988  1.00  0.00    -0.003 C 
ATOM     18  C   UNL     1      40.315  46.249  10.140  1.00  0.00     0.004 C 
ENDBRANCH  16  17
ENDBRANCH  15  16
ENDBRANCH  14  15
ENDBRANCH  13  14
ENDBRANCH  12  13
ENDBRANCH  11  12
ENDBRANCH   1  11
TORSDOF 14
ENDMDL
