MODEL 1
REMARK VINA RESULT:    -3.298      0.000      0.000
REMARK INTER + INTRA:          -6.807
REMARK INTER:                  -5.611
REMARK INTRA:                  -1.196
REMARK UNBOUND:                -1.196
REMARK SMILES CCCCCCCCCCCCCC(=O)[O-]
REMARK SMILES IDX 8 1 9 2 10 3 11 4 12 5 13 6 14 7 15 8 16 9 7 10 6 11 5 12
REMARK SMILES IDX 4 13 3 14 2 15 1 16
REMARK H PARENT
REMARK Flexibility Score: inf
ROOT
ATOM      1  C   UNL     1     -15.709   9.761   6.641  1.00  0.00     0.000 C 
ENDROOT
BRANCH   1   2
ATOM      2  C   UNL     1     -14.838   9.664   7.902  1.00  0.00     0.000 C 
BRANCH   2   3
ATOM      3  C   UNL     1     -15.651   9.129   9.090  1.00  0.00     0.000 C 
BRANCH   3   4
ATOM      4  C   UNL     1     -16.554  10.201   9.719  1.00  0.00     0.000 C 
BRANCH   4   5
ATOM      5  C   UNL     1     -16.217  10.470  11.196  1.00  0.00     0.006 C 
BRANCH   5   6
ATOM      6  C   UNL     1     -14.729  10.251  11.501  1.00  0.00     0.053 C 
BRANCH   6   7
ATOM      7  C   UNL     1     -14.287  11.036  12.697  1.00  0.00     0.041 C 
ATOM      8  O   UNL     1     -13.076  11.034  13.043  1.00  0.00    -0.550 OA
ATOM      9  O   UNL     1     -15.205  11.797  13.408  1.00  0.00    -0.550 OA
ENDBRANCH   6   7
ENDBRANCH   5   6
ENDBRANCH   4   5
ENDBRANCH   3   4
ENDBRANCH   2   3
ENDBRANCH   1   2
BRANCH   1  10
ATOM     10  C   UNL     1     -15.533  11.095   5.893  1.00  0.00     0.000 C 
BRANCH  10  11
ATOM     11  C   UNL     1     -15.248  10.963   4.383  1.00  0.00    -0.000 C 
BRANCH  11  12
ATOM     12  C   UNL     1     -14.555   9.652   3.962  1.00  0.00    -0.000 C 
BRANCH  12  13
ATOM     13  C   UNL     1     -13.057   9.786   3.621  1.00  0.00    -0.000 C 
BRANCH  13  14
ATOM     14  C   UNL     1     -12.100   9.150   4.645  1.00  0.00    -0.000 C 
BRANCH  14  15
ATOM     15  C   UNL     1     -11.933  10.000   5.914  1.00  0.00    -0.003 C 
ATOM     16  C   UNL     1     -11.671  11.462   5.565  1.00  0.00     0.004 C 
ENDBRANCH  14  15
ENDBRANCH  13  14
ENDBRANCH  12  13
ENDBRANCH  11  12
ENDBRANCH  10  11
ENDBRANCH   1  10
TORSDOF 12
ENDMDL
MODEL 2
REMARK VINA RESULT:    -3.197     13.017     14.620
REMARK INTER + INTRA:          -6.635
REMARK INTER:                  -4.982
REMARK INTRA:                  -1.653
REMARK UNBOUND:                -1.196
REMARK SMILES CCCCCCCCCCCCCC(=O)[O-]
REMARK SMILES IDX 8 1 9 2 10 3 11 4 12 5 13 6 14 7 15 8 16 9 7 10 6 11 5 12
REMARK SMILES IDX 4 13 3 14 2 15 1 16
REMARK H PARENT
REMARK Flexibility Score: inf
ROOT
ATOM      1  C   UNL     1      -2.665  12.753  10.767  1.00  0.00     0.000 C 
ENDROOT
BRANCH   1   2
ATOM      2  C   UNL     1      -1.878  13.905  10.128  1.00  0.00     0.000 C 
BRANCH   2   3
ATOM      3  C   UNL     1      -0.567  14.161  10.888  1.00  0.00     0.000 C 
BRANCH   3   4
ATOM      4  C   UNL     1      -0.200  15.652  10.947  1.00  0.00     0.000 C 
BRANCH   4   5
ATOM      5  C   UNL     1      -0.239  16.218  12.377  1.00  0.00     0.006 C 
BRANCH   5   6
ATOM      6  C   UNL     1      -1.658  16.618  12.804  1.00  0.00     0.053 C 
BRANCH   6   7
ATOM      7  C   UNL     1      -1.839  18.104  12.805  1.00  0.00     0.041 C 
ATOM      8  O   UNL     1      -2.990  18.603  12.698  1.00  0.00    -0.550 OA
ATOM      9  O   UNL     1      -0.739  18.939  12.958  1.00  0.00    -0.550 OA
ENDBRANCH   6   7
ENDBRANCH   5   6
ENDBRANCH   4   5
ENDBRANCH   3   4
ENDBRANCH   2   3
ENDBRANCH   1   2
BRANCH   1  10
ATOM     10  C   UNL     1      -2.276  12.502  12.235  1.00  0.00     0.000 C 
BRANCH  10  11
ATOM     11  C   UNL     1      -1.966  11.032  12.586  1.00  0.00    -0.000 C 
BRANCH  11  12
ATOM     12  C   UNL     1      -1.569  10.146  11.389  1.00  0.00    -0.000 C 
BRANCH  12  13
ATOM     13  C   UNL     1      -0.059  10.109  11.079  1.00  0.00    -0.000 C 
BRANCH  13  14
ATOM     14  C   UNL     1       0.337  10.699   9.713  1.00  0.00    -0.000 C 
BRANCH  14  15
ATOM     15  C   UNL     1      -0.684  10.385   8.609  1.00  0.00    -0.003 C 
ATOM     16  C   UNL     1      -0.727  11.500   7.569  1.00  0.00     0.004 C 
ENDBRANCH  14  15
ENDBRANCH  13  14
ENDBRANCH  12  13
ENDBRANCH  11  12
ENDBRANCH  10  11
ENDBRANCH   1  10
TORSDOF 12
ENDMDL
MODEL 3
REMARK VINA RESULT:    -3.073      1.922      3.545
REMARK INTER + INTRA:          -6.424
REMARK INTER:                  -5.532
REMARK INTRA:                  -0.892
REMARK UNBOUND:                -1.196
REMARK SMILES CCCCCCCCCCCCCC(=O)[O-]
REMARK SMILES IDX 8 1 9 2 10 3 11 4 12 5 13 6 14 7 15 8 16 9 7 10 6 11 5 12
REMARK SMILES IDX 4 13 3 14 2 15 1 16
REMARK H PARENT
REMARK Flexibility Score: inf
ROOT
ATOM      1  C   UNL     1     -13.495   9.224   9.768  1.00  0.00     0.000 C 
ENDROOT
BRANCH   1   2
ATOM      2  C   UNL     1     -14.371   9.906  10.828  1.00  0.00     0.000 C 
BRANCH   2   3
ATOM      3  C   UNL     1     -13.527  10.366  12.026  1.00  0.00     0.000 C 
BRANCH   3   4
ATOM      4  C   UNL     1     -14.379  10.969  13.154  1.00  0.00     0.000 C 
BRANCH   4   5
ATOM      5  C   UNL     1     -15.728  10.249  13.327  1.00  0.00     0.006 C 
BRANCH   5   6
ATOM      6  C   UNL     1     -16.869  11.225  13.645  1.00  0.00     0.053 C 
BRANCH   6   7
ATOM      7  C   UNL     1     -17.179  12.114  12.481  1.00  0.00     0.041 C 
ATOM      8  O   UNL     1     -17.208  13.365  12.628  1.00  0.00    -0.550 OA
ATOM      9  O   UNL     1     -17.400  11.565  11.224  1.00  0.00    -0.550 OA
ENDBRANCH   6   7
ENDBRANCH   5   6
ENDBRANCH   4   5
ENDBRANCH   3   4
ENDBRANCH   2   3
ENDBRANCH   1   2
BRANCH   1  10
ATOM     10  C   UNL     1     -14.041   9.394   8.339  1.00  0.00     0.000 C 
BRANCH  10  11
ATOM     11  C   UNL     1     -13.110   8.885   7.220  1.00  0.00    -0.000 C 
BRANCH  11  12
ATOM     12  C   UNL     1     -12.371   9.986   6.435  1.00  0.00    -0.000 C 
BRANCH  12  13
ATOM     13  C   UNL     1     -13.276  11.090   5.852  1.00  0.00    -0.000 C 
BRANCH  13  14
ATOM     14  C   UNL     1     -13.888  10.767   4.477  1.00  0.00    -0.000 C 
BRANCH  14  15
ATOM     15  C   UNL     1     -15.382  11.113   4.393  1.00  0.00    -0.003 C 
ATOM     16  C   UNL     1     -16.178  10.371   5.463  1.00  0.00     0.004 C 
ENDBRANCH  14  15
ENDBRANCH  13  14
ENDBRANCH  12  13
ENDBRANCH  11  12
ENDBRANCH  10  11
ENDBRANCH   1  10
TORSDOF 12
ENDMDL
MODEL 4
REMARK VINA RESULT:    -3.061      3.429      6.686
REMARK INTER + INTRA:          -6.405
REMARK INTER:                  -5.261
REMARK INTRA:                  -1.144
REMARK UNBOUND:                -1.196
REMARK SMILES CCCCCCCCCCCCCC(=O)[O-]
REMARK SMILES IDX 8 1 9 2 10 3 11 4 12 5 13 6 14 7 15 8 16 9 7 10 6 11 5 12
REMARK SMILES IDX 4 13 3 14 2 15 1 16
REMARK H PARENT
REMARK Flexibility Score: inf
ROOT
ATOM      1  C   UNL     1     -15.883  10.429   7.409  1.00  0.00     0.000 C 
ENDROOT
BRANCH   1   2
ATOM      2  C   UNL     1     -14.996   9.191   7.597  1.00  0.00     0.000 C 
BRANCH   2   3
ATOM      3  C   UNL     1     -13.535   9.595   7.846  1.00  0.00     0.000 C 
BRANCH   3   4
ATOM      4  C   UNL     1     -12.619   9.261   6.659  1.00  0.00     0.000 C 
BRANCH   4   5
ATOM      5  C   UNL     1     -12.130  10.516   5.915  1.00  0.00     0.006 C 
BRANCH   5   6
ATOM      6  C   UNL     1     -12.440  10.457   4.413  1.00  0.00     0.053 C 
BRANCH   6   7
ATOM      7  C   UNL     1     -13.908  10.316   4.155  1.00  0.00     0.041 C 
ATOM      8  O   UNL     1     -14.692  11.267   4.418  1.00  0.00    -0.550 OA
ATOM      9  O   UNL     1     -14.407   9.149   3.592  1.00  0.00    -0.550 OA
ENDBRANCH   6   7
ENDBRANCH   5   6
ENDBRANCH   4   5
ENDBRANCH   3   4
ENDBRANCH   2   3
ENDBRANCH   1   2
BRANCH   1  10
ATOM     10  C   UNL     1     -17.248  10.300   8.108  1.00  0.00     0.000 C 
BRANCH  10  11
ATOM     11  C   UNL     1     -17.372   9.111   9.083  1.00  0.00    -0.000 C 
BRANCH  11  12
ATOM     12  C   UNL     1     -17.378   9.490  10.577  1.00  0.00    -0.000 C 
BRANCH  12  13
ATOM     13  C   UNL     1     -16.490  10.694  10.947  1.00  0.00    -0.000 C 
BRANCH  13  14
ATOM     14  C   UNL     1     -15.079  10.331  11.446  1.00  0.00    -0.000 C 
BRANCH  14  15
ATOM     15  C   UNL     1     -14.689  11.080  12.729  1.00  0.00    -0.003 C 
ATOM     16  C   UNL     1     -13.209  10.887  13.049  1.00  0.00     0.004 C 
ENDBRANCH  14  15
ENDBRANCH  13  14
ENDBRANCH  12  13
ENDBRANCH  11  12
ENDBRANCH  10  11
ENDBRANCH   1  10
TORSDOF 12
ENDMDL
MODEL 5
REMARK VINA RESULT:    -3.052     12.889     15.173
REMARK INTER + INTRA:          -6.389
REMARK INTER:                  -5.628
REMARK INTRA:                  -0.761
REMARK UNBOUND:                -1.196
REMARK SMILES CCCCCCCCCCCCCC(=O)[O-]
REMARK SMILES IDX 8 1 9 2 10 3 11 4 12 5 13 6 14 7 15 8 16 9 7 10 6 11 5 12
REMARK SMILES IDX 4 13 3 14 2 15 1 16
REMARK H PARENT
REMARK Flexibility Score: inf
ROOT
ATOM      1  C   UNL     1      -2.260  13.399  10.361  1.00  0.00     0.000 C 
ENDROOT
BRANCH   1   2
ATOM      2  C   UNL     1      -2.998  12.249  11.059  1.00  0.00     0.000 C 
BRANCH   2   3
ATOM      3  C   UNL     1      -2.023  11.130  11.455  1.00  0.00     0.000 C 
BRANCH   3   4
ATOM      4  C   UNL     1      -2.143   9.894  10.549  1.00  0.00     0.000 C 
BRANCH   4   5
ATOM      5  C   UNL     1      -0.796   9.476   9.933  1.00  0.00     0.006 C 
BRANCH   5   6
ATOM      6  C   UNL     1      -0.770   9.671   8.411  1.00  0.00     0.053 C 
BRANCH   6   7
ATOM      7  C   UNL     1      -0.270  11.032   8.035  1.00  0.00     0.041 C 
ATOM      8  O   UNL     1      -1.031  11.849   7.453  1.00  0.00    -0.550 OA
ATOM      9  O   UNL     1       1.027  11.411   8.359  1.00  0.00    -0.550 OA
ENDBRANCH   6   7
ENDBRANCH   5   6
ENDBRANCH   4   5
ENDBRANCH   3   4
ENDBRANCH   2   3
ENDBRANCH   1   2
BRANCH   1  10
ATOM     10  C   UNL     1      -1.238  14.097  11.277  1.00  0.00     0.000 C 
BRANCH  10  11
ATOM     11  C   UNL     1      -0.879  15.542  10.872  1.00  0.00    -0.000 C 
BRANCH  11  12
ATOM     12  C   UNL     1       0.028  16.292  11.866  1.00  0.00    -0.000 C 
BRANCH  12  13
ATOM     13  C   UNL     1      -0.680  16.801  13.138  1.00  0.00    -0.000 C 
BRANCH  13  14
ATOM     14  C   UNL     1      -1.155  18.263  13.075  1.00  0.00    -0.000 C 
BRANCH  14  15
ATOM     15  C   UNL     1      -2.599  18.400  12.568  1.00  0.00    -0.003 C 
ATOM     16  C   UNL     1      -3.548  18.766  13.706  1.00  0.00     0.004 C 
ENDBRANCH  14  15
ENDBRANCH  13  14
ENDBRANCH  12  13
ENDBRANCH  11  12
ENDBRANCH  10  11
ENDBRANCH   1  10
TORSDOF 12
ENDMDL
MODEL 6
REMARK VINA RESULT:    -2.988      4.708      6.931
REMARK INTER + INTRA:          -6.279
REMARK INTER:                  -5.477
REMARK INTRA:                  -0.802
REMARK UNBOUND:                -1.196
REMARK SMILES CCCCCCCCCCCCCC(=O)[O-]
REMARK SMILES IDX 8 1 9 2 10 3 11 4 12 5 13 6 14 7 15 8 16 9 7 10 6 11 5 12
REMARK SMILES IDX 4 13 3 14 2 15 1 16
REMARK H PARENT
REMARK Flexibility Score: inf
ROOT
ATOM      1  C   UNL     1     -17.238  10.480   2.170  1.00  0.00     0.000 C 
ENDROOT
BRANCH   1   2
ATOM      2  C   UNL     1     -16.664   9.440   3.142  1.00  0.00     0.000 C 
BRANCH   2   3
ATOM      3  C   UNL     1     -15.355   9.941   3.772  1.00  0.00     0.000 C 
BRANCH   3   4
ATOM      4  C   UNL     1     -14.180   8.978   3.538  1.00  0.00     0.000 C 
BRANCH   4   5
ATOM      5  C   UNL     1     -12.821   9.698   3.500  1.00  0.00     0.006 C 
BRANCH   5   6
ATOM      6  C   UNL     1     -11.952   9.360   4.719  1.00  0.00     0.053 C 
BRANCH   6   7
ATOM      7  C   UNL     1     -12.120  10.366   5.816  1.00  0.00     0.041 C 
ATOM      8  O   UNL     1     -12.704  10.046   6.885  1.00  0.00    -0.550 OA
ATOM      9  O   UNL     1     -11.602  11.647   5.671  1.00  0.00    -0.550 OA
ENDBRANCH   6   7
ENDBRANCH   5   6
ENDBRANCH   4   5
ENDBRANCH   3   4
ENDBRANCH   2   3
ENDBRANCH   1   2
BRANCH   1  10
ATOM     10  C   UNL     1     -17.259   9.990   0.711  1.00  0.00     0.000 C 
BRANCH  10  11
ATOM     11  C   UNL     1     -16.002   9.216   0.265  1.00  0.00    -0.000 C 
BRANCH  11  12
ATOM     12  C   UNL     1     -15.518   9.527  -1.165  1.00  0.00    -0.000 C 
BRANCH  12  13
ATOM     13  C   UNL     1     -15.783  10.969  -1.644  1.00  0.00    -0.000 C 
BRANCH  13  14
ATOM     14  C   UNL     1     -14.807  11.486  -2.716  1.00  0.00    -0.000 C 
BRANCH  14  15
ATOM     15  C   UNL     1     -13.448  10.770  -2.681  1.00  0.00    -0.003 C 
ATOM     16  C   UNL     1     -12.988  10.396  -4.087  1.00  0.00     0.004 C 
ENDBRANCH  14  15
ENDBRANCH  13  14
ENDBRANCH  12  13
ENDBRANCH  11  12
ENDBRANCH  10  11
ENDBRANCH   1  10
TORSDOF 12
ENDMDL
MODEL 7
REMARK VINA RESULT:    -2.978      1.422      2.864
REMARK INTER + INTRA:          -6.263
REMARK INTER:                  -5.223
REMARK INTRA:                  -1.039
REMARK UNBOUND:                -1.196
REMARK SMILES CCCCCCCCCCCCCC(=O)[O-]
REMARK SMILES IDX 8 1 9 2 10 3 11 4 12 5 13 6 14 7 15 8 16 9 7 10 6 11 5 12
REMARK SMILES IDX 4 13 3 14 2 15 1 16
REMARK H PARENT
REMARK Flexibility Score: inf
ROOT
ATOM      1  C   UNL     1     -13.855   9.301   8.044  1.00  0.00     0.000 C 
ENDROOT
BRANCH   1   2
ATOM      2  C   UNL     1     -13.334   9.110   9.476  1.00  0.00     0.000 C 
BRANCH   2   3
ATOM      3  C   UNL     1     -14.329   9.673  10.502  1.00  0.00     0.000 C 
BRANCH   3   4
ATOM      4  C   UNL     1     -15.776   9.667   9.985  1.00  0.00     0.000 C 
BRANCH   4   5
ATOM      5  C   UNL     1     -16.806   9.914  11.102  1.00  0.00     0.006 C 
BRANCH   5   6
ATOM      6  C   UNL     1     -17.216  11.390  11.196  1.00  0.00     0.053 C 
BRANCH   6   7
ATOM      7  C   UNL     1     -16.958  11.951  12.560  1.00  0.00     0.041 C 
ATOM      8  O   UNL     1     -17.900  12.455  13.227  1.00  0.00    -0.550 OA
ATOM      9  O   UNL     1     -15.683  11.888  13.109  1.00  0.00    -0.550 OA
ENDBRANCH   6   7
ENDBRANCH   5   6
ENDBRANCH   4   5
ENDBRANCH   3   4
ENDBRANCH   2   3
ENDBRANCH   1   2
BRANCH   1  10
ATOM     10  C   UNL     1     -12.763   9.099   6.978  1.00  0.00     0.000 C 
BRANCH  10  11
ATOM     11  C   UNL     1     -12.287  10.389   6.280  1.00  0.00    -0.000 C 
BRANCH  11  12
ATOM     12  C   UNL     1     -11.981  10.243   4.776  1.00  0.00    -0.000 C 
BRANCH  12  13
ATOM     13  C   UNL     1     -12.591   8.996   4.105  1.00  0.00    -0.000 C 
BRANCH  13  14
ATOM     14  C   UNL     1     -13.905   9.247   3.344  1.00  0.00    -0.000 C 
BRANCH  14  15
ATOM     15  C   UNL     1     -15.150   8.875   4.164  1.00  0.00    -0.003 C 
ATOM     16  C   UNL     1     -15.833  10.121   4.721  1.00  0.00     0.004 C 
ENDBRANCH  14  15
ENDBRANCH  13  14
ENDBRANCH  12  13
ENDBRANCH  11  12
ENDBRANCH  10  11
ENDBRANCH   1  10
TORSDOF 12
ENDMDL
MODEL 8
REMARK VINA RESULT:    -2.949     11.474     13.375
REMARK INTER + INTRA:          -6.214
REMARK INTER:                  -4.523
REMARK INTRA:                  -1.691
REMARK UNBOUND:                -1.196
REMARK SMILES CCCCCCCCCCCCCC(=O)[O-]
REMARK SMILES IDX 8 1 9 2 10 3 11 4 12 5 13 6 14 7 15 8 16 9 7 10 6 11 5 12
REMARK SMILES IDX 4 13 3 14 2 15 1 16
REMARK H PARENT
REMARK Flexibility Score: inf
ROOT
ATOM      1  C   UNL     1      -4.874  10.615  11.755  1.00  0.00     0.000 C 
ENDROOT
BRANCH   1   2
ATOM      2  C   UNL     1      -3.957  11.803  12.076  1.00  0.00     0.000 C 
BRANCH   2   3
ATOM      3  C   UNL     1      -3.397  11.695  13.503  1.00  0.00     0.000 C 
BRANCH   3   4
ATOM      4  C   UNL     1      -1.975  12.263  13.624  1.00  0.00     0.000 C 
BRANCH   4   5
ATOM      5  C   UNL     1      -1.853  13.687  13.054  1.00  0.00     0.006 C 
BRANCH   5   6
ATOM      6  C   UNL     1      -0.867  13.759  11.880  1.00  0.00     0.053 C 
BRANCH   6   7
ATOM      7  C   UNL     1      -1.410  14.579  10.750  1.00  0.00     0.041 C 
ATOM      8  O   UNL     1      -2.191  14.061   9.909  1.00  0.00    -0.550 OA
ATOM      9  O   UNL     1      -1.081  15.924  10.646  1.00  0.00    -0.550 OA
ENDBRANCH   6   7
ENDBRANCH   5   6
ENDBRANCH   4   5
ENDBRANCH   3   4
ENDBRANCH   2   3
ENDBRANCH   1   2
BRANCH   1  10
ATOM     10  C   UNL     1      -4.210   9.254  12.033  1.00  0.00     0.000 C 
BRANCH  10  11
ATOM     11  C   UNL     1      -3.069   8.875  11.067  1.00  0.00    -0.000 C 
BRANCH  11  12
ATOM     12  C   UNL     1      -1.650   8.980  11.661  1.00  0.00    -0.000 C 
BRANCH  12  13
ATOM     13  C   UNL     1      -0.677   9.876  10.869  1.00  0.00    -0.000 C 
BRANCH  13  14
ATOM     14  C   UNL     1      -1.316  10.663   9.711  1.00  0.00    -0.000 C 
BRANCH  14  15
ATOM     15  C   UNL     1      -0.536  10.526   8.395  1.00  0.00    -0.003 C 
ATOM     16  C   UNL     1      -0.824  11.698   7.461  1.00  0.00     0.004 C 
ENDBRANCH  14  15
ENDBRANCH  13  14
ENDBRANCH  12  13
ENDBRANCH  11  12
ENDBRANCH  10  11
ENDBRANCH   1  10
TORSDOF 12
ENDMDL
MODEL 9
REMARK VINA RESULT:    -2.922      3.203      6.346
REMARK INTER + INTRA:          -6.167
REMARK INTER:                  -5.116
REMARK INTRA:                  -1.051
REMARK UNBOUND:                -1.196
REMARK SMILES CCCCCCCCCCCCCC(=O)[O-]
REMARK SMILES IDX 8 1 9 2 10 3 11 4 12 5 13 6 14 7 15 8 16 9 7 10 6 11 5 12
REMARK SMILES IDX 4 13 3 14 2 15 1 16
REMARK H PARENT
REMARK Flexibility Score: inf
ROOT
ATOM      1  C   UNL     1     -16.099  10.381   8.091  1.00  0.00     0.000 C 
ENDROOT
BRANCH   1   2
ATOM      2  C   UNL     1     -17.051  10.349   6.887  1.00  0.00     0.000 C 
BRANCH   2   3
ATOM      3  C   UNL     1     -16.509   9.429   5.782  1.00  0.00     0.000 C 
BRANCH   3   4
ATOM      4  C   UNL     1     -15.902  10.212   4.607  1.00  0.00     0.000 C 
BRANCH   4   5
ATOM      5  C   UNL     1     -14.379  10.024   4.491  1.00  0.00     0.006 C 
BRANCH   5   6
ATOM      6  C   UNL     1     -13.602  11.104   5.257  1.00  0.00     0.053 C 
BRANCH   6   7
ATOM      7  C   UNL     1     -12.128  10.844   5.237  1.00  0.00     0.041 C 
ATOM      8  O   UNL     1     -11.689   9.699   4.949  1.00  0.00    -0.550 OA
ATOM      9  O   UNL     1     -11.236  11.875   5.504  1.00  0.00    -0.550 OA
ENDBRANCH   6   7
ENDBRANCH   5   6
ENDBRANCH   4   5
ENDBRANCH   3   4
ENDBRANCH   2   3
ENDBRANCH   1   2
BRANCH   1  10
ATOM     10  C   UNL     1     -15.394   9.034   8.333  1.00  0.00     0.000 C 
BRANCH  10  11
ATOM     11  C   UNL     1     -13.853   9.096   8.335  1.00  0.00    -0.000 C 
BRANCH  11  12
ATOM     12  C   UNL     1     -13.194   8.900   9.715  1.00  0.00    -0.000 C 
BRANCH  12  13
ATOM     13  C   UNL     1     -13.907   9.610  10.883  1.00  0.00    -0.000 C 
BRANCH  13  14
ATOM     14  C   UNL     1     -13.125   9.621  12.209  1.00  0.00    -0.000 C 
BRANCH  14  15
ATOM     15  C   UNL     1     -13.484  10.817  13.104  1.00  0.00    -0.003 C 
ATOM     16  C   UNL     1     -14.967  11.158  12.997  1.00  0.00     0.004 C 
ENDBRANCH  14  15
ENDBRANCH  13  14
ENDBRANCH  12  13
ENDBRANCH  11  12
ENDBRANCH  10  11
ENDBRANCH   1  10
TORSDOF 12
ENDMDL
