MODEL 1
REMARK VINA RESULT:    -4.194      0.000      0.000
REMARK INTER + INTRA:         -11.214
REMARK INTER:                  -9.097
REMARK INTRA:                  -2.117
REMARK UNBOUND:                -2.117
REMARK SMILES CCCCCCCCCCCCCCCCCCCCCC(=O)[O-]
REMARK SMILES IDX 12 1 11 2 10 3 9 4 8 5 7 6 6 7 5 8 4 9 3 10 2 11 1 12 13 13
REMARK SMILES IDX 14 14 15 15 16 16 17 17 18 18 19 19 20 20 21 21 22 22 23 23
REMARK SMILES IDX 24 24
REMARK H PARENT
REMARK Flexibility Score: inf
ROOT
ATOM      1  C   UNL     1      -0.189   6.814 -53.010  1.00  0.00     0.000 C 
ENDROOT
BRANCH   1   2
ATOM      2  C   UNL     1       0.474   6.732 -54.396  1.00  0.00     0.000 C 
BRANCH   2   3
ATOM      3  C   UNL     1      -0.046   5.551 -55.231  1.00  0.00     0.000 C 
BRANCH   3   4
ATOM      4  C   UNL     1      -0.466   5.967 -56.652  1.00  0.00    -0.000 C 
BRANCH   4   5
ATOM      5  C   UNL     1      -1.894   5.495 -56.998  1.00  0.00    -0.000 C 
BRANCH   5   6
ATOM      6  C   UNL     1      -2.987   6.167 -56.149  1.00  0.00    -0.000 C 
BRANCH   6   7
ATOM      7  C   UNL     1      -2.758   7.676 -55.962  1.00  0.00    -0.000 C 
BRANCH   7   8
ATOM      8  C   UNL     1      -3.911   8.521 -56.547  1.00  0.00    -0.000 C 
BRANCH   8   9
ATOM      9  C   UNL     1      -3.494   9.385 -57.751  1.00  0.00    -0.000 C 
BRANCH   9  10
ATOM     10  C   UNL     1      -4.286   9.120 -59.045  1.00  0.00    -0.000 C 
BRANCH  10  11
ATOM     11  C   UNL     1      -4.953   7.734 -59.121  1.00  0.00    -0.003 C 
ATOM     12  C   UNL     1      -4.082   6.689 -59.815  1.00  0.00     0.004 C 
ENDBRANCH  10  11
ENDBRANCH   9  10
ENDBRANCH   8   9
ENDBRANCH   7   8
ENDBRANCH   6   7
ENDBRANCH   5   6
ENDBRANCH   4   5
ENDBRANCH   3   4
ENDBRANCH   2   3
ENDBRANCH   1   2
BRANCH   1  13
ATOM     13  C   UNL     1      -1.470   5.969 -52.917  1.00  0.00     0.000 C 
BRANCH  13  14
ATOM     14  C   UNL     1      -1.580   5.196 -51.594  1.00  0.00     0.000 C 
BRANCH  14  15
ATOM     15  C   UNL     1      -0.364   5.470 -50.697  1.00  0.00     0.000 C 
BRANCH  15  16
ATOM     16  C   UNL     1      -0.548   4.942 -49.263  1.00  0.00     0.000 C 
BRANCH  16  17
ATOM     17  C   UNL     1      -0.668   6.030 -48.177  1.00  0.00     0.000 C 
BRANCH  17  18
ATOM     18  C   UNL     1      -2.005   6.054 -47.416  1.00  0.00     0.000 C 
BRANCH  18  19
ATOM     19  C   UNL     1      -3.224   6.075 -48.355  1.00  0.00     0.000 C 
BRANCH  19  20
ATOM     20  C   UNL     1      -4.561   5.972 -47.598  1.00  0.00     0.006 C 
BRANCH  20  21
ATOM     21  C   UNL     1      -5.673   6.878 -48.150  1.00  0.00     0.053 C 
BRANCH  21  22
ATOM     22  C   UNL     1      -5.539   8.288 -47.665  1.00  0.00     0.041 C 
ATOM     23  O   UNL     1      -5.109   8.521 -46.504  1.00  0.00    -0.550 OA
ATOM     24  O   UNL     1      -5.930   9.344 -48.478  1.00  0.00    -0.550 OA
ENDBRANCH  21  22
ENDBRANCH  20  21
ENDBRANCH  19  20
ENDBRANCH  18  19
ENDBRANCH  17  18
ENDBRANCH  16  17
ENDBRANCH  15  16
ENDBRANCH  14  15
ENDBRANCH  13  14
ENDBRANCH   1  13
TORSDOF 20
ENDMDL
MODEL 2
REMARK VINA RESULT:    -4.094      1.359      2.333
REMARK INTER + INTRA:         -10.998
REMARK INTER:                  -9.191
REMARK INTRA:                  -1.807
REMARK UNBOUND:                -2.117
REMARK SMILES CCCCCCCCCCCCCCCCCCCCCC(=O)[O-]
REMARK SMILES IDX 12 1 11 2 10 3 9 4 8 5 7 6 6 7 5 8 4 9 3 10 2 11 1 12 13 13
REMARK SMILES IDX 14 14 15 15 16 16 17 17 18 18 19 19 20 20 21 21 22 22 23 23
REMARK SMILES IDX 24 24
REMARK H PARENT
REMARK Flexibility Score: inf
ROOT
ATOM      1  C   UNL     1      -0.431   6.326 -55.517  1.00  0.00     0.000 C 
ENDROOT
BRANCH   1   2
ATOM      2  C   UNL     1      -0.011   5.086 -56.324  1.00  0.00     0.000 C 
BRANCH   2   3
ATOM      3  C   UNL     1      -0.409   5.182 -57.806  1.00  0.00     0.000 C 
BRANCH   3   4
ATOM      4  C   UNL     1      -1.260   6.426 -58.113  1.00  0.00    -0.000 C 
BRANCH   4   5
ATOM      5  C   UNL     1      -1.867   6.379 -59.532  1.00  0.00    -0.000 C 
BRANCH   5   6
ATOM      6  C   UNL     1      -3.288   5.791 -59.576  1.00  0.00    -0.000 C 
BRANCH   6   7
ATOM      7  C   UNL     1      -3.910   5.624 -58.180  1.00  0.00    -0.000 C 
BRANCH   7   8
ATOM      8  C   UNL     1      -5.357   6.160 -58.115  1.00  0.00    -0.000 C 
BRANCH   8   9
ATOM      9  C   UNL     1      -5.487   7.501 -57.369  1.00  0.00    -0.000 C 
BRANCH   9  10
ATOM     10  C   UNL     1      -4.214   7.962 -56.637  1.00  0.00    -0.000 C 
BRANCH  10  11
ATOM     11  C   UNL     1      -3.523   9.193 -57.254  1.00  0.00    -0.003 C 
ATOM     12  C   UNL     1      -3.951   9.456 -58.697  1.00  0.00     0.004 C 
ENDBRANCH  10  11
ENDBRANCH   9  10
ENDBRANCH   8   9
ENDBRANCH   7   8
ENDBRANCH   6   7
ENDBRANCH   5   6
ENDBRANCH   4   5
ENDBRANCH   3   4
ENDBRANCH   2   3
ENDBRANCH   1   2
BRANCH   1  13
ATOM     13  C   UNL     1       0.195   6.357 -54.112  1.00  0.00     0.000 C 
BRANCH  13  14
ATOM     14  C   UNL     1      -0.188   5.135 -53.263  1.00  0.00     0.000 C 
BRANCH  14  15
ATOM     15  C   UNL     1      -0.919   5.564 -51.983  1.00  0.00     0.000 C 
BRANCH  15  16
ATOM     16  C   UNL     1      -0.279   4.985 -50.708  1.00  0.00     0.000 C 
BRANCH  16  17
ATOM     17  C   UNL     1      -0.646   5.719 -49.402  1.00  0.00     0.000 C 
BRANCH  17  18
ATOM     18  C   UNL     1      -1.762   5.062 -48.571  1.00  0.00     0.000 C 
BRANCH  18  19
ATOM     19  C   UNL     1      -3.152   5.649 -48.874  1.00  0.00     0.000 C 
BRANCH  19  20
ATOM     20  C   UNL     1      -3.645   6.609 -47.774  1.00  0.00     0.006 C 
BRANCH  20  21
ATOM     21  C   UNL     1      -5.084   6.347 -47.303  1.00  0.00     0.053 C 
BRANCH  21  22
ATOM     22  C   UNL     1      -6.087   7.097 -48.124  1.00  0.00     0.041 C 
ATOM     23  O   UNL     1      -5.939   8.329 -48.336  1.00  0.00    -0.550 OA
ATOM     24  O   UNL     1      -7.209   6.445 -48.619  1.00  0.00    -0.550 OA
ENDBRANCH  21  22
ENDBRANCH  20  21
ENDBRANCH  19  20
ENDBRANCH  18  19
ENDBRANCH  17  18
ENDBRANCH  16  17
ENDBRANCH  15  16
ENDBRANCH  14  15
ENDBRANCH  13  14
ENDBRANCH   1  13
TORSDOF 20
ENDMDL
MODEL 3
REMARK VINA RESULT:    -3.974     14.196     17.065
REMARK INTER + INTRA:         -10.737
REMARK INTER:                  -8.031
REMARK INTRA:                  -2.706
REMARK UNBOUND:                -2.117
REMARK SMILES CCCCCCCCCCCCCCCCCCCCCC(=O)[O-]
REMARK SMILES IDX 12 1 11 2 10 3 9 4 8 5 7 6 6 7 5 8 4 9 3 10 2 11 1 12 13 13
REMARK SMILES IDX 14 14 15 15 16 16 17 17 18 18 19 19 20 20 21 21 22 22 23 23
REMARK SMILES IDX 24 24
REMARK H PARENT
REMARK Flexibility Score: inf
ROOT
ATOM      1  C   UNL     1      -3.791  18.433 -60.802  1.00  0.00     0.000 C 
ENDROOT
BRANCH   1   2
ATOM      2  C   UNL     1      -4.814  18.683 -61.924  1.00  0.00     0.000 C 
BRANCH   2   3
ATOM      3  C   UNL     1      -4.218  19.467 -63.104  1.00  0.00     0.000 C 
BRANCH   3   4
ATOM      4  C   UNL     1      -5.259  20.341 -63.824  1.00  0.00    -0.000 C 
BRANCH   4   5
ATOM      5  C   UNL     1      -6.701  19.843 -63.587  1.00  0.00    -0.000 C 
BRANCH   5   6
ATOM      6  C   UNL     1      -7.657  20.144 -64.755  1.00  0.00    -0.000 C 
BRANCH   6   7
ATOM      7  C   UNL     1      -8.793  19.115 -64.880  1.00  0.00    -0.000 C 
BRANCH   7   8
ATOM      8  C   UNL     1      -8.282  17.662 -64.777  1.00  0.00    -0.000 C 
BRANCH   8   9
ATOM      9  C   UNL     1      -9.322  16.680 -64.205  1.00  0.00    -0.000 C 
BRANCH   9  10
ATOM     10  C   UNL     1      -8.951  16.061 -62.845  1.00  0.00    -0.000 C 
BRANCH  10  11
ATOM     11  C   UNL     1      -8.152  16.988 -61.910  1.00  0.00    -0.003 C 
ATOM     12  C   UNL     1      -7.622  16.272 -60.669  1.00  0.00     0.004 C 
ENDBRANCH  10  11
ENDBRANCH   9  10
ENDBRANCH   8   9
ENDBRANCH   7   8
ENDBRANCH   6   7
ENDBRANCH   5   6
ENDBRANCH   4   5
ENDBRANCH   3   4
ENDBRANCH   2   3
ENDBRANCH   1   2
BRANCH   1  13
ATOM     13  C   UNL     1      -4.239  19.021 -59.453  1.00  0.00     0.000 C 
BRANCH  13  14
ATOM     14  C   UNL     1      -5.603  19.723 -59.532  1.00  0.00     0.000 C 
BRANCH  14  15
ATOM     15  C   UNL     1      -5.432  21.248 -59.578  1.00  0.00     0.000 C 
BRANCH  15  16
ATOM     16  C   UNL     1      -6.306  21.915 -60.656  1.00  0.00     0.000 C 
BRANCH  16  17
ATOM     17  C   UNL     1      -5.633  23.074 -61.418  1.00  0.00     0.000 C 
BRANCH  17  18
ATOM     18  C   UNL     1      -5.851  24.472 -60.813  1.00  0.00     0.000 C 
BRANCH  18  19
ATOM     19  C   UNL     1      -4.662  24.940 -59.955  1.00  0.00     0.000 C 
BRANCH  19  20
ATOM     20  C   UNL     1      -4.984  24.952 -58.449  1.00  0.00     0.006 C 
BRANCH  20  21
ATOM     21  C   UNL     1      -3.844  24.444 -57.553  1.00  0.00     0.053 C 
BRANCH  21  22
ATOM     22  C   UNL     1      -4.359  23.768 -56.320  1.00  0.00     0.041 C 
ATOM     23  O   UNL     1      -4.507  22.518 -56.297  1.00  0.00    -0.550 OA
ATOM     24  O   UNL     1      -4.718  24.523 -55.211  1.00  0.00    -0.550 OA
ENDBRANCH  21  22
ENDBRANCH  20  21
ENDBRANCH  19  20
ENDBRANCH  18  19
ENDBRANCH  17  18
ENDBRANCH  16  17
ENDBRANCH  15  16
ENDBRANCH  14  15
ENDBRANCH  13  14
ENDBRANCH   1  13
TORSDOF 20
ENDMDL
MODEL 4
REMARK VINA RESULT:    -3.968      3.177      9.116
REMARK INTER + INTRA:         -10.725
REMARK INTER:                  -9.034
REMARK INTRA:                  -1.692
REMARK UNBOUND:                -2.117
REMARK SMILES CCCCCCCCCCCCCCCCCCCCCC(=O)[O-]
REMARK SMILES IDX 12 1 11 2 10 3 9 4 8 5 7 6 6 7 5 8 4 9 3 10 2 11 1 12 13 13
REMARK SMILES IDX 14 14 15 15 16 16 17 17 18 18 19 19 20 20 21 21 22 22 23 23
REMARK SMILES IDX 24 24
REMARK H PARENT
REMARK Flexibility Score: inf
ROOT
ATOM      1  C   UNL     1      -0.237   7.051 -53.324  1.00  0.00     0.000 C 
ENDROOT
BRANCH   1   2
ATOM      2  C   UNL     1      -1.215   6.032 -52.714  1.00  0.00     0.000 C 
BRANCH   2   3
ATOM      3  C   UNL     1      -0.497   4.905 -51.954  1.00  0.00     0.000 C 
BRANCH   3   4
ATOM      4  C   UNL     1      -0.730   4.968 -50.435  1.00  0.00    -0.000 C 
BRANCH   4   5
ATOM      5  C   UNL     1       0.166   6.024 -49.753  1.00  0.00    -0.000 C 
BRANCH   5   6
ATOM      6  C   UNL     1       0.555   5.663 -48.309  1.00  0.00    -0.000 C 
BRANCH   6   7
ATOM      7  C   UNL     1      -0.239   6.456 -47.258  1.00  0.00    -0.000 C 
BRANCH   7   8
ATOM      8  C   UNL     1      -1.559   5.756 -46.869  1.00  0.00    -0.000 C 
BRANCH   8   9
ATOM      9  C   UNL     1      -2.727   6.729 -46.627  1.00  0.00    -0.000 C 
BRANCH   9  10
ATOM     10  C   UNL     1      -3.742   6.825 -47.781  1.00  0.00    -0.000 C 
BRANCH  10  11
ATOM     11  C   UNL     1      -5.164   7.241 -47.359  1.00  0.00    -0.003 C 
ATOM     12  C   UNL     1      -5.451   8.721 -47.605  1.00  0.00     0.004 C 
ENDBRANCH  10  11
ENDBRANCH   9  10
ENDBRANCH   8   9
ENDBRANCH   7   8
ENDBRANCH   6   7
ENDBRANCH   5   6
ENDBRANCH   4   5
ENDBRANCH   3   4
ENDBRANCH   2   3
ENDBRANCH   1   2
BRANCH   1  13
ATOM     13  C   UNL     1       0.188   6.679 -54.754  1.00  0.00     0.000 C 
BRANCH  13  14
ATOM     14  C   UNL     1      -1.002   6.305 -55.651  1.00  0.00     0.000 C 
BRANCH  14  15
ATOM     15  C   UNL     1      -0.786   4.932 -56.304  1.00  0.00     0.000 C 
BRANCH  15  16
ATOM     16  C   UNL     1      -0.700   5.010 -57.839  1.00  0.00     0.000 C 
BRANCH  16  17
ATOM     17  C   UNL     1      -0.636   6.437 -58.419  1.00  0.00     0.000 C 
BRANCH  17  18
ATOM     18  C   UNL     1      -1.639   6.734 -59.547  1.00  0.00     0.000 C 
BRANCH  18  19
ATOM     19  C   UNL     1      -2.820   5.748 -59.567  1.00  0.00     0.000 C 
BRANCH  19  20
ATOM     20  C   UNL     1      -4.171   6.431 -59.283  1.00  0.00     0.006 C 
BRANCH  20  21
ATOM     21  C   UNL     1      -4.371   6.854 -57.819  1.00  0.00     0.053 C 
BRANCH  21  22
ATOM     22  C   UNL     1      -4.386   8.343 -57.663  1.00  0.00     0.041 C 
ATOM     23  O   UNL     1      -5.465   8.982 -57.782  1.00  0.00    -0.550 OA
ATOM     24  O   UNL     1      -3.203   9.030 -57.429  1.00  0.00    -0.550 OA
ENDBRANCH  21  22
ENDBRANCH  20  21
ENDBRANCH  19  20
ENDBRANCH  18  19
ENDBRANCH  17  18
ENDBRANCH  16  17
ENDBRANCH  15  16
ENDBRANCH  14  15
ENDBRANCH  13  14
ENDBRANCH   1  13
TORSDOF 20
ENDMDL
MODEL 5
REMARK VINA RESULT:    -3.853     14.059     17.736
REMARK INTER + INTRA:         -10.475
REMARK INTER:                  -8.597
REMARK INTRA:                  -1.878
REMARK UNBOUND:                -2.117
REMARK SMILES CCCCCCCCCCCCCCCCCCCCCC(=O)[O-]
REMARK SMILES IDX 12 1 11 2 10 3 9 4 8 5 7 6 6 7 5 8 4 9 3 10 2 11 1 12 13 13
REMARK SMILES IDX 14 14 15 15 16 16 17 17 18 18 19 19 20 20 21 21 22 22 23 23
REMARK SMILES IDX 24 24
REMARK H PARENT
REMARK Flexibility Score: inf
ROOT
ATOM      1  C   UNL     1      -5.303  18.171 -59.656  1.00  0.00     0.000 C 
ENDROOT
BRANCH   1   2
ATOM      2  C   UNL     1      -4.617  19.407 -60.263  1.00  0.00     0.000 C 
BRANCH   2   3
ATOM      3  C   UNL     1      -5.546  20.630 -60.319  1.00  0.00     0.000 C 
BRANCH   3   4
ATOM      4  C   UNL     1      -5.577  21.290 -61.709  1.00  0.00    -0.000 C 
BRANCH   4   5
ATOM      5  C   UNL     1      -6.301  22.653 -61.689  1.00  0.00    -0.000 C 
BRANCH   5   6
ATOM      6  C   UNL     1      -5.412  23.817 -61.220  1.00  0.00    -0.000 C 
BRANCH   6   7
ATOM      7  C   UNL     1      -5.061  23.738 -59.725  1.00  0.00    -0.000 C 
BRANCH   7   8
ATOM      8  C   UNL     1      -4.742  25.123 -59.123  1.00  0.00    -0.000 C 
BRANCH   8   9
ATOM      9  C   UNL     1      -3.937  25.057 -57.811  1.00  0.00    -0.000 C 
BRANCH   9  10
ATOM     10  C   UNL     1      -4.752  24.648 -56.570  1.00  0.00    -0.000 C 
BRANCH  10  11
ATOM     11  C   UNL     1      -4.162  23.472 -55.769  1.00  0.00    -0.003 C 
ATOM     12  C   UNL     1      -4.606  22.109 -56.294  1.00  0.00     0.004 C 
ENDBRANCH  10  11
ENDBRANCH   9  10
ENDBRANCH   8   9
ENDBRANCH   7   8
ENDBRANCH   6   7
ENDBRANCH   5   6
ENDBRANCH   4   5
ENDBRANCH   3   4
ENDBRANCH   2   3
ENDBRANCH   1   2
BRANCH   1  13
ATOM     13  C   UNL     1      -6.607  17.802 -60.383  1.00  0.00     0.000 C 
BRANCH  13  14
ATOM     14  C   UNL     1      -6.474  16.535 -61.241  1.00  0.00     0.000 C 
BRANCH  14  15
ATOM     15  C   UNL     1      -7.491  15.469 -60.806  1.00  0.00     0.000 C 
BRANCH  15  16
ATOM     16  C   UNL     1      -8.573  15.209 -61.870  1.00  0.00     0.000 C 
BRANCH  16  17
ATOM     17  C   UNL     1      -9.297  16.469 -62.387  1.00  0.00     0.000 C 
BRANCH  17  18
ATOM     18  C   UNL     1      -9.142  16.744 -63.893  1.00  0.00     0.000 C 
BRANCH  18  19
ATOM     19  C   UNL     1      -9.144  18.247 -64.226  1.00  0.00     0.000 C 
BRANCH  19  20
ATOM     20  C   UNL     1      -7.971  19.003 -63.575  1.00  0.00     0.006 C 
BRANCH  20  21
ATOM     21  C   UNL     1      -6.882  19.453 -64.561  1.00  0.00     0.053 C 
BRANCH  21  22
ATOM     22  C   UNL     1      -5.687  18.551 -64.527  1.00  0.00     0.041 C 
ATOM     23  O   UNL     1      -5.804  17.332 -64.824  1.00  0.00    -0.550 OA
ATOM     24  O   UNL     1      -4.453  19.045 -64.125  1.00  0.00    -0.550 OA
ENDBRANCH  21  22
ENDBRANCH  20  21
ENDBRANCH  19  20
ENDBRANCH  18  19
ENDBRANCH  17  18
ENDBRANCH  16  17
ENDBRANCH  15  16
ENDBRANCH  14  15
ENDBRANCH  13  14
ENDBRANCH   1  13
TORSDOF 20
ENDMDL
MODEL 6
REMARK VINA RESULT:    -3.795      3.375      9.198
REMARK INTER + INTRA:         -10.349
REMARK INTER:                  -9.428
REMARK INTRA:                  -0.921
REMARK UNBOUND:                -2.117
REMARK SMILES CCCCCCCCCCCCCCCCCCCCCC(=O)[O-]
REMARK SMILES IDX 12 1 11 2 10 3 9 4 8 5 7 6 6 7 5 8 4 9 3 10 2 11 1 12 13 13
REMARK SMILES IDX 14 14 15 15 16 16 17 17 18 18 19 19 20 20 21 21 22 22 23 23
REMARK SMILES IDX 24 24
REMARK H PARENT
REMARK Flexibility Score: inf
ROOT
ATOM      1  C   UNL     1      -1.042   6.787 -54.495  1.00  0.00     0.000 C 
ENDROOT
BRANCH   1   2
ATOM      2  C   UNL     1      -1.194   5.685 -53.431  1.00  0.00     0.000 C 
BRANCH   2   3
ATOM      3  C   UNL     1      -0.441   6.011 -52.131  1.00  0.00     0.000 C 
BRANCH   3   4
ATOM      4  C   UNL     1      -0.552   4.891 -51.082  1.00  0.00    -0.000 C 
BRANCH   4   5
ATOM      5  C   UNL     1      -0.826   5.444 -49.667  1.00  0.00    -0.000 C 
BRANCH   5   6
ATOM      6  C   UNL     1      -2.291   5.301 -49.222  1.00  0.00    -0.000 C 
BRANCH   6   7
ATOM      7  C   UNL     1      -2.600   6.061 -47.922  1.00  0.00    -0.000 C 
BRANCH   7   8
ATOM      8  C   UNL     1      -3.996   6.719 -47.944  1.00  0.00    -0.000 C 
BRANCH   8   9
ATOM      9  C   UNL     1      -4.313   7.538 -46.679  1.00  0.00    -0.000 C 
BRANCH   9  10
ATOM     10  C   UNL     1      -4.489   9.050 -46.912  1.00  0.00    -0.000 C 
BRANCH  10  11
ATOM     11  C   UNL     1      -3.448   9.938 -46.207  1.00  0.00    -0.003 C 
ATOM     12  C   UNL     1      -3.308  11.318 -46.846  1.00  0.00     0.004 C 
ENDBRANCH  10  11
ENDBRANCH   9  10
ENDBRANCH   8   9
ENDBRANCH   7   8
ENDBRANCH   6   7
ENDBRANCH   5   6
ENDBRANCH   4   5
ENDBRANCH   3   4
ENDBRANCH   2   3
ENDBRANCH   1   2
BRANCH   1  13
ATOM     13  C   UNL     1      -0.190   6.338 -55.693  1.00  0.00     0.000 C 
BRANCH  13  14
ATOM     14  C   UNL     1      -0.957   5.422 -56.660  1.00  0.00     0.000 C 
BRANCH  14  15
ATOM     15  C   UNL     1      -0.899   5.968 -58.094  1.00  0.00     0.000 C 
BRANCH  15  16
ATOM     16  C   UNL     1      -2.028   5.421 -58.986  1.00  0.00     0.000 C 
BRANCH  16  17
ATOM     17  C   UNL     1      -3.001   6.485 -59.535  1.00  0.00     0.000 C 
BRANCH  17  18
ATOM     18  C   UNL     1      -3.027   7.813 -58.758  1.00  0.00     0.000 C 
BRANCH  18  19
ATOM     19  C   UNL     1      -4.455   8.340 -58.529  1.00  0.00     0.000 C 
BRANCH  19  20
ATOM     20  C   UNL     1      -5.066   7.847 -57.204  1.00  0.00     0.006 C 
BRANCH  20  21
ATOM     21  C   UNL     1      -5.912   6.570 -57.333  1.00  0.00     0.053 C 
BRANCH  21  22
ATOM     22  C   UNL     1      -7.328   6.874 -57.714  1.00  0.00     0.041 C 
ATOM     23  O   UNL     1      -7.662   8.045 -58.034  1.00  0.00    -0.550 OA
ATOM     24  O   UNL     1      -8.289   5.872 -57.676  1.00  0.00    -0.550 OA
ENDBRANCH  21  22
ENDBRANCH  20  21
ENDBRANCH  19  20
ENDBRANCH  18  19
ENDBRANCH  17  18
ENDBRANCH  16  17
ENDBRANCH  15  16
ENDBRANCH  14  15
ENDBRANCH  13  14
ENDBRANCH   1  13
TORSDOF 20
ENDMDL
MODEL 7
REMARK VINA RESULT:    -3.698      2.693      4.235
REMARK INTER + INTRA:         -10.137
REMARK INTER:                  -7.933
REMARK INTRA:                  -2.205
REMARK UNBOUND:                -2.117
REMARK SMILES CCCCCCCCCCCCCCCCCCCCCC(=O)[O-]
REMARK SMILES IDX 12 1 11 2 10 3 9 4 8 5 7 6 6 7 5 8 4 9 3 10 2 11 1 12 13 13
REMARK SMILES IDX 14 14 15 15 16 16 17 17 18 18 19 19 20 20 21 21 22 22 23 23
REMARK SMILES IDX 24 24
REMARK H PARENT
REMARK Flexibility Score: inf
ROOT
ATOM      1  C   UNL     1      -1.225   6.895 -56.162  1.00  0.00     0.000 C 
ENDROOT
BRANCH   1   2
ATOM      2  C   UNL     1      -2.712   7.034 -55.793  1.00  0.00     0.000 C 
BRANCH   2   3
ATOM      3  C   UNL     1      -3.352   8.300 -56.385  1.00  0.00     0.000 C 
BRANCH   3   4
ATOM      4  C   UNL     1      -2.987   8.515 -57.864  1.00  0.00    -0.000 C 
BRANCH   4   5
ATOM      5  C   UNL     1      -4.237   8.708 -58.749  1.00  0.00    -0.000 C 
BRANCH   5   6
ATOM      6  C   UNL     1      -5.562   8.627 -57.970  1.00  0.00    -0.000 C 
BRANCH   6   7
ATOM      7  C   UNL     1      -6.424   7.422 -58.379  1.00  0.00    -0.000 C 
BRANCH   7   8
ATOM      8  C   UNL     1      -6.091   6.157 -57.558  1.00  0.00    -0.000 C 
BRANCH   8   9
ATOM      9  C   UNL     1      -5.421   5.043 -58.384  1.00  0.00    -0.000 C 
BRANCH   9  10
ATOM     10  C   UNL     1      -3.899   4.917 -58.189  1.00  0.00    -0.000 C 
BRANCH  10  11
ATOM     11  C   UNL     1      -3.077   4.940 -59.492  1.00  0.00    -0.003 C 
ATOM     12  C   UNL     1      -3.815   5.605 -60.652  1.00  0.00     0.004 C 
ENDBRANCH  10  11
ENDBRANCH   9  10
ENDBRANCH   8   9
ENDBRANCH   7   8
ENDBRANCH   6   7
ENDBRANCH   5   6
ENDBRANCH   4   5
ENDBRANCH   3   4
ENDBRANCH   2   3
ENDBRANCH   1   2
BRANCH   1  13
ATOM     13  C   UNL     1      -0.758   5.430 -56.191  1.00  0.00     0.000 C 
BRANCH  13  14
ATOM     14  C   UNL     1      -0.449   4.875 -54.792  1.00  0.00     0.000 C 
BRANCH  14  15
ATOM     15  C   UNL     1      -0.455   5.997 -53.744  1.00  0.00     0.000 C 
BRANCH  15  16
ATOM     16  C   UNL     1      -0.374   5.466 -52.301  1.00  0.00     0.000 C 
BRANCH  16  17
ATOM     17  C   UNL     1      -1.721   5.030 -51.689  1.00  0.00     0.000 C 
BRANCH  17  18
ATOM     18  C   UNL     1      -1.838   5.207 -50.166  1.00  0.00     0.000 C 
BRANCH  18  19
ATOM     19  C   UNL     1      -0.506   5.613 -49.510  1.00  0.00     0.000 C 
BRANCH  19  20
ATOM     20  C   UNL     1      -0.486   5.351 -47.992  1.00  0.00     0.006 C 
BRANCH  20  21
ATOM     21  C   UNL     1      -0.773   6.591 -47.131  1.00  0.00     0.053 C 
BRANCH  21  22
ATOM     22  C   UNL     1       0.451   7.067 -46.411  1.00  0.00     0.041 C 
ATOM     23  O   UNL     1       0.373   7.450 -45.213  1.00  0.00    -0.550 OA
ATOM     24  O   UNL     1       1.669   7.130 -47.075  1.00  0.00    -0.550 OA
ENDBRANCH  21  22
ENDBRANCH  20  21
ENDBRANCH  19  20
ENDBRANCH  18  19
ENDBRANCH  17  18
ENDBRANCH  16  17
ENDBRANCH  15  16
ENDBRANCH  14  15
ENDBRANCH  13  14
ENDBRANCH   1  13
TORSDOF 20
ENDMDL
MODEL 8
REMARK VINA RESULT:    -3.665     13.752     16.891
REMARK INTER + INTRA:         -10.067
REMARK INTER:                  -7.355
REMARK INTRA:                  -2.712
REMARK UNBOUND:                -2.117
REMARK SMILES CCCCCCCCCCCCCCCCCCCCCC(=O)[O-]
REMARK SMILES IDX 12 1 11 2 10 3 9 4 8 5 7 6 6 7 5 8 4 9 3 10 2 11 1 12 13 13
REMARK SMILES IDX 14 14 15 15 16 16 17 17 18 18 19 19 20 20 21 21 22 22 23 23
REMARK SMILES IDX 24 24
REMARK H PARENT
REMARK Flexibility Score: inf
ROOT
ATOM      1  C   UNL     1      -4.723  18.632 -60.240  1.00  0.00     0.000 C 
ENDROOT
BRANCH   1   2
ATOM      2  C   UNL     1      -5.872  19.621 -59.974  1.00  0.00     0.000 C 
BRANCH   2   3
ATOM      3  C   UNL     1      -5.582  21.025 -60.527  1.00  0.00     0.000 C 
BRANCH   3   4
ATOM      4  C   UNL     1      -6.262  21.284 -61.882  1.00  0.00    -0.000 C 
BRANCH   4   5
ATOM      5  C   UNL     1      -5.952  22.694 -62.429  1.00  0.00    -0.000 C 
BRANCH   5   6
ATOM      6  C   UNL     1      -5.472  22.698 -63.890  1.00  0.00    -0.000 C 
BRANCH   6   7
ATOM      7  C   UNL     1      -5.479  21.298 -64.526  1.00  0.00    -0.000 C 
BRANCH   7   8
ATOM      8  C   UNL     1      -4.094  20.899 -65.080  1.00  0.00    -0.000 C 
BRANCH   8   9
ATOM      9  C   UNL     1      -3.360  19.856 -64.216  1.00  0.00    -0.000 C 
BRANCH   9  10
ATOM     10  C   UNL     1      -2.082  19.274 -64.847  1.00  0.00    -0.000 C 
BRANCH  10  11
ATOM     11  C   UNL     1      -0.813  19.419 -63.987  1.00  0.00    -0.003 C 
ATOM     12  C   UNL     1       0.187  18.284 -64.201  1.00  0.00     0.004 C 
ENDBRANCH  10  11
ENDBRANCH   9  10
ENDBRANCH   8   9
ENDBRANCH   7   8
ENDBRANCH   6   7
ENDBRANCH   5   6
ENDBRANCH   4   5
ENDBRANCH   3   4
ENDBRANCH   2   3
ENDBRANCH   1   2
BRANCH   1  13
ATOM     13  C   UNL     1      -5.085  17.577 -61.299  1.00  0.00     0.000 C 
BRANCH  13  14
ATOM     14  C   UNL     1      -6.086  18.098 -62.341  1.00  0.00     0.000 C 
BRANCH  14  15
ATOM     15  C   UNL     1      -5.840  17.448 -63.710  1.00  0.00     0.000 C 
BRANCH  15  16
ATOM     16  C   UNL     1      -6.853  17.901 -64.777  1.00  0.00     0.000 C 
BRANCH  16  17
ATOM     17  C   UNL     1      -8.052  18.707 -64.238  1.00  0.00     0.000 C 
BRANCH  17  18
ATOM     18  C   UNL     1      -9.438  18.137 -64.587  1.00  0.00     0.000 C 
BRANCH  18  19
ATOM     19  C   UNL     1      -9.568  16.641 -64.251  1.00  0.00     0.000 C 
BRANCH  19  20
ATOM     20  C   UNL     1      -9.497  16.363 -62.737  1.00  0.00     0.006 C 
BRANCH  20  21
ATOM     21  C   UNL     1      -8.436  15.328 -62.332  1.00  0.00     0.053 C 
BRANCH  21  22
ATOM     22  C   UNL     1      -8.084  15.427 -60.880  1.00  0.00     0.041 C 
ATOM     23  O   UNL     1      -8.212  16.521 -60.270  1.00  0.00    -0.550 OA
ATOM     24  O   UNL     1      -7.574  14.322 -60.211  1.00  0.00    -0.550 OA
ENDBRANCH  21  22
ENDBRANCH  20  21
ENDBRANCH  19  20
ENDBRANCH  18  19
ENDBRANCH  17  18
ENDBRANCH  16  17
ENDBRANCH  15  16
ENDBRANCH  14  15
ENDBRANCH  13  14
ENDBRANCH   1  13
TORSDOF 20
ENDMDL
MODEL 9
REMARK VINA RESULT:    -3.634     13.937     17.022
REMARK INTER + INTRA:         -10.000
REMARK INTER:                  -7.961
REMARK INTRA:                  -2.039
REMARK UNBOUND:                -2.117
REMARK SMILES CCCCCCCCCCCCCCCCCCCCCC(=O)[O-]
REMARK SMILES IDX 12 1 11 2 10 3 9 4 8 5 7 6 6 7 5 8 4 9 3 10 2 11 1 12 13 13
REMARK SMILES IDX 14 14 15 15 16 16 17 17 18 18 19 19 20 20 21 21 22 22 23 23
REMARK SMILES IDX 24 24
REMARK H PARENT
REMARK Flexibility Score: inf
ROOT
ATOM      1  C   UNL     1      -5.421  16.883 -60.285  1.00  0.00     0.000 C 
ENDROOT
BRANCH   1   2
ATOM      2  C   UNL     1      -6.780  17.222 -60.922  1.00  0.00     0.000 C 
BRANCH   2   3
ATOM      3  C   UNL     1      -7.550  15.970 -61.373  1.00  0.00     0.000 C 
BRANCH   3   4
ATOM      4  C   UNL     1      -8.988  16.284 -61.819  1.00  0.00    -0.000 C 
BRANCH   4   5
ATOM      5  C   UNL     1      -9.140  16.252 -63.355  1.00  0.00    -0.000 C 
BRANCH   5   6
ATOM      6  C   UNL     1      -8.996  17.633 -64.018  1.00  0.00    -0.000 C 
BRANCH   6   7
ATOM      7  C   UNL     1      -7.824  17.701 -65.012  1.00  0.00    -0.000 C 
BRANCH   7   8
ATOM      8  C   UNL     1      -6.532  18.237 -64.358  1.00  0.00    -0.000 C 
BRANCH   8   9
ATOM      9  C   UNL     1      -6.600  19.730 -63.989  1.00  0.00    -0.000 C 
BRANCH   9  10
ATOM     10  C   UNL     1      -5.247  20.466 -64.006  1.00  0.00    -0.000 C 
BRANCH  10  11
ATOM     11  C   UNL     1      -4.013  19.546 -64.071  1.00  0.00    -0.003 C 
ATOM     12  C   UNL     1      -2.993  19.988 -65.119  1.00  0.00     0.004 C 
ENDBRANCH  10  11
ENDBRANCH   9  10
ENDBRANCH   8   9
ENDBRANCH   7   8
ENDBRANCH   6   7
ENDBRANCH   5   6
ENDBRANCH   4   5
ENDBRANCH   3   4
ENDBRANCH   2   3
ENDBRANCH   1   2
BRANCH   1  13
ATOM     13  C   UNL     1      -4.720  18.119 -59.697  1.00  0.00     0.000 C 
BRANCH  13  14
ATOM     14  C   UNL     1      -4.839  19.357 -60.599  1.00  0.00     0.000 C 
BRANCH  14  15
ATOM     15  C   UNL     1      -5.929  20.308 -60.085  1.00  0.00     0.000 C 
BRANCH  15  16
ATOM     16  C   UNL     1      -5.397  21.721 -59.788  1.00  0.00     0.000 C 
BRANCH  16  17
ATOM     17  C   UNL     1      -5.533  22.728 -60.949  1.00  0.00     0.000 C 
BRANCH  17  18
ATOM     18  C   UNL     1      -5.857  24.172 -60.530  1.00  0.00     0.000 C 
BRANCH  18  19
ATOM     19  C   UNL     1      -4.622  25.090 -60.553  1.00  0.00     0.000 C 
BRANCH  19  20
ATOM     20  C   UNL     1      -3.882  25.125 -59.202  1.00  0.00     0.006 C 
BRANCH  20  21
ATOM     21  C   UNL     1      -4.766  24.800 -57.987  1.00  0.00     0.053 C 
BRANCH  21  22
ATOM     22  C   UNL     1      -3.960  24.648 -56.734  1.00  0.00     0.041 C 
ATOM     23  O   UNL     1      -2.703  24.700 -56.779  1.00  0.00    -0.550 OA
ATOM     24  O   UNL     1      -4.596  24.406 -55.523  1.00  0.00    -0.550 OA
ENDBRANCH  21  22
ENDBRANCH  20  21
ENDBRANCH  19  20
ENDBRANCH  18  19
ENDBRANCH  17  18
ENDBRANCH  16  17
ENDBRANCH  15  16
ENDBRANCH  14  15
ENDBRANCH  13  14
ENDBRANCH   1  13
TORSDOF 20
ENDMDL
