MODEL 1
REMARK VINA RESULT:    -8.103      0.000      0.000
REMARK INTER + INTRA:          -9.618
REMARK INTER:                  -9.524
REMARK INTRA:                  -0.094
REMARK UNBOUND:                -0.094
REMARK SMILES O=c1c(O)c(-c2ccc(O)cc2)oc2cc(O)cc(O)c12
REMARK SMILES IDX 5 1 3 2 2 3 1 4 21 5 19 6 18 7 16 8 15 9 14 10 13 11 6 12
REMARK SMILES IDX 7 13 8 14 9 15 12 16 11 17 10 18 4 20 20 22 17 24
REMARK H PARENT 10 19 4 21 20 23 17 25
REMARK Flexibility Score: inf
ROOT
ATOM      1  C   UNL     1       8.582  -2.066   1.575  1.00  0.00     0.180 A 
ATOM      2  C   UNL     1       8.535  -0.692   1.867  1.00  0.00     0.208 A 
ATOM      3  C   UNL     1       8.359   0.221   0.815  1.00  0.00     0.238 A 
ATOM      4  O   UNL     1       8.262   1.446   1.089  1.00  0.00    -0.285 OA
ATOM      5  C   UNL     1       8.248  -0.248  -0.516  1.00  0.00     0.111 A 
ATOM      6  C   UNL     1       8.106   0.590  -1.662  1.00  0.00     0.134 A 
ATOM      7  C   UNL     1       7.874   0.011  -2.916  1.00  0.00     0.093 A 
ATOM      8  C   UNL     1       7.844  -1.373  -3.076  1.00  0.00     0.123 A 
ATOM      9  C   UNL     1       8.041  -2.203  -1.971  1.00  0.00     0.094 A 
ATOM     10  C   UNL     1       8.238  -1.655  -0.702  1.00  0.00     0.146 A 
ATOM     11  O   UNL     1       8.410  -2.480   0.325  1.00  0.00    -0.452 OA
ENDROOT
BRANCH   1  12
ATOM     12  C   UNL     1       8.792  -3.089   2.625  1.00  0.00     0.021 A 
ATOM     13  C   UNL     1       9.938  -3.077   3.442  1.00  0.00     0.016 A 
ATOM     14  C   UNL     1      10.125  -4.067   4.411  1.00  0.00     0.047 A 
ATOM     15  C   UNL     1       9.181  -5.085   4.569  1.00  0.00     0.115 A 
ATOM     16  C   UNL     1       7.857  -4.126   2.777  1.00  0.00     0.016 A 
ATOM     17  C   UNL     1       8.047  -5.115   3.748  1.00  0.00     0.047 A 
BRANCH  15  18
ATOM     18  O   UNL     1       9.380  -6.064   5.542  1.00  0.00    -0.508 OA
ATOM     19  H   UNL     1       9.195  -5.882   6.521  1.00  0.00     0.293 HD
ENDBRANCH  15  18
ENDBRANCH   1  12
BRANCH   2  20
ATOM     20  O   UNL     1       8.625  -0.251   3.189  1.00  0.00    -0.502 OA
ATOM     21  H   UNL     1       7.848  -0.315   3.838  1.00  0.00     0.293 HD
ENDBRANCH   2  20
BRANCH   6  22
ATOM     22  O   UNL     1       8.213   1.983  -1.628  1.00  0.00    -0.507 OA
ATOM     23  H   UNL     1       9.040   2.503  -1.879  1.00  0.00     0.293 HD
ENDBRANCH   6  22
BRANCH   8  24
ATOM     24  O   UNL     1       7.626  -1.914  -4.341  1.00  0.00    -0.508 OA
ATOM     25  H   UNL     1       6.768  -1.742  -4.852  1.00  0.00     0.293 HD
ENDBRANCH   8  24
TORSDOF 5
ENDMDL
MODEL 2
REMARK VINA RESULT:    -7.828      1.386      3.161
REMARK INTER + INTRA:          -9.296
REMARK INTER:                  -9.031
REMARK INTRA:                  -0.264
REMARK UNBOUND:                -0.094
REMARK SMILES O=c1c(O)c(-c2ccc(O)cc2)oc2cc(O)cc(O)c12
REMARK SMILES IDX 5 1 3 2 2 3 1 4 21 5 19 6 18 7 16 8 15 9 14 10 13 11 6 12
REMARK SMILES IDX 7 13 8 14 9 15 12 16 11 17 10 18 4 20 20 22 17 24
REMARK H PARENT 10 19 4 21 20 23 17 25
REMARK Flexibility Score: inf
ROOT
ATOM      1  C   UNL     1       8.841  -2.117   0.808  1.00  0.00     0.180 A 
ATOM      2  C   UNL     1       9.103  -2.549  -0.504  1.00  0.00     0.208 A 
ATOM      3  C   UNL     1       9.001  -1.626  -1.557  1.00  0.00     0.238 A 
ATOM      4  O   UNL     1       9.290  -2.005  -2.722  1.00  0.00    -0.285 OA
ATOM      5  C   UNL     1       8.622  -0.289  -1.289  1.00  0.00     0.111 A 
ATOM      6  C   UNL     1       8.449   0.719  -2.284  1.00  0.00     0.134 A 
ATOM      7  C   UNL     1       8.200   2.041  -1.892  1.00  0.00     0.093 A 
ATOM      8  C   UNL     1       8.054   2.378  -0.548  1.00  0.00     0.123 A 
ATOM      9  C   UNL     1       8.162   1.388   0.431  1.00  0.00     0.094 A 
ATOM     10  C   UNL     1       8.447   0.068   0.073  1.00  0.00     0.146 A 
ATOM     11  O   UNL     1       8.552  -0.840   1.035  1.00  0.00    -0.452 OA
ENDROOT
BRANCH   1  12
ATOM     12  C   UNL     1       8.903  -3.035   1.968  1.00  0.00     0.021 A 
ATOM     13  C   UNL     1       7.858  -3.936   2.246  1.00  0.00     0.016 A 
ATOM     14  C   UNL     1       7.928  -4.777   3.361  1.00  0.00     0.047 A 
ATOM     15  C   UNL     1       9.032  -4.721   4.217  1.00  0.00     0.115 A 
ATOM     16  C   UNL     1       9.999  -2.972   2.844  1.00  0.00     0.016 A 
ATOM     17  C   UNL     1      10.067  -3.814   3.958  1.00  0.00     0.047 A 
BRANCH  15  18
ATOM     18  O   UNL     1       9.089  -5.568   5.323  1.00  0.00    -0.508 OA
ATOM     19  H   UNL     1       9.967  -5.956   5.648  1.00  0.00     0.293 HD
ENDBRANCH  15  18
ENDBRANCH   1  12
BRANCH   2  20
ATOM     20  O   UNL     1       9.496  -3.868  -0.743  1.00  0.00    -0.502 OA
ATOM     21  H   UNL     1      10.156  -4.355  -0.148  1.00  0.00     0.293 HD
ENDBRANCH   2  20
BRANCH   6  22
ATOM     22  O   UNL     1       8.483   0.472  -3.659  1.00  0.00    -0.507 OA
ATOM     23  H   UNL     1       8.775  -0.397  -4.080  1.00  0.00     0.293 HD
ENDBRANCH   6  22
BRANCH   8  24
ATOM     24  O   UNL     1       7.791   3.700  -0.195  1.00  0.00    -0.508 OA
ATOM     25  H   UNL     1       8.539   4.366  -0.041  1.00  0.00     0.293 HD
ENDBRANCH   8  24
TORSDOF 5
ENDMDL
MODEL 3
REMARK VINA RESULT:    -7.243      1.796      6.747
REMARK INTER + INTRA:          -8.607
REMARK INTER:                  -8.319
REMARK INTRA:                  -0.288
REMARK UNBOUND:                -0.094
REMARK SMILES O=c1c(O)c(-c2ccc(O)cc2)oc2cc(O)cc(O)c12
REMARK SMILES IDX 5 1 3 2 2 3 1 4 21 5 19 6 18 7 16 8 15 9 14 10 13 11 6 12
REMARK SMILES IDX 7 13 8 14 9 15 12 16 11 17 10 18 4 20 20 22 17 24
REMARK H PARENT 10 19 4 21 20 23 17 25
REMARK Flexibility Score: inf
ROOT
ATOM      1  C   UNL     1       8.858  -1.038  -1.696  1.00  0.00     0.180 A 
ATOM      2  C   UNL     1       8.610   0.128  -0.950  1.00  0.00     0.208 A 
ATOM      3  C   UNL     1       8.663   0.062   0.451  1.00  0.00     0.238 A 
ATOM      4  O   UNL     1       8.494   1.120   1.112  1.00  0.00    -0.285 OA
ATOM      5  C   UNL     1       8.947  -1.168   1.090  1.00  0.00     0.111 A 
ATOM      6  C   UNL     1       8.987  -1.358   2.503  1.00  0.00     0.134 A 
ATOM      7  C   UNL     1       9.407  -2.589   3.023  1.00  0.00     0.093 A 
ATOM      8  C   UNL     1       9.725  -3.654   2.184  1.00  0.00     0.123 A 
ATOM      9  C   UNL     1       9.633  -3.498   0.800  1.00  0.00     0.094 A 
ATOM     10  C   UNL     1       9.252  -2.272   0.251  1.00  0.00     0.146 A 
ATOM     11  O   UNL     1       9.187  -2.162  -1.071  1.00  0.00    -0.452 OA
ENDROOT
BRANCH   1  12
ATOM     12  C   UNL     1       8.795  -1.055  -3.176  1.00  0.00     0.021 A 
ATOM     13  C   UNL     1       7.621  -1.428  -3.855  1.00  0.00     0.016 A 
ATOM     14  C   UNL     1       7.593  -1.459  -5.253  1.00  0.00     0.047 A 
ATOM     15  C   UNL     1       8.736  -1.133  -5.988  1.00  0.00     0.115 A 
ATOM     16  C   UNL     1       9.946  -0.747  -3.921  1.00  0.00     0.016 A 
ATOM     17  C   UNL     1       9.915  -0.780  -5.318  1.00  0.00     0.047 A 
BRANCH  15  18
ATOM     18  O   UNL     1       8.693  -1.167  -7.380  1.00  0.00    -0.508 OA
ATOM     19  H   UNL     1       7.817  -1.093  -7.884  1.00  0.00     0.293 HD
ENDBRANCH  15  18
ENDBRANCH   1  12
BRANCH   2  20
ATOM     20  O   UNL     1       8.352   1.337  -1.601  1.00  0.00    -0.502 OA
ATOM     21  H   UNL     1       9.092   1.931  -1.957  1.00  0.00     0.293 HD
ENDBRANCH   2  20
BRANCH   6  22
ATOM     22  O   UNL     1       8.600  -0.387   3.432  1.00  0.00    -0.507 OA
ATOM     23  H   UNL     1       9.185   0.370   3.750  1.00  0.00     0.293 HD
ENDBRANCH   6  22
BRANCH   8  24
ATOM     24  O   UNL     1      10.125  -4.869   2.736  1.00  0.00    -0.508 OA
ATOM     25  H   UNL     1      10.876  -4.923   3.415  1.00  0.00     0.293 HD
ENDBRANCH   8  24
TORSDOF 5
ENDMDL
MODEL 4
REMARK VINA RESULT:    -7.168      1.328      1.845
REMARK INTER + INTRA:          -8.520
REMARK INTER:                  -8.243
REMARK INTRA:                  -0.277
REMARK UNBOUND:                -0.094
REMARK SMILES O=c1c(O)c(-c2ccc(O)cc2)oc2cc(O)cc(O)c12
REMARK SMILES IDX 5 1 3 2 2 3 1 4 21 5 19 6 18 7 16 8 15 9 14 10 13 11 6 12
REMARK SMILES IDX 7 13 8 14 9 15 12 16 11 17 10 18 4 20 20 22 17 24
REMARK H PARENT 10 19 4 21 20 23 17 25
REMARK Flexibility Score: inf
ROOT
ATOM      1  C   UNL     1       8.478  -1.690  -0.060  1.00  0.00     0.180 A 
ATOM      2  C   UNL     1       8.231  -0.309   0.036  1.00  0.00     0.208 A 
ATOM      3  C   UNL     1       8.236   0.465  -1.136  1.00  0.00     0.238 A 
ATOM      4  O   UNL     1       7.960   1.690  -1.050  1.00  0.00    -0.285 OA
ATOM      5  C   UNL     1       8.503  -0.146  -2.384  1.00  0.00     0.111 A 
ATOM      6  C   UNL     1       8.572   0.549  -3.628  1.00  0.00     0.134 A 
ATOM      7  C   UNL     1       8.714  -0.176  -4.817  1.00  0.00     0.093 A 
ATOM      8  C   UNL     1       8.854  -1.562  -4.803  1.00  0.00     0.123 A 
ATOM      9  C   UNL     1       8.848  -2.247  -3.587  1.00  0.00     0.094 A 
ATOM     10  C   UNL     1       8.671  -1.555  -2.387  1.00  0.00     0.146 A 
ATOM     11  O   UNL     1       8.661  -2.245  -1.252  1.00  0.00    -0.452 OA
ENDROOT
BRANCH   1  12
ATOM     12  C   UNL     1       8.515  -2.568   1.132  1.00  0.00     0.021 A 
ATOM     13  C   UNL     1       9.653  -2.636   1.958  1.00  0.00     0.016 A 
ATOM     14  C   UNL     1       9.673  -3.491   3.064  1.00  0.00     0.047 A 
ATOM     15  C   UNL     1       8.568  -4.296   3.352  1.00  0.00     0.115 A 
ATOM     16  C   UNL     1       7.416  -3.395   1.416  1.00  0.00     0.016 A 
ATOM     17  C   UNL     1       7.439  -4.249   2.523  1.00  0.00     0.047 A 
BRANCH  15  18
ATOM     18  O   UNL     1       8.602  -5.142   4.459  1.00  0.00    -0.508 OA
ATOM     19  H   UNL     1       9.368  -5.787   4.610  1.00  0.00     0.293 HD
ENDBRANCH  15  18
ENDBRANCH   1  12
BRANCH   2  20
ATOM     20  O   UNL     1       7.948   0.269   1.275  1.00  0.00    -0.502 OA
ATOM     21  H   UNL     1       8.424   1.099   1.609  1.00  0.00     0.293 HD
ENDBRANCH   2  20
BRANCH   6  22
ATOM     22  O   UNL     1       8.535   1.942  -3.747  1.00  0.00    -0.507 OA
ATOM     23  H   UNL     1       7.743   2.519  -3.510  1.00  0.00     0.293 HD
ENDBRANCH   6  22
BRANCH   8  24
ATOM     24  O   UNL     1       9.009  -2.251  -6.005  1.00  0.00    -0.508 OA
ATOM     25  H   UNL     1       9.109  -3.259  -6.029  1.00  0.00     0.293 HD
ENDBRANCH   8  24
TORSDOF 5
ENDMDL
MODEL 5
REMARK VINA RESULT:    -6.969      2.315      6.754
REMARK INTER + INTRA:          -8.286
REMARK INTER:                  -8.022
REMARK INTRA:                  -0.265
REMARK UNBOUND:                -0.094
REMARK SMILES O=c1c(O)c(-c2ccc(O)cc2)oc2cc(O)cc(O)c12
REMARK SMILES IDX 5 1 3 2 2 3 1 4 21 5 19 6 18 7 16 8 15 9 14 10 13 11 6 12
REMARK SMILES IDX 7 13 8 14 9 15 12 16 11 17 10 18 4 20 20 22 17 24
REMARK H PARENT 10 19 4 21 20 23 17 25
REMARK Flexibility Score: inf
ROOT
ATOM      1  C   UNL     1       7.121  -1.687  -2.302  1.00  0.00     0.180 A 
ATOM      2  C   UNL     1       7.749  -0.432  -2.222  1.00  0.00     0.208 A 
ATOM      3  C   UNL     1       8.328  -0.038  -1.006  1.00  0.00     0.238 A 
ATOM      4  O   UNL     1       8.937   1.063  -0.956  1.00  0.00    -0.285 OA
ATOM      5  C   UNL     1       8.260  -0.895   0.119  1.00  0.00     0.111 A 
ATOM      6  C   UNL     1       8.779  -0.581   1.410  1.00  0.00     0.134 A 
ATOM      7  C   UNL     1       8.771  -1.557   2.414  1.00  0.00     0.093 A 
ATOM      8  C   UNL     1       8.206  -2.811   2.194  1.00  0.00     0.123 A 
ATOM      9  C   UNL     1       7.641  -3.110   0.952  1.00  0.00     0.094 A 
ATOM     10  C   UNL     1       7.667  -2.169  -0.080  1.00  0.00     0.146 A 
ATOM     11  O   UNL     1       7.130  -2.496  -1.249  1.00  0.00    -0.452 OA
ENDROOT
BRANCH   1  12
ATOM     12  C   UNL     1       6.464  -2.163  -3.542  1.00  0.00     0.021 A 
ATOM     13  C   UNL     1       5.067  -2.097  -3.703  1.00  0.00     0.016 A 
ATOM     14  C   UNL     1       4.469  -2.574  -4.872  1.00  0.00     0.047 A 
ATOM     15  C   UNL     1       5.250  -3.133  -5.887  1.00  0.00     0.115 A 
ATOM     16  C   UNL     1       7.241  -2.743  -4.558  1.00  0.00     0.016 A 
ATOM     17  C   UNL     1       6.639  -3.219  -5.726  1.00  0.00     0.047 A 
BRANCH  15  18
ATOM     18  O   UNL     1       4.639  -3.602  -7.049  1.00  0.00    -0.508 OA
ATOM     19  H   UNL     1       3.634  -3.715  -7.109  1.00  0.00     0.293 HD
ENDBRANCH  15  18
ENDBRANCH   1  12
BRANCH   2  20
ATOM     20  O   UNL     1       7.823   0.389  -3.350  1.00  0.00    -0.502 OA
ATOM     21  H   UNL     1       7.349   0.166  -4.218  1.00  0.00     0.293 HD
ENDBRANCH   2  20
BRANCH   6  22
ATOM     22  O   UNL     1       9.283   0.675   1.764  1.00  0.00    -0.507 OA
ATOM     23  H   UNL     1      10.214   0.843   2.114  1.00  0.00     0.293 HD
ENDBRANCH   6  22
BRANCH   8  24
ATOM     24  O   UNL     1       8.201  -3.754   3.220  1.00  0.00    -0.508 OA
ATOM     25  H   UNL     1       8.917  -4.468   3.288  1.00  0.00     0.293 HD
ENDBRANCH   8  24
TORSDOF 5
ENDMDL
MODEL 6
REMARK VINA RESULT:    -6.747      2.472      4.228
REMARK INTER + INTRA:          -8.025
REMARK INTER:                  -7.737
REMARK INTRA:                  -0.288
REMARK UNBOUND:                -0.094
REMARK SMILES O=c1c(O)c(-c2ccc(O)cc2)oc2cc(O)cc(O)c12
REMARK SMILES IDX 5 1 3 2 2 3 1 4 21 5 19 6 18 7 16 8 15 9 14 10 13 11 6 12
REMARK SMILES IDX 7 13 8 14 9 15 12 16 11 17 10 18 4 20 20 22 17 24
REMARK H PARENT 10 19 4 21 20 23 17 25
REMARK Flexibility Score: inf
ROOT
ATOM      1  C   UNL     1       7.728  -2.009  -1.295  1.00  0.00     0.180 A 
ATOM      2  C   UNL     1       6.381  -1.820  -1.652  1.00  0.00     0.208 A 
ATOM      3  C   UNL     1       6.017  -1.916  -3.005  1.00  0.00     0.238 A 
ATOM      4  O   UNL     1       4.802  -1.800  -3.312  1.00  0.00    -0.285 OA
ATOM      5  C   UNL     1       7.004  -2.183  -3.984  1.00  0.00     0.111 A 
ATOM      6  C   UNL     1       6.753  -2.263  -5.386  1.00  0.00     0.134 A 
ATOM      7  C   UNL     1       7.781  -2.662  -6.250  1.00  0.00     0.093 A 
ATOM      8  C   UNL     1       9.064  -2.921  -5.772  1.00  0.00     0.123 A 
ATOM      9  C   UNL     1       9.335  -2.789  -4.408  1.00  0.00     0.094 A 
ATOM     10  C   UNL     1       8.322  -2.428  -3.518  1.00  0.00     0.146 A 
ATOM     11  O   UNL     1       8.619  -2.324  -2.228  1.00  0.00    -0.452 OA
ENDROOT
BRANCH   1  12
ATOM     12  C   UNL     1       8.194  -1.898   0.106  1.00  0.00     0.021 A 
ATOM     13  C   UNL     1       8.172  -3.004   0.977  1.00  0.00     0.016 A 
ATOM     14  C   UNL     1       8.595  -2.868   2.302  1.00  0.00     0.047 A 
ATOM     15  C   UNL     1       9.033  -1.630   2.779  1.00  0.00     0.115 A 
ATOM     16  C   UNL     1       8.617  -0.652   0.598  1.00  0.00     0.016 A 
ATOM     17  C   UNL     1       9.040  -0.520   1.924  1.00  0.00     0.047 A 
BRANCH  15  18
ATOM     18  O   UNL     1       9.455  -1.511   4.102  1.00  0.00    -0.508 OA
ATOM     19  H   UNL     1      10.422  -1.319   4.334  1.00  0.00     0.293 HD
ENDBRANCH  15  18
ENDBRANCH   1  12
BRANCH   2  20
ATOM     20  O   UNL     1       5.421  -1.578  -0.668  1.00  0.00    -0.502 OA
ATOM     21  H   UNL     1       4.467  -1.317  -0.891  1.00  0.00     0.293 HD
ENDBRANCH   2  20
BRANCH   6  22
ATOM     22  O   UNL     1       5.531  -1.935  -5.980  1.00  0.00    -0.507 OA
ATOM     23  H   UNL     1       5.051  -2.505  -6.660  1.00  0.00     0.293 HD
ENDBRANCH   6  22
BRANCH   8  24
ATOM     24  O   UNL     1      10.066  -3.302  -6.661  1.00  0.00    -0.508 OA
ATOM     25  H   UNL     1      10.616  -4.140  -6.513  1.00  0.00     0.293 HD
ENDBRANCH   8  24
TORSDOF 5
ENDMDL
MODEL 7
REMARK VINA RESULT:    -6.661      2.400      6.641
REMARK INTER + INTRA:          -7.923
REMARK INTER:                  -7.634
REMARK INTRA:                  -0.289
REMARK UNBOUND:                -0.094
REMARK SMILES O=c1c(O)c(-c2ccc(O)cc2)oc2cc(O)cc(O)c12
REMARK SMILES IDX 5 1 3 2 2 3 1 4 21 5 19 6 18 7 16 8 15 9 14 10 13 11 6 12
REMARK SMILES IDX 7 13 8 14 9 15 12 16 11 17 10 18 4 20 20 22 17 24
REMARK H PARENT 10 19 4 21 20 23 17 25
REMARK Flexibility Score: inf
ROOT
ATOM      1  C   UNL     1       8.438  -1.284  -2.917  1.00  0.00     0.180 A 
ATOM      2  C   UNL     1       8.270   0.111  -2.973  1.00  0.00     0.208 A 
ATOM      3  C   UNL     1       8.251   0.842  -1.775  1.00  0.00     0.238 A 
ATOM      4  O   UNL     1       8.156   2.095  -1.834  1.00  0.00    -0.285 OA
ATOM      5  C   UNL     1       8.382   0.169  -0.536  1.00  0.00     0.111 A 
ATOM      6  C   UNL     1       8.337   0.806   0.740  1.00  0.00     0.134 A 
ATOM      7  C   UNL     1       8.609   0.059   1.894  1.00  0.00     0.093 A 
ATOM      8  C   UNL     1       8.860  -1.309   1.824  1.00  0.00     0.123 A 
ATOM      9  C   UNL     1       8.848  -1.954   0.585  1.00  0.00     0.094 A 
ATOM     10  C   UNL     1       8.616  -1.230  -0.586  1.00  0.00     0.146 A 
ATOM     11  O   UNL     1       8.624  -1.878  -1.745  1.00  0.00    -0.452 OA
ENDROOT
BRANCH   1  12
ATOM     12  C   UNL     1       8.443  -2.127  -4.135  1.00  0.00     0.021 A 
ATOM     13  C   UNL     1       9.630  -2.377  -4.849  1.00  0.00     0.016 A 
ATOM     14  C   UNL     1       9.604  -3.157  -6.009  1.00  0.00     0.047 A 
ATOM     15  C   UNL     1       8.398  -3.684  -6.479  1.00  0.00     0.115 A 
ATOM     16  C   UNL     1       7.231  -2.643  -4.624  1.00  0.00     0.016 A 
ATOM     17  C   UNL     1       7.210  -3.423  -5.785  1.00  0.00     0.047 A 
BRANCH  15  18
ATOM     18  O   UNL     1       8.390  -4.461  -7.635  1.00  0.00    -0.508 OA
ATOM     19  H   UNL     1       7.837  -4.201  -8.444  1.00  0.00     0.293 HD
ENDBRANCH  15  18
ENDBRANCH   1  12
BRANCH   2  20
ATOM     20  O   UNL     1       8.164   0.756  -4.207  1.00  0.00    -0.502 OA
ATOM     21  H   UNL     1       7.302   0.772  -4.740  1.00  0.00     0.293 HD
ENDBRANCH   2  20
BRANCH   6  22
ATOM     22  O   UNL     1       8.005   2.150   0.930  1.00  0.00    -0.507 OA
ATOM     23  H   UNL     1       7.543   2.518   1.748  1.00  0.00     0.293 HD
ENDBRANCH   6  22
BRANCH   8  24
ATOM     24  O   UNL     1       9.112  -2.023   2.993  1.00  0.00    -0.508 OA
ATOM     25  H   UNL     1       9.603  -1.605   3.775  1.00  0.00     0.293 HD
ENDBRANCH   8  24
TORSDOF 5
ENDMDL
MODEL 8
REMARK VINA RESULT:    -6.645      3.219      7.183
REMARK INTER + INTRA:          -7.905
REMARK INTER:                  -7.642
REMARK INTRA:                  -0.263
REMARK UNBOUND:                -0.094
REMARK SMILES O=c1c(O)c(-c2ccc(O)cc2)oc2cc(O)cc(O)c12
REMARK SMILES IDX 5 1 3 2 2 3 1 4 21 5 19 6 18 7 16 8 15 9 14 10 13 11 6 12
REMARK SMILES IDX 7 13 8 14 9 15 12 16 11 17 10 18 4 20 20 22 17 24
REMARK H PARENT 10 19 4 21 20 23 17 25
REMARK Flexibility Score: inf
ROOT
ATOM      1  C   UNL     1       7.870  -1.939  -4.199  1.00  0.00     0.180 A 
ATOM      2  C   UNL     1       8.229  -0.614  -4.502  1.00  0.00     0.208 A 
ATOM      3  C   UNL     1       8.246   0.339  -3.471  1.00  0.00     0.238 A 
ATOM      4  O   UNL     1       8.621   1.510  -3.738  1.00  0.00    -0.285 OA
ATOM      5  C   UNL     1       7.891  -0.040  -2.154  1.00  0.00     0.111 A 
ATOM      6  C   UNL     1       7.837   0.851  -1.041  1.00  0.00     0.134 A 
ATOM      7  C   UNL     1       7.600   0.340   0.241  1.00  0.00     0.093 A 
ATOM      8  C   UNL     1       7.351  -1.016   0.442  1.00  0.00     0.123 A 
ATOM      9  C   UNL     1       7.343  -1.888  -0.648  1.00  0.00     0.094 A 
ATOM     10  C   UNL     1       7.612  -1.414  -1.935  1.00  0.00     0.146 A 
ATOM     11  O   UNL     1       7.606  -2.278  -2.942  1.00  0.00    -0.452 OA
ENDROOT
BRANCH   1  12
ATOM     12  C   UNL     1       7.803  -2.994  -5.236  1.00  0.00     0.021 A 
ATOM     13  C   UNL     1       6.574  -3.401  -5.789  1.00  0.00     0.016 A 
ATOM     14  C   UNL     1       6.534  -4.416  -6.749  1.00  0.00     0.047 A 
ATOM     15  C   UNL     1       7.712  -5.046  -7.159  1.00  0.00     0.115 A 
ATOM     16  C   UNL     1       8.981  -3.645  -5.638  1.00  0.00     0.016 A 
ATOM     17  C   UNL     1       8.937  -4.660  -6.599  1.00  0.00     0.047 A 
BRANCH  15  18
ATOM     18  O   UNL     1       7.656  -6.054  -8.119  1.00  0.00    -0.508 OA
ATOM     19  H   UNL     1       8.307  -6.831  -8.110  1.00  0.00     0.293 HD
ENDBRANCH  15  18
ENDBRANCH   1  12
BRANCH   2  20
ATOM     20  O   UNL     1       8.596  -0.266  -5.804  1.00  0.00    -0.502 OA
ATOM     21  H   UNL     1       9.550  -0.343  -6.139  1.00  0.00     0.293 HD
ENDBRANCH   2  20
BRANCH   6  22
ATOM     22  O   UNL     1       7.979   2.238  -1.144  1.00  0.00    -0.507 OA
ATOM     23  H   UNL     1       8.754   2.705  -1.590  1.00  0.00     0.293 HD
ENDBRANCH   6  22
BRANCH   8  24
ATOM     24  O   UNL     1       7.103  -1.487   1.729  1.00  0.00    -0.508 OA
ATOM     25  H   UNL     1       7.849  -1.842   2.317  1.00  0.00     0.293 HD
ENDBRANCH   8  24
TORSDOF 5
ENDMDL
MODEL 9
REMARK VINA RESULT:    -6.563      3.736      6.615
REMARK INTER + INTRA:          -7.808
REMARK INTER:                  -7.631
REMARK INTRA:                  -0.177
REMARK UNBOUND:                -0.094
REMARK SMILES O=c1c(O)c(-c2ccc(O)cc2)oc2cc(O)cc(O)c12
REMARK SMILES IDX 5 1 3 2 2 3 1 4 21 5 19 6 18 7 16 8 15 9 14 10 13 11 6 12
REMARK SMILES IDX 7 13 8 14 9 15 12 16 11 17 10 18 4 20 20 22 17 24
REMARK H PARENT 10 19 4 21 20 23 17 25
REMARK Flexibility Score: inf
ROOT
ATOM      1  C   UNL     1       6.902  -1.873  -3.349  1.00  0.00     0.180 A 
ATOM      2  C   UNL     1       5.568  -2.059  -3.751  1.00  0.00     0.208 A 
ATOM      3  C   UNL     1       5.304  -2.837  -4.890  1.00  0.00     0.238 A 
ATOM      4  O   UNL     1       4.105  -3.045  -5.213  1.00  0.00    -0.285 OA
ATOM      5  C   UNL     1       6.374  -3.405  -5.620  1.00  0.00     0.111 A 
ATOM      6  C   UNL     1       6.224  -4.178  -6.810  1.00  0.00     0.134 A 
ATOM      7  C   UNL     1       7.343  -4.800  -7.376  1.00  0.00     0.093 A 
ATOM      8  C   UNL     1       8.615  -4.625  -6.834  1.00  0.00     0.123 A 
ATOM      9  C   UNL     1       8.783  -3.823  -5.704  1.00  0.00     0.094 A 
ATOM     10  C   UNL     1       7.680  -3.219  -5.096  1.00  0.00     0.146 A 
ATOM     11  O   UNL     1       7.881  -2.473  -4.016  1.00  0.00    -0.452 OA
ENDROOT
BRANCH   1  12
ATOM     12  C   UNL     1       7.263  -1.045  -2.175  1.00  0.00     0.021 A 
ATOM     13  C   UNL     1       6.961  -1.459  -0.865  1.00  0.00     0.016 A 
ATOM     14  C   UNL     1       7.291  -0.649   0.226  1.00  0.00     0.047 A 
ATOM     15  C   UNL     1       7.913   0.586   0.023  1.00  0.00     0.115 A 
ATOM     16  C   UNL     1       7.871   0.206  -2.372  1.00  0.00     0.016 A 
ATOM     17  C   UNL     1       8.200   1.014  -1.279  1.00  0.00     0.047 A 
BRANCH  15  18
ATOM     18  O   UNL     1       8.238   1.382   1.120  1.00  0.00    -0.508 OA
ATOM     19  H   UNL     1       9.192   1.460   1.453  1.00  0.00     0.293 HD
ENDBRANCH  15  18
ENDBRANCH   1  12
BRANCH   2  20
ATOM     20  O   UNL     1       4.526  -1.507  -3.004  1.00  0.00    -0.502 OA
ATOM     21  H   UNL     1       3.671  -2.014  -2.804  1.00  0.00     0.293 HD
ENDBRANCH   2  20
BRANCH   6  22
ATOM     22  O   UNL     1       5.011  -4.340  -7.487  1.00  0.00    -0.507 OA
ATOM     23  H   UNL     1       4.238  -4.897  -7.157  1.00  0.00     0.293 HD
ENDBRANCH   6  22
BRANCH   8  24
ATOM     24  O   UNL     1       9.709  -5.247  -7.432  1.00  0.00    -0.508 OA
ATOM     25  H   UNL     1      10.477  -4.711  -7.821  1.00  0.00     0.293 HD
ENDBRANCH   8  24
TORSDOF 5
ENDMDL
