MODEL 1
REMARK VINA RESULT:    -6.948      0.000      0.000
REMARK INTER + INTRA:          -8.943
REMARK INTER:                  -8.573
REMARK INTRA:                  -0.370
REMARK UNBOUND:                -0.370
REMARK SMILES Oc1cc(O)c2cc(O)c(-c3cc(O)c(O)c(O)c3)[o+]c2c1.[Cl-]
REMARK SMILES IDX 10 1 20 2 21 3 22 4 2 5 3 6 4 7 6 8 7 9 8 10 11 11 12 12
REMARK SMILES IDX 13 13 19 14 15 15 17 16 14 17 16 19 18 21 9 23 1 25 5 27
REMARK H PARENT 14 18 16 20 18 22 9 24 1 26 5 28
REMARK Flexibility Score: inf
ROOT
ATOM      1  C   UNL     1     -36.617 -13.044 -10.532  1.00  0.00     0.402 A 
ATOM      2  O   UNL     1     -35.666 -13.966 -10.661  1.00  0.00    -0.202 OA
ATOM      3  C   UNL     1     -35.547 -14.748 -11.728  1.00  0.00     0.368 A 
ATOM      4  C   UNL     1     -34.511 -15.685 -11.773  1.00  0.00     0.162 A 
ATOM      5  C   UNL     1     -34.360 -16.518 -12.882  1.00  0.00     0.128 A 
ATOM      6  C   UNL     1     -35.250 -16.414 -13.956  1.00  0.00     0.093 A 
ATOM      7  C   UNL     1     -36.296 -15.484 -13.937  1.00  0.00     0.136 A 
ATOM      8  C   UNL     1     -36.454 -14.637 -12.809  1.00  0.00     0.125 A 
ATOM      9  C   UNL     1     -37.481 -13.684 -12.696  1.00  0.00     0.078 A 
ATOM     10  C   UNL     1     -37.575 -12.888 -11.552  1.00  0.00     0.223 A 
ENDROOT
BRANCH   1  11
ATOM     11  C   UNL     1     -36.638 -12.226  -9.298  1.00  0.00     0.091 A 
ATOM     12  C   UNL     1     -35.834 -11.080  -9.166  1.00  0.00     0.068 A 
ATOM     13  C   UNL     1     -35.851 -10.332  -7.981  1.00  0.00     0.162 A 
ATOM     14  C   UNL     1     -37.433 -12.631  -8.215  1.00  0.00     0.068 A 
ATOM     15  C   UNL     1     -36.668 -10.733  -6.911  1.00  0.00     0.200 A 
ATOM     16  C   UNL     1     -37.456 -11.886  -7.029  1.00  0.00     0.162 A 
BRANCH  13  17
ATOM     17  O   UNL     1     -35.055  -9.194  -7.862  1.00  0.00    -0.504 OA
ATOM     18  H   UNL     1     -34.836  -8.791  -6.958  1.00  0.00     0.293 HD
ENDBRANCH  13  17
BRANCH  15  19
ATOM     19  O   UNL     1     -36.705 -10.002  -5.724  1.00  0.00    -0.502 OA
ATOM     20  H   UNL     1     -36.593 -10.439  -4.817  1.00  0.00     0.293 HD
ENDBRANCH  15  19
BRANCH  16  21
ATOM     21  O   UNL     1     -38.258 -12.284  -5.962  1.00  0.00    -0.504 OA
ATOM     22  H   UNL     1     -37.893 -12.857  -5.209  1.00  0.00     0.293 HD
ENDBRANCH  16  21
ENDBRANCH   1  11
BRANCH  10  23
ATOM     23  O   UNL     1     -38.623 -11.977 -11.417  1.00  0.00    -0.500 OA
ATOM     24  H   UNL     1     -38.622 -11.267 -10.694  1.00  0.00     0.294 HD
ENDBRANCH  10  23
BRANCH   5  25
ATOM     25  O   UNL     1     -33.321 -17.446 -12.907  1.00  0.00    -0.507 OA
ATOM     26  H   UNL     1     -33.447 -18.391 -12.563  1.00  0.00     0.293 HD
ENDBRANCH   5  25
BRANCH   7  27
ATOM     27  O   UNL     1     -37.140 -15.440 -15.050  1.00  0.00    -0.507 OA
ATOM     28  H   UNL     1     -38.134 -15.270 -15.006  1.00  0.00     0.293 HD
ENDBRANCH   7  27
TORSDOF 7
ENDMDL
MODEL 2
REMARK VINA RESULT:    -6.914      0.096      1.791
REMARK INTER + INTRA:          -8.900
REMARK INTER:                  -8.527
REMARK INTRA:                  -0.373
REMARK UNBOUND:                -0.370
REMARK SMILES Oc1cc(O)c2cc(O)c(-c3cc(O)c(O)c(O)c3)[o+]c2c1.[Cl-]
REMARK SMILES IDX 10 1 20 2 21 3 22 4 2 5 3 6 4 7 6 8 7 9 8 10 11 11 12 12
REMARK SMILES IDX 13 13 19 14 15 15 17 16 14 17 16 19 18 21 9 23 1 25 5 27
REMARK H PARENT 14 18 16 20 18 22 9 24 1 26 5 28
REMARK Flexibility Score: inf
ROOT
ATOM      1  C   UNL     1     -36.638 -13.106 -10.564  1.00  0.00     0.402 A 
ATOM      2  O   UNL     1     -35.702 -14.041 -10.713  1.00  0.00    -0.202 OA
ATOM      3  C   UNL     1     -35.591 -14.797 -11.799  1.00  0.00     0.368 A 
ATOM      4  C   UNL     1     -34.572 -15.751 -11.863  1.00  0.00     0.162 A 
ATOM      5  C   UNL     1     -34.430 -16.556 -12.994  1.00  0.00     0.128 A 
ATOM      6  C   UNL     1     -35.312 -16.408 -14.069  1.00  0.00     0.093 A 
ATOM      7  C   UNL     1     -36.341 -15.460 -14.031  1.00  0.00     0.136 A 
ATOM      8  C   UNL     1     -36.490 -14.641 -12.881  1.00  0.00     0.125 A 
ATOM      9  C   UNL     1     -37.500 -13.672 -12.749  1.00  0.00     0.078 A 
ATOM     10  C   UNL     1     -37.587 -12.905 -11.583  1.00  0.00     0.223 A 
ENDROOT
BRANCH   1  11
ATOM     11  C   UNL     1     -36.651 -12.321  -9.308  1.00  0.00     0.091 A 
ATOM     12  C   UNL     1     -37.459 -12.695  -8.220  1.00  0.00     0.068 A 
ATOM     13  C   UNL     1     -37.475 -11.926  -7.048  1.00  0.00     0.162 A 
ATOM     14  C   UNL     1     -35.886 -11.148  -9.219  1.00  0.00     0.068 A 
ATOM     15  C   UNL     1     -36.687 -10.766  -6.960  1.00  0.00     0.200 A 
ATOM     16  C   UNL     1     -35.896 -10.377  -8.050  1.00  0.00     0.162 A 
BRANCH  13  17
ATOM     17  O   UNL     1     -38.274 -12.309  -5.972  1.00  0.00    -0.504 OA
ATOM     18  H   UNL     1     -38.237 -13.247  -5.590  1.00  0.00     0.293 HD
ENDBRANCH  13  17
BRANCH  15  19
ATOM     19  O   UNL     1     -36.683  -9.988  -5.803  1.00  0.00    -0.502 OA
ATOM     20  H   UNL     1     -36.914 -10.371  -4.895  1.00  0.00     0.293 HD
ENDBRANCH  15  19
BRANCH  16  21
ATOM     21  O   UNL     1     -35.123  -9.221  -7.961  1.00  0.00    -0.504 OA
ATOM     22  H   UNL     1     -35.243  -8.560  -7.202  1.00  0.00     0.293 HD
ENDBRANCH  16  21
ENDBRANCH   1  11
BRANCH  10  23
ATOM     23  O   UNL     1     -38.619 -11.979 -11.431  1.00  0.00    -0.500 OA
ATOM     24  H   UNL     1     -39.117 -11.877 -10.554  1.00  0.00     0.294 HD
ENDBRANCH  10  23
BRANCH   5  25
ATOM     25  O   UNL     1     -33.408 -17.502 -13.038  1.00  0.00    -0.507 OA
ATOM     26  H   UNL     1     -33.037 -17.921 -12.193  1.00  0.00     0.293 HD
ENDBRANCH   5  25
BRANCH   7  27
ATOM     27  O   UNL     1     -37.178 -15.371 -15.146  1.00  0.00    -0.507 OA
ATOM     28  H   UNL     1     -38.175 -15.217 -15.102  1.00  0.00     0.293 HD
ENDBRANCH   7  27
TORSDOF 7
ENDMDL
MODEL 3
REMARK VINA RESULT:    -6.830      1.264      3.151
REMARK INTER + INTRA:          -8.797
REMARK INTER:                  -8.504
REMARK INTRA:                  -0.293
REMARK UNBOUND:                -0.370
REMARK SMILES Oc1cc(O)c2cc(O)c(-c3cc(O)c(O)c(O)c3)[o+]c2c1.[Cl-]
REMARK SMILES IDX 10 1 20 2 21 3 22 4 2 5 3 6 4 7 6 8 7 9 8 10 11 11 12 12
REMARK SMILES IDX 13 13 19 14 15 15 17 16 14 17 16 19 18 21 9 23 1 25 5 27
REMARK H PARENT 14 18 16 20 18 22 9 24 1 26 5 28
REMARK Flexibility Score: inf
ROOT
ATOM      1  C   UNL     1     -36.462 -13.515 -10.332  1.00  0.00     0.402 A 
ATOM      2  O   UNL     1     -36.945 -13.113 -11.505  1.00  0.00    -0.202 OA
ATOM      3  C   UNL     1     -36.955 -13.877 -12.591  1.00  0.00     0.368 A 
ATOM      4  C   UNL     1     -37.488 -13.365 -13.778  1.00  0.00     0.162 A 
ATOM      5  C   UNL     1     -37.514 -14.147 -14.933  1.00  0.00     0.128 A 
ATOM      6  C   UNL     1     -37.005 -15.450 -14.905  1.00  0.00     0.093 A 
ATOM      7  C   UNL     1     -36.466 -15.986 -13.729  1.00  0.00     0.136 A 
ATOM      8  C   UNL     1     -36.435 -15.193 -12.553  1.00  0.00     0.125 A 
ATOM      9  C   UNL     1     -35.903 -15.643 -11.332  1.00  0.00     0.078 A 
ATOM     10  C   UNL     1     -35.903 -14.802 -10.215  1.00  0.00     0.223 A 
ENDROOT
BRANCH   1  11
ATOM     11  C   UNL     1     -36.517 -12.573  -9.191  1.00  0.00     0.091 A 
ATOM     12  C   UNL     1     -37.354 -12.810  -8.086  1.00  0.00     0.068 A 
ATOM     13  C   UNL     1     -37.408 -11.895  -7.026  1.00  0.00     0.162 A 
ATOM     14  C   UNL     1     -35.762 -11.391  -9.234  1.00  0.00     0.068 A 
ATOM     15  C   UNL     1     -36.631 -10.725  -7.068  1.00  0.00     0.200 A 
ATOM     16  C   UNL     1     -35.811 -10.474  -8.177  1.00  0.00     0.162 A 
BRANCH  13  17
ATOM     17  O   UNL     1     -38.236 -12.141  -5.932  1.00  0.00    -0.504 OA
ATOM     18  H   UNL     1     -38.101 -11.668  -5.046  1.00  0.00     0.293 HD
ENDBRANCH  13  17
BRANCH  15  19
ATOM     19  O   UNL     1     -36.665  -9.802  -6.023  1.00  0.00    -0.502 OA
ATOM     20  H   UNL     1     -36.038  -9.861  -5.231  1.00  0.00     0.293 HD
ENDBRANCH  15  19
BRANCH  16  21
ATOM     21  O   UNL     1     -35.048  -9.309  -8.219  1.00  0.00    -0.504 OA
ATOM     22  H   UNL     1     -34.520  -8.992  -7.413  1.00  0.00     0.293 HD
ENDBRANCH  16  21
ENDBRANCH   1  11
BRANCH  10  23
ATOM     23  O   UNL     1     -35.330 -15.229  -9.018  1.00  0.00    -0.500 OA
ATOM     24  H   UNL     1     -34.824 -14.593  -8.413  1.00  0.00     0.294 HD
ENDBRANCH  10  23
BRANCH   5  25
ATOM     25  O   UNL     1     -38.049 -13.618 -16.107  1.00  0.00    -0.507 OA
ATOM     26  H   UNL     1     -38.004 -14.124 -16.983  1.00  0.00     0.293 HD
ENDBRANCH   5  25
BRANCH   7  27
ATOM     27  O   UNL     1     -35.982 -17.295 -13.781  1.00  0.00    -0.507 OA
ATOM     28  H   UNL     1     -35.068 -17.553 -14.124  1.00  0.00     0.293 HD
ENDBRANCH   7  27
TORSDOF 7
ENDMDL
MODEL 4
REMARK VINA RESULT:    -6.785      1.247      2.581
REMARK INTER + INTRA:          -8.742
REMARK INTER:                  -8.462
REMARK INTRA:                  -0.279
REMARK UNBOUND:                -0.370
REMARK SMILES Oc1cc(O)c2cc(O)c(-c3cc(O)c(O)c(O)c3)[o+]c2c1.[Cl-]
REMARK SMILES IDX 10 1 20 2 21 3 22 4 2 5 3 6 4 7 6 8 7 9 8 10 11 11 12 12
REMARK SMILES IDX 13 13 19 14 15 15 17 16 14 17 16 19 18 21 9 23 1 25 5 27
REMARK H PARENT 14 18 16 20 18 22 9 24 1 26 5 28
REMARK Flexibility Score: inf
ROOT
ATOM      1  C   UNL     1     -36.421 -13.475 -10.349  1.00  0.00     0.402 A 
ATOM      2  O   UNL     1     -36.900 -13.095 -11.532  1.00  0.00    -0.202 OA
ATOM      3  C   UNL     1     -36.910 -13.882 -12.602  1.00  0.00     0.368 A 
ATOM      4  C   UNL     1     -37.438 -13.393 -13.800  1.00  0.00     0.162 A 
ATOM      5  C   UNL     1     -37.465 -14.198 -14.939  1.00  0.00     0.128 A 
ATOM      6  C   UNL     1     -36.961 -15.502 -14.882  1.00  0.00     0.093 A 
ATOM      7  C   UNL     1     -36.427 -16.016 -13.695  1.00  0.00     0.136 A 
ATOM      8  C   UNL     1     -36.396 -15.199 -12.535  1.00  0.00     0.125 A 
ATOM      9  C   UNL     1     -35.868 -15.625 -11.304  1.00  0.00     0.078 A 
ATOM     10  C   UNL     1     -35.868 -14.761 -10.205  1.00  0.00     0.223 A 
ENDROOT
BRANCH   1  11
ATOM     11  C   UNL     1     -36.475 -12.509  -9.229  1.00  0.00     0.091 A 
ATOM     12  C   UNL     1     -35.642 -11.377  -9.197  1.00  0.00     0.068 A 
ATOM     13  C   UNL     1     -35.692 -10.486  -8.117  1.00  0.00     0.162 A 
ATOM     14  C   UNL     1     -37.333 -12.755  -8.146  1.00  0.00     0.068 A 
ATOM     15  C   UNL     1     -36.572 -10.729  -7.048  1.00  0.00     0.200 A 
ATOM     16  C   UNL     1     -37.389 -11.867  -7.064  1.00  0.00     0.162 A 
BRANCH  13  17
ATOM     17  O   UNL     1     -34.867  -9.363  -8.099  1.00  0.00    -0.504 OA
ATOM     18  H   UNL     1     -34.096  -9.280  -7.446  1.00  0.00     0.293 HD
ENDBRANCH  13  17
BRANCH  15  19
ATOM     19  O   UNL     1     -36.642  -9.854  -5.964  1.00  0.00    -0.502 OA
ATOM     20  H   UNL     1     -35.820  -9.576  -5.441  1.00  0.00     0.293 HD
ENDBRANCH  15  19
BRANCH  16  21
ATOM     21  O   UNL     1     -38.254 -12.108  -5.998  1.00  0.00    -0.504 OA
ATOM     22  H   UNL     1     -38.104 -12.880  -5.358  1.00  0.00     0.293 HD
ENDBRANCH  16  21
ENDBRANCH   1  11
BRANCH  10  23
ATOM     23  O   UNL     1     -35.299 -15.165  -8.997  1.00  0.00    -0.500 OA
ATOM     24  H   UNL     1     -35.768 -15.817  -8.380  1.00  0.00     0.294 HD
ENDBRANCH  10  23
BRANCH   5  25
ATOM     25  O   UNL     1     -37.995 -13.692 -16.125  1.00  0.00    -0.507 OA
ATOM     26  H   UNL     1     -38.990 -13.717 -16.312  1.00  0.00     0.293 HD
ENDBRANCH   5  25
BRANCH   7  27
ATOM     27  O   UNL     1     -35.948 -17.328 -13.718  1.00  0.00    -0.507 OA
ATOM     28  H   UNL     1     -35.583 -17.818 -12.914  1.00  0.00     0.293 HD
ENDBRANCH   7  27
TORSDOF 7
ENDMDL
MODEL 5
REMARK VINA RESULT:    -6.457      1.461      7.303
REMARK INTER + INTRA:          -8.337
REMARK INTER:                  -7.966
REMARK INTRA:                  -0.371
REMARK UNBOUND:                -0.370
REMARK SMILES Oc1cc(O)c2cc(O)c(-c3cc(O)c(O)c(O)c3)[o+]c2c1.[Cl-]
REMARK SMILES IDX 10 1 20 2 21 3 22 4 2 5 3 6 4 7 6 8 7 9 8 10 11 11 12 12
REMARK SMILES IDX 13 13 19 14 15 15 17 16 14 17 16 19 18 21 9 23 1 25 5 27
REMARK H PARENT 14 18 16 20 18 22 9 24 1 26 5 28
REMARK Flexibility Score: inf
ROOT
ATOM      1  C   UNL     1     -36.093 -13.190 -11.628  1.00  0.00     0.402 A 
ATOM      2  O   UNL     1     -36.915 -13.157 -10.583  1.00  0.00    -0.202 OA
ATOM      3  C   UNL     1     -36.693 -12.416  -9.502  1.00  0.00     0.368 A 
ATOM      4  C   UNL     1     -37.619 -12.445  -8.455  1.00  0.00     0.162 A 
ATOM      5  C   UNL     1     -37.412 -11.675  -7.310  1.00  0.00     0.128 A 
ATOM      6  C   UNL     1     -36.273 -10.869  -7.209  1.00  0.00     0.093 A 
ATOM      7  C   UNL     1     -35.331 -10.822  -8.244  1.00  0.00     0.136 A 
ATOM      8  C   UNL     1     -35.536 -11.606  -9.409  1.00  0.00     0.125 A 
ATOM      9  C   UNL     1     -34.639 -11.632 -10.490  1.00  0.00     0.078 A 
ATOM     10  C   UNL     1     -34.907 -12.433 -11.604  1.00  0.00     0.223 A 
ENDROOT
BRANCH   1  11
ATOM     11  C   UNL     1     -36.457 -14.049 -12.779  1.00  0.00     0.091 A 
ATOM     12  C   UNL     1     -36.128 -15.415 -12.805  1.00  0.00     0.068 A 
ATOM     13  C   UNL     1     -36.461 -16.207 -13.913  1.00  0.00     0.162 A 
ATOM     14  C   UNL     1     -37.094 -13.479 -13.891  1.00  0.00     0.068 A 
ATOM     15  C   UNL     1     -37.120 -15.631 -15.013  1.00  0.00     0.200 A 
ATOM     16  C   UNL     1     -37.432 -14.265 -15.001  1.00  0.00     0.162 A 
BRANCH  13  17
ATOM     17  O   UNL     1     -36.136 -17.562 -13.927  1.00  0.00    -0.504 OA
ATOM     18  H   UNL     1     -35.439 -17.947 -13.300  1.00  0.00     0.293 HD
ENDBRANCH  13  17
BRANCH  15  19
ATOM     19  O   UNL     1     -37.465 -16.399 -16.124  1.00  0.00    -0.502 OA
ATOM     20  H   UNL     1     -38.207 -17.087 -16.095  1.00  0.00     0.293 HD
ENDBRANCH  15  19
BRANCH  16  21
ATOM     21  O   UNL     1     -38.077 -13.696 -16.097  1.00  0.00    -0.504 OA
ATOM     22  H   UNL     1     -38.330 -12.715 -16.113  1.00  0.00     0.293 HD
ENDBRANCH  16  21
ENDBRANCH   1  11
BRANCH  10  23
ATOM     23  O   UNL     1     -33.993 -12.498 -12.655  1.00  0.00    -0.500 OA
ATOM     24  H   UNL     1     -32.993 -12.452 -12.495  1.00  0.00     0.294 HD
ENDBRANCH  10  23
BRANCH   5  25
ATOM     25  O   UNL     1     -38.346 -11.718  -6.277  1.00  0.00    -0.507 OA
ATOM     26  H   UNL     1     -38.734 -12.596  -5.951  1.00  0.00     0.293 HD
ENDBRANCH   5  25
BRANCH   7  27
ATOM     27  O   UNL     1     -34.222  -9.990  -8.068  1.00  0.00    -0.507 OA
ATOM     28  H   UNL     1     -33.920  -9.293  -8.733  1.00  0.00     0.293 HD
ENDBRANCH   7  27
TORSDOF 7
ENDMDL
MODEL 6
REMARK VINA RESULT:    -6.376      2.674      4.542
REMARK INTER + INTRA:          -8.236
REMARK INTER:                  -7.854
REMARK INTRA:                  -0.382
REMARK UNBOUND:                -0.370
REMARK SMILES Oc1cc(O)c2cc(O)c(-c3cc(O)c(O)c(O)c3)[o+]c2c1.[Cl-]
REMARK SMILES IDX 10 1 20 2 21 3 22 4 2 5 3 6 4 7 6 8 7 9 8 10 11 11 12 12
REMARK SMILES IDX 13 13 19 14 15 15 17 16 14 17 16 19 18 21 9 23 1 25 5 27
REMARK H PARENT 14 18 16 20 18 22 9 24 1 26 5 28
REMARK Flexibility Score: inf
ROOT
ATOM      1  C   UNL     1     -36.294 -16.028  -9.689  1.00  0.00     0.402 A 
ATOM      2  O   UNL     1     -36.797 -15.730 -10.884  1.00  0.00    -0.202 OA
ATOM      3  C   UNL     1     -36.128 -15.894 -12.020  1.00  0.00     0.368 A 
ATOM      4  C   UNL     1     -36.745 -15.555 -13.228  1.00  0.00     0.162 A 
ATOM      5  C   UNL     1     -36.066 -15.720 -14.436  1.00  0.00     0.128 A 
ATOM      6  C   UNL     1     -34.763 -16.228 -14.439  1.00  0.00     0.093 A 
ATOM      7  C   UNL     1     -34.124 -16.576 -13.243  1.00  0.00     0.136 A 
ATOM      8  C   UNL     1     -34.809 -16.407 -12.012  1.00  0.00     0.125 A 
ATOM      9  C   UNL     1     -34.242 -16.716 -10.764  1.00  0.00     0.078 A 
ATOM     10  C   UNL     1     -34.979 -16.519  -9.592  1.00  0.00     0.223 A 
ENDROOT
BRANCH   1  11
ATOM     11  C   UNL     1     -37.144 -15.810  -8.496  1.00  0.00     0.091 A 
ATOM     12  C   UNL     1     -37.925 -16.846  -7.954  1.00  0.00     0.068 A 
ATOM     13  C   UNL     1     -38.740 -16.613  -6.838  1.00  0.00     0.162 A 
ATOM     14  C   UNL     1     -37.218 -14.530  -7.926  1.00  0.00     0.068 A 
ATOM     15  C   UNL     1     -38.789 -15.333  -6.260  1.00  0.00     0.200 A 
ATOM     16  C   UNL     1     -38.029 -14.291  -6.809  1.00  0.00     0.162 A 
BRANCH  13  17
ATOM     17  O   UNL     1     -39.505 -17.649  -6.304  1.00  0.00    -0.504 OA
ATOM     18  H   UNL     1     -40.211 -17.478  -5.596  1.00  0.00     0.293 HD
ENDBRANCH  13  17
BRANCH  15  19
ATOM     19  O   UNL     1     -39.590 -15.079  -5.147  1.00  0.00    -0.502 OA
ATOM     20  H   UNL     1     -40.303 -15.727  -4.836  1.00  0.00     0.293 HD
ENDBRANCH  15  19
BRANCH  16  21
ATOM     21  O   UNL     1     -38.088 -13.022  -6.238  1.00  0.00    -0.504 OA
ATOM     22  H   UNL     1     -37.954 -12.184  -6.794  1.00  0.00     0.293 HD
ENDBRANCH  16  21
ENDBRANCH   1  11
BRANCH  10  23
ATOM     23  O   UNL     1     -34.399 -16.778  -8.350  1.00  0.00    -0.500 OA
ATOM     24  H   UNL     1     -34.223 -17.724  -8.032  1.00  0.00     0.294 HD
ENDBRANCH  10  23
BRANCH   5  25
ATOM     25  O   UNL     1     -36.698 -15.375 -15.629  1.00  0.00    -0.507 OA
ATOM     26  H   UNL     1     -36.576 -15.926 -16.471  1.00  0.00     0.293 HD
ENDBRANCH   5  25
BRANCH   7  27
ATOM     27  O   UNL     1     -32.823 -17.080 -13.331  1.00  0.00    -0.507 OA
ATOM     28  H   UNL     1     -32.577 -17.950 -13.781  1.00  0.00     0.293 HD
ENDBRANCH   7  27
TORSDOF 7
ENDMDL
MODEL 7
REMARK VINA RESULT:    -6.351      3.420      6.663
REMARK INTER + INTRA:          -8.206
REMARK INTER:                  -8.574
REMARK INTRA:                   0.368
REMARK UNBOUND:                -0.370
REMARK SMILES Oc1cc(O)c2cc(O)c(-c3cc(O)c(O)c(O)c3)[o+]c2c1.[Cl-]
REMARK SMILES IDX 10 1 20 2 21 3 22 4 2 5 3 6 4 7 6 8 7 9 8 10 11 11 12 12
REMARK SMILES IDX 13 13 19 14 15 15 17 16 14 17 16 19 18 21 9 23 1 25 5 27
REMARK H PARENT 14 18 16 20 18 22 9 24 1 26 5 28
REMARK Flexibility Score: inf
ROOT
ATOM      1  C   UNL     1     -36.668 -12.472  -7.782  1.00  0.00     0.402 A 
ATOM      2  O   UNL     1     -35.779 -12.079  -8.691  1.00  0.00    -0.202 OA
ATOM      3  C   UNL     1     -35.274 -10.850  -8.735  1.00  0.00     0.368 A 
ATOM      4  C   UNL     1     -34.341 -10.534  -9.727  1.00  0.00     0.162 A 
ATOM      5  C   UNL     1     -33.793  -9.253  -9.795  1.00  0.00     0.128 A 
ATOM      6  C   UNL     1     -34.178  -8.280  -8.867  1.00  0.00     0.093 A 
ATOM      7  C   UNL     1     -35.110  -8.571  -7.865  1.00  0.00     0.136 A 
ATOM      8  C   UNL     1     -35.672  -9.872  -7.793  1.00  0.00     0.125 A 
ATOM      9  C   UNL     1     -36.624 -10.251  -6.831  1.00  0.00     0.078 A 
ATOM     10  C   UNL     1     -37.136 -11.551  -6.826  1.00  0.00     0.223 A 
ENDROOT
BRANCH   1  11
ATOM     11  C   UNL     1     -37.148 -13.871  -7.831  1.00  0.00     0.091 A 
ATOM     12  C   UNL     1     -38.243 -14.297  -7.058  1.00  0.00     0.068 A 
ATOM     13  C   UNL     1     -38.668 -15.632  -7.101  1.00  0.00     0.162 A 
ATOM     14  C   UNL     1     -36.464 -14.809  -8.620  1.00  0.00     0.068 A 
ATOM     15  C   UNL     1     -37.991 -16.558  -7.912  1.00  0.00     0.200 A 
ATOM     16  C   UNL     1     -36.886 -16.144  -8.669  1.00  0.00     0.162 A 
BRANCH  13  17
ATOM     17  O   UNL     1     -39.758 -16.043  -6.336  1.00  0.00    -0.504 OA
ATOM     18  H   UNL     1     -39.638 -16.584  -5.487  1.00  0.00     0.293 HD
ENDBRANCH  13  17
BRANCH  15  19
ATOM     19  O   UNL     1     -38.398 -17.890  -7.974  1.00  0.00    -0.502 OA
ATOM     20  H   UNL     1     -39.038 -18.290  -7.299  1.00  0.00     0.293 HD
ENDBRANCH  15  19
BRANCH  16  21
ATOM     21  O   UNL     1     -36.212 -17.067  -9.466  1.00  0.00    -0.504 OA
ATOM     22  H   UNL     1     -35.221 -17.245  -9.348  1.00  0.00     0.293 HD
ENDBRANCH  16  21
ENDBRANCH   1  11
BRANCH  10  23
ATOM     23  O   UNL     1     -38.117 -11.913  -5.902  1.00  0.00    -0.500 OA
ATOM     24  H   UNL     1     -38.486 -11.250  -5.231  1.00  0.00     0.294 HD
ENDBRANCH  10  23
BRANCH   5  25
ATOM     25  O   UNL     1     -32.864  -8.957 -10.792  1.00  0.00    -0.507 OA
ATOM     26  H   UNL     1     -32.948  -8.124 -11.363  1.00  0.00     0.293 HD
ENDBRANCH   5  25
BRANCH   7  27
ATOM     27  O   UNL     1     -35.440  -7.546  -6.974  1.00  0.00    -0.507 OA
ATOM     28  H   UNL     1     -35.497  -7.657  -5.972  1.00  0.00     0.293 HD
ENDBRANCH   7  27
TORSDOF 7
ENDMDL
MODEL 8
REMARK VINA RESULT:    -6.264      7.782     11.072
REMARK INTER + INTRA:          -8.098
REMARK INTER:                  -7.719
REMARK INTRA:                  -0.379
REMARK UNBOUND:                -0.370
REMARK SMILES Oc1cc(O)c2cc(O)c(-c3cc(O)c(O)c(O)c3)[o+]c2c1.[Cl-]
REMARK SMILES IDX 10 1 20 2 21 3 22 4 2 5 3 6 4 7 6 8 7 9 8 10 11 11 12 12
REMARK SMILES IDX 13 13 19 14 15 15 17 16 14 17 16 19 18 21 9 23 1 25 5 27
REMARK H PARENT 14 18 16 20 18 22 9 24 1 26 5 28
REMARK Flexibility Score: inf
ROOT
ATOM      1  C   UNL     1     -29.820 -15.419  -5.586  1.00  0.00     0.402 A 
ATOM      2  O   UNL     1     -28.725 -14.826  -5.114  1.00  0.00    -0.202 OA
ATOM      3  C   UNL     1     -28.743 -13.941  -4.124  1.00  0.00     0.368 A 
ATOM      4  C   UNL     1     -27.539 -13.376  -3.695  1.00  0.00     0.162 A 
ATOM      5  C   UNL     1     -27.527 -12.446  -2.655  1.00  0.00     0.128 A 
ATOM      6  C   UNL     1     -28.727 -12.078  -2.037  1.00  0.00     0.093 A 
ATOM      7  C   UNL     1     -29.946 -12.630  -2.447  1.00  0.00     0.136 A 
ATOM      8  C   UNL     1     -29.962 -13.574  -3.506  1.00  0.00     0.125 A 
ATOM      9  C   UNL     1     -31.139 -14.169  -3.993  1.00  0.00     0.078 A 
ATOM     10  C   UNL     1     -31.076 -15.088  -5.044  1.00  0.00     0.223 A 
ENDROOT
BRANCH   1  11
ATOM     11  C   UNL     1     -29.669 -16.396  -6.687  1.00  0.00     0.091 A 
ATOM     12  C   UNL     1     -29.699 -15.993  -8.034  1.00  0.00     0.068 A 
ATOM     13  C   UNL     1     -29.577 -16.937  -9.063  1.00  0.00     0.162 A 
ATOM     14  C   UNL     1     -29.548 -17.762  -6.387  1.00  0.00     0.068 A 
ATOM     15  C   UNL     1     -29.433 -18.299  -8.750  1.00  0.00     0.200 A 
ATOM     16  C   UNL     1     -29.424 -18.710  -7.411  1.00  0.00     0.162 A 
BRANCH  13  17
ATOM     17  O   UNL     1     -29.602 -16.526 -10.394  1.00  0.00    -0.504 OA
ATOM     18  H   UNL     1     -29.628 -17.193 -11.156  1.00  0.00     0.293 HD
ENDBRANCH  13  17
BRANCH  15  19
ATOM     19  O   UNL     1     -29.306 -19.256  -9.757  1.00  0.00    -0.502 OA
ATOM     20  H   UNL     1     -29.518 -19.051 -10.726  1.00  0.00     0.293 HD
ENDBRANCH  15  19
BRANCH  16  21
ATOM     21  O   UNL     1     -29.290 -20.063  -7.106  1.00  0.00    -0.504 OA
ATOM     22  H   UNL     1     -29.327 -20.397  -6.150  1.00  0.00     0.293 HD
ENDBRANCH  16  21
ENDBRANCH   1  11
BRANCH  10  23
ATOM     23  O   UNL     1     -32.248 -15.642  -5.560  1.00  0.00    -0.500 OA
ATOM     24  H   UNL     1     -33.161 -15.386  -5.201  1.00  0.00     0.294 HD
ENDBRANCH  10  23
BRANCH   5  25
ATOM     25  O   UNL     1     -26.316 -11.893  -2.243  1.00  0.00    -0.507 OA
ATOM     26  H   UNL     1     -25.489 -12.465  -2.117  1.00  0.00     0.293 HD
ENDBRANCH   5  25
BRANCH   7  27
ATOM     27  O   UNL     1     -31.099 -12.213  -1.777  1.00  0.00    -0.507 OA
ATOM     28  H   UNL     1     -32.026 -12.573  -1.956  1.00  0.00     0.293 HD
ENDBRANCH   7  27
TORSDOF 7
ENDMDL
MODEL 9
REMARK VINA RESULT:    -6.227      2.073      7.261
REMARK INTER + INTRA:          -8.053
REMARK INTER:                  -7.724
REMARK INTRA:                  -0.329
REMARK UNBOUND:                -0.370
REMARK SMILES Oc1cc(O)c2cc(O)c(-c3cc(O)c(O)c(O)c3)[o+]c2c1.[Cl-]
REMARK SMILES IDX 10 1 20 2 21 3 22 4 2 5 3 6 4 7 6 8 7 9 8 10 11 11 12 12
REMARK SMILES IDX 13 13 19 14 15 15 17 16 14 17 16 19 18 21 9 23 1 25 5 27
REMARK H PARENT 14 18 16 20 18 22 9 24 1 26 5 28
REMARK Flexibility Score: inf
ROOT
ATOM      1  C   UNL     1     -36.141 -11.760  -9.011  1.00  0.00     0.402 A 
ATOM      2  O   UNL     1     -35.139 -10.920  -9.258  1.00  0.00    -0.202 OA
ATOM      3  C   UNL     1     -34.914  -9.821  -8.547  1.00  0.00     0.368 A 
ATOM      4  C   UNL     1     -33.832  -9.003  -8.882  1.00  0.00     0.162 A 
ATOM      5  C   UNL     1     -33.570  -7.844  -8.151  1.00  0.00     0.128 A 
ATOM      6  C   UNL     1     -34.395  -7.499  -7.075  1.00  0.00     0.093 A 
ATOM      7  C   UNL     1     -35.485  -8.302  -6.718  1.00  0.00     0.136 A 
ATOM      8  C   UNL     1     -35.756  -9.480  -7.461  1.00  0.00     0.125 A 
ATOM      9  C   UNL     1     -36.834 -10.337  -7.184  1.00  0.00     0.078 A 
ATOM     10  C   UNL     1     -37.040 -11.479  -7.964  1.00  0.00     0.223 A 
ENDROOT
BRANCH   1  11
ATOM     11  C   UNL     1     -36.281 -12.958  -9.869  1.00  0.00     0.091 A 
ATOM     12  C   UNL     1     -35.957 -14.241  -9.394  1.00  0.00     0.068 A 
ATOM     13  C   UNL     1     -36.075 -15.360 -10.230  1.00  0.00     0.162 A 
ATOM     14  C   UNL     1     -36.690 -12.807 -11.203  1.00  0.00     0.068 A 
ATOM     15  C   UNL     1     -36.508 -15.201 -11.557  1.00  0.00     0.200 A 
ATOM     16  C   UNL     1     -36.811 -13.922 -12.043  1.00  0.00     0.162 A 
BRANCH  13  17
ATOM     17  O   UNL     1     -35.758 -16.629  -9.747  1.00  0.00    -0.504 OA
ATOM     18  H   UNL     1     -35.501 -16.780  -8.779  1.00  0.00     0.293 HD
ENDBRANCH  13  17
BRANCH  15  19
ATOM     19  O   UNL     1     -36.637 -16.300 -12.406  1.00  0.00    -0.502 OA
ATOM     20  H   UNL     1     -37.030 -16.221 -13.335  1.00  0.00     0.293 HD
ENDBRANCH  15  19
BRANCH  16  21
ATOM     21  O   UNL     1     -37.233 -13.769 -13.362  1.00  0.00    -0.504 OA
ATOM     22  H   UNL     1     -36.772 -13.124 -13.994  1.00  0.00     0.293 HD
ENDBRANCH  16  21
ENDBRANCH   1  11
BRANCH  10  23
ATOM     23  O   UNL     1     -38.138 -12.304  -7.721  1.00  0.00    -0.500 OA
ATOM     24  H   UNL     1     -38.328 -12.680  -6.800  1.00  0.00     0.294 HD
ENDBRANCH  10  23
BRANCH   5  25
ATOM     25  O   UNL     1     -32.486  -7.041  -8.502  1.00  0.00    -0.507 OA
ATOM     26  H   UNL     1     -32.617  -6.140  -8.945  1.00  0.00     0.293 HD
ENDBRANCH   5  25
BRANCH   7  27
ATOM     27  O   UNL     1     -36.258  -7.891  -5.629  1.00  0.00    -0.507 OA
ATOM     28  H   UNL     1     -36.129  -8.216  -4.682  1.00  0.00     0.293 HD
ENDBRANCH   7  27
TORSDOF 7
ENDMDL
