MODEL 1
REMARK VINA RESULT:    -5.861      0.000      0.000
REMARK INTER + INTRA:          -5.930
REMARK INTER:                  -6.375
REMARK INTRA:                   0.446
REMARK UNBOUND:                 0.446
REMARK SMILES C[C@H]1[C@H](C)CC[C@@]2(C(=O)[O-])CC[C@@]3(C)C(=CC[C@@H]4[C@]5(C)CC[C@H](O)C(C)(C)[C@H]5CC[C@]43C)[C@@H]12
REMARK SMILES IDX 7 1 6 2 11 3 33 4 5 5 12 6 15 7 2 8 3 9 13 10 16 11 1 12
REMARK SMILES IDX 4 13 14 14 31 15 17 16 18 17 30 18 32 19 19 20 29 21 28 22
REMARK SMILES IDX 21 23 20 24 25 25 22 26 23 27 26 28 27 29 8 30 9 31 10 32
REMARK SMILES IDX 24 33
REMARK H PARENT 24 34
REMARK Flexibility Score: inf
ROOT
ATOM      1  C   UNL     1      -3.504  -5.457 -23.548  1.00  0.00     0.017 C 
ATOM      2  C   UNL     1      -4.635  -6.543 -23.570  1.00  0.00     0.014 C 
ATOM      3  C   UNL     1      -2.980  -5.259 -22.116  1.00  0.00     0.014 C 
ATOM      4  C   UNL     1      -2.310  -5.869 -24.492  1.00  0.00     0.030 C 
ATOM      5  C   UNL     1      -5.125  -6.886 -24.975  1.00  0.00     0.004 C 
ATOM      6  C   UNL     1      -2.472  -6.558 -21.490  1.00  0.00     0.013 C 
ATOM      7  C   UNL     1      -1.308  -6.868 -23.827  1.00  0.00    -0.063 C 
ATOM      8  C   UNL     1      -2.901  -6.218 -25.924  1.00  0.00    -0.003 C 
ATOM      9  C   UNL     1      -3.957  -7.352 -25.858  1.00  0.00    -0.011 C 
ATOM     10  C   UNL     1      -1.354  -7.299 -22.317  1.00  0.00    -0.006 C 
ATOM     11  C   UNL     1      -0.225  -7.285 -24.542  1.00  0.00    -0.027 C 
ATOM     12  C   UNL     1      -1.879  -6.405 -27.061  1.00  0.00     0.008 C 
ATOM     13  C   UNL     1      -4.509  -7.748 -27.242  1.00  0.00     0.008 C 
ATOM     14  C   UNL     1      -1.828  -8.800 -22.415  1.00  0.00     0.017 C 
ATOM     15  C   UNL     1       0.121  -7.150 -21.563  1.00  0.00    -0.020 C 
ATOM     16  C   UNL     1       0.984  -7.878 -23.873  1.00  0.00     0.032 C 
ATOM     17  C   UNL     1       1.263  -7.006 -22.647  1.00  0.00     0.006 C 
ATOM     18  C   UNL     1       0.286  -5.843 -20.675  1.00  0.00     0.008 C 
ATOM     19  C   UNL     1       0.308  -8.378 -20.604  1.00  0.00     0.012 C 
ATOM     20  C   UNL     1       2.785  -6.880 -22.193  1.00  0.00    -0.025 C 
ATOM     21  C   UNL     1       1.747  -5.335 -20.414  1.00  0.00     0.005 C 
ATOM     22  C   UNL     1       2.834  -6.405 -20.702  1.00  0.00     0.003 C 
ATOM     23  C   UNL     1       3.565  -8.220 -22.278  1.00  0.00     0.010 C 
ATOM     24  C   UNL     1       3.447  -5.853 -23.178  1.00  0.00     0.012 C 
ATOM     25  C   UNL     1       4.268  -6.209 -20.077  1.00  0.00    -0.006 C 
ATOM     26  C   UNL     1       5.004  -8.113 -21.719  1.00  0.00     0.033 C 
ATOM     27  C   UNL     1       5.080  -7.545 -20.283  1.00  0.00     0.120 C 
ATOM     28  C   UNL     1       4.145  -5.952 -18.544  1.00  0.00     0.014 C 
ATOM     29  C   UNL     1       5.050  -4.998 -20.657  1.00  0.00     0.014 C 
ENDROOT
BRANCH   1  30
ATOM     30  C   UNL     1      -4.108  -4.114 -23.963  1.00  0.00     0.048 C 
ATOM     31  O   UNL     1      -4.425  -3.247 -23.107  1.00  0.00    -0.550 OA
ATOM     32  O   UNL     1      -4.410  -3.867 -25.296  1.00  0.00    -0.550 OA
ENDBRANCH   1  30
BRANCH  27  33
ATOM     33  O   UNL     1       4.624  -8.549 -19.405  1.00  0.00    -0.393 OA
ATOM     34  H   UNL     1       3.634  -8.597 -19.489  1.00  0.00     0.210 HD
ENDBRANCH  27  33
TORSDOF 2
ENDMDL
MODEL 2
REMARK VINA RESULT:    -3.920      2.001      3.095
REMARK INTER + INTRA:          -3.818
REMARK INTER:                  -3.753
REMARK INTRA:                  -0.065
REMARK UNBOUND:                 0.446
REMARK SMILES C[C@H]1[C@H](C)CC[C@@]2(C(=O)[O-])CC[C@@]3(C)C(=CC[C@@H]4[C@]5(C)CC[C@H](O)C(C)(C)[C@H]5CC[C@]43C)[C@@H]12
REMARK SMILES IDX 7 1 6 2 11 3 33 4 5 5 12 6 15 7 2 8 3 9 13 10 16 11 1 12
REMARK SMILES IDX 4 13 14 14 31 15 17 16 18 17 30 18 32 19 19 20 29 21 28 22
REMARK SMILES IDX 21 23 20 24 25 25 22 26 23 27 26 28 27 29 8 30 9 31 10 32
REMARK SMILES IDX 24 33
REMARK H PARENT 24 34
REMARK Flexibility Score: inf
ROOT
ATOM      1  C   UNL     1      -3.114  -5.535 -27.293  1.00  0.00     0.017 C 
ATOM      2  C   UNL     1      -4.655  -5.823 -27.244  1.00  0.00     0.014 C 
ATOM      3  C   UNL     1      -2.700  -4.632 -26.118  1.00  0.00     0.014 C 
ATOM      4  C   UNL     1      -2.289  -6.878 -27.238  1.00  0.00     0.030 C 
ATOM      5  C   UNL     1      -5.125  -6.813 -28.306  1.00  0.00     0.004 C 
ATOM      6  C   UNL     1      -3.081  -5.221 -24.760  1.00  0.00     0.013 C 
ATOM      7  C   UNL     1      -2.098  -7.432 -25.788  1.00  0.00    -0.063 C 
ATOM      8  C   UNL     1      -2.843  -7.853 -28.362  1.00  0.00    -0.003 C 
ATOM      9  C   UNL     1      -4.357  -8.139 -28.191  1.00  0.00    -0.011 C 
ATOM     10  C   UNL     1      -2.516  -6.666 -24.483  1.00  0.00    -0.006 C 
ATOM     11  C   UNL     1      -1.387  -8.582 -25.613  1.00  0.00    -0.027 C 
ATOM     12  C   UNL     1      -2.013  -9.120 -28.642  1.00  0.00     0.008 C 
ATOM     13  C   UNL     1      -4.911  -9.125 -29.240  1.00  0.00     0.008 C 
ATOM     14  C   UNL     1      -3.749  -7.511 -23.981  1.00  0.00     0.017 C 
ATOM     15  C   UNL     1      -1.293  -6.603 -23.357  1.00  0.00    -0.020 C 
ATOM     16  C   UNL     1      -0.796  -8.952 -24.281  1.00  0.00     0.032 C 
ATOM     17  C   UNL     1      -0.182  -7.669 -23.717  1.00  0.00     0.006 C 
ATOM     18  C   UNL     1      -0.493  -5.232 -23.317  1.00  0.00     0.008 C 
ATOM     19  C   UNL     1      -1.925  -6.803 -21.934  1.00  0.00     0.012 C 
ATOM     20  C   UNL     1       1.094  -7.843 -22.778  1.00  0.00    -0.025 C 
ATOM     21  C   UNL     1       0.967  -5.272 -22.744  1.00  0.00     0.005 C 
ATOM     22  C   UNL     1       1.271  -6.548 -21.916  1.00  0.00     0.003 C 
ATOM     23  C   UNL     1       0.976  -9.040 -21.796  1.00  0.00     0.010 C 
ATOM     24  C   UNL     1       2.307  -8.102 -23.738  1.00  0.00     0.012 C 
ATOM     25  C   UNL     1       2.499  -6.529 -20.927  1.00  0.00    -0.006 C 
ATOM     26  C   UNL     1       2.163  -9.125 -20.807  1.00  0.00     0.033 C 
ATOM     27  C   UNL     1       2.421  -7.818 -20.021  1.00  0.00     0.120 C 
ATOM     28  C   UNL     1       2.408  -5.281 -19.996  1.00  0.00     0.014 C 
ATOM     29  C   UNL     1       3.880  -6.441 -21.635  1.00  0.00     0.014 C 
ENDROOT
BRANCH   1  30
ATOM     30  C   UNL     1      -2.805  -4.740 -28.562  1.00  0.00     0.048 C 
ATOM     31  O   UNL     1      -1.629  -4.636 -28.999  1.00  0.00    -0.550 OA
ATOM     32  O   UNL     1      -3.813  -4.030 -29.203  1.00  0.00    -0.550 OA
ENDBRANCH   1  30
BRANCH  27  33
ATOM     33  O   UNL     1       1.397  -7.692 -19.059  1.00  0.00    -0.393 OA
ATOM     34  H   UNL     1       0.530  -7.859 -19.517  1.00  0.00     0.210 HD
ENDBRANCH  27  33
TORSDOF 2
ENDMDL
MODEL 3
REMARK VINA RESULT:    -3.860      2.127      8.689
REMARK INTER + INTRA:          -3.753
REMARK INTER:                  -3.960
REMARK INTRA:                   0.207
REMARK UNBOUND:                 0.446
REMARK SMILES C[C@H]1[C@H](C)CC[C@@]2(C(=O)[O-])CC[C@@]3(C)C(=CC[C@@H]4[C@]5(C)CC[C@H](O)C(C)(C)[C@H]5CC[C@]43C)[C@@H]12
REMARK SMILES IDX 7 1 6 2 11 3 33 4 5 5 12 6 15 7 2 8 3 9 13 10 16 11 1 12
REMARK SMILES IDX 4 13 14 14 31 15 17 16 18 17 30 18 32 19 19 20 29 21 28 22
REMARK SMILES IDX 21 23 20 24 25 25 22 26 23 27 26 28 27 29 8 30 9 31 10 32
REMARK SMILES IDX 24 33
REMARK H PARENT 24 34
REMARK Flexibility Score: inf
ROOT
ATOM      1  C   UNL     1       5.797  -8.069 -20.012  1.00  0.00     0.017 C 
ATOM      2  C   UNL     1       6.162  -8.124 -18.488  1.00  0.00     0.014 C 
ATOM      3  C   UNL     1       4.725  -9.122 -20.344  1.00  0.00     0.014 C 
ATOM      4  C   UNL     1       5.270  -6.639 -20.413  1.00  0.00     0.030 C 
ATOM      5  C   UNL     1       7.132  -7.028 -18.053  1.00  0.00     0.004 C 
ATOM      6  C   UNL     1       3.463  -8.963 -19.496  1.00  0.00     0.013 C 
ATOM      7  C   UNL     1       3.757  -6.418 -20.085  1.00  0.00    -0.063 C 
ATOM      8  C   UNL     1       6.325  -5.559 -19.920  1.00  0.00    -0.003 C 
ATOM      9  C   UNL     1       6.568  -5.639 -18.390  1.00  0.00    -0.011 C 
ATOM     10  C   UNL     1       2.787  -7.542 -19.573  1.00  0.00    -0.006 C 
ATOM     11  C   UNL     1       3.185  -5.222 -20.401  1.00  0.00    -0.027 C 
ATOM     12  C   UNL     1       6.124  -4.119 -20.429  1.00  0.00     0.008 C 
ATOM     13  C   UNL     1       7.549  -4.567 -17.875  1.00  0.00     0.008 C 
ATOM     14  C   UNL     1       2.540  -7.111 -18.076  1.00  0.00     0.017 C 
ATOM     15  C   UNL     1       1.376  -7.618 -20.450  1.00  0.00    -0.020 C 
ATOM     16  C   UNL     1       1.694  -5.067 -20.523  1.00  0.00     0.032 C 
ATOM     17  C   UNL     1       1.200  -6.293 -21.294  1.00  0.00     0.006 C 
ATOM     18  C   UNL     1       1.333  -8.765 -21.547  1.00  0.00     0.008 C 
ATOM     19  C   UNL     1       0.194  -7.896 -19.454  1.00  0.00     0.012 C 
ATOM     20  C   UNL     1      -0.092  -6.089 -22.204  1.00  0.00    -0.025 C 
ATOM     21  C   UNL     1       0.352  -8.564 -22.755  1.00  0.00     0.005 C 
ATOM     22  C   UNL     1      -0.734  -7.487 -22.496  1.00  0.00     0.003 C 
ATOM     23  C   UNL     1      -1.184  -5.210 -21.534  1.00  0.00     0.010 C 
ATOM     24  C   UNL     1       0.402  -5.366 -23.505  1.00  0.00     0.012 C 
ATOM     25  C   UNL     1      -2.026  -7.489 -23.400  1.00  0.00    -0.006 C 
ATOM     26  C   UNL     1      -2.481  -5.122 -22.372  1.00  0.00     0.033 C 
ATOM     27  C   UNL     1      -3.073  -6.496 -22.762  1.00  0.00     0.120 C 
ATOM     28  C   UNL     1      -2.660  -8.914 -23.413  1.00  0.00     0.014 C 
ATOM     29  C   UNL     1      -1.758  -7.121 -24.886  1.00  0.00     0.014 C 
ENDROOT
BRANCH   1  30
ATOM     30  C   UNL     1       7.033  -8.459 -20.825  1.00  0.00     0.048 C 
ATOM     31  O   UNL     1       6.947  -8.751 -22.047  1.00  0.00    -0.550 OA
ATOM     32  O   UNL     1       8.265  -8.595 -20.199  1.00  0.00    -0.550 OA
ENDBRANCH   1  30
BRANCH  27  33
ATOM     33  O   UNL     1      -3.649  -7.054 -21.602  1.00  0.00    -0.393 OA
ATOM     34  H   UNL     1      -4.439  -7.589 -21.885  1.00  0.00     0.210 HD
ENDBRANCH  27  33
TORSDOF 2
ENDMDL
MODEL 4
REMARK VINA RESULT:    -3.683      5.238     11.429
REMARK INTER + INTRA:          -3.561
REMARK INTER:                  -3.456
REMARK INTRA:                  -0.105
REMARK UNBOUND:                 0.446
REMARK SMILES C[C@H]1[C@H](C)CC[C@@]2(C(=O)[O-])CC[C@@]3(C)C(=CC[C@@H]4[C@]5(C)CC[C@H](O)C(C)(C)[C@H]5CC[C@]43C)[C@@H]12
REMARK SMILES IDX 7 1 6 2 11 3 33 4 5 5 12 6 15 7 2 8 3 9 13 10 16 11 1 12
REMARK SMILES IDX 4 13 14 14 31 15 17 16 18 17 30 18 32 19 19 20 29 21 28 22
REMARK SMILES IDX 21 23 20 24 25 25 22 26 23 27 26 28 27 29 8 30 9 31 10 32
REMARK SMILES IDX 24 33
REMARK H PARENT 24 34
REMARK Flexibility Score: inf
ROOT
ATOM      1  C   UNL     1      11.217  -7.486 -22.262  1.00  0.00     0.017 C 
ATOM      2  C   UNL     1      12.398  -8.093 -21.428  1.00  0.00     0.014 C 
ATOM      3  C   UNL     1      10.101  -8.529 -22.445  1.00  0.00     0.014 C 
ATOM      4  C   UNL     1      10.628  -6.206 -21.555  1.00  0.00     0.030 C 
ATOM      5  C   UNL     1      13.494  -7.082 -21.097  1.00  0.00     0.004 C 
ATOM      6  C   UNL     1       9.579  -9.072 -21.115  1.00  0.00     0.013 C 
ATOM      7  C   UNL     1       9.604  -6.537 -20.420  1.00  0.00    -0.063 C 
ATOM      8  C   UNL     1      11.826  -5.213 -21.237  1.00  0.00    -0.003 C 
ATOM      9  C   UNL     1      12.910  -5.875 -20.347  1.00  0.00    -0.011 C 
ATOM     10  C   UNL     1       9.059  -7.977 -20.109  1.00  0.00    -0.006 C 
ATOM     11  C   UNL     1       9.016  -5.509 -19.747  1.00  0.00    -0.027 C 
ATOM     12  C   UNL     1      11.439  -3.797 -20.772  1.00  0.00     0.008 C 
ATOM     13  C   UNL     1      14.061  -4.916 -19.980  1.00  0.00     0.008 C 
ATOM     14  C   UNL     1       9.753  -8.305 -18.732  1.00  0.00     0.017 C 
ATOM     15  C   UNL     1       7.399  -8.024 -20.008  1.00  0.00    -0.020 C 
ATOM     16  C   UNL     1       7.744  -5.698 -18.967  1.00  0.00     0.032 C 
ATOM     17  C   UNL     1       6.831  -6.558 -19.845  1.00  0.00     0.006 C 
ATOM     18  C   UNL     1       6.667  -8.563 -21.311  1.00  0.00     0.008 C 
ATOM     19  C   UNL     1       7.007  -8.990 -18.834  1.00  0.00     0.012 C 
ATOM     20  C   UNL     1       5.264  -6.319 -19.692  1.00  0.00    -0.025 C 
ATOM     21  C   UNL     1       5.177  -8.120 -21.529  1.00  0.00     0.005 C 
ATOM     22  C   UNL     1       4.502  -7.570 -20.245  1.00  0.00     0.003 C 
ATOM     23  C   UNL     1       4.814  -6.117 -18.219  1.00  0.00     0.010 C 
ATOM     24  C   UNL     1       4.943  -5.010 -20.495  1.00  0.00     0.012 C 
ATOM     25  C   UNL     1       2.927  -7.512 -20.189  1.00  0.00    -0.006 C 
ATOM     26  C   UNL     1       3.277  -6.011 -18.070  1.00  0.00     0.033 C 
ATOM     27  C   UNL     1       2.500  -7.187 -18.706  1.00  0.00     0.120 C 
ATOM     28  C   UNL     1       2.333  -8.903 -20.567  1.00  0.00     0.014 C 
ATOM     29  C   UNL     1       2.297  -6.489 -21.176  1.00  0.00     0.014 C 
ENDROOT
BRANCH   1  30
ATOM     30  C   UNL     1      11.725  -7.165 -23.668  1.00  0.00     0.048 C 
ATOM     31  O   UNL     1      11.165  -6.294 -24.383  1.00  0.00    -0.550 OA
ATOM     32  O   UNL     1      12.762  -7.907 -24.221  1.00  0.00    -0.550 OA
ENDBRANCH   1  30
BRANCH  27  33
ATOM     33  O   UNL     1       2.680  -8.312 -17.875  1.00  0.00    -0.393 OA
ATOM     34  H   UNL     1       2.165  -8.155 -17.039  1.00  0.00     0.210 HD
ENDBRANCH  27  33
TORSDOF 2
ENDMDL
MODEL 5
REMARK VINA RESULT:    -3.175      1.739      8.075
REMARK INTER + INTRA:          -3.008
REMARK INTER:                  -3.510
REMARK INTRA:                   0.502
REMARK UNBOUND:                 0.446
REMARK SMILES C[C@H]1[C@H](C)CC[C@@]2(C(=O)[O-])CC[C@@]3(C)C(=CC[C@@H]4[C@]5(C)CC[C@H](O)C(C)(C)[C@H]5CC[C@]43C)[C@@H]12
REMARK SMILES IDX 7 1 6 2 11 3 33 4 5 5 12 6 15 7 2 8 3 9 13 10 16 11 1 12
REMARK SMILES IDX 4 13 14 14 31 15 17 16 18 17 30 18 32 19 19 20 29 21 28 22
REMARK SMILES IDX 21 23 20 24 25 25 22 26 23 27 26 28 27 29 8 30 9 31 10 32
REMARK SMILES IDX 24 33
REMARK H PARENT 24 34
REMARK Flexibility Score: inf
ROOT
ATOM      1  C   UNL     1       4.311  -6.222 -21.231  1.00  0.00     0.017 C 
ATOM      2  C   UNL     1       5.292  -7.437 -21.373  1.00  0.00     0.014 C 
ATOM      3  C   UNL     1       3.831  -5.757 -22.617  1.00  0.00     0.014 C 
ATOM      4  C   UNL     1       3.064  -6.606 -20.346  1.00  0.00     0.030 C 
ATOM      5  C   UNL     1       5.719  -8.037 -20.036  1.00  0.00     0.004 C 
ATOM      6  C   UNL     1       3.166  -6.877 -23.416  1.00  0.00     0.013 C 
ATOM      7  C   UNL     1       1.948  -7.362 -21.137  1.00  0.00    -0.063 C 
ATOM      8  C   UNL     1       3.590  -7.228 -18.983  1.00  0.00    -0.003 C 
ATOM      9  C   UNL     1       4.491  -8.469 -19.218  1.00  0.00    -0.011 C 
ATOM     10  C   UNL     1       1.954  -7.577 -22.693  1.00  0.00    -0.006 C 
ATOM     11  C   UNL     1       0.813  -7.732 -20.480  1.00  0.00    -0.027 C 
ATOM     12  C   UNL     1       2.541  -7.441 -17.875  1.00  0.00     0.008 C 
ATOM     13  C   UNL     1       4.974  -9.125 -17.908  1.00  0.00     0.008 C 
ATOM     14  C   UNL     1       2.228  -9.125 -22.814  1.00  0.00     0.017 C 
ATOM     15  C   UNL     1       0.518  -7.131 -23.406  1.00  0.00    -0.020 C 
ATOM     16  C   UNL     1      -0.456  -8.063 -21.216  1.00  0.00     0.032 C 
ATOM     17  C   UNL     1      -0.607  -6.997 -22.304  1.00  0.00     0.006 C 
ATOM     18  C   UNL     1       0.533  -5.702 -24.098  1.00  0.00     0.008 C 
ATOM     19  C   UNL     1       0.183  -8.177 -24.529  1.00  0.00     0.012 C 
ATOM     20  C   UNL     1      -2.095  -6.611 -22.722  1.00  0.00    -0.025 C 
ATOM     21  C   UNL     1      -0.848  -4.977 -24.272  1.00  0.00     0.005 C 
ATOM     22  C   UNL     1      -2.067  -5.927 -24.130  1.00  0.00     0.003 C 
ATOM     23  C   UNL     1      -3.043  -7.837 -22.822  1.00  0.00     0.010 C 
ATOM     24  C   UNL     1      -2.629  -5.658 -21.596  1.00  0.00     0.012 C 
ATOM     25  C   UNL     1      -3.457  -5.460 -24.709  1.00  0.00    -0.006 C 
ATOM     26  C   UNL     1      -4.450  -7.467 -23.348  1.00  0.00     0.033 C 
ATOM     27  C   UNL     1      -4.437  -6.695 -24.688  1.00  0.00     0.120 C 
ATOM     28  C   UNL     1      -3.286  -5.006 -26.191  1.00  0.00     0.014 C 
ATOM     29  C   UNL     1      -4.081  -4.252 -23.956  1.00  0.00     0.014 C 
ENDROOT
BRANCH   1  30
ATOM     30  C   UNL     1       5.079  -5.041 -20.635  1.00  0.00     0.048 C 
ATOM     31  O   UNL     1       5.215  -3.962 -21.269  1.00  0.00    -0.550 OA
ATOM     32  O   UNL     1       5.729  -5.176 -19.414  1.00  0.00    -0.550 OA
ENDBRANCH   1  30
BRANCH  27  33
ATOM     33  O   UNL     1      -4.106  -7.615 -25.704  1.00  0.00    -0.393 OA
ATOM     34  H   UNL     1      -4.957  -7.977 -26.072  1.00  0.00     0.210 HD
ENDBRANCH  27  33
TORSDOF 2
ENDMDL
MODEL 6
REMARK VINA RESULT:    -2.947      1.793      3.002
REMARK INTER + INTRA:          -2.760
REMARK INTER:                  -2.710
REMARK INTRA:                  -0.050
REMARK UNBOUND:                 0.446
REMARK SMILES C[C@H]1[C@H](C)CC[C@@]2(C(=O)[O-])CC[C@@]3(C)C(=CC[C@@H]4[C@]5(C)CC[C@H](O)C(C)(C)[C@H]5CC[C@]43C)[C@@H]12
REMARK SMILES IDX 7 1 6 2 11 3 33 4 5 5 12 6 15 7 2 8 3 9 13 10 16 11 1 12
REMARK SMILES IDX 4 13 14 14 31 15 17 16 18 17 30 18 32 19 19 20 29 21 28 22
REMARK SMILES IDX 21 23 20 24 25 25 22 26 23 27 26 28 27 29 8 30 9 31 10 32
REMARK SMILES IDX 24 33
REMARK H PARENT 24 34
REMARK Flexibility Score: inf
ROOT
ATOM      1  C   UNL     1      -2.788  -8.059 -23.966  1.00  0.00     0.017 C 
ATOM      2  C   UNL     1      -2.854  -8.362 -25.503  1.00  0.00     0.014 C 
ATOM      3  C   UNL     1      -1.882  -9.082 -23.257  1.00  0.00     0.014 C 
ATOM      4  C   UNL     1      -2.242  -6.604 -23.702  1.00  0.00     0.030 C 
ATOM      5  C   UNL     1      -3.635  -7.319 -26.297  1.00  0.00     0.004 C 
ATOM      6  C   UNL     1      -0.471  -9.125 -23.845  1.00  0.00     0.013 C 
ATOM      7  C   UNL     1      -0.682  -6.506 -23.747  1.00  0.00    -0.063 C 
ATOM      8  C   UNL     1      -3.098  -5.584 -24.568  1.00  0.00    -0.003 C 
ATOM      9  C   UNL     1      -3.045  -5.917 -26.081  1.00  0.00    -0.011 C 
ATOM     10  C   UNL     1       0.282  -7.741 -23.863  1.00  0.00    -0.006 C 
ATOM     11  C   UNL     1      -0.093  -5.298 -23.518  1.00  0.00    -0.027 C 
ATOM     12  C   UNL     1      -2.891  -4.087 -24.268  1.00  0.00     0.008 C 
ATOM     13  C   UNL     1      -3.825  -4.911 -26.952  1.00  0.00     0.008 C 
ATOM     14  C   UNL     1       0.845  -7.587 -25.328  1.00  0.00     0.017 C 
ATOM     15  C   UNL     1       1.487  -7.722 -22.717  1.00  0.00    -0.020 C 
ATOM     16  C   UNL     1       1.353  -5.185 -23.123  1.00  0.00     0.032 C 
ATOM     17  C   UNL     1       1.595  -6.279 -22.079  1.00  0.00     0.006 C 
ATOM     18  C   UNL     1       1.230  -8.663 -21.463  1.00  0.00     0.008 C 
ATOM     19  C   UNL     1       2.815  -8.217 -23.393  1.00  0.00     0.012 C 
ATOM     20  C   UNL     1       2.698  -5.974 -20.971  1.00  0.00    -0.025 C 
ATOM     21  C   UNL     1       1.971  -8.296 -20.129  1.00  0.00     0.005 C 
ATOM     22  C   UNL     1       3.165  -7.326 -20.332  1.00  0.00     0.003 C 
ATOM     23  C   UNL     1       3.961  -5.270 -21.538  1.00  0.00     0.010 C 
ATOM     24  C   UNL     1       2.017  -5.017 -19.932  1.00  0.00     0.012 C 
ATOM     25  C   UNL     1       4.253  -7.224 -19.196  1.00  0.00    -0.006 C 
ATOM     26  C   UNL     1       5.076  -5.091 -20.478  1.00  0.00     0.033 C 
ATOM     27  C   UNL     1       5.475  -6.401 -19.760  1.00  0.00     0.120 C 
ATOM     28  C   UNL     1       4.764  -8.650 -18.825  1.00  0.00     0.014 C 
ATOM     29  C   UNL     1       3.732  -6.593 -17.875  1.00  0.00     0.014 C 
ENDROOT
BRANCH   1  30
ATOM     30  C   UNL     1      -4.183  -8.251 -23.369  1.00  0.00     0.048 C 
ATOM     31  O   UNL     1      -5.030  -9.005 -23.915  1.00  0.00    -0.550 OA
ATOM     32  O   UNL     1      -4.575  -7.512 -22.260  1.00  0.00    -0.550 OA
ENDBRANCH   1  30
BRANCH  27  33
ATOM     33  O   UNL     1       6.222  -7.174 -20.672  1.00  0.00    -0.393 OA
ATOM     34  H   UNL     1       5.871  -6.987 -21.584  1.00  0.00     0.210 HD
ENDBRANCH  27  33
TORSDOF 2
ENDMDL
MODEL 7
REMARK VINA RESULT:    -2.863      3.219      7.832
REMARK INTER + INTRA:          -2.668
REMARK INTER:                  -2.583
REMARK INTRA:                  -0.085
REMARK UNBOUND:                 0.446
REMARK SMILES C[C@H]1[C@H](C)CC[C@@]2(C(=O)[O-])CC[C@@]3(C)C(=CC[C@@H]4[C@]5(C)CC[C@H](O)C(C)(C)[C@H]5CC[C@]43C)[C@@H]12
REMARK SMILES IDX 7 1 6 2 11 3 33 4 5 5 12 6 15 7 2 8 3 9 13 10 16 11 1 12
REMARK SMILES IDX 4 13 14 14 31 15 17 16 18 17 30 18 32 19 19 20 29 21 28 22
REMARK SMILES IDX 21 23 20 24 25 25 22 26 23 27 26 28 27 29 8 30 9 31 10 32
REMARK SMILES IDX 24 33
REMARK H PARENT 24 34
REMARK Flexibility Score: inf
ROOT
ATOM      1  C   UNL     1      -3.193  -7.034 -20.268  1.00  0.00     0.017 C 
ATOM      2  C   UNL     1      -3.794  -5.862 -19.416  1.00  0.00     0.014 C 
ATOM      3  C   UNL     1      -4.274  -7.641 -21.180  1.00  0.00     0.014 C 
ATOM      4  C   UNL     1      -1.988  -6.528 -21.149  1.00  0.00     0.030 C 
ATOM      5  C   UNL     1      -2.756  -5.126 -18.574  1.00  0.00     0.004 C 
ATOM      6  C   UNL     1      -4.921  -6.604 -22.097  1.00  0.00     0.013 C 
ATOM      7  C   UNL     1      -2.434  -5.842 -22.482  1.00  0.00    -0.063 C 
ATOM      8  C   UNL     1      -0.961  -5.768 -20.205  1.00  0.00    -0.003 C 
ATOM      9  C   UNL     1      -1.625  -4.580 -19.460  1.00  0.00    -0.011 C 
ATOM     10  C   UNL     1      -3.914  -5.803 -23.006  1.00  0.00    -0.006 C 
ATOM     11  C   UNL     1      -1.478  -5.377 -23.334  1.00  0.00    -0.027 C 
ATOM     12  C   UNL     1       0.404  -5.411 -20.822  1.00  0.00     0.008 C 
ATOM     13  C   UNL     1      -0.638  -3.792 -18.575  1.00  0.00     0.008 C 
ATOM     14  C   UNL     1      -4.294  -4.284 -22.818  1.00  0.00     0.017 C 
ATOM     15  C   UNL     1      -4.045  -6.295 -24.590  1.00  0.00    -0.020 C 
ATOM     16  C   UNL     1      -1.773  -5.105 -24.783  1.00  0.00     0.032 C 
ATOM     17  C   UNL     1      -2.620  -6.283 -25.273  1.00  0.00     0.006 C 
ATOM     18  C   UNL     1      -4.536  -7.793 -24.784  1.00  0.00     0.008 C 
ATOM     19  C   UNL     1      -5.098  -5.375 -25.304  1.00  0.00     0.012 C 
ATOM     20  C   UNL     1      -2.464  -6.682 -26.807  1.00  0.00    -0.025 C 
ATOM     21  C   UNL     1      -4.151  -8.504 -26.128  1.00  0.00     0.005 C 
ATOM     22  C   UNL     1      -3.712  -7.520 -27.244  1.00  0.00     0.003 C 
ATOM     23  C   UNL     1      -2.374  -5.456 -27.756  1.00  0.00     0.010 C 
ATOM     24  C   UNL     1      -1.125  -7.493 -26.911  1.00  0.00     0.012 C 
ATOM     25  C   UNL     1      -3.731  -8.020 -28.740  1.00  0.00    -0.006 C 
ATOM     26  C   UNL     1      -2.348  -5.854 -29.251  1.00  0.00     0.033 C 
ATOM     27  C   UNL     1      -3.518  -6.771 -29.678  1.00  0.00     0.120 C 
ATOM     28  C   UNL     1      -5.123  -8.640 -29.072  1.00  0.00     0.014 C 
ATOM     29  C   UNL     1      -2.681  -9.123 -29.050  1.00  0.00     0.014 C 
ENDROOT
BRANCH   1  30
ATOM     30  C   UNL     1      -2.764  -8.156 -19.322  1.00  0.00     0.048 C 
ATOM     31  O   UNL     1      -1.704  -8.807 -19.519  1.00  0.00    -0.550 OA
ATOM     32  O   UNL     1      -3.594  -8.544 -18.279  1.00  0.00    -0.550 OA
ENDBRANCH   1  30
BRANCH  27  33
ATOM     33  O   UNL     1      -4.682  -5.977 -29.727  1.00  0.00    -0.393 OA
ATOM     34  H   UNL     1      -5.366  -6.408 -29.149  1.00  0.00     0.210 HD
ENDBRANCH  27  33
TORSDOF 2
ENDMDL
