MODEL 1
REMARK VINA RESULT:    -6.027      0.000      0.000
REMARK INTER + INTRA:          -7.680
REMARK INTER:                  -7.261
REMARK INTRA:                  -0.419
REMARK UNBOUND:                -0.419
REMARK SMILES O=c1c(O)c(-c2ccc(O)cc2O)oc2cc(O)cc(O)c12
REMARK SMILES IDX 5 1 3 2 2 3 1 4 22 5 20 6 19 7 17 8 16 9 15 10 14 11 6 12
REMARK SMILES IDX 8 13 7 14 9 15 11 16 12 17 10 18 13 20 4 22 21 24 18 26
REMARK H PARENT 10 19 13 21 4 23 21 25 18 27
REMARK Flexibility Score: inf
ROOT
ATOM      1  C   UNL     1     -16.627  -1.504   3.844  1.00  0.00     0.184 A 
ATOM      2  C   UNL     1     -16.311  -0.968   5.103  1.00  0.00     0.208 A 
ATOM      3  C   UNL     1     -15.008  -1.124   5.600  1.00  0.00     0.238 A 
ATOM      4  O   UNL     1     -14.745  -0.689   6.752  1.00  0.00    -0.285 OA
ATOM      5  C   UNL     1     -14.035  -1.800   4.825  1.00  0.00     0.111 A 
ATOM      6  C   UNL     1     -12.673  -1.981   5.213  1.00  0.00     0.134 A 
ATOM      7  C   UNL     1     -11.832  -2.778   4.425  1.00  0.00     0.093 A 
ATOM      8  C   UNL     1     -12.285  -3.346   3.232  1.00  0.00     0.123 A 
ATOM      9  C   UNL     1     -13.596  -3.126   2.817  1.00  0.00     0.094 A 
ATOM     10  C   UNL     1     -14.470  -2.365   3.597  1.00  0.00     0.146 A 
ATOM     11  O   UNL     1     -15.715  -2.190   3.169  1.00  0.00    -0.451 OA
ENDROOT
BRANCH   1  12
ATOM     12  C   UNL     1     -17.975  -1.360   3.256  1.00  0.00     0.063 A 
ATOM     13  C   UNL     1     -20.298  -2.077   3.184  1.00  0.00     0.047 A 
ATOM     14  C   UNL     1     -19.013  -2.182   3.723  1.00  0.00     0.020 A 
ATOM     15  C   UNL     1     -20.559  -1.159   2.163  1.00  0.00     0.119 A 
ATOM     16  C   UNL     1     -19.525  -0.350   1.673  1.00  0.00     0.093 A 
ATOM     17  C   UNL     1     -18.231  -0.455   2.206  1.00  0.00     0.130 A 
BRANCH  15  18
ATOM     18  O   UNL     1     -21.846  -1.062   1.638  1.00  0.00    -0.508 OA
ATOM     19  H   UNL     1     -22.650  -0.896   2.233  1.00  0.00     0.293 HD
ENDBRANCH  15  18
BRANCH  17  20
ATOM     20  O   UNL     1     -17.200   0.322   1.677  1.00  0.00    -0.507 OA
ATOM     21  H   UNL     1     -17.362   1.262   1.334  1.00  0.00     0.293 HD
ENDBRANCH  17  20
ENDBRANCH   1  12
BRANCH   2  22
ATOM     22  O   UNL     1     -17.296  -0.321   5.855  1.00  0.00    -0.502 OA
ATOM     23  H   UNL     1     -17.602  -0.663   6.758  1.00  0.00     0.293 HD
ENDBRANCH   2  22
BRANCH   6  24
ATOM     24  O   UNL     1     -12.095  -1.383   6.336  1.00  0.00    -0.507 OA
ATOM     25  H   UNL     1     -12.612  -1.009   7.117  1.00  0.00     0.293 HD
ENDBRANCH   6  24
BRANCH   8  26
ATOM     26  O   UNL     1     -11.436  -4.124   2.449  1.00  0.00    -0.508 OA
ATOM     27  H   UNL     1     -11.289  -5.108   2.643  1.00  0.00     0.293 HD
ENDBRANCH   8  26
TORSDOF 6
ENDMDL
MODEL 2
REMARK VINA RESULT:    -5.776      1.276      2.865
REMARK INTER + INTRA:          -7.377
REMARK INTER:                  -6.991
REMARK INTRA:                  -0.386
REMARK UNBOUND:                -0.419
REMARK SMILES O=c1c(O)c(-c2ccc(O)cc2O)oc2cc(O)cc(O)c12
REMARK SMILES IDX 5 1 3 2 2 3 1 4 22 5 20 6 19 7 17 8 16 9 15 10 14 11 6 12
REMARK SMILES IDX 8 13 7 14 9 15 11 16 12 17 10 18 13 20 4 22 21 24 18 26
REMARK H PARENT 10 19 13 21 4 23 21 25 18 27
REMARK Flexibility Score: inf
ROOT
ATOM      1  C   UNL     1     -17.018  -1.913   3.174  1.00  0.00     0.184 A 
ATOM      2  C   UNL     1     -16.282  -2.428   2.095  1.00  0.00     0.208 A 
ATOM      3  C   UNL     1     -14.905  -2.645   2.252  1.00  0.00     0.238 A 
ATOM      4  O   UNL     1     -14.240  -3.055   1.264  1.00  0.00    -0.285 OA
ATOM      5  C   UNL     1     -14.284  -2.358   3.493  1.00  0.00     0.111 A 
ATOM      6  C   UNL     1     -12.903  -2.576   3.777  1.00  0.00     0.134 A 
ATOM      7  C   UNL     1     -12.371  -2.136   4.996  1.00  0.00     0.093 A 
ATOM      8  C   UNL     1     -13.185  -1.543   5.965  1.00  0.00     0.123 A 
ATOM      9  C   UNL     1     -14.546  -1.380   5.719  1.00  0.00     0.094 A 
ATOM     10  C   UNL     1     -15.099  -1.776   4.500  1.00  0.00     0.146 A 
ATOM     11  O   UNL     1     -16.399  -1.592   4.302  1.00  0.00    -0.451 OA
ENDROOT
BRANCH   1  12
ATOM     12  C   UNL     1     -18.473  -1.678   3.080  1.00  0.00     0.063 A 
ATOM     13  C   UNL     1     -20.737  -2.487   3.445  1.00  0.00     0.047 A 
ATOM     14  C   UNL     1     -19.355  -2.676   3.525  1.00  0.00     0.020 A 
ATOM     15  C   UNL     1     -21.256  -1.306   2.908  1.00  0.00     0.119 A 
ATOM     16  C   UNL     1     -20.386  -0.314   2.440  1.00  0.00     0.093 A 
ATOM     17  C   UNL     1     -18.997  -0.498   2.511  1.00  0.00     0.130 A 
BRANCH  15  18
ATOM     18  O   UNL     1     -22.636  -1.131   2.839  1.00  0.00    -0.508 OA
ATOM     19  H   UNL     1     -23.244  -1.406   3.601  1.00  0.00     0.293 HD
ENDBRANCH  15  18
BRANCH  17  20
ATOM     20  O   UNL     1     -18.141   0.477   1.997  1.00  0.00    -0.507 OA
ATOM     21  H   UNL     1     -18.366   1.464   2.048  1.00  0.00     0.293 HD
ENDBRANCH  17  20
ENDBRANCH   1  12
BRANCH   2  22
ATOM     22  O   UNL     1     -16.916  -2.685   0.876  1.00  0.00    -0.502 OA
ATOM     23  H   UNL     1     -17.923  -2.651   0.769  1.00  0.00     0.293 HD
ENDBRANCH   2  22
BRANCH   6  24
ATOM     24  O   UNL     1     -12.024  -3.241   2.917  1.00  0.00    -0.507 OA
ATOM     25  H   UNL     1     -11.357  -3.940   3.205  1.00  0.00     0.293 HD
ENDBRANCH   6  24
BRANCH   8  26
ATOM     26  O   UNL     1     -12.649  -1.122   7.180  1.00  0.00    -0.508 OA
ATOM     27  H   UNL     1     -12.365  -0.161   7.330  1.00  0.00     0.293 HD
ENDBRANCH   8  26
TORSDOF 6
ENDMDL
MODEL 3
REMARK VINA RESULT:    -5.637      1.403      6.814
REMARK INTER + INTRA:          -7.210
REMARK INTER:                  -6.791
REMARK INTRA:                  -0.419
REMARK UNBOUND:                -0.419
REMARK SMILES O=c1c(O)c(-c2ccc(O)cc2O)oc2cc(O)cc(O)c12
REMARK SMILES IDX 5 1 3 2 2 3 1 4 22 5 20 6 19 7 17 8 16 9 15 10 14 11 6 12
REMARK SMILES IDX 8 13 7 14 9 15 11 16 12 17 10 18 13 20 4 22 21 24 18 26
REMARK H PARENT 10 19 13 21 4 23 21 25 18 27
REMARK Flexibility Score: inf
ROOT
ATOM      1  C   UNL     1     -16.402  -1.677   3.843  1.00  0.00     0.184 A 
ATOM      2  C   UNL     1     -16.636  -0.522   3.082  1.00  0.00     0.208 A 
ATOM      3  C   UNL     1     -17.937  -0.259   2.627  1.00  0.00     0.238 A 
ATOM      4  O   UNL     1     -18.132   0.749   1.899  1.00  0.00    -0.285 OA
ATOM      5  C   UNL     1     -18.990  -1.150   2.953  1.00  0.00     0.111 A 
ATOM      6  C   UNL     1     -20.355  -0.963   2.580  1.00  0.00     0.134 A 
ATOM      7  C   UNL     1     -21.288  -1.972   2.847  1.00  0.00     0.093 A 
ATOM      8  C   UNL     1     -20.919  -3.133   3.531  1.00  0.00     0.123 A 
ATOM      9  C   UNL     1     -19.601  -3.298   3.951  1.00  0.00     0.094 A 
ATOM     10  C   UNL     1     -18.639  -2.325   3.669  1.00  0.00     0.146 A 
ATOM     11  O   UNL     1     -17.393  -2.528   4.078  1.00  0.00    -0.451 OA
ENDROOT
BRANCH   1  12
ATOM     12  C   UNL     1     -15.059  -2.003   4.367  1.00  0.00     0.063 A 
ATOM     13  C   UNL     1     -12.827  -2.880   3.961  1.00  0.00     0.047 A 
ATOM     14  C   UNL     1     -14.104  -2.555   3.498  1.00  0.00     0.020 A 
ATOM     15  C   UNL     1     -12.491  -2.670   5.301  1.00  0.00     0.119 A 
ATOM     16  C   UNL     1     -13.443  -2.142   6.183  1.00  0.00     0.093 A 
ATOM     17  C   UNL     1     -14.730  -1.819   5.726  1.00  0.00     0.130 A 
BRANCH  15  18
ATOM     18  O   UNL     1     -11.212  -2.995   5.749  1.00  0.00    -0.508 OA
ATOM     19  H   UNL     1     -10.392  -2.510   5.405  1.00  0.00     0.293 HD
ENDBRANCH  15  18
BRANCH  17  20
ATOM     20  O   UNL     1     -15.683  -1.339   6.623  1.00  0.00    -0.507 OA
ATOM     21  H   UNL     1     -15.944  -1.860   7.453  1.00  0.00     0.293 HD
ENDBRANCH  17  20
ENDBRANCH   1  12
BRANCH   2  22
ATOM     22  O   UNL     1     -15.576   0.330   2.759  1.00  0.00    -0.502 OA
ATOM     23  H   UNL     1     -14.618   0.129   3.020  1.00  0.00     0.293 HD
ENDBRANCH   2  22
BRANCH   6  24
ATOM     24  O   UNL     1     -20.847   0.198   1.975  1.00  0.00    -0.507 OA
ATOM     25  H   UNL     1     -21.739   0.620   2.183  1.00  0.00     0.293 HD
ENDBRANCH   6  24
BRANCH   8  26
ATOM     26  O   UNL     1     -21.858  -4.125   3.804  1.00  0.00    -0.508 OA
ATOM     27  H   UNL     1     -22.560  -4.393   3.124  1.00  0.00     0.293 HD
ENDBRANCH   8  26
TORSDOF 6
ENDMDL
MODEL 4
REMARK VINA RESULT:    -5.575      2.012      2.890
REMARK INTER + INTRA:          -7.135
REMARK INTER:                  -6.717
REMARK INTRA:                  -0.418
REMARK UNBOUND:                -0.419
REMARK SMILES O=c1c(O)c(-c2ccc(O)cc2O)oc2cc(O)cc(O)c12
REMARK SMILES IDX 5 1 3 2 2 3 1 4 22 5 20 6 19 7 17 8 16 9 15 10 14 11 6 12
REMARK SMILES IDX 8 13 7 14 9 15 11 16 12 17 10 18 13 20 4 22 21 24 18 26
REMARK H PARENT 10 19 13 21 4 23 21 25 18 27
REMARK Flexibility Score: inf
ROOT
ATOM      1  C   UNL     1     -17.764  -1.739   3.225  1.00  0.00     0.184 A 
ATOM      2  C   UNL     1     -16.885  -0.727   2.810  1.00  0.00     0.208 A 
ATOM      3  C   UNL     1     -15.639  -0.606   3.444  1.00  0.00     0.238 A 
ATOM      4  O   UNL     1     -14.877   0.337   3.105  1.00  0.00    -0.285 OA
ATOM      5  C   UNL     1     -15.284  -1.509   4.476  1.00  0.00     0.111 A 
ATOM      6  C   UNL     1     -14.032  -1.504   5.162  1.00  0.00     0.134 A 
ATOM      7  C   UNL     1     -13.840  -2.361   6.253  1.00  0.00     0.093 A 
ATOM      8  C   UNL     1     -14.830  -3.266   6.642  1.00  0.00     0.123 A 
ATOM      9  C   UNL     1     -16.033  -3.319   5.941  1.00  0.00     0.094 A 
ATOM     10  C   UNL     1     -16.269  -2.453   4.871  1.00  0.00     0.146 A 
ATOM     11  O   UNL     1     -17.433  -2.529   4.238  1.00  0.00    -0.451 OA
ENDROOT
BRANCH   1  12
ATOM     12  C   UNL     1     -19.083  -1.932   2.587  1.00  0.00     0.063 A 
ATOM     13  C   UNL     1     -21.470  -1.465   2.567  1.00  0.00     0.047 A 
ATOM     14  C   UNL     1     -20.207  -1.300   3.142  1.00  0.00     0.020 A 
ATOM     15  C   UNL     1     -21.628  -2.275   1.440  1.00  0.00     0.119 A 
ATOM     16  C   UNL     1     -20.518  -2.930   0.892  1.00  0.00     0.093 A 
ATOM     17  C   UNL     1     -19.248  -2.773   1.467  1.00  0.00     0.130 A 
BRANCH  15  18
ATOM     18  O   UNL     1     -22.893  -2.428   0.875  1.00  0.00    -0.508 OA
ATOM     19  H   UNL     1     -23.426  -3.282   0.992  1.00  0.00     0.293 HD
ENDBRANCH  15  18
BRANCH  17  20
ATOM     20  O   UNL     1     -18.158  -3.468   0.941  1.00  0.00    -0.507 OA
ATOM     21  H   UNL     1     -18.115  -4.480   0.957  1.00  0.00     0.293 HD
ENDBRANCH  17  20
ENDBRANCH   1  12
BRANCH   2  22
ATOM     22  O   UNL     1     -17.268   0.162   1.801  1.00  0.00    -0.502 OA
ATOM     23  H   UNL     1     -16.631   0.842   1.406  1.00  0.00     0.293 HD
ENDBRANCH   2  22
BRANCH   6  24
ATOM     24  O   UNL     1     -12.945  -0.704   4.797  1.00  0.00    -0.507 OA
ATOM     25  H   UNL     1     -12.513  -0.705   3.886  1.00  0.00     0.293 HD
ENDBRANCH   6  24
BRANCH   8  26
ATOM     26  O   UNL     1     -14.623  -4.125   7.719  1.00  0.00    -0.508 OA
ATOM     27  H   UNL     1     -14.736  -5.128   7.627  1.00  0.00     0.293 HD
ENDBRANCH   8  26
TORSDOF 6
ENDMDL
MODEL 5
REMARK VINA RESULT:    -5.522      1.689      6.862
REMARK INTER + INTRA:          -7.071
REMARK INTER:                  -6.643
REMARK INTRA:                  -0.428
REMARK UNBOUND:                -0.419
REMARK SMILES O=c1c(O)c(-c2ccc(O)cc2O)oc2cc(O)cc(O)c12
REMARK SMILES IDX 5 1 3 2 2 3 1 4 22 5 20 6 19 7 17 8 16 9 15 10 14 11 6 12
REMARK SMILES IDX 8 13 7 14 9 15 11 16 12 17 10 18 13 20 4 22 21 24 18 26
REMARK H PARENT 10 19 13 21 4 23 21 25 18 27
REMARK Flexibility Score: inf
ROOT
ATOM      1  C   UNL     1     -16.534  -1.921   4.146  1.00  0.00     0.184 A 
ATOM      2  C   UNL     1     -17.468  -2.952   4.333  1.00  0.00     0.208 A 
ATOM      3  C   UNL     1     -18.783  -2.769   3.877  1.00  0.00     0.238 A 
ATOM      4  O   UNL     1     -19.629  -3.675   4.096  1.00  0.00    -0.285 OA
ATOM      5  C   UNL     1     -19.142  -1.563   3.228  1.00  0.00     0.111 A 
ATOM      6  C   UNL     1     -20.435  -1.285   2.691  1.00  0.00     0.134 A 
ATOM      7  C   UNL     1     -20.712  -0.009   2.184  1.00  0.00     0.093 A 
ATOM      8  C   UNL     1     -19.725   0.978   2.137  1.00  0.00     0.123 A 
ATOM      9  C   UNL     1     -18.444   0.697   2.605  1.00  0.00     0.094 A 
ATOM     10  C   UNL     1     -18.145  -0.554   3.148  1.00  0.00     0.146 A 
ATOM     11  O   UNL     1     -16.914  -0.776   3.594  1.00  0.00    -0.451 OA
ENDROOT
BRANCH   1  12
ATOM     12  C   UNL     1     -15.130  -2.055   4.586  1.00  0.00     0.063 A 
ATOM     13  C   UNL     1     -12.915  -2.988   4.212  1.00  0.00     0.047 A 
ATOM     14  C   UNL     1     -14.248  -2.835   3.821  1.00  0.00     0.020 A 
ATOM     15  C   UNL     1     -12.450  -2.375   5.378  1.00  0.00     0.119 A 
ATOM     16  C   UNL     1     -13.327  -1.614   6.161  1.00  0.00     0.093 A 
ATOM     17  C   UNL     1     -14.668  -1.461   5.778  1.00  0.00     0.130 A 
BRANCH  15  18
ATOM     18  O   UNL     1     -11.118  -2.533   5.753  1.00  0.00    -0.508 OA
ATOM     19  H   UNL     1     -10.784  -3.392   6.175  1.00  0.00     0.293 HD
ENDBRANCH  15  18
BRANCH  17  20
ATOM     20  O   UNL     1     -15.543  -0.740   6.592  1.00  0.00    -0.507 OA
ATOM     21  H   UNL     1     -15.800   0.217   6.381  1.00  0.00     0.293 HD
ENDBRANCH  17  20
ENDBRANCH   1  12
BRANCH   2  22
ATOM     22  O   UNL     1     -17.092  -4.125   4.993  1.00  0.00    -0.502 OA
ATOM     23  H   UNL     1     -17.662  -4.961   4.982  1.00  0.00     0.293 HD
ENDBRANCH   2  22
BRANCH   6  24
ATOM     24  O   UNL     1     -21.463  -2.228   2.605  1.00  0.00    -0.507 OA
ATOM     25  H   UNL     1     -22.340  -2.080   2.129  1.00  0.00     0.293 HD
ENDBRANCH   6  24
BRANCH   8  26
ATOM     26  O   UNL     1     -20.007   2.240   1.618  1.00  0.00    -0.508 OA
ATOM     27  H   UNL     1     -20.955   2.525   1.402  1.00  0.00     0.293 HD
ENDBRANCH   8  26
TORSDOF 6
ENDMDL
MODEL 6
REMARK VINA RESULT:    -5.252      5.835     10.791
REMARK INTER + INTRA:          -6.746
REMARK INTER:                  -6.377
REMARK INTRA:                  -0.369
REMARK UNBOUND:                -0.419
REMARK SMILES O=c1c(O)c(-c2ccc(O)cc2O)oc2cc(O)cc(O)c12
REMARK SMILES IDX 5 1 3 2 2 3 1 4 22 5 20 6 19 7 17 8 16 9 15 10 14 11 6 12
REMARK SMILES IDX 8 13 7 14 9 15 11 16 12 17 10 18 13 20 4 22 21 24 18 26
REMARK H PARENT 10 19 13 21 4 23 21 25 18 27
REMARK Flexibility Score: inf
ROOT
ATOM      1  C   UNL     1     -24.172  -1.898   3.386  1.00  0.00     0.184 A 
ATOM      2  C   UNL     1     -24.270  -2.437   4.677  1.00  0.00     0.208 A 
ATOM      3  C   UNL     1     -25.540  -2.594   5.255  1.00  0.00     0.238 A 
ATOM      4  O   UNL     1     -25.619  -3.028   6.434  1.00  0.00    -0.285 OA
ATOM      5  C   UNL     1     -26.696  -2.221   4.525  1.00  0.00     0.111 A 
ATOM      6  C   UNL     1     -28.035  -2.372   4.995  1.00  0.00     0.134 A 
ATOM      7  C   UNL     1     -29.094  -1.851   4.241  1.00  0.00     0.093 A 
ATOM      8  C   UNL     1     -28.867  -1.242   3.005  1.00  0.00     0.123 A 
ATOM      9  C   UNL     1     -27.569  -1.143   2.511  1.00  0.00     0.094 A 
ATOM     10  C   UNL     1     -26.488  -1.621   3.254  1.00  0.00     0.146 A 
ATOM     11  O   UNL     1     -25.266  -1.496   2.751  1.00  0.00    -0.451 OA
ENDROOT
BRANCH   1  12
ATOM     12  C   UNL     1     -22.867  -1.723   2.714  1.00  0.00     0.063 A 
ATOM     13  C   UNL     1     -20.708  -0.608   2.628  1.00  0.00     0.047 A 
ATOM     14  C   UNL     1     -21.948  -0.802   3.242  1.00  0.00     0.020 A 
ATOM     15  C   UNL     1     -20.376  -1.321   1.474  1.00  0.00     0.119 A 
ATOM     16  C   UNL     1     -21.294  -2.225   0.925  1.00  0.00     0.093 A 
ATOM     17  C   UNL     1     -22.544  -2.421   1.533  1.00  0.00     0.130 A 
BRANCH  15  18
ATOM     18  O   UNL     1     -19.133  -1.120   0.875  1.00  0.00    -0.508 OA
ATOM     19  H   UNL     1     -19.029  -1.088  -0.132  1.00  0.00     0.293 HD
ENDBRANCH  15  18
BRANCH  17  20
ATOM     20  O   UNL     1     -23.469  -3.288   0.950  1.00  0.00    -0.507 OA
ATOM     21  H   UNL     1     -24.458  -3.070   0.922  1.00  0.00     0.293 HD
ENDBRANCH  17  20
ENDBRANCH   1  12
BRANCH   2  22
ATOM     22  O   UNL     1     -23.113  -2.780   5.383  1.00  0.00    -0.502 OA
ATOM     23  H   UNL     1     -23.054  -2.720   6.392  1.00  0.00     0.293 HD
ENDBRANCH   2  22
BRANCH   6  24
ATOM     24  O   UNL     1     -28.378  -3.045   6.172  1.00  0.00    -0.507 OA
ATOM     25  H   UNL     1     -28.684  -2.597   7.021  1.00  0.00     0.293 HD
ENDBRANCH   6  24
BRANCH   8  26
ATOM     26  O   UNL     1     -29.929  -0.740   2.255  1.00  0.00    -0.508 OA
ATOM     27  H   UNL     1     -30.821  -1.220   2.211  1.00  0.00     0.293 HD
ENDBRANCH   8  26
TORSDOF 6
ENDMDL
MODEL 7
REMARK VINA RESULT:    -5.223      2.415      7.772
REMARK INTER + INTRA:          -6.712
REMARK INTER:                  -6.305
REMARK INTRA:                  -0.407
REMARK UNBOUND:                -0.419
REMARK SMILES O=c1c(O)c(-c2ccc(O)cc2O)oc2cc(O)cc(O)c12
REMARK SMILES IDX 5 1 3 2 2 3 1 4 22 5 20 6 19 7 17 8 16 9 15 10 14 11 6 12
REMARK SMILES IDX 8 13 7 14 9 15 11 16 12 17 10 18 13 20 4 22 21 24 18 26
REMARK H PARENT 10 19 13 21 4 23 21 25 18 27
REMARK Flexibility Score: inf
ROOT
ATOM      1  C   UNL     1     -19.058  -2.055   3.084  1.00  0.00     0.184 A 
ATOM      2  C   UNL     1     -19.349  -2.970   2.061  1.00  0.00     0.208 A 
ATOM      3  C   UNL     1     -20.691  -3.247   1.757  1.00  0.00     0.238 A 
ATOM      4  O   UNL     1     -20.946  -4.108   0.875  1.00  0.00    -0.285 OA
ATOM      5  C   UNL     1     -21.724  -2.592   2.472  1.00  0.00     0.111 A 
ATOM      6  C   UNL     1     -23.118  -2.766   2.222  1.00  0.00     0.134 A 
ATOM      7  C   UNL     1     -24.053  -2.166   3.076  1.00  0.00     0.093 A 
ATOM      8  C   UNL     1     -23.643  -1.347   4.131  1.00  0.00     0.123 A 
ATOM      9  C   UNL     1     -22.285  -1.125   4.347  1.00  0.00     0.094 A 
ATOM     10  C   UNL     1     -21.328  -1.737   3.534  1.00  0.00     0.146 A 
ATOM     11  O   UNL     1     -20.044  -1.506   3.782  1.00  0.00    -0.451 OA
ENDROOT
BRANCH   1  12
ATOM     12  C   UNL     1     -17.667  -1.706   3.442  1.00  0.00     0.063 A 
ATOM     13  C   UNL     1     -15.637  -2.253   4.663  1.00  0.00     0.047 A 
ATOM     14  C   UNL     1     -16.952  -2.556   4.300  1.00  0.00     0.020 A 
ATOM     15  C   UNL     1     -15.025  -1.092   4.184  1.00  0.00     0.119 A 
ATOM     16  C   UNL     1     -15.737  -0.225   3.346  1.00  0.00     0.093 A 
ATOM     17  C   UNL     1     -17.060  -0.520   2.981  1.00  0.00     0.130 A 
BRANCH  15  18
ATOM     18  O   UNL     1     -13.712  -0.805   4.551  1.00  0.00    -0.508 OA
ATOM     19  H   UNL     1     -13.102  -0.259   3.954  1.00  0.00     0.293 HD
ENDBRANCH  15  18
BRANCH  17  20
ATOM     20  O   UNL     1     -17.775   0.376   2.185  1.00  0.00    -0.507 OA
ATOM     21  H   UNL     1     -18.199   0.089   1.310  1.00  0.00     0.293 HD
ENDBRANCH  17  20
ENDBRANCH   1  12
BRANCH   2  22
ATOM     22  O   UNL     1     -18.311  -3.615   1.383  1.00  0.00    -0.502 OA
ATOM     23  H   UNL     1     -17.798  -3.175   0.629  1.00  0.00     0.293 HD
ENDBRANCH   2  22
BRANCH   6  24
ATOM     24  O   UNL     1     -23.634  -3.488   1.141  1.00  0.00    -0.507 OA
ATOM     25  H   UNL     1     -23.417  -4.452   0.939  1.00  0.00     0.293 HD
ENDBRANCH   6  24
BRANCH   8  26
ATOM     26  O   UNL     1     -24.580  -0.743   4.966  1.00  0.00    -0.508 OA
ATOM     27  H   UNL     1     -24.639   0.265   5.056  1.00  0.00     0.293 HD
ENDBRANCH   8  26
TORSDOF 6
ENDMDL
MODEL 8
REMARK VINA RESULT:    -5.173      3.986      6.905
REMARK INTER + INTRA:          -6.651
REMARK INTER:                  -6.261
REMARK INTRA:                  -0.390
REMARK UNBOUND:                -0.419
REMARK SMILES O=c1c(O)c(-c2ccc(O)cc2O)oc2cc(O)cc(O)c12
REMARK SMILES IDX 5 1 3 2 2 3 1 4 22 5 20 6 19 7 17 8 16 9 15 10 14 11 6 12
REMARK SMILES IDX 8 13 7 14 9 15 11 16 12 17 10 18 13 20 4 22 21 24 18 26
REMARK H PARENT 10 19 13 21 4 23 21 25 18 27
REMARK Flexibility Score: inf
ROOT
ATOM      1  C   UNL     1     -23.031  -2.016   3.338  1.00  0.00     0.184 A 
ATOM      2  C   UNL     1     -22.428  -3.075   4.033  1.00  0.00     0.208 A 
ATOM      3  C   UNL     1     -21.027  -3.142   4.088  1.00  0.00     0.238 A 
ATOM      4  O   UNL     1     -20.491  -4.124   4.667  1.00  0.00    -0.285 OA
ATOM      5  C   UNL     1     -20.249  -2.139   3.460  1.00  0.00     0.111 A 
ATOM      6  C   UNL     1     -18.823  -2.085   3.486  1.00  0.00     0.134 A 
ATOM      7  C   UNL     1     -18.155  -1.119   2.722  1.00  0.00     0.093 A 
ATOM      8  C   UNL     1     -18.863  -0.167   1.985  1.00  0.00     0.123 A 
ATOM      9  C   UNL     1     -20.256  -0.176   2.000  1.00  0.00     0.094 A 
ATOM     10  C   UNL     1     -20.951  -1.148   2.724  1.00  0.00     0.146 A 
ATOM     11  O   UNL     1     -22.278  -1.127   2.703  1.00  0.00    -0.451 OA
ENDROOT
BRANCH   1  12
ATOM     12  C   UNL     1     -24.500  -1.877   3.256  1.00  0.00     0.063 A 
ATOM     13  C   UNL     1     -26.617  -1.482   4.386  1.00  0.00     0.047 A 
ATOM     14  C   UNL     1     -25.226  -1.614   4.428  1.00  0.00     0.020 A 
ATOM     15  C   UNL     1     -27.300  -1.626   3.176  1.00  0.00     0.119 A 
ATOM     16  C   UNL     1     -26.588  -1.913   2.004  1.00  0.00     0.093 A 
ATOM     17  C   UNL     1     -25.193  -2.051   2.040  1.00  0.00     0.130 A 
BRANCH  15  18
ATOM     18  O   UNL     1     -28.686  -1.489   3.149  1.00  0.00    -0.508 OA
ATOM     19  H   UNL     1     -29.218  -1.315   3.995  1.00  0.00     0.293 HD
ENDBRANCH  15  18
BRANCH  17  20
ATOM     20  O   UNL     1     -24.500  -2.384   0.875  1.00  0.00    -0.507 OA
ATOM     21  H   UNL     1     -23.703  -3.010   0.890  1.00  0.00     0.293 HD
ENDBRANCH  17  20
ENDBRANCH   1  12
BRANCH   2  22
ATOM     22  O   UNL     1     -23.219  -4.062   4.628  1.00  0.00    -0.502 OA
ATOM     23  H   UNL     1     -23.236  -5.018   4.296  1.00  0.00     0.293 HD
ENDBRANCH   2  22
BRANCH   6  24
ATOM     24  O   UNL     1     -18.023  -2.930   4.261  1.00  0.00    -0.507 OA
ATOM     25  H   UNL     1     -17.989  -3.933   4.167  1.00  0.00     0.293 HD
ENDBRANCH   6  24
BRANCH   8  26
ATOM     26  O   UNL     1     -18.190   0.798   1.240  1.00  0.00    -0.508 OA
ATOM     27  H   UNL     1     -17.214   1.013   1.408  1.00  0.00     0.293 HD
ENDBRANCH   8  26
TORSDOF 6
ENDMDL
MODEL 9
REMARK VINA RESULT:    -4.936      2.211      4.480
REMARK INTER + INTRA:          -6.365
REMARK INTER:                  -5.966
REMARK INTRA:                  -0.398
REMARK UNBOUND:                -0.419
REMARK SMILES O=c1c(O)c(-c2ccc(O)cc2O)oc2cc(O)cc(O)c12
REMARK SMILES IDX 5 1 3 2 2 3 1 4 22 5 20 6 19 7 17 8 16 9 15 10 14 11 6 12
REMARK SMILES IDX 8 13 7 14 9 15 11 16 12 17 10 18 13 20 4 22 21 24 18 26
REMARK H PARENT 10 19 13 21 4 23 21 25 18 27
REMARK Flexibility Score: inf
ROOT
ATOM      1  C   UNL     1     -19.741  -1.352   3.328  1.00  0.00     0.184 A 
ATOM      2  C   UNL     1     -19.415  -0.667   2.148  1.00  0.00     0.208 A 
ATOM      3  C   UNL     1     -18.076  -0.320   1.910  1.00  0.00     0.238 A 
ATOM      4  O   UNL     1     -17.797   0.342   0.876  1.00  0.00    -0.285 OA
ATOM      5  C   UNL     1     -17.079  -0.676   2.851  1.00  0.00     0.111 A 
ATOM      6  C   UNL     1     -15.685  -0.411   2.695  1.00  0.00     0.134 A 
ATOM      7  C   UNL     1     -14.806  -0.694   3.748  1.00  0.00     0.093 A 
ATOM      8  C   UNL     1     -15.262  -1.292   4.926  1.00  0.00     0.123 A 
ATOM      9  C   UNL     1     -16.611  -1.608   5.064  1.00  0.00     0.094 A 
ATOM     10  C   UNL     1     -17.518  -1.307   4.046  1.00  0.00     0.146 A 
ATOM     11  O   UNL     1     -18.797  -1.615   4.223  1.00  0.00    -0.451 OA
ENDROOT
BRANCH   1  12
ATOM     12  C   UNL     1     -21.128  -1.762   3.631  1.00  0.00     0.063 A 
ATOM     13  C   UNL     1     -23.395  -1.129   4.244  1.00  0.00     0.047 A 
ATOM     14  C   UNL     1     -22.076  -0.776   3.947  1.00  0.00     0.020 A 
ATOM     15  C   UNL     1     -23.780  -2.472   4.241  1.00  0.00     0.119 A 
ATOM     16  C   UNL     1     -22.837  -3.466   3.949  1.00  0.00     0.093 A 
ATOM     17  C   UNL     1     -21.510  -3.119   3.656  1.00  0.00     0.130 A 
BRANCH  15  18
ATOM     18  O   UNL     1     -25.100  -2.809   4.534  1.00  0.00    -0.508 OA
ATOM     19  H   UNL     1     -25.438  -2.844   5.489  1.00  0.00     0.293 HD
ENDBRANCH  15  18
BRANCH  17  20
ATOM     20  O   UNL     1     -20.569  -4.121   3.414  1.00  0.00    -0.507 OA
ATOM     21  H   UNL     1     -20.050  -4.166   2.544  1.00  0.00     0.293 HD
ENDBRANCH  17  20
ENDBRANCH   1  12
BRANCH   2  22
ATOM     22  O   UNL     1     -20.421  -0.312   1.244  1.00  0.00    -0.502 OA
ATOM     23  H   UNL     1     -21.368  -0.661   1.321  1.00  0.00     0.293 HD
ENDBRANCH   2  22
BRANCH   6  24
ATOM     24  O   UNL     1     -15.114   0.099   1.525  1.00  0.00    -0.507 OA
ATOM     25  H   UNL     1     -15.633   0.517   0.768  1.00  0.00     0.293 HD
ENDBRANCH   6  24
BRANCH   8  26
ATOM     26  O   UNL     1     -14.377  -1.583   5.962  1.00  0.00    -0.508 OA
ATOM     27  H   UNL     1     -14.021  -2.520   6.107  1.00  0.00     0.293 HD
ENDBRANCH   8  26
TORSDOF 6
ENDMDL
