MODEL 1
REMARK VINA RESULT:    -3.290      0.000      0.000
REMARK INTER + INTRA:          -7.576
REMARK INTER:                  -5.598
REMARK INTRA:                  -1.978
REMARK UNBOUND:                -1.978
REMARK SMILES CCCCCCCCCCCCCC(=O)[O-]
REMARK SMILES IDX 8 1 9 2 10 3 11 4 12 5 13 6 14 7 15 8 16 9 7 10 6 11 5 12
REMARK SMILES IDX 4 13 3 14 2 15 1 16
REMARK H PARENT
REMARK Flexibility Score: inf
ROOT
ATOM      1  C   UNL     1      17.676  17.181  16.563  1.00  0.00     0.000 C 
ENDROOT
BRANCH   1   2
ATOM      2  C   UNL     1      18.119  17.334  18.027  1.00  0.00     0.000 C 
BRANCH   2   3
ATOM      3  C   UNL     1      19.642  17.469  18.178  1.00  0.00     0.000 C 
BRANCH   3   4
ATOM      4  C   UNL     1      20.267  16.293  18.948  1.00  0.00     0.000 C 
BRANCH   4   5
ATOM      5  C   UNL     1      19.225  15.240  19.361  1.00  0.00     0.006 C 
BRANCH   5   6
ATOM      6  C   UNL     1      19.099  15.098  20.884  1.00  0.00     0.053 C 
BRANCH   6   7
ATOM      7  C   UNL     1      20.362  14.539  21.462  1.00  0.00     0.041 C 
ATOM      8  O   UNL     1      20.804  13.430  21.063  1.00  0.00    -0.550 OA
ATOM      9  O   UNL     1      21.021  15.220  22.478  1.00  0.00    -0.550 OA
ENDBRANCH   6   7
ENDBRANCH   5   6
ENDBRANCH   4   5
ENDBRANCH   3   4
ENDBRANCH   2   3
ENDBRANCH   1   2
BRANCH   1  10
ATOM     10  C   UNL     1      16.889  15.878  16.362  1.00  0.00     0.000 C 
BRANCH  10  11
ATOM     11  C   UNL     1      17.649  14.842  15.514  1.00  0.00    -0.000 C 
BRANCH  11  12
ATOM     12  C   UNL     1      19.122  15.187  15.232  1.00  0.00    -0.000 C 
BRANCH  12  13
ATOM     13  C   UNL     1      20.102  14.153  15.809  1.00  0.00    -0.000 C 
BRANCH  13  14
ATOM     14  C   UNL     1      19.347  12.948  16.390  1.00  0.00    -0.000 C 
BRANCH  14  15
ATOM     15  C   UNL     1      20.110  12.273  17.542  1.00  0.00    -0.003 C 
ATOM     16  C   UNL     1      21.565  12.732  17.636  1.00  0.00     0.004 C 
ENDBRANCH  14  15
ENDBRANCH  13  14
ENDBRANCH  12  13
ENDBRANCH  11  12
ENDBRANCH  10  11
ENDBRANCH   1  10
TORSDOF 12
ENDMDL
MODEL 2
REMARK VINA RESULT:    -3.269      1.862      2.175
REMARK INTER + INTRA:          -7.540
REMARK INTER:                  -5.779
REMARK INTRA:                  -1.761
REMARK UNBOUND:                -1.978
REMARK SMILES CCCCCCCCCCCCCC(=O)[O-]
REMARK SMILES IDX 8 1 9 2 10 3 11 4 12 5 13 6 14 7 15 8 16 9 7 10 6 11 5 12
REMARK SMILES IDX 4 13 3 14 2 15 1 16
REMARK H PARENT
REMARK Flexibility Score: inf
ROOT
ATOM      1  C   UNL     1      17.417  16.179  17.678  1.00  0.00     0.000 C 
ENDROOT
BRANCH   1   2
ATOM      2  C   UNL     1      18.474  17.235  18.037  1.00  0.00     0.000 C 
BRANCH   2   3
ATOM      3  C   UNL     1      19.626  16.662  18.880  1.00  0.00     0.000 C 
BRANCH   3   4
ATOM      4  C   UNL     1      19.357  15.220  19.344  1.00  0.00     0.000 C 
BRANCH   4   5
ATOM      5  C   UNL     1      19.073  15.129  20.852  1.00  0.00     0.006 C 
BRANCH   5   6
ATOM      6  C   UNL     1      18.876  16.506  21.501  1.00  0.00     0.053 C 
BRANCH   6   7
ATOM      7  C   UNL     1      17.431  16.728  21.825  1.00  0.00     0.041 C 
ATOM      8  O   UNL     1      16.736  17.503  21.118  1.00  0.00    -0.550 OA
ATOM      9  O   UNL     1      16.868  16.117  22.938  1.00  0.00    -0.550 OA
ENDBRANCH   6   7
ENDBRANCH   5   6
ENDBRANCH   4   5
ENDBRANCH   3   4
ENDBRANCH   2   3
ENDBRANCH   1   2
BRANCH   1  10
ATOM     10  C   UNL     1      17.091  16.221  16.177  1.00  0.00     0.000 C 
BRANCH  10  11
ATOM     11  C   UNL     1      17.710  15.049  15.395  1.00  0.00    -0.000 C 
BRANCH  11  12
ATOM     12  C   UNL     1      19.207  15.201  15.072  1.00  0.00    -0.000 C 
BRANCH  12  13
ATOM     13  C   UNL     1      20.084  14.161  15.786  1.00  0.00    -0.000 C 
BRANCH  13  14
ATOM     14  C   UNL     1      19.234  12.992  16.306  1.00  0.00    -0.000 C 
BRANCH  14  15
ATOM     15  C   UNL     1      19.940  12.197  17.416  1.00  0.00    -0.003 C 
ATOM     16  C   UNL     1      21.400  12.609  17.602  1.00  0.00     0.004 C 
ENDBRANCH  14  15
ENDBRANCH  13  14
ENDBRANCH  12  13
ENDBRANCH  11  12
ENDBRANCH  10  11
ENDBRANCH   1  10
TORSDOF 12
ENDMDL
MODEL 3
REMARK VINA RESULT:    -3.252      1.814      3.593
REMARK INTER + INTRA:          -7.512
REMARK INTER:                  -6.078
REMARK INTRA:                  -1.434
REMARK UNBOUND:                -1.978
REMARK SMILES CCCCCCCCCCCCCC(=O)[O-]
REMARK SMILES IDX 8 1 9 2 10 3 11 4 12 5 13 6 14 7 15 8 16 9 7 10 6 11 5 12
REMARK SMILES IDX 4 13 3 14 2 15 1 16
REMARK H PARENT
REMARK Flexibility Score: inf
ROOT
ATOM      1  C   UNL     1      18.973  15.292  14.947  1.00  0.00     0.000 C 
ENDROOT
BRANCH   1   2
ATOM      2  C   UNL     1      17.600  14.739  15.361  1.00  0.00     0.000 C 
BRANCH   2   3
ATOM      3  C   UNL     1      16.806  15.716  16.243  1.00  0.00     0.000 C 
BRANCH   3   4
ATOM      4  C   UNL     1      17.476  17.098  16.345  1.00  0.00     0.000 C 
BRANCH   4   5
ATOM      5  C   UNL     1      17.783  17.498  17.797  1.00  0.00     0.006 C 
BRANCH   5   6
ATOM      6  C   UNL     1      18.134  16.293  18.681  1.00  0.00     0.053 C 
BRANCH   6   7
ATOM      7  C   UNL     1      17.650  16.514  20.080  1.00  0.00     0.041 C 
ATOM      8  O   UNL     1      16.899  17.489  20.344  1.00  0.00    -0.550 OA
ATOM      9  O   UNL     1      18.069  15.671  21.101  1.00  0.00    -0.550 OA
ENDBRANCH   6   7
ENDBRANCH   5   6
ENDBRANCH   4   5
ENDBRANCH   3   4
ENDBRANCH   2   3
ENDBRANCH   1   2
BRANCH   1  10
ATOM     10  C   UNL     1      20.106  14.494  15.608  1.00  0.00     0.000 C 
BRANCH  10  11
ATOM     11  C   UNL     1      19.623  13.175  16.239  1.00  0.00    -0.000 C 
BRANCH  11  12
ATOM     12  C   UNL     1      19.873  13.049  17.752  1.00  0.00    -0.000 C 
BRANCH  12  13
ATOM     13  C   UNL     1      21.143  12.251  18.086  1.00  0.00    -0.000 C 
BRANCH  13  14
ATOM     14  C   UNL     1      21.943  12.938  19.203  1.00  0.00    -0.000 C 
BRANCH  14  15
ATOM     15  C   UNL     1      21.109  13.971  19.977  1.00  0.00    -0.003 C 
ATOM     16  C   UNL     1      20.890  13.580  21.438  1.00  0.00     0.004 C 
ENDBRANCH  14  15
ENDBRANCH  13  14
ENDBRANCH  12  13
ENDBRANCH  11  12
ENDBRANCH  10  11
ENDBRANCH   1  10
TORSDOF 12
ENDMDL
MODEL 4
REMARK VINA RESULT:    -3.244      1.775      3.995
REMARK INTER + INTRA:          -7.498
REMARK INTER:                  -5.879
REMARK INTRA:                  -1.619
REMARK UNBOUND:                -1.978
REMARK SMILES CCCCCCCCCCCCCC(=O)[O-]
REMARK SMILES IDX 8 1 9 2 10 3 11 4 12 5 13 6 14 7 15 8 16 9 7 10 6 11 5 12
REMARK SMILES IDX 4 13 3 14 2 15 1 16
REMARK H PARENT
REMARK Flexibility Score: inf
ROOT
ATOM      1  C   UNL     1      21.284  12.751  17.889  1.00  0.00     0.000 C 
ENDROOT
BRANCH   1   2
ATOM      2  C   UNL     1      21.481  12.677  19.411  1.00  0.00     0.000 C 
BRANCH   2   3
ATOM      3  C   UNL     1      21.193  14.014  20.114  1.00  0.00     0.000 C 
BRANCH   3   4
ATOM      4  C   UNL     1      20.684  15.094  19.143  1.00  0.00     0.000 C 
BRANCH   4   5
ATOM      5  C   UNL     1      19.220  15.483  19.409  1.00  0.00     0.006 C 
BRANCH   5   6
ATOM      6  C   UNL     1      18.820  15.308  20.880  1.00  0.00     0.053 C 
BRANCH   6   7
ATOM      7  C   UNL     1      17.740  16.278  21.246  1.00  0.00     0.041 C 
ATOM      8  O   UNL     1      17.318  16.338  22.430  1.00  0.00    -0.550 OA
ATOM      9  O   UNL     1      17.166  17.079  20.268  1.00  0.00    -0.550 OA
ENDBRANCH   6   7
ENDBRANCH   5   6
ENDBRANCH   4   5
ENDBRANCH   3   4
ENDBRANCH   2   3
ENDBRANCH   1   2
BRANCH   1  10
ATOM     10  C   UNL     1      20.010  12.004  17.466  1.00  0.00     0.000 C 
BRANCH  10  11
ATOM     11  C   UNL     1      19.167  12.787  16.443  1.00  0.00    -0.000 C 
BRANCH  11  12
ATOM     12  C   UNL     1      19.915  13.915  15.710  1.00  0.00    -0.000 C 
BRANCH  12  13
ATOM     13  C   UNL     1      19.013  15.112  15.374  1.00  0.00    -0.000 C 
BRANCH  13  14
ATOM     14  C   UNL     1      17.640  14.971  16.046  1.00  0.00    -0.000 C 
BRANCH  14  15
ATOM     15  C   UNL     1      16.915  16.318  16.198  1.00  0.00    -0.003 C 
ATOM     16  C   UNL     1      17.834  17.431  16.701  1.00  0.00     0.004 C 
ENDBRANCH  14  15
ENDBRANCH  13  14
ENDBRANCH  12  13
ENDBRANCH  11  12
ENDBRANCH  10  11
ENDBRANCH   1  10
TORSDOF 12
ENDMDL
MODEL 5
REMARK VINA RESULT:    -3.218      1.646      2.258
REMARK INTER + INTRA:          -7.454
REMARK INTER:                  -6.053
REMARK INTRA:                  -1.401
REMARK UNBOUND:                -1.978
REMARK SMILES CCCCCCCCCCCCCC(=O)[O-]
REMARK SMILES IDX 8 1 9 2 10 3 11 4 12 5 13 6 14 7 15 8 16 9 7 10 6 11 5 12
REMARK SMILES IDX 4 13 3 14 2 15 1 16
REMARK H PARENT
REMARK Flexibility Score: inf
ROOT
ATOM      1  C   UNL     1      16.940  15.913  16.229  1.00  0.00     0.000 C 
ENDROOT
BRANCH   1   2
ATOM      2  C   UNL     1      17.671  17.261  16.325  1.00  0.00     0.000 C 
BRANCH   2   3
ATOM      3  C   UNL     1      18.231  17.535  17.731  1.00  0.00     0.000 C 
BRANCH   3   4
ATOM      4  C   UNL     1      18.323  16.261  18.589  1.00  0.00     0.000 C 
BRANCH   4   5
ATOM      5  C   UNL     1      17.632  16.419  19.953  1.00  0.00     0.006 C 
BRANCH   5   6
ATOM      6  C   UNL     1      18.353  15.656  21.073  1.00  0.00     0.053 C 
BRANCH   6   7
ATOM      7  C   UNL     1      18.081  16.295  22.399  1.00  0.00     0.041 C 
ATOM      8  O   UNL     1      18.992  16.925  22.997  1.00  0.00    -0.550 OA
ATOM      9  O   UNL     1      16.835  16.152  22.996  1.00  0.00    -0.550 OA
ENDBRANCH   6   7
ENDBRANCH   5   6
ENDBRANCH   4   5
ENDBRANCH   3   4
ENDBRANCH   2   3
ENDBRANCH   1   2
BRANCH   1  10
ATOM     10  C   UNL     1      17.563  15.030  15.136  1.00  0.00     0.000 C 
BRANCH  10  11
ATOM     11  C   UNL     1      19.075  15.263  14.965  1.00  0.00    -0.000 C 
BRANCH  11  12
ATOM     12  C   UNL     1      19.975  14.305  15.766  1.00  0.00    -0.000 C 
BRANCH  12  13
ATOM     13  C   UNL     1      19.226  13.065  16.278  1.00  0.00    -0.000 C 
BRANCH  13  14
ATOM     14  C   UNL     1      19.972  12.422  17.456  1.00  0.00    -0.000 C 
BRANCH  14  15
ATOM     15  C   UNL     1      21.111  13.308  17.989  1.00  0.00    -0.003 C 
ATOM     16  C   UNL     1      20.917  13.705  19.452  1.00  0.00     0.004 C 
ENDBRANCH  14  15
ENDBRANCH  13  14
ENDBRANCH  12  13
ENDBRANCH  11  12
ENDBRANCH  10  11
ENDBRANCH   1  10
TORSDOF 12
ENDMDL
MODEL 6
REMARK VINA RESULT:    -3.188     12.520     14.405
REMARK INTER + INTRA:          -7.402
REMARK INTER:                  -5.664
REMARK INTRA:                  -1.738
REMARK UNBOUND:                -1.978
REMARK SMILES CCCCCCCCCCCCCC(=O)[O-]
REMARK SMILES IDX 8 1 9 2 10 3 11 4 12 5 13 6 14 7 15 8 16 9 7 10 6 11 5 12
REMARK SMILES IDX 4 13 3 14 2 15 1 16
REMARK H PARENT
REMARK Flexibility Score: inf
ROOT
ATOM      1  C   UNL     1      28.471   9.592  25.228  1.00  0.00     0.000 C 
ENDROOT
BRANCH   1   2
ATOM      2  C   UNL     1      27.769   8.669  26.236  1.00  0.00     0.000 C 
BRANCH   2   3
ATOM      3  C   UNL     1      27.695   9.275  27.646  1.00  0.00     0.000 C 
BRANCH   3   4
ATOM      4  C   UNL     1      28.849   8.809  28.552  1.00  0.00     0.000 C 
BRANCH   4   5
ATOM      5  C   UNL     1      29.764   9.967  28.982  1.00  0.00     0.006 C 
BRANCH   5   6
ATOM      6  C   UNL     1      29.280  11.328  28.466  1.00  0.00     0.053 C 
BRANCH   6   7
ATOM      7  C   UNL     1      29.248  12.327  29.581  1.00  0.00     0.041 C 
ATOM      8  O   UNL     1      30.050  12.225  30.545  1.00  0.00    -0.550 OA
ATOM      9  O   UNL     1      28.299  13.341  29.577  1.00  0.00    -0.550 OA
ENDBRANCH   6   7
ENDBRANCH   5   6
ENDBRANCH   4   5
ENDBRANCH   3   4
ENDBRANCH   2   3
ENDBRANCH   1   2
BRANCH   1  10
ATOM     10  C   UNL     1      29.402   8.788  24.306  1.00  0.00     0.000 C 
BRANCH  10  11
ATOM     11  C   UNL     1      30.858   9.285  24.342  1.00  0.00    -0.000 C 
BRANCH  11  12
ATOM     12  C   UNL     1      31.305   9.894  25.684  1.00  0.00    -0.000 C 
BRANCH  12  13
ATOM     13  C   UNL     1      31.662  11.385  25.576  1.00  0.00    -0.000 C 
BRANCH  13  14
ATOM     14  C   UNL     1      31.622  11.854  24.114  1.00  0.00    -0.000 C 
BRANCH  14  15
ATOM     15  C   UNL     1      30.767  13.117  23.923  1.00  0.00    -0.003 C 
ATOM     16  C   UNL     1      29.389  13.002  24.574  1.00  0.00     0.004 C 
ENDBRANCH  14  15
ENDBRANCH  13  14
ENDBRANCH  12  13
ENDBRANCH  11  12
ENDBRANCH  10  11
ENDBRANCH   1  10
TORSDOF 12
ENDMDL
MODEL 7
REMARK VINA RESULT:    -3.182      1.498      2.335
REMARK INTER + INTRA:          -7.393
REMARK INTER:                  -5.356
REMARK INTRA:                  -2.036
REMARK UNBOUND:                -1.978
REMARK SMILES CCCCCCCCCCCCCC(=O)[O-]
REMARK SMILES IDX 8 1 9 2 10 3 11 4 12 5 13 6 14 7 15 8 16 9 7 10 6 11 5 12
REMARK SMILES IDX 4 13 3 14 2 15 1 16
REMARK H PARENT
REMARK Flexibility Score: inf
ROOT
ATOM      1  C   UNL     1      17.726  17.220  16.472  1.00  0.00     0.000 C 
ENDROOT
BRANCH   1   2
ATOM      2  C   UNL     1      17.757  17.797  17.896  1.00  0.00     0.000 C 
BRANCH   2   3
ATOM      3  C   UNL     1      17.875  16.711  18.977  1.00  0.00     0.000 C 
BRANCH   3   4
ATOM      4  C   UNL     1      19.337  16.364  19.308  1.00  0.00     0.000 C 
BRANCH   4   5
ATOM      5  C   UNL     1      19.578  14.848  19.396  1.00  0.00     0.006 C 
BRANCH   5   6
ATOM      6  C   UNL     1      21.059  14.475  19.247  1.00  0.00     0.053 C 
BRANCH   6   7
ATOM      7  C   UNL     1      21.260  13.017  19.526  1.00  0.00     0.041 C 
ATOM      8  O   UNL     1      21.164  12.175  18.595  1.00  0.00    -0.550 OA
ATOM      9  O   UNL     1      21.504  12.586  20.823  1.00  0.00    -0.550 OA
ENDBRANCH   6   7
ENDBRANCH   5   6
ENDBRANCH   4   5
ENDBRANCH   3   4
ENDBRANCH   2   3
ENDBRANCH   1   2
BRANCH   1  10
ATOM     10  C   UNL     1      16.992  15.870  16.445  1.00  0.00     0.000 C 
BRANCH  10  11
ATOM     11  C   UNL     1      17.615  14.868  15.456  1.00  0.00    -0.000 C 
BRANCH  11  12
ATOM     12  C   UNL     1      18.492  13.779  16.099  1.00  0.00    -0.000 C 
BRANCH  12  13
ATOM     13  C   UNL     1      19.975  13.901  15.718  1.00  0.00    -0.000 C 
BRANCH  13  14
ATOM     14  C   UNL     1      20.171  14.936  14.601  1.00  0.00    -0.000 C 
BRANCH  14  15
ATOM     15  C   UNL     1      21.392  15.839  14.840  1.00  0.00    -0.003 C 
ATOM     16  C   UNL     1      21.324  16.585  16.172  1.00  0.00     0.004 C 
ENDBRANCH  14  15
ENDBRANCH  13  14
ENDBRANCH  12  13
ENDBRANCH  11  12
ENDBRANCH  10  11
ENDBRANCH   1  10
TORSDOF 12
ENDMDL
MODEL 8
REMARK VINA RESULT:    -3.182      2.251      3.820
REMARK INTER + INTRA:          -7.392
REMARK INTER:                  -5.201
REMARK INTRA:                  -2.190
REMARK UNBOUND:                -1.978
REMARK SMILES CCCCCCCCCCCCCC(=O)[O-]
REMARK SMILES IDX 8 1 9 2 10 3 11 4 12 5 13 6 14 7 15 8 16 9 7 10 6 11 5 12
REMARK SMILES IDX 4 13 3 14 2 15 1 16
REMARK H PARENT
REMARK Flexibility Score: inf
ROOT
ATOM      1  C   UNL     1      20.641  13.968  16.787  1.00  0.00     0.000 C 
ENDROOT
BRANCH   1   2
ATOM      2  C   UNL     1      19.988  14.472  18.083  1.00  0.00     0.000 C 
BRANCH   2   3
ATOM      3  C   UNL     1      20.741  15.658  18.707  1.00  0.00     0.000 C 
BRANCH   3   4
ATOM      4  C   UNL     1      19.876  16.446  19.707  1.00  0.00     0.000 C 
BRANCH   4   5
ATOM      5  C   UNL     1      18.457  15.869  19.843  1.00  0.00     0.006 C 
BRANCH   5   6
ATOM      6  C   UNL     1      17.381  16.959  19.921  1.00  0.00     0.053 C 
BRANCH   6   7
ATOM      7  C   UNL     1      16.968  17.184  21.342  1.00  0.00     0.041 C 
ATOM      8  O   UNL     1      16.304  18.207  21.654  1.00  0.00    -0.550 OA
ATOM      9  O   UNL     1      17.360  16.289  22.329  1.00  0.00    -0.550 OA
ENDBRANCH   6   7
ENDBRANCH   5   6
ENDBRANCH   4   5
ENDBRANCH   3   4
ENDBRANCH   2   3
ENDBRANCH   1   2
BRANCH   1  10
ATOM     10  C   UNL     1      19.576  13.519  15.776  1.00  0.00     0.000 C 
BRANCH  10  11
ATOM     11  C   UNL     1      18.149  13.927  16.185  1.00  0.00    -0.000 C 
BRANCH  11  12
ATOM     12  C   UNL     1      17.535  15.066  15.352  1.00  0.00    -0.000 C 
BRANCH  12  13
ATOM     13  C   UNL     1      17.078  16.257  16.208  1.00  0.00    -0.000 C 
BRANCH  13  14
ATOM     14  C   UNL     1      18.194  17.306  16.328  1.00  0.00    -0.000 C 
BRANCH  14  15
ATOM     15  C   UNL     1      19.114  17.333  15.096  1.00  0.00    -0.003 C 
ATOM     16  C   UNL     1      20.590  17.479  15.463  1.00  0.00     0.004 C 
ENDBRANCH  14  15
ENDBRANCH  13  14
ENDBRANCH  12  13
ENDBRANCH  11  12
ENDBRANCH  10  11
ENDBRANCH   1  10
TORSDOF 12
ENDMDL
MODEL 9
REMARK VINA RESULT:    -3.131      2.502      5.251
REMARK INTER + INTRA:          -7.305
REMARK INTER:                  -5.401
REMARK INTRA:                  -1.904
REMARK UNBOUND:                -1.978
REMARK SMILES CCCCCCCCCCCCCC(=O)[O-]
REMARK SMILES IDX 8 1 9 2 10 3 11 4 12 5 13 6 14 7 15 8 16 9 7 10 6 11 5 12
REMARK SMILES IDX 4 13 3 14 2 15 1 16
REMARK H PARENT
REMARK Flexibility Score: inf
ROOT
ATOM      1  C   UNL     1      20.328  17.120  17.432  1.00  0.00     0.000 C 
ENDROOT
BRANCH   1   2
ATOM      2  C   UNL     1      18.928  17.738  17.575  1.00  0.00     0.000 C 
BRANCH   2   3
ATOM      3  C   UNL     1      18.039  17.489  16.346  1.00  0.00     0.000 C 
BRANCH   3   4
ATOM      4  C   UNL     1      17.123  16.264  16.519  1.00  0.00     0.000 C 
BRANCH   4   5
ATOM      5  C   UNL     1      17.352  15.200  15.433  1.00  0.00     0.006 C 
BRANCH   5   6
ATOM      6  C   UNL     1      18.157  13.998  15.943  1.00  0.00     0.053 C 
BRANCH   6   7
ATOM      7  C   UNL     1      19.592  14.118  15.531  1.00  0.00     0.041 C 
ATOM      8  O   UNL     1      19.902  14.782  14.507  1.00  0.00    -0.550 OA
ATOM      9  O   UNL     1      20.578  13.456  16.249  1.00  0.00    -0.550 OA
ENDBRANCH   6   7
ENDBRANCH   5   6
ENDBRANCH   4   5
ENDBRANCH   3   4
ENDBRANCH   2   3
ENDBRANCH   1   2
BRANCH   1  10
ATOM     10  C   UNL     1      20.693  16.298  18.677  1.00  0.00     0.000 C 
BRANCH  10  11
ATOM     11  C   UNL     1      19.599  15.291  19.073  1.00  0.00    -0.000 C 
BRANCH  11  12
ATOM     12  C   UNL     1      19.586  14.896  20.561  1.00  0.00    -0.000 C 
BRANCH  12  13
ATOM     13  C   UNL     1      18.490  15.614  21.363  1.00  0.00    -0.000 C 
BRANCH  13  14
ATOM     14  C   UNL     1      17.456  16.254  20.425  1.00  0.00    -0.000 C 
BRANCH  14  15
ATOM     15  C   UNL     1      16.917  17.589  20.964  1.00  0.00    -0.003 C 
ATOM     16  C   UNL     1      17.990  18.676  21.033  1.00  0.00     0.004 C 
ENDBRANCH  14  15
ENDBRANCH  13  14
ENDBRANCH  12  13
ENDBRANCH  11  12
ENDBRANCH  10  11
ENDBRANCH   1  10
TORSDOF 12
ENDMDL
