MODEL 1
REMARK VINA RESULT:    -3.341      0.000      0.000
REMARK INTER + INTRA:         -11.299
REMARK INTER:                  -7.248
REMARK INTRA:                  -4.051
REMARK UNBOUND:                -4.051
REMARK SMILES CCCCCCCCCCCCCCCCCCCCCC(=O)[O-]
REMARK SMILES IDX 12 1 11 2 10 3 9 4 8 5 7 6 6 7 5 8 4 9 3 10 2 11 1 12 13 13
REMARK SMILES IDX 14 14 15 15 16 16 17 17 18 18 19 19 20 20 21 21 22 22 23 23
REMARK SMILES IDX 24 24
REMARK H PARENT
REMARK Flexibility Score: inf
ROOT
ATOM      1  C   UNL     1      17.182  15.669  29.408  1.00  0.00     0.000 C 
ENDROOT
BRANCH   1   2
ATOM      2  C   UNL     1      16.984  15.251  30.871  1.00  0.00     0.000 C 
BRANCH   2   3
ATOM      3  C   UNL     1      16.515  13.794  30.967  1.00  0.00     0.000 C 
BRANCH   3   4
ATOM      4  C   UNL     1      17.354  13.011  31.984  1.00  0.00    -0.000 C 
BRANCH   4   5
ATOM      5  C   UNL     1      18.462  13.893  32.577  1.00  0.00    -0.000 C 
BRANCH   5   6
ATOM      6  C   UNL     1      19.864  13.270  32.442  1.00  0.00    -0.000 C 
BRANCH   6   7
ATOM      7  C   UNL     1      20.198  12.722  31.041  1.00  0.00    -0.000 C 
BRANCH   7   8
ATOM      8  C   UNL     1      20.367  13.792  29.945  1.00  0.00    -0.000 C 
BRANCH   8   9
ATOM      9  C   UNL     1      20.214  13.241  28.510  1.00  0.00    -0.000 C 
BRANCH   9  10
ATOM     10  C   UNL     1      18.753  12.899  28.166  1.00  0.00    -0.000 C 
BRANCH  10  11
ATOM     11  C   UNL     1      18.539  11.394  27.944  1.00  0.00    -0.003 C 
ATOM     12  C   UNL     1      17.699  10.751  29.046  1.00  0.00     0.004 C 
ENDBRANCH  10  11
ENDBRANCH   9  10
ENDBRANCH   8   9
ENDBRANCH   7   8
ENDBRANCH   6   7
ENDBRANCH   5   6
ENDBRANCH   4   5
ENDBRANCH   3   4
ENDBRANCH   2   3
ENDBRANCH   1   2
BRANCH   1  13
ATOM     13  C   UNL     1      15.876  15.639  28.596  1.00  0.00     0.000 C 
BRANCH  13  14
ATOM     14  C   UNL     1      16.059  15.629  27.065  1.00  0.00     0.000 C 
BRANCH  14  15
ATOM     15  C   UNL     1      15.826  14.265  26.392  1.00  0.00     0.000 C 
BRANCH  15  16
ATOM     16  C   UNL     1      14.482  13.627  26.787  1.00  0.00     0.000 C 
BRANCH  16  17
ATOM     17  C   UNL     1      14.657  12.353  27.627  1.00  0.00     0.000 C 
BRANCH  17  18
ATOM     18  C   UNL     1      13.791  12.358  28.900  1.00  0.00     0.000 C 
BRANCH  18  19
ATOM     19  C   UNL     1      12.785  13.529  28.912  1.00  0.00     0.000 C 
BRANCH  19  20
ATOM     20  C   UNL     1      12.878  14.407  30.170  1.00  0.00     0.006 C 
BRANCH  20  21
ATOM     21  C   UNL     1      12.626  13.626  31.464  1.00  0.00     0.053 C 
BRANCH  21  22
ATOM     22  C   UNL     1      11.375  14.103  32.129  1.00  0.00     0.041 C 
ATOM     23  O   UNL     1      10.706  15.043  31.623  1.00  0.00    -0.550 OA
ATOM     24  O   UNL     1      10.971  13.545  33.336  1.00  0.00    -0.550 OA
ENDBRANCH  21  22
ENDBRANCH  20  21
ENDBRANCH  19  20
ENDBRANCH  18  19
ENDBRANCH  17  18
ENDBRANCH  16  17
ENDBRANCH  15  16
ENDBRANCH  14  15
ENDBRANCH  13  14
ENDBRANCH   1  13
TORSDOF 20
ENDMDL
MODEL 2
REMARK VINA RESULT:    -3.338      3.415      5.765
REMARK INTER + INTRA:         -11.291
REMARK INTER:                  -8.198
REMARK INTRA:                  -3.093
REMARK UNBOUND:                -4.051
REMARK SMILES CCCCCCCCCCCCCCCCCCCCCC(=O)[O-]
REMARK SMILES IDX 12 1 11 2 10 3 9 4 8 5 7 6 6 7 5 8 4 9 3 10 2 11 1 12 13 13
REMARK SMILES IDX 14 14 15 15 16 16 17 17 18 18 19 19 20 20 21 21 22 22 23 23
REMARK SMILES IDX 24 24
REMARK H PARENT
REMARK Flexibility Score: inf
ROOT
ATOM      1  C   UNL     1      13.247  12.307  31.900  1.00  0.00     0.000 C 
ENDROOT
BRANCH   1   2
ATOM      2  C   UNL     1      13.006  11.534  30.596  1.00  0.00     0.000 C 
BRANCH   2   3
ATOM      3  C   UNL     1      13.665  12.244  29.408  1.00  0.00     0.000 C 
BRANCH   3   4
ATOM      4  C   UNL     1      14.067  13.677  29.775  1.00  0.00    -0.000 C 
BRANCH   4   5
ATOM      5  C   UNL     1      14.346  14.509  28.515  1.00  0.00    -0.000 C 
BRANCH   5   6
ATOM      6  C   UNL     1      15.652  15.321  28.608  1.00  0.00    -0.000 C 
BRANCH   6   7
ATOM      7  C   UNL     1      16.173  15.551  30.039  1.00  0.00    -0.000 C 
BRANCH   7   8
ATOM      8  C   UNL     1      17.575  14.975  30.324  1.00  0.00    -0.000 C 
BRANCH   8   9
ATOM      9  C   UNL     1      17.739  14.417  31.755  1.00  0.00    -0.000 C 
BRANCH   9  10
ATOM     10  C   UNL     1      16.981  13.093  31.959  1.00  0.00    -0.000 C 
BRANCH  10  11
ATOM     11  C   UNL     1      17.560  11.949  31.113  1.00  0.00    -0.003 C 
ATOM     12  C   UNL     1      16.644  10.726  31.075  1.00  0.00     0.004 C 
ENDBRANCH  10  11
ENDBRANCH   9  10
ENDBRANCH   8   9
ENDBRANCH   7   8
ENDBRANCH   6   7
ENDBRANCH   5   6
ENDBRANCH   4   5
ENDBRANCH   3   4
ENDBRANCH   2   3
ENDBRANCH   1   2
BRANCH   1  13
ATOM     13  C   UNL     1      11.972  12.464  32.746  1.00  0.00     0.000 C 
BRANCH  13  14
ATOM     14  C   UNL     1      11.552  13.920  33.030  1.00  0.00     0.000 C 
BRANCH  14  15
ATOM     15  C   UNL     1      11.036  14.698  31.807  1.00  0.00     0.000 C 
BRANCH  15  16
ATOM     16  C   UNL     1       9.835  14.015  31.129  1.00  0.00     0.000 C 
BRANCH  16  17
ATOM     17  C   UNL     1      10.113  13.646  29.664  1.00  0.00     0.000 C 
BRANCH  17  18
ATOM     18  C   UNL     1      10.615  14.843  28.837  1.00  0.00     0.000 C 
BRANCH  18  19
ATOM     19  C   UNL     1       9.870  14.971  27.492  1.00  0.00     0.000 C 
BRANCH  19  20
ATOM     20  C   UNL     1       8.934  16.189  27.419  1.00  0.00     0.006 C 
BRANCH  20  21
ATOM     21  C   UNL     1       8.477  16.506  25.991  1.00  0.00     0.053 C 
BRANCH  21  22
ATOM     22  C   UNL     1       8.271  17.978  25.823  1.00  0.00     0.041 C 
ATOM     23  O   UNL     1       8.312  18.743  26.822  1.00  0.00    -0.550 OA
ATOM     24  O   UNL     1       7.986  18.501  24.568  1.00  0.00    -0.550 OA
ENDBRANCH  21  22
ENDBRANCH  20  21
ENDBRANCH  19  20
ENDBRANCH  18  19
ENDBRANCH  17  18
ENDBRANCH  16  17
ENDBRANCH  15  16
ENDBRANCH  14  15
ENDBRANCH  13  14
ENDBRANCH   1  13
TORSDOF 20
ENDMDL
MODEL 3
REMARK VINA RESULT:    -3.307      3.053      4.965
REMARK INTER + INTRA:         -11.224
REMARK INTER:                  -7.684
REMARK INTRA:                  -3.540
REMARK UNBOUND:                -4.051
REMARK SMILES CCCCCCCCCCCCCCCCCCCCCC(=O)[O-]
REMARK SMILES IDX 12 1 11 2 10 3 9 4 8 5 7 6 6 7 5 8 4 9 3 10 2 11 1 12 13 13
REMARK SMILES IDX 14 14 15 15 16 16 17 17 18 18 19 19 20 20 21 21 22 22 23 23
REMARK SMILES IDX 24 24
REMARK H PARENT
REMARK Flexibility Score: inf
ROOT
ATOM      1  C   UNL     1      14.139  12.697  28.885  1.00  0.00     0.000 C 
ENDROOT
BRANCH   1   2
ATOM      2  C   UNL     1      14.107  14.198  28.565  1.00  0.00     0.000 C 
BRANCH   2   3
ATOM      3  C   UNL     1      15.143  14.552  27.491  1.00  0.00     0.000 C 
BRANCH   3   4
ATOM      4  C   UNL     1      16.121  15.619  27.998  1.00  0.00    -0.000 C 
BRANCH   4   5
ATOM      5  C   UNL     1      15.922  15.876  29.499  1.00  0.00    -0.000 C 
BRANCH   5   6
ATOM      6  C   UNL     1      17.140  15.461  30.346  1.00  0.00    -0.000 C 
BRANCH   6   7
ATOM      7  C   UNL     1      16.905  14.255  31.275  1.00  0.00    -0.000 C 
BRANCH   7   8
ATOM      8  C   UNL     1      17.811  13.037  31.005  1.00  0.00    -0.000 C 
BRANCH   8   9
ATOM      9  C   UNL     1      18.635  13.151  29.704  1.00  0.00    -0.000 C 
BRANCH   9  10
ATOM     10  C   UNL     1      17.987  12.396  28.531  1.00  0.00    -0.000 C 
BRANCH  10  11
ATOM     11  C   UNL     1      18.534  12.847  27.168  1.00  0.00    -0.003 C 
ATOM     12  C   UNL     1      19.357  14.131  27.261  1.00  0.00     0.004 C 
ENDBRANCH  10  11
ENDBRANCH   9  10
ENDBRANCH   8   9
ENDBRANCH   7   8
ENDBRANCH   6   7
ENDBRANCH   5   6
ENDBRANCH   4   5
ENDBRANCH   3   4
ENDBRANCH   2   3
ENDBRANCH   1   2
BRANCH   1  13
ATOM     13  C   UNL     1      13.803  12.392  30.355  1.00  0.00     0.000 C 
BRANCH  13  14
ATOM     14  C   UNL     1      13.283  13.595  31.168  1.00  0.00     0.000 C 
BRANCH  14  15
ATOM     15  C   UNL     1      11.968  13.347  31.927  1.00  0.00     0.000 C 
BRANCH  15  16
ATOM     16  C   UNL     1      10.742  13.925  31.198  1.00  0.00     0.000 C 
BRANCH  16  17
ATOM     17  C   UNL     1      11.057  15.233  30.458  1.00  0.00     0.000 C 
BRANCH  17  18
ATOM     18  C   UNL     1      10.632  15.195  28.979  1.00  0.00     0.000 C 
BRANCH  18  19
ATOM     19  C   UNL     1       9.318  14.414  28.773  1.00  0.00     0.000 C 
BRANCH  19  20
ATOM     20  C   UNL     1       8.271  15.178  27.946  1.00  0.00     0.006 C 
BRANCH  20  21
ATOM     21  C   UNL     1       8.826  16.460  27.317  1.00  0.00     0.053 C 
BRANCH  21  22
ATOM     22  C   UNL     1       8.845  16.346  25.826  1.00  0.00     0.041 C 
ATOM     23  O   UNL     1       9.236  15.283  25.276  1.00  0.00    -0.550 OA
ATOM     24  O   UNL     1       8.477  17.431  25.040  1.00  0.00    -0.550 OA
ENDBRANCH  21  22
ENDBRANCH  20  21
ENDBRANCH  19  20
ENDBRANCH  18  19
ENDBRANCH  17  18
ENDBRANCH  16  17
ENDBRANCH  15  16
ENDBRANCH  14  15
ENDBRANCH  13  14
ENDBRANCH   1  13
TORSDOF 20
ENDMDL
MODEL 4
REMARK VINA RESULT:    -3.289      2.749      6.847
REMARK INTER + INTRA:         -11.185
REMARK INTER:                  -8.191
REMARK INTRA:                  -2.994
REMARK UNBOUND:                -4.051
REMARK SMILES CCCCCCCCCCCCCCCCCCCCCC(=O)[O-]
REMARK SMILES IDX 12 1 11 2 10 3 9 4 8 5 7 6 6 7 5 8 4 9 3 10 2 11 1 12 13 13
REMARK SMILES IDX 14 14 15 15 16 16 17 17 18 18 19 19 20 20 21 21 22 22 23 23
REMARK SMILES IDX 24 24
REMARK H PARENT
REMARK Flexibility Score: inf
ROOT
ATOM      1  C   UNL     1      17.782  13.090  32.323  1.00  0.00     0.000 C 
ENDROOT
BRANCH   1   2
ATOM      2  C   UNL     1      16.651  13.560  31.396  1.00  0.00     0.000 C 
BRANCH   2   3
ATOM      3  C   UNL     1      16.896  14.995  30.915  1.00  0.00     0.000 C 
BRANCH   3   4
ATOM      4  C   UNL     1      15.885  15.394  29.834  1.00  0.00    -0.000 C 
BRANCH   4   5
ATOM      5  C   UNL     1      14.677  14.446  29.835  1.00  0.00    -0.000 C 
BRANCH   5   6
ATOM      6  C   UNL     1      13.912  14.446  28.499  1.00  0.00    -0.000 C 
BRANCH   6   7
ATOM      7  C   UNL     1      12.570  13.689  28.518  1.00  0.00    -0.000 C 
BRANCH   7   8
ATOM      8  C   UNL     1      11.338  14.553  28.855  1.00  0.00    -0.000 C 
BRANCH   8   9
ATOM      9  C   UNL     1      10.593  14.104  30.130  1.00  0.00    -0.000 C 
BRANCH   9  10
ATOM     10  C   UNL     1      10.933  14.981  31.348  1.00  0.00    -0.000 C 
BRANCH  10  11
ATOM     11  C   UNL     1      11.356  14.151  32.570  1.00  0.00    -0.003 C 
ATOM     12  C   UNL     1      12.291  13.000  32.203  1.00  0.00     0.004 C 
ENDBRANCH  10  11
ENDBRANCH   9  10
ENDBRANCH   8   9
ENDBRANCH   7   8
ENDBRANCH   6   7
ENDBRANCH   5   6
ENDBRANCH   4   5
ENDBRANCH   3   4
ENDBRANCH   2   3
ENDBRANCH   1   2
BRANCH   1  13
ATOM     13  C   UNL     1      18.882  14.150  32.506  1.00  0.00     0.000 C 
BRANCH  13  14
ATOM     14  C   UNL     1      20.200  13.859  31.761  1.00  0.00     0.000 C 
BRANCH  14  15
ATOM     15  C   UNL     1      20.152  12.656  30.801  1.00  0.00     0.000 C 
BRANCH  15  16
ATOM     16  C   UNL     1      20.358  13.059  29.331  1.00  0.00     0.000 C 
BRANCH  16  17
ATOM     17  C   UNL     1      19.678  14.391  28.981  1.00  0.00     0.000 C 
BRANCH  17  18
ATOM     18  C   UNL     1      18.998  14.366  27.601  1.00  0.00     0.000 C 
BRANCH  18  19
ATOM     19  C   UNL     1      17.805  13.388  27.561  1.00  0.00     0.000 C 
BRANCH  19  20
ATOM     20  C   UNL     1      16.907  13.563  26.325  1.00  0.00     0.006 C 
BRANCH  20  21
ATOM     21  C   UNL     1      17.388  14.678  25.390  1.00  0.00     0.053 C 
BRANCH  21  22
ATOM     22  C   UNL     1      16.363  15.763  25.300  1.00  0.00     0.041 C 
ATOM     23  O   UNL     1      15.917  16.122  24.178  1.00  0.00    -0.550 OA
ATOM     24  O   UNL     1      15.936  16.415  26.450  1.00  0.00    -0.550 OA
ENDBRANCH  21  22
ENDBRANCH  20  21
ENDBRANCH  19  20
ENDBRANCH  18  19
ENDBRANCH  17  18
ENDBRANCH  16  17
ENDBRANCH  15  16
ENDBRANCH  14  15
ENDBRANCH  13  14
ENDBRANCH   1  13
TORSDOF 20
ENDMDL
MODEL 5
REMARK VINA RESULT:    -3.283      2.007      5.114
REMARK INTER + INTRA:         -11.172
REMARK INTER:                  -7.438
REMARK INTRA:                  -3.734
REMARK UNBOUND:                -4.051
REMARK SMILES CCCCCCCCCCCCCCCCCCCCCC(=O)[O-]
REMARK SMILES IDX 12 1 11 2 10 3 9 4 8 5 7 6 6 7 5 8 4 9 3 10 2 11 1 12 13 13
REMARK SMILES IDX 14 14 15 15 16 16 17 17 18 18 19 19 20 20 21 21 22 22 23 23
REMARK SMILES IDX 24 24
REMARK H PARENT
REMARK Flexibility Score: inf
ROOT
ATOM      1  C   UNL     1      17.249  15.036  27.506  1.00  0.00     0.000 C 
ENDROOT
BRANCH   1   2
ATOM      2  C   UNL     1      17.425  15.599  26.088  1.00  0.00     0.000 C 
BRANCH   2   3
ATOM      3  C   UNL     1      16.168  16.354  25.638  1.00  0.00     0.000 C 
BRANCH   3   4
ATOM      4  C   UNL     1      15.791  15.987  24.198  1.00  0.00    -0.000 C 
BRANCH   4   5
ATOM      5  C   UNL     1      15.664  14.465  24.035  1.00  0.00    -0.000 C 
BRANCH   5   6
ATOM      6  C   UNL     1      14.207  13.999  23.855  1.00  0.00    -0.000 C 
BRANCH   6   7
ATOM      7  C   UNL     1      13.745  12.914  24.846  1.00  0.00    -0.000 C 
BRANCH   7   8
ATOM      8  C   UNL     1      13.851  13.302  26.335  1.00  0.00    -0.000 C 
BRANCH   8   9
ATOM      9  C   UNL     1      14.601  12.262  27.196  1.00  0.00    -0.000 C 
BRANCH   9  10
ATOM     10  C   UNL     1      14.960  10.993  26.404  1.00  0.00    -0.000 C 
BRANCH  10  11
ATOM     11  C   UNL     1      16.459  10.663  26.470  1.00  0.00    -0.003 C 
ATOM     12  C   UNL     1      17.331  11.774  25.887  1.00  0.00     0.004 C 
ENDBRANCH  10  11
ENDBRANCH   9  10
ENDBRANCH   8   9
ENDBRANCH   7   8
ENDBRANCH   6   7
ENDBRANCH   5   6
ENDBRANCH   4   5
ENDBRANCH   3   4
ENDBRANCH   2   3
ENDBRANCH   1   2
BRANCH   1  13
ATOM     13  C   UNL     1      16.016  15.609  28.227  1.00  0.00     0.000 C 
BRANCH  13  14
ATOM     14  C   UNL     1      16.243  15.995  29.702  1.00  0.00     0.000 C 
BRANCH  14  15
ATOM     15  C   UNL     1      17.430  15.291  30.382  1.00  0.00     0.000 C 
BRANCH  15  16
ATOM     16  C   UNL     1      16.994  14.113  31.271  1.00  0.00     0.000 C 
BRANCH  16  17
ATOM     17  C   UNL     1      16.847  12.802  30.485  1.00  0.00     0.000 C 
BRANCH  17  18
ATOM     18  C   UNL     1      15.452  12.170  30.642  1.00  0.00     0.000 C 
BRANCH  18  19
ATOM     19  C   UNL     1      14.444  13.143  31.287  1.00  0.00     0.000 C 
BRANCH  19  20
ATOM     20  C   UNL     1      13.455  13.759  30.284  1.00  0.00     0.006 C 
BRANCH  20  21
ATOM     21  C   UNL     1      11.993  13.440  30.615  1.00  0.00     0.053 C 
BRANCH  21  22
ATOM     22  C   UNL     1      11.154  14.675  30.522  1.00  0.00     0.041 C 
ATOM     23  O   UNL     1      10.986  15.245  29.412  1.00  0.00    -0.550 OA
ATOM     24  O   UNL     1      10.596  15.225  31.669  1.00  0.00    -0.550 OA
ENDBRANCH  21  22
ENDBRANCH  20  21
ENDBRANCH  19  20
ENDBRANCH  18  19
ENDBRANCH  17  18
ENDBRANCH  16  17
ENDBRANCH  15  16
ENDBRANCH  14  15
ENDBRANCH  13  14
ENDBRANCH   1  13
TORSDOF 20
ENDMDL
MODEL 6
REMARK VINA RESULT:    -3.253      3.149      6.518
REMARK INTER + INTRA:         -11.108
REMARK INTER:                  -7.867
REMARK INTRA:                  -3.241
REMARK UNBOUND:                -4.051
REMARK SMILES CCCCCCCCCCCCCCCCCCCCCC(=O)[O-]
REMARK SMILES IDX 12 1 11 2 10 3 9 4 8 5 7 6 6 7 5 8 4 9 3 10 2 11 1 12 13 13
REMARK SMILES IDX 14 14 15 15 16 16 17 17 18 18 19 19 20 20 21 21 22 22 23 23
REMARK SMILES IDX 24 24
REMARK H PARENT
REMARK Flexibility Score: inf
ROOT
ATOM      1  C   UNL     1      14.692  13.072  31.250  1.00  0.00     0.000 C 
ENDROOT
BRANCH   1   2
ATOM      2  C   UNL     1      14.077  11.795  31.838  1.00  0.00     0.000 C 
BRANCH   2   3
ATOM      3  C   UNL     1      13.013  12.133  32.890  1.00  0.00     0.000 C 
BRANCH   3   4
ATOM      4  C   UNL     1      11.709  12.593  32.227  1.00  0.00    -0.000 C 
BRANCH   4   5
ATOM      5  C   UNL     1      11.388  14.048  32.599  1.00  0.00    -0.000 C 
BRANCH   5   6
ATOM      6  C   UNL     1      10.656  14.808  31.477  1.00  0.00    -0.000 C 
BRANCH   6   7
ATOM      7  C   UNL     1      10.834  14.214  30.067  1.00  0.00    -0.000 C 
BRANCH   7   8
ATOM      8  C   UNL     1      12.096  14.681  29.315  1.00  0.00    -0.000 C 
BRANCH   8   9
ATOM      9  C   UNL     1      12.602  13.672  28.262  1.00  0.00    -0.000 C 
BRANCH   9  10
ATOM     10  C   UNL     1      12.008  12.266  28.463  1.00  0.00    -0.000 C 
BRANCH  10  11
ATOM     11  C   UNL     1      13.078  11.165  28.419  1.00  0.00    -0.003 C 
ATOM     12  C   UNL     1      14.411  11.662  27.862  1.00  0.00     0.004 C 
ENDBRANCH  10  11
ENDBRANCH   9  10
ENDBRANCH   8   9
ENDBRANCH   7   8
ENDBRANCH   6   7
ENDBRANCH   5   6
ENDBRANCH   4   5
ENDBRANCH   3   4
ENDBRANCH   2   3
ENDBRANCH   1   2
BRANCH   1  13
ATOM     13  C   UNL     1      16.209  12.953  31.020  1.00  0.00     0.000 C 
BRANCH  13  14
ATOM     14  C   UNL     1      17.028  14.200  31.410  1.00  0.00     0.000 C 
BRANCH  14  15
ATOM     15  C   UNL     1      17.402  15.124  30.238  1.00  0.00     0.000 C 
BRANCH  15  16
ATOM     16  C   UNL     1      16.209  15.949  29.726  1.00  0.00     0.000 C 
BRANCH  16  17
ATOM     17  C   UNL     1      15.835  15.611  28.275  1.00  0.00     0.000 C 
BRANCH  17  18
ATOM     18  C   UNL     1      16.978  14.914  27.515  1.00  0.00     0.000 C 
BRANCH  18  19
ATOM     19  C   UNL     1      17.312  15.629  26.189  1.00  0.00     0.000 C 
BRANCH  19  20
ATOM     20  C   UNL     1      16.074  16.167  25.451  1.00  0.00     0.006 C 
BRANCH  20  21
ATOM     21  C   UNL     1      15.918  15.585  24.042  1.00  0.00     0.053 C 
BRANCH  21  22
ATOM     22  C   UNL     1      14.929  14.463  24.046  1.00  0.00     0.041 C 
ATOM     23  O   UNL     1      14.544  13.954  22.961  1.00  0.00    -0.550 OA
ATOM     24  O   UNL     1      14.394  14.011  25.246  1.00  0.00    -0.550 OA
ENDBRANCH  21  22
ENDBRANCH  20  21
ENDBRANCH  19  20
ENDBRANCH  18  19
ENDBRANCH  17  18
ENDBRANCH  16  17
ENDBRANCH  15  16
ENDBRANCH  14  15
ENDBRANCH  13  14
ENDBRANCH   1  13
TORSDOF 20
ENDMDL
MODEL 7
REMARK VINA RESULT:    -3.218      1.700      5.124
REMARK INTER + INTRA:         -11.032
REMARK INTER:                  -7.630
REMARK INTRA:                  -3.402
REMARK UNBOUND:                -4.051
REMARK SMILES CCCCCCCCCCCCCCCCCCCCCC(=O)[O-]
REMARK SMILES IDX 12 1 11 2 10 3 9 4 8 5 7 6 6 7 5 8 4 9 3 10 2 11 1 12 13 13
REMARK SMILES IDX 14 14 15 15 16 16 17 17 18 18 19 19 20 20 21 21 22 22 23 23
REMARK SMILES IDX 24 24
REMARK H PARENT
REMARK Flexibility Score: inf
ROOT
ATOM      1  C   UNL     1      19.174  13.663  28.322  1.00  0.00     0.000 C 
ENDROOT
BRANCH   1   2
ATOM      2  C   UNL     1      18.054  13.786  27.278  1.00  0.00     0.000 C 
BRANCH   2   3
ATOM      3  C   UNL     1      18.610  13.630  25.858  1.00  0.00     0.000 C 
BRANCH   3   4
ATOM      4  C   UNL     1      18.330  14.881  25.016  1.00  0.00    -0.000 C 
BRANCH   4   5
ATOM      5  C   UNL     1      17.475  15.888  25.798  1.00  0.00    -0.000 C 
BRANCH   5   6
ATOM      6  C   UNL     1      16.141  16.213  25.101  1.00  0.00    -0.000 C 
BRANCH   6   7
ATOM      7  C   UNL     1      15.825  15.347  23.867  1.00  0.00    -0.000 C 
BRANCH   7   8
ATOM      8  C   UNL     1      14.686  14.326  24.058  1.00  0.00    -0.000 C 
BRANCH   8   9
ATOM      9  C   UNL     1      15.176  12.904  24.406  1.00  0.00    -0.000 C 
BRANCH   9  10
ATOM     10  C   UNL     1      14.973  12.561  25.892  1.00  0.00    -0.000 C 
BRANCH  10  11
ATOM     11  C   UNL     1      14.009  13.530  26.593  1.00  0.00    -0.003 C 
ATOM     12  C   UNL     1      14.575  14.080  27.901  1.00  0.00     0.004 C 
ENDBRANCH  10  11
ENDBRANCH   9  10
ENDBRANCH   8   9
ENDBRANCH   7   8
ENDBRANCH   6   7
ENDBRANCH   5   6
ENDBRANCH   4   5
ENDBRANCH   3   4
ENDBRANCH   2   3
ENDBRANCH   1   2
BRANCH   1  13
ATOM     13  C   UNL     1      19.203  14.844  29.308  1.00  0.00     0.000 C 
BRANCH  13  14
ATOM     14  C   UNL     1      17.874  15.612  29.446  1.00  0.00     0.000 C 
BRANCH  14  15
ATOM     15  C   UNL     1      17.005  15.196  30.646  1.00  0.00     0.000 C 
BRANCH  15  16
ATOM     16  C   UNL     1      17.769  14.332  31.664  1.00  0.00     0.000 C 
BRANCH  16  17
ATOM     17  C   UNL     1      17.010  13.050  32.040  1.00  0.00     0.000 C 
BRANCH  17  18
ATOM     18  C   UNL     1      15.691  12.892  31.263  1.00  0.00     0.000 C 
BRANCH  18  19
ATOM     19  C   UNL     1      14.729  11.900  31.950  1.00  0.00     0.000 C 
BRANCH  19  20
ATOM     20  C   UNL     1      13.291  12.427  32.079  1.00  0.00     0.006 C 
BRANCH  20  21
ATOM     21  C   UNL     1      12.932  13.455  31.000  1.00  0.00     0.053 C 
BRANCH  21  22
ATOM     22  C   UNL     1      11.803  14.321  31.457  1.00  0.00     0.041 C 
ATOM     23  O   UNL     1      11.242  15.111  30.652  1.00  0.00    -0.550 OA
ATOM     24  O   UNL     1      11.399  14.295  32.787  1.00  0.00    -0.550 OA
ENDBRANCH  21  22
ENDBRANCH  20  21
ENDBRANCH  19  20
ENDBRANCH  18  19
ENDBRANCH  17  18
ENDBRANCH  16  17
ENDBRANCH  15  16
ENDBRANCH  14  15
ENDBRANCH  13  14
ENDBRANCH   1  13
TORSDOF 20
ENDMDL
MODEL 8
REMARK VINA RESULT:    -3.217      1.997      5.390
REMARK INTER + INTRA:         -11.030
REMARK INTER:                  -7.305
REMARK INTRA:                  -3.725
REMARK UNBOUND:                -4.051
REMARK SMILES CCCCCCCCCCCCCCCCCCCCCC(=O)[O-]
REMARK SMILES IDX 12 1 11 2 10 3 9 4 8 5 7 6 6 7 5 8 4 9 3 10 2 11 1 12 13 13
REMARK SMILES IDX 14 14 15 15 16 16 17 17 18 18 19 19 20 20 21 21 22 22 23 23
REMARK SMILES IDX 24 24
REMARK H PARENT
REMARK Flexibility Score: inf
ROOT
ATOM      1  C   UNL     1      15.737  13.397  27.443  1.00  0.00     0.000 C 
ENDROOT
BRANCH   1   2
ATOM      2  C   UNL     1      14.718  12.303  27.095  1.00  0.00     0.000 C 
BRANCH   2   3
ATOM      3  C   UNL     1      14.525  12.196  25.578  1.00  0.00     0.000 C 
BRANCH   3   4
ATOM      4  C   UNL     1      13.333  13.042  25.113  1.00  0.00    -0.000 C 
BRANCH   4   5
ATOM      5  C   UNL     1      13.719  13.921  23.913  1.00  0.00    -0.000 C 
BRANCH   5   6
ATOM      6  C   UNL     1      15.154  13.663  23.417  1.00  0.00    -0.000 C 
BRANCH   6   7
ATOM      7  C   UNL     1      16.058  14.910  23.368  1.00  0.00    -0.000 C 
BRANCH   7   8
ATOM      8  C   UNL     1      15.776  15.964  24.456  1.00  0.00    -0.000 C 
BRANCH   8   9
ATOM      9  C   UNL     1      17.025  16.369  25.269  1.00  0.00    -0.000 C 
BRANCH   9  10
ATOM     10  C   UNL     1      18.089  15.258  25.302  1.00  0.00    -0.000 C 
BRANCH  10  11
ATOM     11  C   UNL     1      19.178  15.518  26.353  1.00  0.00    -0.003 C 
ATOM     12  C   UNL     1      19.292  14.387  27.374  1.00  0.00     0.004 C 
ENDBRANCH  10  11
ENDBRANCH   9  10
ENDBRANCH   8   9
ENDBRANCH   7   8
ENDBRANCH   6   7
ENDBRANCH   5   6
ENDBRANCH   4   5
ENDBRANCH   3   4
ENDBRANCH   2   3
ENDBRANCH   1   2
BRANCH   1  13
ATOM     13  C   UNL     1      15.075  14.690  27.952  1.00  0.00     0.000 C 
BRANCH  13  14
ATOM     14  C   UNL     1      16.042  15.718  28.572  1.00  0.00     0.000 C 
BRANCH  14  15
ATOM     15  C   UNL     1      16.135  15.679  30.107  1.00  0.00     0.000 C 
BRANCH  15  16
ATOM     16  C   UNL     1      17.466  15.091  30.608  1.00  0.00     0.000 C 
BRANCH  16  17
ATOM     17  C   UNL     1      17.266  13.916  31.577  1.00  0.00     0.000 C 
BRANCH  17  18
ATOM     18  C   UNL     1      16.769  12.642  30.871  1.00  0.00     0.000 C 
BRANCH  18  19
ATOM     19  C   UNL     1      15.925  11.753  31.807  1.00  0.00     0.000 C 
BRANCH  19  20
ATOM     20  C   UNL     1      14.534  12.331  32.118  1.00  0.00     0.006 C 
BRANCH  20  21
ATOM     21  C   UNL     1      13.730  12.662  30.855  1.00  0.00     0.053 C 
BRANCH  21  22
ATOM     22  C   UNL     1      12.668  13.669  31.160  1.00  0.00     0.041 C 
ATOM     23  O   UNL     1      11.918  13.518  32.161  1.00  0.00    -0.550 OA
ATOM     24  O   UNL     1      12.472  14.753  30.312  1.00  0.00    -0.550 OA
ENDBRANCH  21  22
ENDBRANCH  20  21
ENDBRANCH  19  20
ENDBRANCH  18  19
ENDBRANCH  17  18
ENDBRANCH  16  17
ENDBRANCH  15  16
ENDBRANCH  14  15
ENDBRANCH  13  14
ENDBRANCH   1  13
TORSDOF 20
ENDMDL
MODEL 9
REMARK VINA RESULT:    -3.162      2.157      4.393
REMARK INTER + INTRA:         -10.910
REMARK INTER:                  -6.794
REMARK INTRA:                  -4.117
REMARK UNBOUND:                -4.051
REMARK SMILES CCCCCCCCCCCCCCCCCCCCCC(=O)[O-]
REMARK SMILES IDX 12 1 11 2 10 3 9 4 8 5 7 6 6 7 5 8 4 9 3 10 2 11 1 12 13 13
REMARK SMILES IDX 14 14 15 15 16 16 17 17 18 18 19 19 20 20 21 21 22 22 23 23
REMARK SMILES IDX 24 24
REMARK H PARENT
REMARK Flexibility Score: inf
ROOT
ATOM      1  C   UNL     1      16.584  11.497  29.047  1.00  0.00     0.000 C 
ENDROOT
BRANCH   1   2
ATOM      2  C   UNL     1      16.449  12.143  27.661  1.00  0.00     0.000 C 
BRANCH   2   3
ATOM      3  C   UNL     1      15.323  13.184  27.649  1.00  0.00     0.000 C 
BRANCH   3   4
ATOM      4  C   UNL     1      15.755  14.455  26.909  1.00  0.00    -0.000 C 
BRANCH   4   5
ATOM      5  C   UNL     1      15.861  15.643  27.876  1.00  0.00    -0.000 C 
BRANCH   5   6
ATOM      6  C   UNL     1      15.555  15.259  29.336  1.00  0.00    -0.000 C 
BRANCH   6   7
ATOM      7  C   UNL     1      16.639  15.659  30.354  1.00  0.00    -0.000 C 
BRANCH   7   8
ATOM      8  C   UNL     1      17.276  14.485  31.125  1.00  0.00    -0.000 C 
BRANCH   8   9
ATOM      9  C   UNL     1      18.739  14.199  30.725  1.00  0.00    -0.000 C 
BRANCH   9  10
ATOM     10  C   UNL     1      19.143  14.916  29.424  1.00  0.00    -0.000 C 
BRANCH  10  11
ATOM     11  C   UNL     1      19.551  13.935  28.314  1.00  0.00    -0.003 C 
ATOM     12  C   UNL     1      19.499  14.566  26.924  1.00  0.00     0.004 C 
ENDBRANCH  10  11
ENDBRANCH   9  10
ENDBRANCH   8   9
ENDBRANCH   7   8
ENDBRANCH   6   7
ENDBRANCH   5   6
ENDBRANCH   4   5
ENDBRANCH   3   4
ENDBRANCH   2   3
ENDBRANCH   1   2
BRANCH   1  13
ATOM     13  C   UNL     1      15.231  11.322  29.759  1.00  0.00     0.000 C 
BRANCH  13  14
ATOM     14  C   UNL     1      15.286  11.407  31.297  1.00  0.00     0.000 C 
BRANCH  14  15
ATOM     15  C   UNL     1      14.178  12.259  31.941  1.00  0.00     0.000 C 
BRANCH  15  16
ATOM     16  C   UNL     1      13.116  12.719  30.928  1.00  0.00     0.000 C 
BRANCH  16  17
ATOM     17  C   UNL     1      12.503  14.081  31.290  1.00  0.00     0.000 C 
BRANCH  17  18
ATOM     18  C   UNL     1      11.890  14.798  30.074  1.00  0.00     0.000 C 
BRANCH  18  19
ATOM     19  C   UNL     1      11.962  13.936  28.796  1.00  0.00     0.000 C 
BRANCH  19  20
ATOM     20  C   UNL     1      10.766  14.138  27.850  1.00  0.00     0.006 C 
BRANCH  20  21
ATOM     21  C   UNL     1       9.835  15.270  28.298  1.00  0.00     0.053 C 
BRANCH  21  22
ATOM     22  C   UNL     1       8.497  14.726  28.682  1.00  0.00     0.041 C 
ATOM     23  O   UNL     1       7.446  15.240  28.216  1.00  0.00    -0.550 OA
ATOM     24  O   UNL     1       8.405  13.682  29.594  1.00  0.00    -0.550 OA
ENDBRANCH  21  22
ENDBRANCH  20  21
ENDBRANCH  19  20
ENDBRANCH  18  19
ENDBRANCH  17  18
ENDBRANCH  16  17
ENDBRANCH  15  16
ENDBRANCH  14  15
ENDBRANCH  13  14
ENDBRANCH   1  13
TORSDOF 20
ENDMDL
