MODEL 1
REMARK VINA RESULT:    -6.359      0.000      0.000
REMARK INTER + INTRA:          -6.578
REMARK INTER:                  -6.917
REMARK INTRA:                   0.338
REMARK UNBOUND:                 0.338
REMARK SMILES C[C@H]1[C@H](C)CC[C@@]2(C(=O)[O-])CC[C@@]3(C)C(=CC[C@@H]4[C@]5(C)CC[C@H](O)C(C)(C)[C@@H]5CC[C@@]43C)[C@H]12
REMARK SMILES IDX 7 1 6 2 11 3 33 4 5 5 12 6 15 7 2 8 3 9 13 10 16 11 1 12
REMARK SMILES IDX 4 13 14 14 31 15 17 16 18 17 30 18 32 19 19 20 29 21 28 22
REMARK SMILES IDX 21 23 20 24 25 25 22 26 23 27 26 28 27 29 8 30 9 31 10 32
REMARK SMILES IDX 24 33
REMARK H PARENT 24 34
REMARK Flexibility Score: inf
ROOT
ATOM      1  C   UNL     1      43.120  21.463  77.713  1.00  0.00     0.017 C 
ATOM      2  C   UNL     1      41.606  21.138  77.729  1.00  0.00     0.014 C 
ATOM      3  C   UNL     1      43.887  20.263  78.348  1.00  0.00     0.014 C 
ATOM      4  C   UNL     1      43.608  21.598  76.233  1.00  0.00     0.030 C 
ATOM      5  C   UNL     1      40.785  22.152  76.927  1.00  0.00     0.004 C 
ATOM      6  C   UNL     1      45.430  20.378  78.234  1.00  0.00     0.013 C 
ATOM      7  C   UNL     1      45.131  21.817  76.248  1.00  0.00    -0.063 C 
ATOM      8  C   UNL     1      42.749  22.567  75.349  1.00  0.00    -0.003 C 
ATOM      9  C   UNL     1      41.237  22.200  75.454  1.00  0.00    -0.011 C 
ATOM     10  C   UNL     1      45.982  20.654  76.782  1.00  0.00    -0.006 C 
ATOM     11  C   UNL     1      45.618  23.070  76.190  1.00  0.00    -0.027 C 
ATOM     12  C   UNL     1      43.223  22.503  73.881  1.00  0.00     0.008 C 
ATOM     13  C   UNL     1      40.342  23.189  74.686  1.00  0.00     0.008 C 
ATOM     14  C   UNL     1      45.713  19.393  75.888  1.00  0.00     0.017 C 
ATOM     15  C   UNL     1      47.574  20.974  76.795  1.00  0.00    -0.020 C 
ATOM     16  C   UNL     1      47.040  23.442  76.415  1.00  0.00     0.032 C 
ATOM     17  C   UNL     1      47.862  22.444  77.278  1.00  0.00     0.006 C 
ATOM     18  C   UNL     1      48.191  20.827  75.361  1.00  0.00     0.008 C 
ATOM     19  C   UNL     1      48.254  19.934  77.753  1.00  0.00     0.012 C 
ATOM     20  C   UNL     1      49.435  22.832  77.376  1.00  0.00    -0.025 C 
ATOM     21  C   UNL     1      49.452  21.675  75.042  1.00  0.00     0.005 C 
ATOM     22  C   UNL     1      50.309  22.070  76.276  1.00  0.00     0.003 C 
ATOM     23  C   UNL     1      49.619  24.389  77.255  1.00  0.00     0.010 C 
ATOM     24  C   UNL     1      49.923  22.439  78.811  1.00  0.00     0.012 C 
ATOM     25  C   UNL     1      51.747  22.698  75.932  1.00  0.00    -0.006 C 
ATOM     26  C   UNL     1      51.063  24.874  77.133  1.00  0.00     0.033 C 
ATOM     27  C   UNL     1      51.762  24.261  75.919  1.00  0.00     0.120 C 
ATOM     28  C   UNL     1      52.791  22.210  76.981  1.00  0.00     0.014 C 
ATOM     29  C   UNL     1      52.301  22.198  74.568  1.00  0.00     0.014 C 
ENDROOT
BRANCH   1  30
ATOM     30  C   UNL     1      43.361  22.713  78.561  1.00  0.00     0.048 C 
ATOM     31  O   UNL     1      43.111  23.864  78.118  1.00  0.00    -0.550 OA
ATOM     32  O   UNL     1      43.770  22.590  79.885  1.00  0.00    -0.550 OA
ENDBRANCH   1  30
BRANCH  27  33
ATOM     33  O   UNL     1      51.261  24.813  74.723  1.00  0.00    -0.393 OA
ATOM     34  H   UNL     1      51.772  24.437  73.965  1.00  0.00     0.210 HD
ENDBRANCH  27  33
TORSDOF 2
ENDMDL
MODEL 2
REMARK VINA RESULT:    -6.346     11.952     14.016
REMARK INTER + INTRA:          -6.564
REMARK INTER:                  -6.971
REMARK INTRA:                   0.407
REMARK UNBOUND:                 0.338
REMARK SMILES C[C@H]1[C@H](C)CC[C@@]2(C(=O)[O-])CC[C@@]3(C)C(=CC[C@@H]4[C@]5(C)CC[C@H](O)C(C)(C)[C@@H]5CC[C@@]43C)[C@H]12
REMARK SMILES IDX 7 1 6 2 11 3 33 4 5 5 12 6 15 7 2 8 3 9 13 10 16 11 1 12
REMARK SMILES IDX 4 13 14 14 31 15 17 16 18 17 30 18 32 19 19 20 29 21 28 22
REMARK SMILES IDX 21 23 20 24 25 25 22 26 23 27 26 28 27 29 8 30 9 31 10 32
REMARK SMILES IDX 24 33
REMARK H PARENT 24 34
REMARK Flexibility Score: inf
ROOT
ATOM      1  C   UNL     1      47.381  28.880  89.641  1.00  0.00     0.017 C 
ATOM      2  C   UNL     1      46.647  28.138  90.786  1.00  0.00     0.014 C 
ATOM      3  C   UNL     1      48.008  27.818  88.689  1.00  0.00     0.014 C 
ATOM      4  C   UNL     1      46.345  29.702  88.805  1.00  0.00     0.030 C 
ATOM      5  C   UNL     1      45.809  29.086  91.650  1.00  0.00     0.004 C 
ATOM      6  C   UNL     1      48.623  28.421  87.399  1.00  0.00     0.013 C 
ATOM      7  C   UNL     1      47.086  30.343  87.619  1.00  0.00    -0.063 C 
ATOM      8  C   UNL     1      45.409  30.629  89.656  1.00  0.00    -0.003 C 
ATOM      9  C   UNL     1      44.744  29.817  90.809  1.00  0.00    -0.011 C 
ATOM     10  C   UNL     1      47.672  29.374  86.578  1.00  0.00    -0.006 C 
ATOM     11  C   UNL     1      47.530  31.608  87.724  1.00  0.00    -0.027 C 
ATOM     12  C   UNL     1      44.333  31.267  88.750  1.00  0.00     0.008 C 
ATOM     13  C   UNL     1      43.898  30.707  91.736  1.00  0.00     0.008 C 
ATOM     14  C   UNL     1      46.498  28.525  85.976  1.00  0.00     0.017 C 
ATOM     15  C   UNL     1      48.464  30.124  85.375  1.00  0.00    -0.020 C 
ATOM     16  C   UNL     1      48.442  32.273  86.755  1.00  0.00     0.032 C 
ATOM     17  C   UNL     1      49.336  31.318  85.916  1.00  0.00     0.006 C 
ATOM     18  C   UNL     1      47.463  30.720  84.325  1.00  0.00     0.008 C 
ATOM     19  C   UNL     1      49.368  29.054  84.670  1.00  0.00     0.012 C 
ATOM     20  C   UNL     1      50.208  32.090  84.787  1.00  0.00    -0.025 C 
ATOM     21  C   UNL     1      47.936  31.960  83.519  1.00  0.00     0.005 C 
ATOM     22  C   UNL     1      49.476  32.097  83.366  1.00  0.00     0.003 C 
ATOM     23  C   UNL     1      50.530  33.556  85.256  1.00  0.00     0.010 C 
ATOM     24  C   UNL     1      51.584  31.350  84.674  1.00  0.00     0.012 C 
ATOM     25  C   UNL     1      49.959  33.206  82.308  1.00  0.00    -0.006 C 
ATOM     26  C   UNL     1      51.176  34.458  84.205  1.00  0.00     0.033 C 
ATOM     27  C   UNL     1      50.299  34.586  82.958  1.00  0.00     0.120 C 
ATOM     28  C   UNL     1      51.226  32.693  81.560  1.00  0.00     0.014 C 
ATOM     29  C   UNL     1      48.912  33.446  81.183  1.00  0.00     0.014 C 
ENDROOT
BRANCH   1  30
ATOM     30  C   UNL     1      48.499  29.729  90.247  1.00  0.00     0.048 C 
ATOM     31  O   UNL     1      48.307  30.927  90.580  1.00  0.00    -0.550 OA
ATOM     32  O   UNL     1      49.733  29.154  90.535  1.00  0.00    -0.550 OA
ENDBRANCH   1  30
BRANCH  27  33
ATOM     33  O   UNL     1      49.160  35.371  83.227  1.00  0.00    -0.393 OA
ATOM     34  H   UNL     1      48.360  34.881  82.917  1.00  0.00     0.210 HD
ENDBRANCH  27  33
TORSDOF 2
ENDMDL
MODEL 3
REMARK VINA RESULT:    -6.338     12.641     15.118
REMARK INTER + INTRA:          -6.556
REMARK INTER:                  -6.900
REMARK INTRA:                   0.345
REMARK UNBOUND:                 0.338
REMARK SMILES C[C@H]1[C@H](C)CC[C@@]2(C(=O)[O-])CC[C@@]3(C)C(=CC[C@@H]4[C@]5(C)CC[C@H](O)C(C)(C)[C@@H]5CC[C@@]43C)[C@H]12
REMARK SMILES IDX 7 1 6 2 11 3 33 4 5 5 12 6 15 7 2 8 3 9 13 10 16 11 1 12
REMARK SMILES IDX 4 13 14 14 31 15 17 16 18 17 30 18 32 19 19 20 29 21 28 22
REMARK SMILES IDX 21 23 20 24 25 25 22 26 23 27 26 28 27 29 8 30 9 31 10 32
REMARK SMILES IDX 24 33
REMARK H PARENT 24 34
REMARK Flexibility Score: inf
ROOT
ATOM      1  C   UNL     1      49.097  31.352  88.118  1.00  0.00     0.017 C 
ATOM      2  C   UNL     1      48.507  31.007  89.509  1.00  0.00     0.014 C 
ATOM      3  C   UNL     1      48.249  32.502  87.497  1.00  0.00     0.014 C 
ATOM      4  C   UNL     1      50.556  31.887  88.289  1.00  0.00     0.030 C 
ATOM      5  C   UNL     1      49.402  30.044  90.296  1.00  0.00     0.004 C 
ATOM      6  C   UNL     1      48.837  33.070  86.178  1.00  0.00     0.013 C 
ATOM      7  C   UNL     1      51.075  32.316  86.905  1.00  0.00    -0.063 C 
ATOM      8  C   UNL     1      51.489  30.972  89.156  1.00  0.00    -0.003 C 
ATOM      9  C   UNL     1      50.806  30.638  90.517  1.00  0.00    -0.011 C 
ATOM     10  C   UNL     1      50.353  33.502  86.244  1.00  0.00    -0.006 C 
ATOM     11  C   UNL     1      51.813  31.455  86.181  1.00  0.00    -0.027 C 
ATOM     12  C   UNL     1      52.847  31.670  89.386  1.00  0.00     0.008 C 
ATOM     13  C   UNL     1      51.638  29.656  91.361  1.00  0.00     0.008 C 
ATOM     14  C   UNL     1      50.485  34.749  87.187  1.00  0.00     0.017 C 
ATOM     15  C   UNL     1      50.937  33.874  84.776  1.00  0.00    -0.020 C 
ATOM     16  C   UNL     1      52.190  31.649  84.755  1.00  0.00     0.032 C 
ATOM     17  C   UNL     1      51.253  32.579  83.937  1.00  0.00     0.006 C 
ATOM     18  C   UNL     1      52.271  34.690  84.889  1.00  0.00     0.008 C 
ATOM     19  C   UNL     1      49.859  34.753  84.051  1.00  0.00     0.012 C 
ATOM     20  C   UNL     1      51.789  32.859  82.431  1.00  0.00    -0.025 C 
ATOM     21  C   UNL     1      53.275  34.573  83.711  1.00  0.00     0.005 C 
ATOM     22  C   UNL     1      52.642  34.208  82.340  1.00  0.00     0.003 C 
ATOM     23  C   UNL     1      52.627  31.632  81.916  1.00  0.00     0.010 C 
ATOM     24  C   UNL     1      50.533  32.958  81.500  1.00  0.00     0.012 C 
ATOM     25  C   UNL     1      53.621  34.360  81.075  1.00  0.00    -0.006 C 
ATOM     26  C   UNL     1      53.356  31.842  80.590  1.00  0.00     0.033 C 
ATOM     27  C   UNL     1      54.322  33.026  80.660  1.00  0.00     0.120 C 
ATOM     28  C   UNL     1      52.811  34.887  79.852  1.00  0.00     0.014 C 
ATOM     29  C   UNL     1      54.722  35.433  81.305  1.00  0.00     0.014 C 
ENDROOT
BRANCH   1  30
ATOM     30  C   UNL     1      48.991  30.116  87.223  1.00  0.00     0.048 C 
ATOM     31  O   UNL     1      49.797  29.156  87.333  1.00  0.00    -0.550 OA
ATOM     32  O   UNL     1      47.931  29.989  86.331  1.00  0.00    -0.550 OA
ENDBRANCH   1  30
BRANCH  27  33
ATOM     33  O   UNL     1      55.440  32.712  81.458  1.00  0.00    -0.393 OA
ATOM     34  H   UNL     1      55.614  33.470  82.067  1.00  0.00     0.210 HD
ENDBRANCH  27  33
TORSDOF 2
ENDMDL
MODEL 4
REMARK VINA RESULT:    -6.149     12.713     15.558
REMARK INTER + INTRA:          -6.350
REMARK INTER:                  -6.689
REMARK INTRA:                   0.339
REMARK UNBOUND:                 0.338
REMARK SMILES C[C@H]1[C@H](C)CC[C@@]2(C(=O)[O-])CC[C@@]3(C)C(=CC[C@@H]4[C@]5(C)CC[C@H](O)C(C)(C)[C@@H]5CC[C@@]43C)[C@H]12
REMARK SMILES IDX 7 1 6 2 11 3 33 4 5 5 12 6 15 7 2 8 3 9 13 10 16 11 1 12
REMARK SMILES IDX 4 13 14 14 31 15 17 16 18 17 30 18 32 19 19 20 29 21 28 22
REMARK SMILES IDX 21 23 20 24 25 25 22 26 23 27 26 28 27 29 8 30 9 31 10 32
REMARK SMILES IDX 24 33
REMARK H PARENT 24 34
REMARK Flexibility Score: inf
ROOT
ATOM      1  C   UNL     1      53.120  33.381  83.289  1.00  0.00     0.017 C 
ATOM      2  C   UNL     1      53.972  34.149  82.247  1.00  0.00     0.014 C 
ATOM      3  C   UNL     1      53.722  33.642  84.703  1.00  0.00     0.014 C 
ATOM      4  C   UNL     1      51.662  33.949  83.290  1.00  0.00     0.030 C 
ATOM      5  C   UNL     1      53.333  34.140  80.854  1.00  0.00     0.004 C 
ATOM      6  C   UNL     1      52.859  33.077  85.862  1.00  0.00     0.013 C 
ATOM      7  C   UNL     1      50.872  33.240  84.403  1.00  0.00    -0.063 C 
ATOM      8  C   UNL     1      50.995  34.035  81.874  1.00  0.00    -0.003 C 
ATOM      9  C   UNL     1      51.932  34.782  80.876  1.00  0.00    -0.011 C 
ATOM     10  C   UNL     1      51.340  33.501  85.844  1.00  0.00    -0.006 C 
ATOM     11  C   UNL     1      50.116  32.170  84.097  1.00  0.00    -0.027 C 
ATOM     12  C   UNL     1      49.629  34.749  81.975  1.00  0.00     0.008 C 
ATOM     13  C   UNL     1      51.366  34.799  79.445  1.00  0.00     0.008 C 
ATOM     14  C   UNL     1      51.239  35.041  86.125  1.00  0.00     0.017 C 
ATOM     15  C   UNL     1      50.476  32.694  86.957  1.00  0.00    -0.020 C 
ATOM     16  C   UNL     1      49.481  31.264  85.090  1.00  0.00     0.032 C 
ATOM     17  C   UNL     1      50.161  31.225  86.488  1.00  0.00     0.006 C 
ATOM     18  C   UNL     1      49.102  33.400  87.227  1.00  0.00     0.008 C 
ATOM     19  C   UNL     1      51.315  32.683  88.283  1.00  0.00     0.012 C 
ATOM     20  C   UNL     1      49.348  30.326  87.566  1.00  0.00    -0.025 C 
ATOM     21  C   UNL     1      47.929  32.506  87.712  1.00  0.00     0.005 C 
ATOM     22  C   UNL     1      48.353  31.208  88.454  1.00  0.00     0.003 C 
ATOM     23  C   UNL     1      48.569  29.172  86.835  1.00  0.00     0.010 C 
ATOM     24  C   UNL     1      50.408  29.630  88.486  1.00  0.00     0.012 C 
ATOM     25  C   UNL     1      47.162  30.429  89.197  1.00  0.00    -0.006 C 
ATOM     26  C   UNL     1      47.605  28.371  87.709  1.00  0.00     0.033 C 
ATOM     27  C   UNL     1      46.545  29.269  88.348  1.00  0.00     0.120 C 
ATOM     28  C   UNL     1      47.689  29.827  90.535  1.00  0.00     0.014 C 
ATOM     29  C   UNL     1      46.009  31.380  89.625  1.00  0.00     0.014 C 
ENDROOT
BRANCH   1  30
ATOM     30  C   UNL     1      53.201  31.886  82.980  1.00  0.00     0.048 C 
ATOM     31  O   UNL     1      52.520  31.368  82.057  1.00  0.00    -0.550 OA
ATOM     32  O   UNL     1      54.113  31.082  83.657  1.00  0.00    -0.550 OA
ENDBRANCH   1  30
BRANCH  27  33
ATOM     33  O   UNL     1      45.621  29.716  87.384  1.00  0.00    -0.393 OA
ATOM     34  H   UNL     1      45.103  28.938  87.061  1.00  0.00     0.210 HD
ENDBRANCH  27  33
TORSDOF 2
ENDMDL
MODEL 5
REMARK VINA RESULT:    -6.140     12.442     14.412
REMARK INTER + INTRA:          -6.340
REMARK INTER:                  -6.732
REMARK INTRA:                   0.392
REMARK UNBOUND:                 0.338
REMARK SMILES C[C@H]1[C@H](C)CC[C@@]2(C(=O)[O-])CC[C@@]3(C)C(=CC[C@@H]4[C@]5(C)CC[C@H](O)C(C)(C)[C@@H]5CC[C@@]43C)[C@H]12
REMARK SMILES IDX 7 1 6 2 11 3 33 4 5 5 12 6 15 7 2 8 3 9 13 10 16 11 1 12
REMARK SMILES IDX 4 13 14 14 31 15 17 16 18 17 30 18 32 19 19 20 29 21 28 22
REMARK SMILES IDX 21 23 20 24 25 25 22 26 23 27 26 28 27 29 8 30 9 31 10 32
REMARK SMILES IDX 24 33
REMARK H PARENT 24 34
REMARK Flexibility Score: inf
ROOT
ATOM      1  C   UNL     1      40.965  29.122  88.181  1.00  0.00     0.017 C 
ATOM      2  C   UNL     1      39.462  28.789  88.009  1.00  0.00     0.014 C 
ATOM      3  C   UNL     1      41.105  30.196  89.301  1.00  0.00     0.014 C 
ATOM      4  C   UNL     1      41.730  27.845  88.660  1.00  0.00     0.030 C 
ATOM      5  C   UNL     1      39.235  27.584  87.090  1.00  0.00     0.004 C 
ATOM      6  C   UNL     1      42.574  30.493  89.702  1.00  0.00     0.013 C 
ATOM      7  C   UNL     1      43.196  28.233  88.919  1.00  0.00    -0.063 C 
ATOM      8  C   UNL     1      41.467  26.564  87.795  1.00  0.00    -0.003 C 
ATOM      9  C   UNL     1      39.935  26.323  87.635  1.00  0.00    -0.011 C 
ATOM     10  C   UNL     1      43.445  29.229  90.064  1.00  0.00    -0.006 C 
ATOM     11  C   UNL     1      44.113  28.035  87.954  1.00  0.00    -0.027 C 
ATOM     12  C   UNL     1      42.144  25.338  88.446  1.00  0.00     0.008 C 
ATOM     13  C   UNL     1      39.624  25.136  86.706  1.00  0.00     0.008 C 
ATOM     14  C   UNL     1      42.899  28.600  91.394  1.00  0.00     0.017 C 
ATOM     15  C   UNL     1      45.012  29.612  90.255  1.00  0.00    -0.020 C 
ATOM     16  C   UNL     1      45.505  28.558  87.982  1.00  0.00     0.032 C 
ATOM     17  C   UNL     1      45.728  29.815  88.868  1.00  0.00     0.006 C 
ATOM     18  C   UNL     1      45.782  28.476  91.014  1.00  0.00     0.008 C 
ATOM     19  C   UNL     1      45.072  30.929  91.106  1.00  0.00     0.012 C 
ATOM     20  C   UNL     1      47.286  30.257  88.965  1.00  0.00    -0.025 C 
ATOM     21  C   UNL     1      47.302  28.340  90.729  1.00  0.00     0.005 C 
ATOM     22  C   UNL     1      48.004  29.643  90.255  1.00  0.00     0.003 C 
ATOM     23  C   UNL     1      48.050  29.848  87.653  1.00  0.00     0.010 C 
ATOM     24  C   UNL     1      47.324  31.822  89.028  1.00  0.00     0.012 C 
ATOM     25  C   UNL     1      49.609  29.582  90.230  1.00  0.00    -0.006 C 
ATOM     26  C   UNL     1      49.567  30.027  87.691  1.00  0.00     0.033 C 
ATOM     27  C   UNL     1      50.201  29.224  88.828  1.00  0.00     0.120 C 
ATOM     28  C   UNL     1      50.188  30.961  90.666  1.00  0.00     0.014 C 
ATOM     29  C   UNL     1      50.179  28.573  91.267  1.00  0.00     0.014 C 
ENDROOT
BRANCH   1  30
ATOM     30  C   UNL     1      41.490  29.702  86.866  1.00  0.00     0.048 C 
ATOM     31  O   UNL     1      41.546  29.006  85.819  1.00  0.00    -0.550 OA
ATOM     32  O   UNL     1      41.824  31.050  86.782  1.00  0.00    -0.550 OA
ENDBRANCH   1  30
BRANCH  27  33
ATOM     33  O   UNL     1      50.167  27.844  88.544  1.00  0.00    -0.393 OA
ATOM     34  H   UNL     1      50.103  27.726  87.565  1.00  0.00     0.210 HD
ENDBRANCH  27  33
TORSDOF 2
ENDMDL
MODEL 6
REMARK VINA RESULT:    -6.100     12.400     14.872
REMARK INTER + INTRA:          -6.296
REMARK INTER:                  -6.642
REMARK INTRA:                   0.346
REMARK UNBOUND:                 0.338
REMARK SMILES C[C@H]1[C@H](C)CC[C@@]2(C(=O)[O-])CC[C@@]3(C)C(=CC[C@@H]4[C@]5(C)CC[C@H](O)C(C)(C)[C@@H]5CC[C@@]43C)[C@H]12
REMARK SMILES IDX 7 1 6 2 11 3 33 4 5 5 12 6 15 7 2 8 3 9 13 10 16 11 1 12
REMARK SMILES IDX 4 13 14 14 31 15 17 16 18 17 30 18 32 19 19 20 29 21 28 22
REMARK SMILES IDX 21 23 20 24 25 25 22 26 23 27 26 28 27 29 8 30 9 31 10 32
REMARK SMILES IDX 24 33
REMARK H PARENT 24 34
REMARK Flexibility Score: inf
ROOT
ATOM      1  C   UNL     1      38.773  26.139  86.339  1.00  0.00     0.017 C 
ATOM      2  C   UNL     1      37.503  25.505  85.720  1.00  0.00     0.014 C 
ATOM      3  C   UNL     1      39.106  27.442  85.551  1.00  0.00     0.014 C 
ATOM      4  C   UNL     1      38.481  26.550  87.820  1.00  0.00     0.030 C 
ATOM      5  C   UNL     1      36.964  24.343  86.561  1.00  0.00     0.004 C 
ATOM      6  C   UNL     1      40.254  28.276  86.180  1.00  0.00     0.013 C 
ATOM      7  C   UNL     1      39.724  27.268  88.373  1.00  0.00    -0.063 C 
ATOM      8  C   UNL     1      37.853  25.415  88.700  1.00  0.00    -0.003 C 
ATOM      9  C   UNL     1      36.609  24.802  87.988  1.00  0.00    -0.011 C 
ATOM     10  C   UNL     1      40.088  28.609  87.712  1.00  0.00    -0.006 C 
ATOM     11  C   UNL     1      40.631  26.569  89.079  1.00  0.00    -0.027 C 
ATOM     12  C   UNL     1      37.465  25.975  90.086  1.00  0.00     0.008 C 
ATOM     13  C   UNL     1      36.020  23.612  88.766  1.00  0.00     0.008 C 
ATOM     14  C   UNL     1      38.878  29.591  87.890  1.00  0.00     0.017 C 
ATOM     15  C   UNL     1      41.427  29.288  88.329  1.00  0.00    -0.020 C 
ATOM     16  C   UNL     1      41.971  27.074  89.481  1.00  0.00     0.032 C 
ATOM     17  C   UNL     1      42.547  28.214  88.595  1.00  0.00     0.006 C 
ATOM     18  C   UNL     1      41.125  29.992  89.697  1.00  0.00     0.008 C 
ATOM     19  C   UNL     1      41.925  30.362  87.300  1.00  0.00     0.012 C 
ATOM     20  C   UNL     1      43.945  28.814  89.160  1.00  0.00    -0.025 C 
ATOM     21  C   UNL     1      42.297  30.109  90.708  1.00  0.00     0.005 C 
ATOM     22  C   UNL     1      43.716  30.106  90.075  1.00  0.00     0.003 C 
ATOM     23  C   UNL     1      44.734  27.705  89.948  1.00  0.00     0.010 C 
ATOM     24  C   UNL     1      44.827  29.188  87.921  1.00  0.00     0.012 C 
ATOM     25  C   UNL     1      44.909  30.506  91.074  1.00  0.00    -0.006 C 
ATOM     26  C   UNL     1      45.974  28.187  90.701  1.00  0.00     0.033 C 
ATOM     27  C   UNL     1      45.626  29.275  91.718  1.00  0.00     0.120 C 
ATOM     28  C   UNL     1      45.974  31.342  90.302  1.00  0.00     0.014 C 
ATOM     29  C   UNL     1      44.432  31.442  92.219  1.00  0.00     0.014 C 
ENDROOT
BRANCH   1  30
ATOM     30  C   UNL     1      39.934  25.155  86.188  1.00  0.00     0.048 C 
ATOM     31  O   UNL     1      40.056  24.162  86.952  1.00  0.00    -0.550 OA
ATOM     32  O   UNL     1      40.828  25.287  85.130  1.00  0.00    -0.550 OA
ENDBRANCH   1  30
BRANCH  27  33
ATOM     33  O   UNL     1      44.924  28.731  92.812  1.00  0.00    -0.393 OA
ATOM     34  H   UNL     1      44.914  27.747  92.720  1.00  0.00     0.210 HD
ENDBRANCH  27  33
TORSDOF 2
ENDMDL
MODEL 7
REMARK VINA RESULT:    -6.072     12.394     16.034
REMARK INTER + INTRA:          -6.267
REMARK INTER:                  -6.621
REMARK INTRA:                   0.354
REMARK UNBOUND:                 0.338
REMARK SMILES C[C@H]1[C@H](C)CC[C@@]2(C(=O)[O-])CC[C@@]3(C)C(=CC[C@@H]4[C@]5(C)CC[C@H](O)C(C)(C)[C@@H]5CC[C@@]43C)[C@H]12
REMARK SMILES IDX 7 1 6 2 11 3 33 4 5 5 12 6 15 7 2 8 3 9 13 10 16 11 1 12
REMARK SMILES IDX 4 13 14 14 31 15 17 16 18 17 30 18 32 19 19 20 29 21 28 22
REMARK SMILES IDX 21 23 20 24 25 25 22 26 23 27 26 28 27 29 8 30 9 31 10 32
REMARK SMILES IDX 24 33
REMARK H PARENT 24 34
REMARK Flexibility Score: inf
ROOT
ATOM      1  C   UNL     1      45.911  30.330  90.270  1.00  0.00     0.017 C 
ATOM      2  C   UNL     1      47.221  31.123  90.504  1.00  0.00     0.014 C 
ATOM      3  C   UNL     1      44.727  31.153  90.862  1.00  0.00     0.014 C 
ATOM      4  C   UNL     1      45.657  30.184  88.734  1.00  0.00     0.030 C 
ATOM      5  C   UNL     1      48.413  30.508  89.763  1.00  0.00     0.004 C 
ATOM      6  C   UNL     1      43.331  30.558  90.538  1.00  0.00     0.013 C 
ATOM      7  C   UNL     1      44.301  29.485  88.536  1.00  0.00    -0.063 C 
ATOM      8  C   UNL     1      46.878  29.632  87.920  1.00  0.00    -0.003 C 
ATOM      9  C   UNL     1      48.162  30.455  88.244  1.00  0.00    -0.011 C 
ATOM     10  C   UNL     1      43.060  30.257  89.014  1.00  0.00    -0.006 C 
ATOM     11  C   UNL     1      44.266  28.153  88.347  1.00  0.00    -0.027 C 
ATOM     12  C   UNL     1      46.570  29.678  86.408  1.00  0.00     0.008 C 
ATOM     13  C   UNL     1      49.411  29.885  87.549  1.00  0.00     0.008 C 
ATOM     14  C   UNL     1      42.990  31.614  88.232  1.00  0.00     0.017 C 
ATOM     15  C   UNL     1      41.672  29.440  88.800  1.00  0.00    -0.020 C 
ATOM     16  C   UNL     1      43.032  27.323  88.362  1.00  0.00     0.032 C 
ATOM     17  C   UNL     1      41.838  27.917  89.160  1.00  0.00     0.006 C 
ATOM     18  C   UNL     1      41.199  29.515  87.306  1.00  0.00     0.008 C 
ATOM     19  C   UNL     1      40.588  30.111  89.714  1.00  0.00     0.012 C 
ATOM     20  C   UNL     1      40.483  27.035  89.029  1.00  0.00    -0.025 C 
ATOM     21  C   UNL     1      40.333  28.339  86.779  1.00  0.00     0.005 C 
ATOM     22  C   UNL     1      39.528  27.574  87.865  1.00  0.00     0.003 C 
ATOM     23  C   UNL     1      40.839  25.520  88.802  1.00  0.00     0.010 C 
ATOM     24  C   UNL     1      39.741  27.113  90.406  1.00  0.00     0.012 C 
ATOM     25  C   UNL     1      38.425  26.551  87.302  1.00  0.00    -0.006 C 
ATOM     26  C   UNL     1      39.660  24.609  88.464  1.00  0.00     0.033 C 
ATOM     27  C   UNL     1      38.932  25.075  87.203  1.00  0.00     0.120 C 
ATOM     28  C   UNL     1      37.172  26.576  88.229  1.00  0.00     0.014 C 
ATOM     29  C   UNL     1      37.886  26.972  85.906  1.00  0.00     0.014 C 
ENDROOT
BRANCH   1  30
ATOM     30  C   UNL     1      46.009  28.995  91.010  1.00  0.00     0.048 C 
ATOM     31  O   UNL     1      46.785  28.084  90.620  1.00  0.00    -0.550 OA
ATOM     32  O   UNL     1      45.309  28.802  92.198  1.00  0.00    -0.550 OA
ENDBRANCH   1  30
BRANCH  27  33
ATOM     33  O   UNL     1      39.712  24.830  86.056  1.00  0.00    -0.393 OA
ATOM     34  H   UNL     1      39.262  25.238  85.276  1.00  0.00     0.210 HD
ENDBRANCH  27  33
TORSDOF 2
ENDMDL
MODEL 8
REMARK VINA RESULT:    -6.059     12.505     16.049
REMARK INTER + INTRA:          -6.252
REMARK INTER:                  -6.594
REMARK INTRA:                   0.341
REMARK UNBOUND:                 0.338
REMARK SMILES C[C@H]1[C@H](C)CC[C@@]2(C(=O)[O-])CC[C@@]3(C)C(=CC[C@@H]4[C@]5(C)CC[C@H](O)C(C)(C)[C@@H]5CC[C@@]43C)[C@H]12
REMARK SMILES IDX 7 1 6 2 11 3 33 4 5 5 12 6 15 7 2 8 3 9 13 10 16 11 1 12
REMARK SMILES IDX 4 13 14 14 31 15 17 16 18 17 30 18 32 19 19 20 29 21 28 22
REMARK SMILES IDX 21 23 20 24 25 25 22 26 23 27 26 28 27 29 8 30 9 31 10 32
REMARK SMILES IDX 24 33
REMARK H PARENT 24 34
REMARK Flexibility Score: inf
ROOT
ATOM      1  C   UNL     1      50.007  30.594  89.133  1.00  0.00     0.017 C 
ATOM      2  C   UNL     1      51.418  31.197  89.342  1.00  0.00     0.014 C 
ATOM      3  C   UNL     1      49.461  30.130  90.517  1.00  0.00     0.014 C 
ATOM      4  C   UNL     1      49.041  31.701  88.597  1.00  0.00     0.030 C 
ATOM      5  C   UNL     1      51.949  31.885  88.080  1.00  0.00     0.004 C 
ATOM      6  C   UNL     1      47.980  29.668  90.481  1.00  0.00     0.013 C 
ATOM      7  C   UNL     1      47.628  31.100  88.499  1.00  0.00    -0.063 C 
ATOM      8  C   UNL     1      49.577  32.489  87.352  1.00  0.00    -0.003 C 
ATOM      9  C   UNL     1      51.015  33.025  87.628  1.00  0.00    -0.011 C 
ATOM     10  C   UNL     1      46.970  30.685  89.825  1.00  0.00    -0.006 C 
ATOM     11  C   UNL     1      47.203  30.605  87.322  1.00  0.00    -0.027 C 
ATOM     12  C   UNL     1      48.620  33.651  87.009  1.00  0.00     0.008 C 
ATOM     13  C   UNL     1      51.627  33.715  86.395  1.00  0.00     0.008 C 
ATOM     14  C   UNL     1      46.860  31.954  90.740  1.00  0.00     0.017 C 
ATOM     15  C   UNL     1      45.496  30.031  89.635  1.00  0.00    -0.020 C 
ATOM     16  C   UNL     1      45.963  29.804  87.134  1.00  0.00     0.032 C 
ATOM     17  C   UNL     1      45.453  29.058  88.398  1.00  0.00     0.006 C 
ATOM     18  C   UNL     1      44.414  31.140  89.390  1.00  0.00     0.008 C 
ATOM     19  C   UNL     1      45.150  29.261  90.957  1.00  0.00     0.012 C 
ATOM     20  C   UNL     1      44.029  28.314  88.167  1.00  0.00    -0.025 C 
ATOM     21  C   UNL     1      43.156  30.734  88.575  1.00  0.00     0.005 C 
ATOM     22  C   UNL     1      42.797  29.223  88.626  1.00  0.00     0.003 C 
ATOM     23  C   UNL     1      43.877  27.886  86.661  1.00  0.00     0.010 C 
ATOM     24  C   UNL     1      44.055  26.989  89.002  1.00  0.00     0.012 C 
ATOM     25  C   UNL     1      41.356  28.845  88.026  1.00  0.00    -0.006 C 
ATOM     26  C   UNL     1      42.502  27.352  86.263  1.00  0.00     0.033 C 
ATOM     27  C   UNL     1      41.400  28.378  86.534  1.00  0.00     0.120 C 
ATOM     28  C   UNL     1      40.723  27.702  88.875  1.00  0.00     0.014 C 
ATOM     29  C   UNL     1      40.343  30.019  88.135  1.00  0.00     0.014 C 
ENDROOT
BRANCH   1  30
ATOM     30  C   UNL     1      50.127  29.379  88.211  1.00  0.00     0.048 C 
ATOM     31  O   UNL     1      50.259  29.510  86.967  1.00  0.00    -0.550 OA
ATOM     32  O   UNL     1      50.191  28.098  88.751  1.00  0.00    -0.550 OA
ENDBRANCH   1  30
BRANCH  27  33
ATOM     33  O   UNL     1      41.476  29.446  85.618  1.00  0.00    -0.393 OA
ATOM     34  H   UNL     1      42.388  29.824  85.650  1.00  0.00     0.210 HD
ENDBRANCH  27  33
TORSDOF 2
ENDMDL
MODEL 9
REMARK VINA RESULT:    -6.010     13.451     17.035
REMARK INTER + INTRA:          -6.199
REMARK INTER:                  -6.539
REMARK INTRA:                   0.340
REMARK UNBOUND:                 0.338
REMARK SMILES C[C@H]1[C@H](C)CC[C@@]2(C(=O)[O-])CC[C@@]3(C)C(=CC[C@@H]4[C@]5(C)CC[C@H](O)C(C)(C)[C@@H]5CC[C@@]43C)[C@H]12
REMARK SMILES IDX 7 1 6 2 11 3 33 4 5 5 12 6 15 7 2 8 3 9 13 10 16 11 1 12
REMARK SMILES IDX 4 13 14 14 31 15 17 16 18 17 30 18 32 19 19 20 29 21 28 22
REMARK SMILES IDX 21 23 20 24 25 25 22 26 23 27 26 28 27 29 8 30 9 31 10 32
REMARK SMILES IDX 24 33
REMARK H PARENT 24 34
REMARK Flexibility Score: inf
ROOT
ATOM      1  C   UNL     1      51.550  30.689  87.838  1.00  0.00     0.017 C 
ATOM      2  C   UNL     1      53.036  31.003  87.530  1.00  0.00     0.014 C 
ATOM      3  C   UNL     1      51.233  29.256  87.314  1.00  0.00     0.014 C 
ATOM      4  C   UNL     1      51.330  30.679  89.387  1.00  0.00     0.030 C 
ATOM      5  C   UNL     1      53.508  32.296  88.202  1.00  0.00     0.004 C 
ATOM      6  C   UNL     1      49.825  28.742  87.717  1.00  0.00     0.013 C 
ATOM      7  C   UNL     1      49.875  30.264  89.662  1.00  0.00    -0.063 C 
ATOM      8  C   UNL     1      51.870  31.950  90.130  1.00  0.00    -0.003 C 
ATOM      9  C   UNL     1      53.354  32.221  89.734  1.00  0.00    -0.011 C 
ATOM     10  C   UNL     1      49.485  28.833  89.254  1.00  0.00    -0.006 C 
ATOM     11  C   UNL     1      48.942  31.214  89.854  1.00  0.00    -0.027 C 
ATOM     12  C   UNL     1      51.741  31.763  91.658  1.00  0.00     0.008 C 
ATOM     13  C   UNL     1      53.896  33.519  90.357  1.00  0.00     0.008 C 
ATOM     14  C   UNL     1      50.401  27.829  90.038  1.00  0.00     0.017 C 
ATOM     15  C   UNL     1      47.927  28.482  89.548  1.00  0.00    -0.020 C 
ATOM     16  C   UNL     1      47.476  30.970  89.910  1.00  0.00     0.032 C 
ATOM     17  C   UNL     1      46.985  29.688  89.180  1.00  0.00     0.006 C 
ATOM     18  C   UNL     1      47.698  28.161  91.066  1.00  0.00     0.008 C 
ATOM     19  C   UNL     1      47.563  27.216  88.696  1.00  0.00     0.012 C 
ATOM     20  C   UNL     1      45.402  29.404  89.389  1.00  0.00    -0.025 C 
ATOM     21  C   UNL     1      46.284  28.440  91.643  1.00  0.00     0.005 C 
ATOM     22  C   UNL     1      45.129  28.401  90.605  1.00  0.00     0.003 C 
ATOM     23  C   UNL     1      44.629  30.757  89.597  1.00  0.00     0.010 C 
ATOM     24  C   UNL     1      44.859  28.785  88.056  1.00  0.00     0.012 C 
ATOM     25  C   UNL     1      43.650  28.409  91.231  1.00  0.00    -0.006 C 
ATOM     26  C   UNL     1      43.161  30.622  90.002  1.00  0.00     0.033 C 
ATOM     27  C   UNL     1      43.006  29.832  91.302  1.00  0.00     0.120 C 
ATOM     28  C   UNL     1      42.719  27.496  90.377  1.00  0.00     0.014 C 
ATOM     29  C   UNL     1      43.607  27.787  92.655  1.00  0.00     0.014 C 
ENDROOT
BRANCH   1  30
ATOM     30  C   UNL     1      50.673  31.697  87.095  1.00  0.00     0.048 C 
ATOM     31  O   UNL     1      50.529  32.875  87.513  1.00  0.00    -0.550 OA
ATOM     32  O   UNL     1      50.094  31.354  85.877  1.00  0.00    -0.550 OA
ENDBRANCH   1  30
BRANCH  27  33
ATOM     33  O   UNL     1      43.451  30.590  92.403  1.00  0.00    -0.393 OA
ATOM     34  H   UNL     1      43.210  31.536  92.252  1.00  0.00     0.210 HD
ENDBRANCH  27  33
TORSDOF 2
ENDMDL
