MODEL 1
REMARK VINA RESULT:    -5.477      0.000      0.000
REMARK INTER + INTRA:         -13.598
REMARK INTER:                 -11.881
REMARK INTRA:                  -1.717
REMARK UNBOUND:                -1.717
REMARK SMILES CCCCCCCCCCCCCCCCCCCCCC(=O)[O-]
REMARK SMILES IDX 12 1 11 2 10 3 9 4 8 5 7 6 6 7 5 8 4 9 3 10 2 11 1 12 13 13
REMARK SMILES IDX 14 14 15 15 16 16 17 17 18 18 19 19 20 20 21 21 22 22 23 23
REMARK SMILES IDX 24 24
REMARK H PARENT
REMARK Flexibility Score: inf
ROOT
ATOM      1  C   UNL     1      25.425  12.551  35.369  1.00  0.00     0.000 C 
ENDROOT
BRANCH   1   2
ATOM      2  C   UNL     1      26.270  13.721  35.915  1.00  0.00     0.000 C 
BRANCH   2   3
ATOM      3  C   UNL     1      27.635  13.908  35.214  1.00  0.00     0.000 C 
BRANCH   3   4
ATOM      4  C   UNL     1      27.542  13.962  33.680  1.00  0.00    -0.000 C 
BRANCH   4   5
ATOM      5  C   UNL     1      28.403  12.893  32.993  1.00  0.00    -0.000 C 
BRANCH   5   6
ATOM      6  C   UNL     1      28.716  13.229  31.525  1.00  0.00    -0.000 C 
BRANCH   6   7
ATOM      7  C   UNL     1      28.344  12.102  30.539  1.00  0.00    -0.000 C 
BRANCH   7   8
ATOM      8  C   UNL     1      26.967  12.325  29.891  1.00  0.00    -0.000 C 
BRANCH   8   9
ATOM      9  C   UNL     1      26.112  11.047  29.860  1.00  0.00    -0.000 C 
BRANCH   9  10
ATOM     10  C   UNL     1      25.970  10.394  31.247  1.00  0.00    -0.000 C 
BRANCH  10  11
ATOM     11  C   UNL     1      25.127  11.242  32.213  1.00  0.00    -0.003 C 
ATOM     12  C   UNL     1      23.634  11.200  31.889  1.00  0.00     0.004 C 
ENDBRANCH  10  11
ENDBRANCH   9  10
ENDBRANCH   8   9
ENDBRANCH   7   8
ENDBRANCH   6   7
ENDBRANCH   5   6
ENDBRANCH   4   5
ENDBRANCH   3   4
ENDBRANCH   2   3
ENDBRANCH   1   2
BRANCH   1  13
ATOM     13  C   UNL     1      24.034  12.387  36.010  1.00  0.00     0.000 C 
BRANCH  13  14
ATOM     14  C   UNL     1      22.877  12.709  35.046  1.00  0.00     0.000 C 
BRANCH  14  15
ATOM     15  C   UNL     1      21.498  12.554  35.707  1.00  0.00     0.000 C 
BRANCH  15  16
ATOM     16  C   UNL     1      20.472  13.569  35.172  1.00  0.00     0.000 C 
BRANCH  16  17
ATOM     17  C   UNL     1      19.176  13.587  35.998  1.00  0.00     0.000 C 
BRANCH  17  18
ATOM     18  C   UNL     1      18.268  12.381  35.706  1.00  0.00     0.000 C 
BRANCH  18  19
ATOM     19  C   UNL     1      18.323  11.309  36.810  1.00  0.00     0.000 C 
BRANCH  19  20
ATOM     20  C   UNL     1      18.399   9.856  36.304  1.00  0.00     0.006 C 
BRANCH  20  21
ATOM     21  C   UNL     1      18.916   8.880  37.368  1.00  0.00     0.053 C 
BRANCH  21  22
ATOM     22  C   UNL     1      18.892   7.476  36.851  1.00  0.00     0.041 C 
ATOM     23  O   UNL     1      18.275   7.201  35.788  1.00  0.00    -0.550 OA
ATOM     24  O   UNL     1      19.575   6.476  37.530  1.00  0.00    -0.550 OA
ENDBRANCH  21  22
ENDBRANCH  20  21
ENDBRANCH  19  20
ENDBRANCH  18  19
ENDBRANCH  17  18
ENDBRANCH  16  17
ENDBRANCH  15  16
ENDBRANCH  14  15
ENDBRANCH  13  14
ENDBRANCH   1  13
TORSDOF 20
ENDMDL
MODEL 2
REMARK VINA RESULT:    -5.442      3.389      8.856
REMARK INTER + INTRA:         -13.521
REMARK INTER:                 -11.461
REMARK INTRA:                  -2.060
REMARK UNBOUND:                -1.717
REMARK SMILES CCCCCCCCCCCCCCCCCCCCCC(=O)[O-]
REMARK SMILES IDX 12 1 11 2 10 3 9 4 8 5 7 6 6 7 5 8 4 9 3 10 2 11 1 12 13 13
REMARK SMILES IDX 14 14 15 15 16 16 17 17 18 18 19 19 20 20 21 21 22 22 23 23
REMARK SMILES IDX 24 24
REMARK H PARENT
REMARK Flexibility Score: inf
ROOT
ATOM      1  C   UNL     1      25.019  11.222  32.526  1.00  0.00     0.000 C 
ENDROOT
BRANCH   1   2
ATOM      2  C   UNL     1      24.145  12.235  33.294  1.00  0.00     0.000 C 
BRANCH   2   3
ATOM      3  C   UNL     1      24.414  12.290  34.815  1.00  0.00     0.000 C 
BRANCH   3   4
ATOM      4  C   UNL     1      23.163  12.606  35.653  1.00  0.00    -0.000 C 
BRANCH   4   5
ATOM      5  C   UNL     1      21.881  12.662  34.811  1.00  0.00    -0.000 C 
BRANCH   5   6
ATOM      6  C   UNL     1      20.910  13.763  35.274  1.00  0.00    -0.000 C 
BRANCH   6   7
ATOM      7  C   UNL     1      19.432  13.319  35.286  1.00  0.00    -0.000 C 
BRANCH   7   8
ATOM      8  C   UNL     1      19.120  12.362  36.450  1.00  0.00    -0.000 C 
BRANCH   8   9
ATOM      9  C   UNL     1      18.457  11.056  35.982  1.00  0.00    -0.000 C 
BRANCH   9  10
ATOM     10  C   UNL     1      19.325   9.816  36.263  1.00  0.00    -0.000 C 
BRANCH  10  11
ATOM     11  C   UNL     1      18.694   8.879  37.305  1.00  0.00    -0.003 C 
ATOM     12  C   UNL     1      19.285   7.470  37.269  1.00  0.00     0.004 C 
ENDBRANCH  10  11
ENDBRANCH   9  10
ENDBRANCH   8   9
ENDBRANCH   7   8
ENDBRANCH   6   7
ENDBRANCH   5   6
ENDBRANCH   4   5
ENDBRANCH   3   4
ENDBRANCH   2   3
ENDBRANCH   1   2
BRANCH   1  13
ATOM     13  C   UNL     1      24.444  10.742  31.179  1.00  0.00     0.000 C 
BRANCH  13  14
ATOM     14  C   UNL     1      24.117  11.893  30.211  1.00  0.00     0.000 C 
BRANCH  14  15
ATOM     15  C   UNL     1      25.272  12.195  29.242  1.00  0.00     0.000 C 
BRANCH  15  16
ATOM     16  C   UNL     1      26.356  11.101  29.260  1.00  0.00     0.000 C 
BRANCH  16  17
ATOM     17  C   UNL     1      27.758  11.668  29.535  1.00  0.00     0.000 C 
BRANCH  17  18
ATOM     18  C   UNL     1      27.719  13.044  30.218  1.00  0.00     0.000 C 
BRANCH  18  19
ATOM     19  C   UNL     1      28.814  13.213  31.288  1.00  0.00     0.000 C 
BRANCH  19  20
ATOM     20  C   UNL     1      28.400  12.806  32.714  1.00  0.00     0.006 C 
BRANCH  20  21
ATOM     21  C   UNL     1      27.584  13.890  33.430  1.00  0.00     0.053 C 
BRANCH  21  22
ATOM     22  C   UNL     1      27.815  13.834  34.907  1.00  0.00     0.041 C 
ATOM     23  O   UNL     1      27.954  14.896  35.569  1.00  0.00    -0.550 OA
ATOM     24  O   UNL     1      27.850  12.608  35.558  1.00  0.00    -0.550 OA
ENDBRANCH  21  22
ENDBRANCH  20  21
ENDBRANCH  19  20
ENDBRANCH  18  19
ENDBRANCH  17  18
ENDBRANCH  16  17
ENDBRANCH  15  16
ENDBRANCH  14  15
ENDBRANCH  13  14
ENDBRANCH   1  13
TORSDOF 20
ENDMDL
MODEL 3
REMARK VINA RESULT:    -5.416      0.898      2.956
REMARK INTER + INTRA:         -13.464
REMARK INTER:                 -11.448
REMARK INTRA:                  -2.017
REMARK UNBOUND:                -1.717
REMARK SMILES CCCCCCCCCCCCCCCCCCCCCC(=O)[O-]
REMARK SMILES IDX 12 1 11 2 10 3 9 4 8 5 7 6 6 7 5 8 4 9 3 10 2 11 1 12 13 13
REMARK SMILES IDX 14 14 15 15 16 16 17 17 18 18 19 19 20 20 21 21 22 22 23 23
REMARK SMILES IDX 24 24
REMARK H PARENT
REMARK Flexibility Score: inf
ROOT
ATOM      1  C   UNL     1      24.631  11.924  34.468  1.00  0.00     0.000 C 
ENDROOT
BRANCH   1   2
ATOM      2  C   UNL     1      24.626  12.175  32.946  1.00  0.00     0.000 C 
BRANCH   2   3
ATOM      3  C   UNL     1      24.714  10.895  32.084  1.00  0.00     0.000 C 
BRANCH   3   4
ATOM      4  C   UNL     1      25.168  11.153  30.637  1.00  0.00    -0.000 C 
BRANCH   4   5
ATOM      5  C   UNL     1      26.687  11.020  30.457  1.00  0.00    -0.000 C 
BRANCH   5   6
ATOM      6  C   UNL     1      27.279  12.110  29.548  1.00  0.00    -0.000 C 
BRANCH   6   7
ATOM      7  C   UNL     1      27.856  13.314  30.321  1.00  0.00    -0.000 C 
BRANCH   7   8
ATOM      8  C   UNL     1      28.691  12.880  31.538  1.00  0.00    -0.000 C 
BRANCH   8   9
ATOM      9  C   UNL     1      28.163  13.464  32.859  1.00  0.00    -0.000 C 
BRANCH   9  10
ATOM     10  C   UNL     1      28.292  12.481  34.037  1.00  0.00    -0.000 C 
BRANCH  10  11
ATOM     11  C   UNL     1      27.883  13.112  35.377  1.00  0.00    -0.003 C 
ATOM     12  C   UNL     1      27.630  14.615  35.272  1.00  0.00     0.004 C 
ENDBRANCH  10  11
ENDBRANCH   9  10
ENDBRANCH   8   9
ENDBRANCH   7   8
ENDBRANCH   6   7
ENDBRANCH   5   6
ENDBRANCH   4   5
ENDBRANCH   3   4
ENDBRANCH   2   3
ENDBRANCH   1   2
BRANCH   1  13
ATOM     13  C   UNL     1      23.591  12.727  35.273  1.00  0.00     0.000 C 
BRANCH  13  14
ATOM     14  C   UNL     1      22.138  12.432  34.857  1.00  0.00     0.000 C 
BRANCH  14  15
ATOM     15  C   UNL     1      21.127  13.358  35.551  1.00  0.00     0.000 C 
BRANCH  15  16
ATOM     16  C   UNL     1      19.670  13.010  35.195  1.00  0.00     0.000 C 
BRANCH  16  17
ATOM     17  C   UNL     1      18.720  13.160  36.394  1.00  0.00     0.000 C 
BRANCH  17  18
ATOM     18  C   UNL     1      18.236  11.807  36.942  1.00  0.00     0.000 C 
BRANCH  18  19
ATOM     19  C   UNL     1      18.563  10.630  36.005  1.00  0.00     0.000 C 
BRANCH  19  20
ATOM     20  C   UNL     1      19.629   9.653  36.534  1.00  0.00     0.006 C 
BRANCH  20  21
ATOM     21  C   UNL     1      19.055   8.611  37.502  1.00  0.00     0.053 C 
BRANCH  21  22
ATOM     22  C   UNL     1      18.767   7.329  36.787  1.00  0.00     0.041 C 
ATOM     23  O   UNL     1      19.008   6.224  37.342  1.00  0.00    -0.550 OA
ATOM     24  O   UNL     1      18.205   7.354  35.518  1.00  0.00    -0.550 OA
ENDBRANCH  21  22
ENDBRANCH  20  21
ENDBRANCH  19  20
ENDBRANCH  18  19
ENDBRANCH  17  18
ENDBRANCH  16  17
ENDBRANCH  15  16
ENDBRANCH  14  15
ENDBRANCH  13  14
ENDBRANCH   1  13
TORSDOF 20
ENDMDL
MODEL 4
REMARK VINA RESULT:    -5.377      2.266      8.237
REMARK INTER + INTRA:         -13.381
REMARK INTER:                 -11.795
REMARK INTRA:                  -1.586
REMARK UNBOUND:                -1.717
REMARK SMILES CCCCCCCCCCCCCCCCCCCCCC(=O)[O-]
REMARK SMILES IDX 12 1 11 2 10 3 9 4 8 5 7 6 6 7 5 8 4 9 3 10 2 11 1 12 13 13
REMARK SMILES IDX 14 14 15 15 16 16 17 17 18 18 19 19 20 20 21 21 22 22 23 23
REMARK SMILES IDX 24 24
REMARK H PARENT
REMARK Flexibility Score: inf
ROOT
ATOM      1  C   UNL     1      25.443  12.485  35.230  1.00  0.00     0.000 C 
ENDROOT
BRANCH   1   2
ATOM      2  C   UNL     1      24.039  12.278  35.834  1.00  0.00     0.000 C 
BRANCH   2   3
ATOM      3  C   UNL     1      22.877  12.758  34.935  1.00  0.00     0.000 C 
BRANCH   3   4
ATOM      4  C   UNL     1      21.494  12.650  35.600  1.00  0.00    -0.000 C 
BRANCH   4   5
ATOM      5  C   UNL     1      20.543  13.781  35.182  1.00  0.00    -0.000 C 
BRANCH   5   6
ATOM      6  C   UNL     1      19.090  13.536  35.627  1.00  0.00    -0.000 C 
BRANCH   6   7
ATOM      7  C   UNL     1      18.952  12.452  36.716  1.00  0.00    -0.000 C 
BRANCH   7   8
ATOM      8  C   UNL     1      18.017  11.309  36.285  1.00  0.00    -0.000 C 
BRANCH   8   9
ATOM      9  C   UNL     1      18.768  10.152  35.606  1.00  0.00    -0.000 C 
BRANCH   9  10
ATOM     10  C   UNL     1      19.452   9.213  36.616  1.00  0.00    -0.000 C 
BRANCH  10  11
ATOM     11  C   UNL     1      18.549   8.042  37.037  1.00  0.00    -0.003 C 
ATOM     12  C   UNL     1      19.338   6.775  37.365  1.00  0.00     0.004 C 
ENDBRANCH  10  11
ENDBRANCH   9  10
ENDBRANCH   8   9
ENDBRANCH   7   8
ENDBRANCH   6   7
ENDBRANCH   5   6
ENDBRANCH   4   5
ENDBRANCH   3   4
ENDBRANCH   2   3
ENDBRANCH   1   2
BRANCH   1  13
ATOM     13  C   UNL     1      26.208  13.719  35.745  1.00  0.00     0.000 C 
BRANCH  13  14
ATOM     14  C   UNL     1      27.734  13.607  35.569  1.00  0.00     0.000 C 
BRANCH  14  15
ATOM     15  C   UNL     1      28.125  12.820  34.308  1.00  0.00     0.000 C 
BRANCH  15  16
ATOM     16  C   UNL     1      27.840  13.602  33.013  1.00  0.00     0.000 C 
BRANCH  16  17
ATOM     17  C   UNL     1      28.741  13.161  31.849  1.00  0.00     0.000 C 
BRANCH  17  18
ATOM     18  C   UNL     1      27.964  12.437  30.737  1.00  0.00     0.000 C 
BRANCH  18  19
ATOM     19  C   UNL     1      27.358  11.100  31.203  1.00  0.00     0.000 C 
BRANCH  19  20
ATOM     20  C   UNL     1      25.916  10.838  30.730  1.00  0.00     0.006 C 
BRANCH  20  21
ATOM     21  C   UNL     1      24.875  11.073  31.831  1.00  0.00     0.053 C 
BRANCH  21  22
ATOM     22  C   UNL     1      23.514  10.663  31.366  1.00  0.00     0.041 C 
ATOM     23  O   UNL     1      22.489  11.018  32.007  1.00  0.00    -0.550 OA
ATOM     24  O   UNL     1      23.375   9.911  30.207  1.00  0.00    -0.550 OA
ENDBRANCH  21  22
ENDBRANCH  20  21
ENDBRANCH  19  20
ENDBRANCH  18  19
ENDBRANCH  17  18
ENDBRANCH  16  17
ENDBRANCH  15  16
ENDBRANCH  14  15
ENDBRANCH  13  14
ENDBRANCH   1  13
TORSDOF 20
ENDMDL
MODEL 5
REMARK VINA RESULT:    -5.351      1.247      2.116
REMARK INTER + INTRA:         -13.325
REMARK INTER:                 -11.195
REMARK INTRA:                  -2.129
REMARK UNBOUND:                -1.717
REMARK SMILES CCCCCCCCCCCCCCCCCCCCCC(=O)[O-]
REMARK SMILES IDX 12 1 11 2 10 3 9 4 8 5 7 6 6 7 5 8 4 9 3 10 2 11 1 12 13 13
REMARK SMILES IDX 14 14 15 15 16 16 17 17 18 18 19 19 20 20 21 21 22 22 23 23
REMARK SMILES IDX 24 24
REMARK H PARENT
REMARK Flexibility Score: inf
ROOT
ATOM      1  C   UNL     1      26.967  11.611  34.895  1.00  0.00     0.000 C 
ENDROOT
BRANCH   1   2
ATOM      2  C   UNL     1      27.616  12.959  35.271  1.00  0.00     0.000 C 
BRANCH   2   3
ATOM      3  C   UNL     1      27.924  13.881  34.069  1.00  0.00     0.000 C 
BRANCH   3   4
ATOM      4  C   UNL     1      27.567  13.262  32.707  1.00  0.00    -0.000 C 
BRANCH   4   5
ATOM      5  C   UNL     1      28.786  13.106  31.787  1.00  0.00    -0.000 C 
BRANCH   5   6
ATOM      6  C   UNL     1      28.402  12.746  30.341  1.00  0.00    -0.000 C 
BRANCH   6   7
ATOM      7  C   UNL     1      26.884  12.569  30.130  1.00  0.00    -0.000 C 
BRANCH   7   8
ATOM      8  C   UNL     1      26.485  11.091  29.977  1.00  0.00    -0.000 C 
BRANCH   8   9
ATOM      9  C   UNL     1      25.689  10.563  31.183  1.00  0.00    -0.000 C 
BRANCH   9  10
ATOM     10  C   UNL     1      24.592  11.540  31.643  1.00  0.00    -0.000 C 
BRANCH  10  11
ATOM     11  C   UNL     1      23.177  10.995  31.394  1.00  0.00    -0.003 C 
ATOM     12  C   UNL     1      23.180   9.643  30.682  1.00  0.00     0.004 C 
ENDBRANCH  10  11
ENDBRANCH   9  10
ENDBRANCH   8   9
ENDBRANCH   7   8
ENDBRANCH   6   7
ENDBRANCH   5   6
ENDBRANCH   4   5
ENDBRANCH   3   4
ENDBRANCH   2   3
ENDBRANCH   1   2
BRANCH   1  13
ATOM     13  C   UNL     1      25.437  11.544  35.071  1.00  0.00     0.000 C 
BRANCH  13  14
ATOM     14  C   UNL     1      24.890  12.595  36.054  1.00  0.00     0.000 C 
BRANCH  14  15
ATOM     15  C   UNL     1      23.368  12.772  35.940  1.00  0.00     0.000 C 
BRANCH  15  16
ATOM     16  C   UNL     1      22.843  12.456  34.528  1.00  0.00     0.000 C 
BRANCH  16  17
ATOM     17  C   UNL     1      21.323  12.653  34.407  1.00  0.00     0.000 C 
BRANCH  17  18
ATOM     18  C   UNL     1      20.712  13.330  35.644  1.00  0.00     0.000 C 
BRANCH  18  19
ATOM     19  C   UNL     1      19.185  13.146  35.734  1.00  0.00     0.000 C 
BRANCH  19  20
ATOM     20  C   UNL     1      18.695  12.371  36.972  1.00  0.00     0.006 C 
BRANCH  20  21
ATOM     21  C   UNL     1      17.876  11.125  36.610  1.00  0.00     0.053 C 
BRANCH  21  22
ATOM     22  C   UNL     1      18.602   9.881  37.016  1.00  0.00     0.041 C 
ATOM     23  O   UNL     1      19.700   9.582  36.478  1.00  0.00    -0.550 OA
ATOM     24  O   UNL     1      18.077   9.067  38.011  1.00  0.00    -0.550 OA
ENDBRANCH  21  22
ENDBRANCH  20  21
ENDBRANCH  19  20
ENDBRANCH  18  19
ENDBRANCH  17  18
ENDBRANCH  16  17
ENDBRANCH  15  16
ENDBRANCH  14  15
ENDBRANCH  13  14
ENDBRANCH   1  13
TORSDOF 20
ENDMDL
MODEL 6
REMARK VINA RESULT:    -5.316      2.243      7.221
REMARK INTER + INTRA:         -13.247
REMARK INTER:                 -10.774
REMARK INTRA:                  -2.473
REMARK UNBOUND:                -1.717
REMARK SMILES CCCCCCCCCCCCCCCCCCCCCC(=O)[O-]
REMARK SMILES IDX 12 1 11 2 10 3 9 4 8 5 7 6 6 7 5 8 4 9 3 10 2 11 1 12 13 13
REMARK SMILES IDX 14 14 15 15 16 16 17 17 18 18 19 19 20 20 21 21 22 22 23 23
REMARK SMILES IDX 24 24
REMARK H PARENT
REMARK Flexibility Score: inf
ROOT
ATOM      1  C   UNL     1      27.153  13.407  34.747  1.00  0.00     0.000 C 
ENDROOT
BRANCH   1   2
ATOM      2  C   UNL     1      26.925  11.886  34.855  1.00  0.00     0.000 C 
BRANCH   2   3
ATOM      3  C   UNL     1      25.521  11.482  35.359  1.00  0.00     0.000 C 
BRANCH   3   4
ATOM      4  C   UNL     1      24.632  12.677  35.744  1.00  0.00    -0.000 C 
BRANCH   4   5
ATOM      5  C   UNL     1      23.158  12.289  35.926  1.00  0.00    -0.000 C 
BRANCH   5   6
ATOM      6  C   UNL     1      22.229  12.977  34.910  1.00  0.00    -0.000 C 
BRANCH   6   7
ATOM      7  C   UNL     1      20.799  13.211  35.439  1.00  0.00    -0.000 C 
BRANCH   7   8
ATOM      8  C   UNL     1      20.149  11.915  35.954  1.00  0.00    -0.000 C 
BRANCH   8   9
ATOM      9  C   UNL     1      19.388  11.155  34.854  1.00  0.00    -0.000 C 
BRANCH   9  10
ATOM     10  C   UNL     1      18.751   9.851  35.366  1.00  0.00    -0.000 C 
BRANCH  10  11
ATOM     11  C   UNL     1      19.457   9.300  36.615  1.00  0.00    -0.003 C 
ATOM     12  C   UNL     1      19.270   7.793  36.785  1.00  0.00     0.004 C 
ENDBRANCH  10  11
ENDBRANCH   9  10
ENDBRANCH   8   9
ENDBRANCH   7   8
ENDBRANCH   6   7
ENDBRANCH   5   6
ENDBRANCH   4   5
ENDBRANCH   3   4
ENDBRANCH   2   3
ENDBRANCH   1   2
BRANCH   1  13
ATOM     13  C   UNL     1      27.790  13.888  33.429  1.00  0.00     0.000 C 
BRANCH  13  14
ATOM     14  C   UNL     1      28.421  12.749  32.607  1.00  0.00     0.000 C 
BRANCH  14  15
ATOM     15  C   UNL     1      28.773  13.180  31.175  1.00  0.00     0.000 C 
BRANCH  15  16
ATOM     16  C   UNL     1      27.864  12.521  30.122  1.00  0.00     0.000 C 
BRANCH  16  17
ATOM     17  C   UNL     1      26.467  13.159  30.068  1.00  0.00     0.000 C 
BRANCH  17  18
ATOM     18  C   UNL     1      25.345  12.159  30.392  1.00  0.00     0.000 C 
BRANCH  18  19
ATOM     19  C   UNL     1      24.864  12.252  31.852  1.00  0.00     0.000 C 
BRANCH  19  20
ATOM     20  C   UNL     1      23.794  11.220  32.252  1.00  0.00     0.006 C 
BRANCH  20  21
ATOM     21  C   UNL     1      22.535  11.297  31.379  1.00  0.00     0.053 C 
BRANCH  21  22
ATOM     22  C   UNL     1      22.160   9.940  30.873  1.00  0.00     0.041 C 
ATOM     23  O   UNL     1      20.961   9.557  30.910  1.00  0.00    -0.550 OA
ATOM     24  O   UNL     1      23.132   9.108  30.333  1.00  0.00    -0.550 OA
ENDBRANCH  21  22
ENDBRANCH  20  21
ENDBRANCH  19  20
ENDBRANCH  18  19
ENDBRANCH  17  18
ENDBRANCH  16  17
ENDBRANCH  15  16
ENDBRANCH  14  15
ENDBRANCH  13  14
ENDBRANCH   1  13
TORSDOF 20
ENDMDL
MODEL 7
REMARK VINA RESULT:    -5.306      2.522      4.268
REMARK INTER + INTRA:         -13.227
REMARK INTER:                 -10.569
REMARK INTRA:                  -2.658
REMARK UNBOUND:                -1.717
REMARK SMILES CCCCCCCCCCCCCCCCCCCCCC(=O)[O-]
REMARK SMILES IDX 12 1 11 2 10 3 9 4 8 5 7 6 6 7 5 8 4 9 3 10 2 11 1 12 13 13
REMARK SMILES IDX 14 14 15 15 16 16 17 17 18 18 19 19 20 20 21 21 22 22 23 23
REMARK SMILES IDX 24 24
REMARK H PARENT
REMARK Flexibility Score: inf
ROOT
ATOM      1  C   UNL     1      25.071  11.177  32.457  1.00  0.00     0.000 C 
ENDROOT
BRANCH   1   2
ATOM      2  C   UNL     1      24.369  10.530  31.246  1.00  0.00     0.000 C 
BRANCH   2   3
ATOM      3  C   UNL     1      24.668  11.211  29.891  1.00  0.00     0.000 C 
BRANCH   3   4
ATOM      4  C   UNL     1      24.946  12.720  30.005  1.00  0.00    -0.000 C 
BRANCH   4   5
ATOM      5  C   UNL     1      26.332  13.111  29.470  1.00  0.00    -0.000 C 
BRANCH   5   6
ATOM      6  C   UNL     1      27.233  11.894  29.198  1.00  0.00    -0.000 C 
BRANCH   6   7
ATOM      7  C   UNL     1      28.497  11.850  30.081  1.00  0.00    -0.000 C 
BRANCH   7   8
ATOM      8  C   UNL     1      28.571  13.041  31.052  1.00  0.00    -0.000 C 
BRANCH   8   9
ATOM      9  C   UNL     1      28.437  12.616  32.524  1.00  0.00    -0.000 C 
BRANCH   9  10
ATOM     10  C   UNL     1      27.719  13.671  33.384  1.00  0.00    -0.000 C 
BRANCH  10  11
ATOM     11  C   UNL     1      27.993  13.492  34.886  1.00  0.00    -0.003 C 
ATOM     12  C   UNL     1      27.415  14.626  35.732  1.00  0.00     0.004 C 
ENDBRANCH  10  11
ENDBRANCH   9  10
ENDBRANCH   8   9
ENDBRANCH   7   8
ENDBRANCH   6   7
ENDBRANCH   5   6
ENDBRANCH   4   5
ENDBRANCH   3   4
ENDBRANCH   2   3
ENDBRANCH   1   2
BRANCH   1  13
ATOM     13  C   UNL     1      24.203  12.145  33.284  1.00  0.00     0.000 C 
BRANCH  13  14
ATOM     14  C   UNL     1      24.622  12.227  34.763  1.00  0.00     0.000 C 
BRANCH  14  15
ATOM     15  C   UNL     1      23.456  12.614  35.686  1.00  0.00     0.000 C 
BRANCH  15  16
ATOM     16  C   UNL     1      22.088  12.483  34.991  1.00  0.00     0.000 C 
BRANCH  16  17
ATOM     17  C   UNL     1      21.009  13.359  35.648  1.00  0.00     0.000 C 
BRANCH  17  18
ATOM     18  C   UNL     1      19.763  12.558  36.062  1.00  0.00     0.000 C 
BRANCH  18  19
ATOM     19  C   UNL     1      19.746  11.134  35.476  1.00  0.00     0.000 C 
BRANCH  19  20
ATOM     20  C   UNL     1      18.601  10.851  34.486  1.00  0.00     0.006 C 
BRANCH  20  21
ATOM     21  C   UNL     1      19.101  10.463  33.089  1.00  0.00     0.053 C 
BRANCH  21  22
ATOM     22  C   UNL     1      19.714  11.642  32.402  1.00  0.00     0.041 C 
ATOM     23  O   UNL     1      20.791  11.515  31.761  1.00  0.00    -0.550 OA
ATOM     24  O   UNL     1      19.080  12.877  32.446  1.00  0.00    -0.550 OA
ENDBRANCH  21  22
ENDBRANCH  20  21
ENDBRANCH  19  20
ENDBRANCH  18  19
ENDBRANCH  17  18
ENDBRANCH  16  17
ENDBRANCH  15  16
ENDBRANCH  14  15
ENDBRANCH  13  14
ENDBRANCH   1  13
TORSDOF 20
ENDMDL
MODEL 8
REMARK VINA RESULT:    -5.295      3.628      8.543
REMARK INTER + INTRA:         -13.203
REMARK INTER:                 -10.472
REMARK INTRA:                  -2.731
REMARK UNBOUND:                -1.717
REMARK SMILES CCCCCCCCCCCCCCCCCCCCCC(=O)[O-]
REMARK SMILES IDX 12 1 11 2 10 3 9 4 8 5 7 6 6 7 5 8 4 9 3 10 2 11 1 12 13 13
REMARK SMILES IDX 14 14 15 15 16 16 17 17 18 18 19 19 20 20 21 21 22 22 23 23
REMARK SMILES IDX 24 24
REMARK H PARENT
REMARK Flexibility Score: inf
ROOT
ATOM      1  C   UNL     1      24.836  11.861  34.457  1.00  0.00     0.000 C 
ENDROOT
BRANCH   1   2
ATOM      2  C   UNL     1      23.904  12.632  35.413  1.00  0.00     0.000 C 
BRANCH   2   3
ATOM      3  C   UNL     1      22.493  12.912  34.847  1.00  0.00     0.000 C 
BRANCH   3   4
ATOM      4  C   UNL     1      21.359  12.274  35.667  1.00  0.00    -0.000 C 
BRANCH   4   5
ATOM      5  C   UNL     1      20.136  13.192  35.806  1.00  0.00    -0.000 C 
BRANCH   5   6
ATOM      6  C   UNL     1      18.811  12.415  35.888  1.00  0.00    -0.000 C 
BRANCH   6   7
ATOM      7  C   UNL     1      18.268  11.971  34.514  1.00  0.00    -0.000 C 
BRANCH   7   8
ATOM      8  C   UNL     1      18.191  13.136  33.513  1.00  0.00    -0.000 C 
BRANCH   8   9
ATOM      9  C   UNL     1      19.227  13.018  32.383  1.00  0.00    -0.000 C 
BRANCH   9  10
ATOM     10  C   UNL     1      19.479  11.560  31.959  1.00  0.00    -0.000 C 
BRANCH  10  11
ATOM     11  C   UNL     1      20.960  11.162  32.072  1.00  0.00    -0.003 C 
ATOM     12  C   UNL     1      21.361  10.085  31.064  1.00  0.00     0.004 C 
ENDBRANCH  10  11
ENDBRANCH   9  10
ENDBRANCH   8   9
ENDBRANCH   7   8
ENDBRANCH   6   7
ENDBRANCH   5   6
ENDBRANCH   4   5
ENDBRANCH   3   4
ENDBRANCH   2   3
ENDBRANCH   1   2
BRANCH   1  13
ATOM     13  C   UNL     1      24.429  11.891  32.971  1.00  0.00     0.000 C 
BRANCH  13  14
ATOM     14  C   UNL     1      25.208  10.884  32.105  1.00  0.00     0.000 C 
BRANCH  14  15
ATOM     15  C   UNL     1      24.930  11.058  30.603  1.00  0.00     0.000 C 
BRANCH  15  16
ATOM     16  C   UNL     1      26.222  11.094  29.766  1.00  0.00     0.000 C 
BRANCH  16  17
ATOM     17  C   UNL     1      26.968  12.432  29.893  1.00  0.00     0.000 C 
BRANCH  17  18
ATOM     18  C   UNL     1      28.423  12.260  30.361  1.00  0.00     0.000 C 
BRANCH  18  19
ATOM     19  C   UNL     1      28.804  13.227  31.497  1.00  0.00     0.000 C 
BRANCH  19  20
ATOM     20  C   UNL     1      28.223  12.870  32.878  1.00  0.00     0.006 C 
BRANCH  20  21
ATOM     21  C   UNL     1      27.622  14.081  33.604  1.00  0.00     0.053 C 
BRANCH  21  22
ATOM     22  C   UNL     1      27.845  13.975  35.079  1.00  0.00     0.041 C 
ATOM     23  O   UNL     1      27.950  12.845  35.627  1.00  0.00    -0.550 OA
ATOM     24  O   UNL     1      27.967  15.126  35.847  1.00  0.00    -0.550 OA
ENDBRANCH  21  22
ENDBRANCH  20  21
ENDBRANCH  19  20
ENDBRANCH  18  19
ENDBRANCH  17  18
ENDBRANCH  16  17
ENDBRANCH  15  16
ENDBRANCH  14  15
ENDBRANCH  13  14
ENDBRANCH   1  13
TORSDOF 20
ENDMDL
MODEL 9
REMARK VINA RESULT:    -5.236      2.638      4.280
REMARK INTER + INTRA:         -13.075
REMARK INTER:                  -9.778
REMARK INTRA:                  -3.297
REMARK UNBOUND:                -1.717
REMARK SMILES CCCCCCCCCCCCCCCCCCCCCC(=O)[O-]
REMARK SMILES IDX 12 1 11 2 10 3 9 4 8 5 7 6 6 7 5 8 4 9 3 10 2 11 1 12 13 13
REMARK SMILES IDX 14 14 15 15 16 16 17 17 18 18 19 19 20 20 21 21 22 22 23 23
REMARK SMILES IDX 24 24
REMARK H PARENT
REMARK Flexibility Score: inf
ROOT
ATOM      1  C   UNL     1      24.006  11.920  34.217  1.00  0.00     0.000 C 
ENDROOT
BRANCH   1   2
ATOM      2  C   UNL     1      24.619  12.228  32.835  1.00  0.00     0.000 C 
BRANCH   2   3
ATOM      3  C   UNL     1      25.241  11.006  32.122  1.00  0.00     0.000 C 
BRANCH   3   4
ATOM      4  C   UNL     1      25.611  11.267  30.652  1.00  0.00    -0.000 C 
BRANCH   4   5
ATOM      5  C   UNL     1      25.310  12.706  30.210  1.00  0.00    -0.000 C 
BRANCH   5   6
ATOM      6  C   UNL     1      26.579  13.506  29.868  1.00  0.00    -0.000 C 
BRANCH   6   7
ATOM      7  C   UNL     1      27.888  12.744  30.165  1.00  0.00    -0.000 C 
BRANCH   7   8
ATOM      8  C   UNL     1      28.718  13.419  31.271  1.00  0.00    -0.000 C 
BRANCH   8   9
ATOM      9  C   UNL     1      28.471  12.802  32.658  1.00  0.00    -0.000 C 
BRANCH   9  10
ATOM     10  C   UNL     1      27.888  13.811  33.663  1.00  0.00    -0.000 C 
BRANCH  10  11
ATOM     11  C   UNL     1      27.453  13.148  34.979  1.00  0.00    -0.003 C 
ATOM     12  C   UNL     1      27.683  11.637  34.985  1.00  0.00     0.004 C 
ENDBRANCH  10  11
ENDBRANCH   9  10
ENDBRANCH   8   9
ENDBRANCH   7   8
ENDBRANCH   6   7
ENDBRANCH   5   6
ENDBRANCH   4   5
ENDBRANCH   3   4
ENDBRANCH   2   3
ENDBRANCH   1   2
BRANCH   1  13
ATOM     13  C   UNL     1      23.048  12.994  34.767  1.00  0.00     0.000 C 
BRANCH  13  14
ATOM     14  C   UNL     1      21.939  12.417  35.666  1.00  0.00     0.000 C 
BRANCH  14  15
ATOM     15  C   UNL     1      20.647  13.248  35.616  1.00  0.00     0.000 C 
BRANCH  15  16
ATOM     16  C   UNL     1      19.400  12.420  35.976  1.00  0.00     0.000 C 
BRANCH  16  17
ATOM     17  C   UNL     1      19.676  10.908  35.969  1.00  0.00     0.000 C 
BRANCH  17  18
ATOM     18  C   UNL     1      18.837  10.155  34.923  1.00  0.00     0.000 C 
BRANCH  18  19
ATOM     19  C   UNL     1      18.636  10.959  33.625  1.00  0.00     0.000 C 
BRANCH  19  20
ATOM     20  C   UNL     1      19.520  10.519  32.443  1.00  0.00     0.006 C 
BRANCH  20  21
ATOM     21  C   UNL     1      20.842  11.292  32.365  1.00  0.00     0.053 C 
BRANCH  21  22
ATOM     22  C   UNL     1      21.632  10.867  31.168  1.00  0.00     0.041 C 
ATOM     23  O   UNL     1      22.066   9.688  31.079  1.00  0.00    -0.550 OA
ATOM     24  O   UNL     1      21.864  11.766  30.136  1.00  0.00    -0.550 OA
ENDBRANCH  21  22
ENDBRANCH  20  21
ENDBRANCH  19  20
ENDBRANCH  18  19
ENDBRANCH  17  18
ENDBRANCH  16  17
ENDBRANCH  15  16
ENDBRANCH  14  15
ENDBRANCH  13  14
ENDBRANCH   1  13
TORSDOF 20
ENDMDL
