MODEL 1
REMARK VINA RESULT:    -6.848      0.000      0.000
REMARK INTER + INTRA:          -8.504
REMARK INTER:                  -8.249
REMARK INTRA:                  -0.255
REMARK UNBOUND:                -0.255
REMARK SMILES O=c1c(O)c(-c2ccc(O)c(O)c2)oc2cc(O)cc(O)c12
REMARK SMILES IDX 5 1 3 2 2 3 1 4 22 5 20 6 19 7 17 8 16 9 15 10 14 11 6 12
REMARK SMILES IDX 7 13 8 14 9 15 13 16 11 17 10 18 12 20 4 22 21 24 18 26
REMARK H PARENT 10 19 12 21 4 23 21 25 18 27
REMARK Flexibility Score: inf
ROOT
ATOM      1  C   UNL     1     132.922 138.351 141.853  1.00  0.00     0.180 A 
ATOM      2  C   UNL     1     133.717 139.515 141.842  1.00  0.00     0.208 A 
ATOM      3  C   UNL     1     133.732 140.337 142.980  1.00  0.00     0.238 A 
ATOM      4  O   UNL     1     134.449 141.375 142.984  1.00  0.00    -0.285 OA
ATOM      5  C   UNL     1     132.941 139.996 144.096  1.00  0.00     0.111 A 
ATOM      6  C   UNL     1     132.897 140.774 145.279  1.00  0.00     0.134 A 
ATOM      7  C   UNL     1     132.078 140.373 146.345  1.00  0.00     0.093 A 
ATOM      8  C   UNL     1     131.302 139.215 146.251  1.00  0.00     0.123 A 
ATOM      9  C   UNL     1     131.343 138.443 145.084  1.00  0.00     0.094 A 
ATOM     10  C   UNL     1     132.154 138.824 144.013  1.00  0.00     0.146 A 
ATOM     11  O   UNL     1     132.178 138.071 142.920  1.00  0.00    -0.452 OA
ENDROOT
BRANCH   1  12
ATOM     12  C   UNL     1     132.867 137.424 140.701  1.00  0.00     0.025 A 
ATOM     13  C   UNL     1     133.571 136.212 140.756  1.00  0.00     0.016 A 
ATOM     14  C   UNL     1     133.550 135.330 139.673  1.00  0.00     0.051 A 
ATOM     15  C   UNL     1     132.839 135.657 138.510  1.00  0.00     0.157 A 
ATOM     16  C   UNL     1     132.171 137.758 139.525  1.00  0.00     0.062 A 
ATOM     17  C   UNL     1     132.150 136.878 138.436  1.00  0.00     0.158 A 
BRANCH  15  18
ATOM     18  O   UNL     1     132.818 134.775 137.430  1.00  0.00    -0.504 OA
ATOM     19  H   UNL     1     133.589 134.723 136.774  1.00  0.00     0.293 HD
ENDBRANCH  15  18
BRANCH  17  20
ATOM     20  O   UNL     1     131.445 137.239 137.288  1.00  0.00    -0.504 OA
ATOM     21  H   UNL     1     130.458 137.041 137.177  1.00  0.00     0.293 HD
ENDBRANCH  17  20
ENDBRANCH   1  12
BRANCH   2  22
ATOM     22  O   UNL     1     134.452 139.855 140.704  1.00  0.00    -0.502 OA
ATOM     23  H   UNL     1     134.883 139.158 140.109  1.00  0.00     0.293 HD
ENDBRANCH   2  22
BRANCH   6  24
ATOM     24  O   UNL     1     133.659 141.937 145.403  1.00  0.00    -0.507 OA
ATOM     25  H   UNL     1     133.323 142.832 145.064  1.00  0.00     0.293 HD
ENDBRANCH   6  24
BRANCH   8  26
ATOM     26  O   UNL     1     130.497 138.839 147.324  1.00  0.00    -0.508 OA
ATOM     27  H   UNL     1     130.436 137.874 147.627  1.00  0.00     0.293 HD
ENDBRANCH   8  26
TORSDOF 6
ENDMDL
MODEL 2
REMARK VINA RESULT:    -6.325      1.351      1.843
REMARK INTER + INTRA:          -7.874
REMARK INTER:                  -7.648
REMARK INTRA:                  -0.226
REMARK UNBOUND:                -0.255
REMARK SMILES O=c1c(O)c(-c2ccc(O)c(O)c2)oc2cc(O)cc(O)c12
REMARK SMILES IDX 5 1 3 2 2 3 1 4 22 5 20 6 19 7 17 8 16 9 15 10 14 11 6 12
REMARK SMILES IDX 7 13 8 14 9 15 13 16 11 17 10 18 12 20 4 22 21 24 18 26
REMARK H PARENT 10 19 12 21 4 23 21 25 18 27
REMARK Flexibility Score: inf
ROOT
ATOM      1  C   UNL     1     132.978 138.100 140.308  1.00  0.00     0.180 A 
ATOM      2  C   UNL     1     134.127 138.905 140.177  1.00  0.00     0.208 A 
ATOM      3  C   UNL     1     134.499 139.735 141.246  1.00  0.00     0.238 A 
ATOM      4  O   UNL     1     135.532 140.452 141.143  1.00  0.00    -0.285 OA
ATOM      5  C   UNL     1     133.710 139.763 142.414  1.00  0.00     0.111 A 
ATOM      6  C   UNL     1     134.014 140.575 143.534  1.00  0.00     0.134 A 
ATOM      7  C   UNL     1     133.174 140.554 144.657  1.00  0.00     0.093 A 
ATOM      8  C   UNL     1     132.039 139.741 144.682  1.00  0.00     0.123 A 
ATOM      9  C   UNL     1     131.734 138.936 143.579  1.00  0.00     0.094 A 
ATOM     10  C   UNL     1     132.559 138.941 142.451  1.00  0.00     0.146 A 
ATOM     11  O   UNL     1     132.250 138.164 141.420  1.00  0.00    -0.452 OA
ENDROOT
BRANCH   1  12
ATOM     12  C   UNL     1     132.531 137.185 139.234  1.00  0.00     0.025 A 
ATOM     13  C   UNL     1     133.282 136.034 138.951  1.00  0.00     0.016 A 
ATOM     14  C   UNL     1     132.891 135.167 137.928  1.00  0.00     0.051 A 
ATOM     15  C   UNL     1     131.751 135.447 137.162  1.00  0.00     0.157 A 
ATOM     16  C   UNL     1     131.399 137.473 138.450  1.00  0.00     0.062 A 
ATOM     17  C   UNL     1     131.006 136.608 137.423  1.00  0.00     0.158 A 
BRANCH  15  18
ATOM     18  O   UNL     1     131.361 134.579 136.142  1.00  0.00    -0.504 OA
ATOM     19  H   UNL     1     130.618 133.903 136.277  1.00  0.00     0.293 HD
ENDBRANCH  15  18
BRANCH  17  20
ATOM     20  O   UNL     1     129.875 136.922 136.668  1.00  0.00    -0.504 OA
ATOM     21  H   UNL     1     129.480 136.276 135.996  1.00  0.00     0.293 HD
ENDBRANCH  17  20
ENDBRANCH   1  12
BRANCH   2  22
ATOM     22  O   UNL     1     134.862 138.895 138.990  1.00  0.00    -0.502 OA
ATOM     23  H   UNL     1     134.596 139.446 138.183  1.00  0.00     0.293 HD
ENDBRANCH   2  22
BRANCH   6  24
ATOM     24  O   UNL     1     135.141 141.399 143.539  1.00  0.00    -0.507 OA
ATOM     25  H   UNL     1     135.594 141.685 142.678  1.00  0.00     0.293 HD
ENDBRANCH   6  24
BRANCH   8  26
ATOM     26  O   UNL     1     131.221 139.738 145.810  1.00  0.00    -0.508 OA
ATOM     27  H   UNL     1     131.604 139.850 146.742  1.00  0.00     0.293 HD
ENDBRANCH   8  26
TORSDOF 6
ENDMDL
MODEL 3
REMARK VINA RESULT:    -6.113      1.465      6.803
REMARK INTER + INTRA:          -7.618
REMARK INTER:                  -7.674
REMARK INTRA:                   0.055
REMARK UNBOUND:                -0.255
REMARK SMILES O=c1c(O)c(-c2ccc(O)c(O)c2)oc2cc(O)cc(O)c12
REMARK SMILES IDX 5 1 3 2 2 3 1 4 22 5 20 6 19 7 17 8 16 9 15 10 14 11 6 12
REMARK SMILES IDX 7 13 8 14 9 15 13 16 11 17 10 18 12 20 4 22 21 24 18 26
REMARK H PARENT 10 19 12 21 4 23 21 25 18 27
REMARK Flexibility Score: inf
ROOT
ATOM      1  C   UNL     1     132.717 139.558 142.598  1.00  0.00     0.180 A 
ATOM      2  C   UNL     1     133.008 140.483 141.576  1.00  0.00     0.208 A 
ATOM      3  C   UNL     1     133.314 140.002 140.293  1.00  0.00     0.238 A 
ATOM      4  O   UNL     1     133.566 140.822 139.368  1.00  0.00    -0.285 OA
ATOM      5  C   UNL     1     133.344 138.612 140.059  1.00  0.00     0.111 A 
ATOM      6  C   UNL     1     133.647 138.046 138.796  1.00  0.00     0.134 A 
ATOM      7  C   UNL     1     133.666 136.651 138.646  1.00  0.00     0.093 A 
ATOM      8  C   UNL     1     133.390 135.814 139.729  1.00  0.00     0.123 A 
ATOM      9  C   UNL     1     133.089 136.368 140.978  1.00  0.00     0.094 A 
ATOM     10  C   UNL     1     133.063 137.754 141.149  1.00  0.00     0.146 A 
ATOM     11  O   UNL     1     132.770 138.253 142.343  1.00  0.00    -0.452 OA
ENDROOT
BRANCH   1  12
ATOM     12  C   UNL     1     132.367 139.987 143.972  1.00  0.00     0.025 A 
ATOM     13  C   UNL     1     131.230 139.450 144.593  1.00  0.00     0.016 A 
ATOM     14  C   UNL     1     130.869 139.855 145.881  1.00  0.00     0.051 A 
ATOM     15  C   UNL     1     131.631 140.816 146.559  1.00  0.00     0.157 A 
ATOM     16  C   UNL     1     133.118 140.966 144.647  1.00  0.00     0.062 A 
ATOM     17  C   UNL     1     132.757 141.376 145.935  1.00  0.00     0.158 A 
BRANCH  15  18
ATOM     18  O   UNL     1     131.270 141.218 147.844  1.00  0.00    -0.504 OA
ATOM     19  H   UNL     1     131.959 141.321 148.581  1.00  0.00     0.293 HD
ENDBRANCH  15  18
BRANCH  17  20
ATOM     20  O   UNL     1     133.528 142.346 146.578  1.00  0.00    -0.504 OA
ATOM     21  H   UNL     1     133.648 142.360 147.583  1.00  0.00     0.293 HD
ENDBRANCH  17  20
ENDBRANCH   1  12
BRANCH   2  22
ATOM     22  O   UNL     1     133.020 141.853 141.847  1.00  0.00    -0.502 OA
ATOM     23  H   UNL     1     132.626 142.241 142.696  1.00  0.00     0.293 HD
ENDBRANCH   2  22
BRANCH   6  24
ATOM     24  O   UNL     1     133.929 138.857 137.696  1.00  0.00    -0.507 OA
ATOM     25  H   UNL     1     133.570 138.644 136.772  1.00  0.00     0.293 HD
ENDBRANCH   6  24
BRANCH   8  26
ATOM     26  O   UNL     1     133.415 134.432 139.552  1.00  0.00    -0.508 OA
ATOM     27  H   UNL     1     133.640 133.805 140.316  1.00  0.00     0.293 HD
ENDBRANCH   8  26
TORSDOF 6
ENDMDL
MODEL 4
REMARK VINA RESULT:    -6.012      1.348      6.711
REMARK INTER + INTRA:          -7.497
REMARK INTER:                  -7.775
REMARK INTRA:                   0.278
REMARK UNBOUND:                -0.255
REMARK SMILES O=c1c(O)c(-c2ccc(O)c(O)c2)oc2cc(O)cc(O)c12
REMARK SMILES IDX 5 1 3 2 2 3 1 4 22 5 20 6 19 7 17 8 16 9 15 10 14 11 6 12
REMARK SMILES IDX 7 13 8 14 9 15 13 16 11 17 10 18 12 20 4 22 21 24 18 26
REMARK H PARENT 10 19 12 21 4 23 21 25 18 27
REMARK Flexibility Score: inf
ROOT
ATOM      1  C   UNL     1     132.475 138.970 143.354  1.00  0.00     0.180 A 
ATOM      2  C   UNL     1     133.646 139.611 142.902  1.00  0.00     0.208 A 
ATOM      3  C   UNL     1     134.111 139.339 141.605  1.00  0.00     0.238 A 
ATOM      4  O   UNL     1     135.151 139.916 141.187  1.00  0.00    -0.285 OA
ATOM      5  C   UNL     1     133.413 138.421 140.793  1.00  0.00     0.111 A 
ATOM      6  C   UNL     1     133.818 138.090 139.477  1.00  0.00     0.134 A 
ATOM      7  C   UNL     1     133.075 137.159 138.735  1.00  0.00     0.093 A 
ATOM      8  C   UNL     1     131.941 136.555 139.281  1.00  0.00     0.123 A 
ATOM      9  C   UNL     1     131.536 136.879 140.581  1.00  0.00     0.094 A 
ATOM     10  C   UNL     1     132.261 137.805 141.336  1.00  0.00     0.146 A 
ATOM     11  O   UNL     1     131.852 138.099 142.564  1.00  0.00    -0.452 OA
ENDROOT
BRANCH   1  12
ATOM     12  C   UNL     1     131.911 139.218 144.700  1.00  0.00     0.025 A 
ATOM     13  C   UNL     1     131.098 138.244 145.298  1.00  0.00     0.016 A 
ATOM     14  C   UNL     1     130.539 138.465 146.559  1.00  0.00     0.051 A 
ATOM     15  C   UNL     1     130.772 139.671 147.234  1.00  0.00     0.157 A 
ATOM     16  C   UNL     1     132.126 140.436 145.371  1.00  0.00     0.062 A 
ATOM     17  C   UNL     1     131.566 140.662 146.633  1.00  0.00     0.158 A 
BRANCH  15  18
ATOM     18  O   UNL     1     130.214 139.889 148.493  1.00  0.00    -0.504 OA
ATOM     19  H   UNL     1     129.629 139.193 148.941  1.00  0.00     0.293 HD
ENDBRANCH  15  18
BRANCH  17  20
ATOM     20  O   UNL     1     131.804 141.878 147.272  1.00  0.00    -0.504 OA
ATOM     21  H   UNL     1     131.442 142.082 148.196  1.00  0.00     0.293 HD
ENDBRANCH  17  20
ENDBRANCH   1  12
BRANCH   2  22
ATOM     22  O   UNL     1     134.345 140.478 143.745  1.00  0.00    -0.502 OA
ATOM     23  H   UNL     1     134.243 140.454 144.752  1.00  0.00     0.293 HD
ENDBRANCH   2  22
BRANCH   6  24
ATOM     24  O   UNL     1     134.948 138.676 138.904  1.00  0.00    -0.507 OA
ATOM     25  H   UNL     1     135.053 139.682 138.844  1.00  0.00     0.293 HD
ENDBRANCH   6  24
BRANCH   8  26
ATOM     26  O   UNL     1     131.221 135.634 138.523  1.00  0.00    -0.508 OA
ATOM     27  H   UNL     1     131.668 135.078 137.801  1.00  0.00     0.293 HD
ENDBRANCH   8  26
TORSDOF 6
ENDMDL
MODEL 5
REMARK VINA RESULT:    -5.931      9.752     11.869
REMARK INTER + INTRA:          -7.400
REMARK INTER:                  -7.068
REMARK INTRA:                  -0.332
REMARK UNBOUND:                -0.255
REMARK SMILES O=c1c(O)c(-c2ccc(O)c(O)c2)oc2cc(O)cc(O)c12
REMARK SMILES IDX 5 1 3 2 2 3 1 4 22 5 20 6 19 7 17 8 16 9 15 10 14 11 6 12
REMARK SMILES IDX 7 13 8 14 9 15 13 16 11 17 10 18 12 20 4 22 21 24 18 26
REMARK H PARENT 10 19 12 21 4 23 21 25 18 27
REMARK Flexibility Score: inf
ROOT
ATOM      1  C   UNL     1     138.119 144.844 135.463  1.00  0.00     0.180 A 
ATOM      2  C   UNL     1     137.483 144.907 136.719  1.00  0.00     0.208 A 
ATOM      3  C   UNL     1     136.109 145.189 136.771  1.00  0.00     0.238 A 
ATOM      4  O   UNL     1     135.528 145.237 137.889  1.00  0.00    -0.285 OA
ATOM      5  C   UNL     1     135.400 145.423 135.574  1.00  0.00     0.111 A 
ATOM      6  C   UNL     1     134.015 145.718 135.541  1.00  0.00     0.134 A 
ATOM      7  C   UNL     1     133.383 145.949 134.309  1.00  0.00     0.093 A 
ATOM      8  C   UNL     1     134.106 145.891 133.116  1.00  0.00     0.123 A 
ATOM      9  C   UNL     1     135.475 145.599 133.144  1.00  0.00     0.094 A 
ATOM     10  C   UNL     1     136.122 145.365 134.359  1.00  0.00     0.146 A 
ATOM     11  O   UNL     1     137.420 145.085 134.357  1.00  0.00    -0.452 OA
ENDROOT
BRANCH   1  12
ATOM     12  C   UNL     1     139.559 144.533 135.324  1.00  0.00     0.025 A 
ATOM     13  C   UNL     1     140.491 145.581 135.282  1.00  0.00     0.016 A 
ATOM     14  C   UNL     1     141.853 145.313 135.132  1.00  0.00     0.051 A 
ATOM     15  C   UNL     1     142.303 143.991 135.004  1.00  0.00     0.157 A 
ATOM     16  C   UNL     1     140.012 143.209 135.176  1.00  0.00     0.062 A 
ATOM     17  C   UNL     1     141.376 142.936 135.022  1.00  0.00     0.158 A 
BRANCH  15  18
ATOM     18  O   UNL     1     143.664 143.725 134.856  1.00  0.00    -0.504 OA
ATOM     19  H   UNL     1     144.361 144.451 134.970  1.00  0.00     0.293 HD
ENDBRANCH  15  18
BRANCH  17  20
ATOM     20  O   UNL     1     141.790 141.612 134.883  1.00  0.00    -0.504 OA
ATOM     21  H   UNL     1     142.716 141.369 134.553  1.00  0.00     0.293 HD
ENDBRANCH  17  20
ENDBRANCH   1  12
BRANCH   2  22
ATOM     22  O   UNL     1     138.219 144.719 137.891  1.00  0.00    -0.502 OA
ATOM     23  H   UNL     1     138.117 143.894 138.470  1.00  0.00     0.293 HD
ENDBRANCH   2  22
BRANCH   6  24
ATOM     24  O   UNL     1     133.266 145.784 136.717  1.00  0.00    -0.507 OA
ATOM     25  H   UNL     1     133.054 146.669 137.163  1.00  0.00     0.293 HD
ENDBRANCH   6  24
BRANCH   8  26
ATOM     26  O   UNL     1     133.454 146.124 131.907  1.00  0.00    -0.508 OA
ATOM     27  H   UNL     1     133.080 145.362 131.352  1.00  0.00     0.293 HD
ENDBRANCH   8  26
TORSDOF 6
ENDMDL
MODEL 6
REMARK VINA RESULT:    -5.917      1.748      7.267
REMARK INTER + INTRA:          -7.382
REMARK INTER:                  -7.794
REMARK INTRA:                   0.412
REMARK UNBOUND:                -0.255
REMARK SMILES O=c1c(O)c(-c2ccc(O)c(O)c2)oc2cc(O)cc(O)c12
REMARK SMILES IDX 5 1 3 2 2 3 1 4 22 5 20 6 19 7 17 8 16 9 15 10 14 11 6 12
REMARK SMILES IDX 7 13 8 14 9 15 13 16 11 17 10 18 12 20 4 22 21 24 18 26
REMARK H PARENT 10 19 12 21 4 23 21 25 18 27
REMARK Flexibility Score: inf
ROOT
ATOM      1  C   UNL     1     132.354 138.756 142.108  1.00  0.00     0.180 A 
ATOM      2  C   UNL     1     131.406 137.724 142.249  1.00  0.00     0.208 A 
ATOM      3  C   UNL     1     131.083 136.941 141.130  1.00  0.00     0.238 A 
ATOM      4  O   UNL     1     130.243 136.007 141.249  1.00  0.00    -0.285 OA
ATOM      5  C   UNL     1     131.693 137.215 139.889  1.00  0.00     0.111 A 
ATOM      6  C   UNL     1     131.418 136.477 138.712  1.00  0.00     0.134 A 
ATOM      7  C   UNL     1     132.060 136.817 137.512  1.00  0.00     0.093 A 
ATOM      8  C   UNL     1     132.967 137.878 137.465  1.00  0.00     0.123 A 
ATOM      9  C   UNL     1     133.242 138.611 138.625  1.00  0.00     0.094 A 
ATOM     10  C   UNL     1     132.615 138.287 139.831  1.00  0.00     0.146 A 
ATOM     11  O   UNL     1     132.898 138.994 140.917  1.00  0.00    -0.452 OA
ENDROOT
BRANCH   1  12
ATOM     12  C   UNL     1     132.762 139.612 143.245  1.00  0.00     0.025 A 
ATOM     13  C   UNL     1     133.962 140.336 143.168  1.00  0.00     0.016 A 
ATOM     14  C   UNL     1     134.377 141.134 144.237  1.00  0.00     0.051 A 
ATOM     15  C   UNL     1     133.606 141.206 145.406  1.00  0.00     0.157 A 
ATOM     16  C   UNL     1     132.002 139.671 144.427  1.00  0.00     0.062 A 
ATOM     17  C   UNL     1     132.416 140.467 145.501  1.00  0.00     0.158 A 
BRANCH  15  18
ATOM     18  O   UNL     1     134.021 142.005 146.471  1.00  0.00    -0.504 OA
ATOM     19  H   UNL     1     133.685 142.954 146.584  1.00  0.00     0.293 HD
ENDBRANCH  15  18
BRANCH  17  20
ATOM     20  O   UNL     1     131.635 140.506 146.656  1.00  0.00    -0.504 OA
ATOM     21  H   UNL     1     130.928 141.216 146.804  1.00  0.00     0.293 HD
ENDBRANCH  17  20
ENDBRANCH   1  12
BRANCH   2  22
ATOM     22  O   UNL     1     130.780 137.506 143.479  1.00  0.00    -0.502 OA
ATOM     23  H   UNL     1     129.842 137.833 143.675  1.00  0.00     0.293 HD
ENDBRANCH   2  22
BRANCH   6  24
ATOM     24  O   UNL     1     130.516 135.412 138.727  1.00  0.00    -0.507 OA
ATOM     25  H   UNL     1     129.516 135.562 138.800  1.00  0.00     0.293 HD
ENDBRANCH   6  24
BRANCH   8  26
ATOM     26  O   UNL     1     133.591 138.195 136.260  1.00  0.00    -0.508 OA
ATOM     27  H   UNL     1     133.156 137.988 135.368  1.00  0.00     0.293 HD
ENDBRANCH   8  26
TORSDOF 6
ENDMDL
MODEL 7
REMARK VINA RESULT:    -5.898      1.418      3.190
REMARK INTER + INTRA:          -7.360
REMARK INTER:                  -7.345
REMARK INTRA:                  -0.015
REMARK UNBOUND:                -0.255
REMARK SMILES O=c1c(O)c(-c2ccc(O)c(O)c2)oc2cc(O)cc(O)c12
REMARK SMILES IDX 5 1 3 2 2 3 1 4 22 5 20 6 19 7 17 8 16 9 15 10 14 11 6 12
REMARK SMILES IDX 7 13 8 14 9 15 13 16 11 17 10 18 12 20 4 22 21 24 18 26
REMARK H PARENT 10 19 12 21 4 23 21 25 18 27
REMARK Flexibility Score: inf
ROOT
ATOM      1  C   UNL     1     132.142 138.065 142.462  1.00  0.00     0.180 A 
ATOM      2  C   UNL     1     131.131 137.421 143.203  1.00  0.00     0.208 A 
ATOM      3  C   UNL     1     130.786 137.931 144.464  1.00  0.00     0.238 A 
ATOM      4  O   UNL     1     129.875 137.368 145.131  1.00  0.00    -0.285 OA
ATOM      5  C   UNL     1     131.466 139.057 144.971  1.00  0.00     0.111 A 
ATOM      6  C   UNL     1     131.181 139.630 146.235  1.00  0.00     0.134 A 
ATOM      7  C   UNL     1     131.909 140.746 146.673  1.00  0.00     0.093 A 
ATOM      8  C   UNL     1     132.915 141.298 145.876  1.00  0.00     0.123 A 
ATOM      9  C   UNL     1     133.200 140.737 144.626  1.00  0.00     0.094 A 
ATOM     10  C   UNL     1     132.484 139.626 144.170  1.00  0.00     0.146 A 
ATOM     11  O   UNL     1     132.772 139.117 142.979  1.00  0.00    -0.452 OA
ENDROOT
BRANCH   1  12
ATOM     12  C   UNL     1     132.550 137.600 141.116  1.00  0.00     0.025 A 
ATOM     13  C   UNL     1     132.524 138.498 140.039  1.00  0.00     0.016 A 
ATOM     14  C   UNL     1     132.885 138.076 138.757  1.00  0.00     0.051 A 
ATOM     15  C   UNL     1     133.261 136.744 138.531  1.00  0.00     0.157 A 
ATOM     16  C   UNL     1     132.908 136.260 140.882  1.00  0.00     0.062 A 
ATOM     17  C   UNL     1     133.268 135.833 139.599  1.00  0.00     0.158 A 
BRANCH  15  18
ATOM     18  O   UNL     1     133.623 136.326 137.251  1.00  0.00    -0.504 OA
ATOM     19  H   UNL     1     133.011 136.466 136.455  1.00  0.00     0.293 HD
ENDBRANCH  15  18
BRANCH  17  20
ATOM     20  O   UNL     1     133.622 134.498 139.404  1.00  0.00    -0.504 OA
ATOM     21  H   UNL     1     134.432 134.230 138.858  1.00  0.00     0.293 HD
ENDBRANCH  17  20
ENDBRANCH   1  12
BRANCH   2  22
ATOM     22  O   UNL     1     130.508 136.278 142.698  1.00  0.00    -0.502 OA
ATOM     23  H   UNL     1     130.441 135.418 143.230  1.00  0.00     0.293 HD
ENDBRANCH   2  22
BRANCH   6  24
ATOM     24  O   UNL     1     130.184 139.099 147.054  1.00  0.00    -0.507 OA
ATOM     25  H   UNL     1     129.486 138.458 146.696  1.00  0.00     0.293 HD
ENDBRANCH   6  24
BRANCH   8  26
ATOM     26  O   UNL     1     133.623 142.407 146.334  1.00  0.00    -0.508 OA
ATOM     27  H   UNL     1     133.242 143.344 146.265  1.00  0.00     0.293 HD
ENDBRANCH   8  26
TORSDOF 6
ENDMDL
MODEL 8
REMARK VINA RESULT:    -5.857      9.511     11.950
REMARK INTER + INTRA:          -7.311
REMARK INTER:                  -7.097
REMARK INTRA:                  -0.213
REMARK UNBOUND:                -0.255
REMARK SMILES O=c1c(O)c(-c2ccc(O)c(O)c2)oc2cc(O)cc(O)c12
REMARK SMILES IDX 5 1 3 2 2 3 1 4 22 5 20 6 19 7 17 8 16 9 15 10 14 11 6 12
REMARK SMILES IDX 7 13 8 14 9 15 13 16 11 17 10 18 12 20 4 22 21 24 18 26
REMARK H PARENT 10 19 12 21 4 23 21 25 18 27
REMARK Flexibility Score: inf
ROOT
ATOM      1  C   UNL     1     134.797 145.060 134.789  1.00  0.00     0.180 A 
ATOM      2  C   UNL     1     133.686 145.567 135.492  1.00  0.00     0.208 A 
ATOM      3  C   UNL     1     132.422 145.528 134.881  1.00  0.00     0.238 A 
ATOM      4  O   UNL     1     131.419 145.969 135.506  1.00  0.00    -0.285 OA
ATOM      5  C   UNL     1     132.294 145.004 133.578  1.00  0.00     0.111 A 
ATOM      6  C   UNL     1     131.057 144.933 132.892  1.00  0.00     0.134 A 
ATOM      7  C   UNL     1     131.013 144.407 131.592  1.00  0.00     0.093 A 
ATOM      8  C   UNL     1     132.176 143.953 130.967  1.00  0.00     0.123 A 
ATOM      9  C   UNL     1     133.401 144.021 131.641  1.00  0.00     0.094 A 
ATOM     10  C   UNL     1     133.466 144.540 132.937  1.00  0.00     0.146 A 
ATOM     11  O   UNL     1     134.639 144.588 133.556  1.00  0.00    -0.452 OA
ENDROOT
BRANCH   1  12
ATOM     12  C   UNL     1     136.158 145.049 135.372  1.00  0.00     0.025 A 
ATOM     13  C   UNL     1     137.171 145.812 134.773  1.00  0.00     0.016 A 
ATOM     14  C   UNL     1     138.468 145.801 135.294  1.00  0.00     0.051 A 
ATOM     15  C   UNL     1     138.774 145.012 136.412  1.00  0.00     0.157 A 
ATOM     16  C   UNL     1     136.473 144.242 136.481  1.00  0.00     0.062 A 
ATOM     17  C   UNL     1     137.771 144.227 137.004  1.00  0.00     0.158 A 
BRANCH  15  18
ATOM     18  O   UNL     1     140.068 145.003 136.931  1.00  0.00    -0.504 OA
ATOM     19  H   UNL     1     140.532 144.138 137.183  1.00  0.00     0.293 HD
ENDBRANCH  15  18
BRANCH  17  20
ATOM     20  O   UNL     1     138.047 143.420 138.108  1.00  0.00    -0.504 OA
ATOM     21  H   UNL     1     138.434 143.794 138.966  1.00  0.00     0.293 HD
ENDBRANCH  17  20
ENDBRANCH   1  12
BRANCH   2  22
ATOM     22  O   UNL     1     133.849 146.125 136.762  1.00  0.00    -0.502 OA
ATOM     23  H   UNL     1     134.696 146.608 137.037  1.00  0.00     0.293 HD
ENDBRANCH   2  22
BRANCH   6  24
ATOM     24  O   UNL     1     129.877 145.380 133.489  1.00  0.00    -0.507 OA
ATOM     25  H   UNL     1     129.267 144.750 133.998  1.00  0.00     0.293 HD
ENDBRANCH   6  24
BRANCH   8  26
ATOM     26  O   UNL     1     132.105 143.435 129.676  1.00  0.00    -0.508 OA
ATOM     27  H   UNL     1     131.222 143.145 129.270  1.00  0.00     0.293 HD
ENDBRANCH   8  26
TORSDOF 6
ENDMDL
MODEL 9
REMARK VINA RESULT:    -5.807      9.396     11.237
REMARK INTER + INTRA:          -7.250
REMARK INTER:                  -6.988
REMARK INTRA:                  -0.263
REMARK UNBOUND:                -0.255
REMARK SMILES O=c1c(O)c(-c2ccc(O)c(O)c2)oc2cc(O)cc(O)c12
REMARK SMILES IDX 5 1 3 2 2 3 1 4 22 5 20 6 19 7 17 8 16 9 15 10 14 11 6 12
REMARK SMILES IDX 7 13 8 14 9 15 13 16 11 17 10 18 12 20 4 22 21 24 18 26
REMARK H PARENT 10 19 12 21 4 23 21 25 18 27
REMARK Flexibility Score: inf
ROOT
ATOM      1  C   UNL     1     138.162 144.804 135.358  1.00  0.00     0.180 A 
ATOM      2  C   UNL     1     137.473 145.353 134.258  1.00  0.00     0.208 A 
ATOM      3  C   UNL     1     136.101 145.623 134.384  1.00  0.00     0.238 A 
ATOM      4  O   UNL     1     135.478 146.125 133.409  1.00  0.00    -0.285 OA
ATOM      5  C   UNL     1     135.440 145.323 135.592  1.00  0.00     0.111 A 
ATOM      6  C   UNL     1     134.059 145.560 135.798  1.00  0.00     0.134 A 
ATOM      7  C   UNL     1     133.471 145.225 137.027  1.00  0.00     0.093 A 
ATOM      8  C   UNL     1     134.233 144.657 138.050  1.00  0.00     0.123 A 
ATOM      9  C   UNL     1     135.598 144.421 137.852  1.00  0.00     0.094 A 
ATOM     10  C   UNL     1     136.204 144.750 136.636  1.00  0.00     0.146 A 
ATOM     11  O   UNL     1     137.501 144.520 136.476  1.00  0.00    -0.452 OA
ENDROOT
BRANCH   1  12
ATOM     12  C   UNL     1     139.612 144.509 135.310  1.00  0.00     0.025 A 
ATOM     13  C   UNL     1     140.534 145.564 135.379  1.00  0.00     0.016 A 
ATOM     14  C   UNL     1     141.906 145.311 135.316  1.00  0.00     0.051 A 
ATOM     15  C   UNL     1     142.377 143.999 135.166  1.00  0.00     0.157 A 
ATOM     16  C   UNL     1     140.087 143.196 135.139  1.00  0.00     0.062 A 
ATOM     17  C   UNL     1     141.461 142.939 135.073  1.00  0.00     0.158 A 
BRANCH  15  18
ATOM     18  O   UNL     1     143.747 143.749 135.104  1.00  0.00    -0.504 OA
ATOM     19  H   UNL     1     144.301 144.024 134.301  1.00  0.00     0.293 HD
ENDBRANCH  15  18
BRANCH  17  20
ATOM     20  O   UNL     1     141.897 141.624 134.909  1.00  0.00    -0.504 OA
ATOM     21  H   UNL     1     142.636 141.226 135.476  1.00  0.00     0.293 HD
ENDBRANCH  17  20
ENDBRANCH   1  12
BRANCH   2  22
ATOM     22  O   UNL     1     138.142 145.595 133.057  1.00  0.00    -0.502 OA
ATOM     23  H   UNL     1     139.028 146.086 133.018  1.00  0.00     0.293 HD
ENDBRANCH   2  22
BRANCH   6  24
ATOM     24  O   UNL     1     133.270 146.125 134.794  1.00  0.00    -0.507 OA
ATOM     25  H   UNL     1     132.376 146.555 134.999  1.00  0.00     0.293 HD
ENDBRANCH   6  24
BRANCH   8  26
ATOM     26  O   UNL     1     133.625 144.334 139.261  1.00  0.00    -0.508 OA
ATOM     27  H   UNL     1     133.480 143.370 139.539  1.00  0.00     0.293 HD
ENDBRANCH   8  26
TORSDOF 6
ENDMDL
