MODEL 1
REMARK VINA RESULT:    59.721      0.000      0.000
REMARK INTER + INTRA:          65.066
REMARK INTER:                  64.958
REMARK INTRA:                   0.108
REMARK UNBOUND:                 0.108
REMARK SMILES C[C@H]1[C@H](C)CC[C@@]2(C(=O)[O-])CC[C@]3(C)C(=CC[C@H]4[C@]5(C)CC[C@@H](O)C(C)(C)[C@@H]5CC[C@]43C)[C@@H]12
REMARK SMILES IDX 7 1 6 2 11 3 33 4 5 5 12 6 15 7 2 8 3 9 13 10 16 11 1 12
REMARK SMILES IDX 4 13 14 14 31 15 17 16 18 17 30 18 32 19 19 20 29 21 28 22
REMARK SMILES IDX 21 23 20 24 25 25 22 26 23 27 26 28 27 29 8 30 9 31 10 32
REMARK SMILES IDX 24 33
REMARK H PARENT 24 34
REMARK Flexibility Score: inf
ROOT
ATOM      1  C   UNL     1      -3.247  30.574  25.653  1.00  0.00     0.017 C 
ATOM      2  C   UNL     1      -4.238  31.762  25.441  1.00  0.00     0.014 C 
ATOM      3  C   UNL     1      -2.203  30.627  24.493  1.00  0.00     0.014 C 
ATOM      4  C   UNL     1      -2.613  30.626  27.130  1.00  0.00     0.030 C 
ATOM      5  C   UNL     1      -5.333  31.846  26.512  1.00  0.00     0.004 C 
ATOM      6  C   UNL     1      -0.891  31.308  24.866  1.00  0.00     0.013 C 
ATOM      7  C   UNL     1      -1.073  30.570  27.245  1.00  0.00    -0.063 C 
ATOM      8  C   UNL     1      -3.248  31.718  28.065  1.00  0.00    -0.003 C 
ATOM      9  C   UNL     1      -4.803  31.747  27.963  1.00  0.00    -0.011 C 
ATOM     10  C   UNL     1      -0.147  30.591  26.030  1.00  0.00    -0.006 C 
ATOM     11  C   UNL     1      -0.529  30.320  28.458  1.00  0.00    -0.027 C 
ATOM     12  C   UNL     1      -2.625  33.122  27.904  1.00  0.00     0.008 C 
ATOM     13  C   UNL     1      -5.437  30.543  28.690  1.00  0.00     0.008 C 
ATOM     14  C   UNL     1       0.101  29.111  25.613  1.00  0.00     0.017 C 
ATOM     15  C   UNL     1       1.230  31.348  26.408  1.00  0.00    -0.020 C 
ATOM     16  C   UNL     1       0.915  29.953  28.639  1.00  0.00     0.032 C 
ATOM     17  C   UNL     1       1.897  30.767  27.741  1.00  0.00     0.006 C 
ATOM     18  C   UNL     1       2.242  31.313  25.221  1.00  0.00     0.008 C 
ATOM     19  C   UNL     1       0.924  32.865  26.671  1.00  0.00     0.012 C 
ATOM     20  C   UNL     1       3.344  30.107  27.618  1.00  0.00    -0.025 C 
ATOM     21  C   UNL     1       3.639  31.806  25.605  1.00  0.00     0.005 C 
ATOM     22  C   UNL     1       4.328  31.024  26.767  1.00  0.00     0.003 C 
ATOM     23  C   UNL     1       3.909  29.877  29.065  1.00  0.00     0.010 C 
ATOM     24  C   UNL     1       3.302  28.690  26.954  1.00  0.00     0.012 C 
ATOM     25  C   UNL     1       5.338  31.917  27.602  1.00  0.00    -0.006 C 
ATOM     26  C   UNL     1       5.429  29.751  29.111  1.00  0.00     0.033 C 
ATOM     27  C   UNL     1       6.163  31.014  28.607  1.00  0.00     0.120 C 
ATOM     28  C   UNL     1       6.325  32.636  26.636  1.00  0.00     0.014 C 
ATOM     29  C   UNL     1       4.627  33.050  28.398  1.00  0.00     0.014 C 
ENDROOT
BRANCH   1  30
ATOM     30  C   UNL     1      -4.012  29.261  25.451  1.00  0.00     0.048 C 
ATOM     31  O   UNL     1      -4.545  28.669  26.428  1.00  0.00    -0.550 OA
ATOM     32  O   UNL     1      -3.996  28.613  24.219  1.00  0.00    -0.550 OA
ENDBRANCH   1  30
BRANCH  27  33
ATOM     33  O   UNL     1       7.413  30.629  28.084  1.00  0.00    -0.393 OA
ATOM     34  H   UNL     1       7.646  29.748  28.479  1.00  0.00     0.210 HD
ENDBRANCH  27  33
TORSDOF 2
ENDMDL
