MODEL 1
REMARK VINA RESULT:     1.939      0.000      0.000
REMARK INTER + INTRA:           2.555
REMARK INTER:                   2.109
REMARK INTRA:                   0.445
REMARK UNBOUND:                 0.445
REMARK SMILES C[C@H]1[C@@H](C)CC[C@]2(C(=O)[O-])CC[C@]3(C)C(=CC[C@H]4[C@@]5(C)CC[C@@H](O)C(C)(C)[C@H]5CC[C@@]43C)[C@@H]12
REMARK SMILES IDX 7 1 6 2 11 3 33 4 5 5 12 6 15 7 2 8 3 9 13 10 16 11 1 12
REMARK SMILES IDX 4 13 14 14 31 15 17 16 18 17 30 18 32 19 19 20 29 21 28 22
REMARK SMILES IDX 21 23 20 24 25 25 22 26 23 27 26 28 27 29 8 30 9 31 10 32
REMARK SMILES IDX 24 33
REMARK H PARENT 24 34
REMARK Flexibility Score: inf
ROOT
ATOM      1  C   UNL     1       0.204  69.660 163.033  1.00  0.00     0.017 C 
ATOM      2  C   UNL     1       1.243  70.624 162.379  1.00  0.00     0.014 C 
ATOM      3  C   UNL     1      -1.131  69.826 162.263  1.00  0.00     0.014 C 
ATOM      4  C   UNL     1       0.030  70.082 164.535  1.00  0.00     0.030 C 
ATOM      5  C   UNL     1       2.581  70.686 163.130  1.00  0.00     0.004 C 
ATOM      6  C   UNL     1      -2.345  69.170 162.959  1.00  0.00     0.013 C 
ATOM      7  C   UNL     1      -1.209  69.429 165.181  1.00  0.00    -0.063 C 
ATOM      8  C   UNL     1       1.393  70.061 165.320  1.00  0.00    -0.003 C 
ATOM      9  C   UNL     1       2.385  71.036 164.621  1.00  0.00    -0.011 C 
ATOM     10  C   UNL     1      -2.569  69.603 164.448  1.00  0.00    -0.006 C 
ATOM     11  C   UNL     1      -1.107  68.716 166.330  1.00  0.00    -0.027 C 
ATOM     12  C   UNL     1       2.035  68.662 165.537  1.00  0.00     0.008 C 
ATOM     13  C   UNL     1       3.738  71.125 165.341  1.00  0.00     0.008 C 
ATOM     14  C   UNL     1      -2.930  71.125 164.431  1.00  0.00     0.017 C 
ATOM     15  C   UNL     1      -3.760  68.756 165.168  1.00  0.00    -0.020 C 
ATOM     16  C   UNL     1      -2.125  67.712 166.789  1.00  0.00     0.032 C 
ATOM     17  C   UNL     1      -3.161  67.397 165.685  1.00  0.00     0.006 C 
ATOM     18  C   UNL     1      -4.912  68.429 164.183  1.00  0.00     0.008 C 
ATOM     19  C   UNL     1      -4.366  69.602 166.345  1.00  0.00     0.012 C 
ATOM     20  C   UNL     1      -4.121  66.157 166.039  1.00  0.00    -0.025 C 
ATOM     21  C   UNL     1      -5.963  67.499 164.783  1.00  0.00     0.005 C 
ATOM     22  C   UNL     1      -5.384  66.086 165.066  1.00  0.00     0.003 C 
ATOM     23  C   UNL     1      -4.591  66.200 167.534  1.00  0.00     0.010 C 
ATOM     24  C   UNL     1      -3.240  64.866 165.841  1.00  0.00     0.012 C 
ATOM     25  C   UNL     1      -6.515  65.045 165.504  1.00  0.00    -0.006 C 
ATOM     26  C   UNL     1      -5.627  65.136 167.914  1.00  0.00     0.033 C 
ATOM     27  C   UNL     1      -6.871  65.188 167.017  1.00  0.00     0.120 C 
ATOM     28  C   UNL     1      -6.072  63.581 165.211  1.00  0.00     0.014 C 
ATOM     29  C   UNL     1      -7.820  65.224 164.674  1.00  0.00     0.014 C 
ENDROOT
BRANCH   1  30
ATOM     30  C   UNL     1       0.641  68.206 162.870  1.00  0.00     0.048 C 
ATOM     31  O   UNL     1       0.050  67.284 163.493  1.00  0.00    -0.550 OA
ATOM     32  O   UNL     1       1.620  67.863 161.942  1.00  0.00    -0.550 OA
ENDBRANCH   1  30
BRANCH  27  33
ATOM     33  O   UNL     1      -7.568  66.389 167.249  1.00  0.00    -0.393 OA
ATOM     34  H   UNL     1      -6.930  67.019 167.676  1.00  0.00     0.210 HD
ENDBRANCH  27  33
TORSDOF 2
ENDMDL
