MODEL 1
REMARK VINA RESULT:    -8.924      0.000      0.000
REMARK INTER + INTRA:          -9.803
REMARK INTER:                  -9.706
REMARK INTRA:                  -0.097
REMARK UNBOUND:                -0.097
REMARK SMILES C[C@@H]1[C@H](C)CC[C@@]2(C(=O)[O-])CC[C@@]3(C)C(=CC[C@H]4[C@@]5(C)CC[C@H](O)C(C)(C)[C@@H]5CC[C@]43C)[C@@H]12
REMARK SMILES IDX 7 1 6 2 11 3 33 4 5 5 12 6 15 7 2 8 3 9 13 10 16 11 1 12
REMARK SMILES IDX 4 13 14 14 31 15 17 16 18 17 30 18 32 19 19 20 29 21 28 22
REMARK SMILES IDX 21 23 20 24 25 25 22 26 23 27 26 28 27 29 8 30 9 31 10 32
REMARK SMILES IDX 24 33
REMARK H PARENT 24 34
REMARK Flexibility Score: inf
ROOT
ATOM      1  C   UNL     1     136.496 141.950 140.545  1.00  0.00     0.017 C 
ATOM      2  C   UNL     1     136.954 143.420 140.762  1.00  0.00     0.014 C 
ATOM      3  C   UNL     1     137.498 141.202 139.633  1.00  0.00     0.014 C 
ATOM      4  C   UNL     1     136.395 141.190 141.903  1.00  0.00     0.030 C 
ATOM      5  C   UNL     1     138.210 143.556 141.629  1.00  0.00     0.004 C 
ATOM      6  C   UNL     1     137.015 139.787 139.293  1.00  0.00     0.013 C 
ATOM      7  C   UNL     1     136.050 139.706 141.676  1.00  0.00    -0.063 C 
ATOM      8  C   UNL     1     137.668 141.376 142.804  1.00  0.00    -0.003 C 
ATOM      9  C   UNL     1     138.045 142.871 142.994  1.00  0.00    -0.011 C 
ATOM     10  C   UNL     1     136.622 138.874 140.518  1.00  0.00    -0.006 C 
ATOM     11  C   UNL     1     135.302 139.103 142.613  1.00  0.00    -0.027 C 
ATOM     12  C   UNL     1     137.557 140.659 144.164  1.00  0.00     0.008 C 
ATOM     13  C   UNL     1     137.079 143.654 143.906  1.00  0.00     0.008 C 
ATOM     14  C   UNL     1     137.943 138.239 141.049  1.00  0.00     0.017 C 
ATOM     15  C   UNL     1     135.563 137.725 140.085  1.00  0.00    -0.020 C 
ATOM     16  C   UNL     1     134.953 137.647 142.631  1.00  0.00     0.032 C 
ATOM     17  C   UNL     1     135.225 136.798 141.337  1.00  0.00     0.006 C 
ATOM     18  C   UNL     1     134.212 138.339 139.576  1.00  0.00     0.008 C 
ATOM     19  C   UNL     1     136.196 136.902 138.913  1.00  0.00     0.012 C 
ATOM     20  C   UNL     1     134.073 135.704 141.097  1.00  0.00    -0.025 C 
ATOM     21  C   UNL     1     133.083 137.314 139.330  1.00  0.00     0.005 C 
ATOM     22  C   UNL     1     132.781 136.448 140.580  1.00  0.00     0.003 C 
ATOM     23  C   UNL     1     133.735 134.945 142.433  1.00  0.00     0.010 C 
ATOM     24  C   UNL     1     134.586 134.605 140.104  1.00  0.00     0.012 C 
ATOM     25  C   UNL     1     131.465 135.569 140.492  1.00  0.00    -0.006 C 
ATOM     26  C   UNL     1     132.481 134.060 142.349  1.00  0.00     0.033 C 
ATOM     27  C   UNL     1     131.253 134.856 141.871  1.00  0.00     0.120 C 
ATOM     28  C   UNL     1     131.483 134.546 139.326  1.00  0.00     0.014 C 
ATOM     29  C   UNL     1     130.236 136.493 140.261  1.00  0.00     0.014 C 
ENDROOT
BRANCH   1  30
ATOM     30  C   UNL     1     135.134 142.029 139.860  1.00  0.00     0.048 C 
ATOM     31  O   UNL     1     135.059 142.273 138.626  1.00  0.00    -0.550 OA
ATOM     32  O   UNL     1     133.955 141.913 140.588  1.00  0.00    -0.550 OA
ENDBRANCH   1  30
BRANCH  27  33
ATOM     33  O   UNL     1     130.102 134.044 141.873  1.00  0.00    -0.393 OA
ATOM     34  H   UNL     1     129.305 134.635 141.870  1.00  0.00     0.210 HD
ENDBRANCH  27  33
TORSDOF 2
ENDMDL
MODEL 2
REMARK VINA RESULT:    -8.646      3.111      4.565
REMARK INTER + INTRA:          -9.501
REMARK INTER:                  -9.458
REMARK INTRA:                  -0.043
REMARK UNBOUND:                -0.097
REMARK SMILES C[C@@H]1[C@H](C)CC[C@@]2(C(=O)[O-])CC[C@@]3(C)C(=CC[C@H]4[C@@]5(C)CC[C@H](O)C(C)(C)[C@@H]5CC[C@]43C)[C@@H]12
REMARK SMILES IDX 7 1 6 2 11 3 33 4 5 5 12 6 15 7 2 8 3 9 13 10 16 11 1 12
REMARK SMILES IDX 4 13 14 14 31 15 17 16 18 17 30 18 32 19 19 20 29 21 28 22
REMARK SMILES IDX 21 23 20 24 25 25 22 26 23 27 26 28 27 29 8 30 9 31 10 32
REMARK SMILES IDX 24 33
REMARK H PARENT 24 34
REMARK Flexibility Score: inf
ROOT
ATOM      1  C   UNL     1     140.917 138.808 141.472  1.00  0.00     0.017 C 
ATOM      2  C   UNL     1     142.322 139.263 140.986  1.00  0.00     0.014 C 
ATOM      3  C   UNL     1     140.858 138.800 143.018  1.00  0.00     0.014 C 
ATOM      4  C   UNL     1     139.805 139.761 140.936  1.00  0.00     0.030 C 
ATOM      5  C   UNL     1     142.616 140.746 141.241  1.00  0.00     0.004 C 
ATOM      6  C   UNL     1     139.530 138.236 143.537  1.00  0.00     0.013 C 
ATOM      7  C   UNL     1     138.429 139.373 141.509  1.00  0.00    -0.063 C 
ATOM      8  C   UNL     1     140.139 141.279 141.161  1.00  0.00    -0.003 C 
ATOM      9  C   UNL     1     141.547 141.659 140.625  1.00  0.00    -0.011 C 
ATOM     10  C   UNL     1     138.221 138.896 142.955  1.00  0.00    -0.006 C 
ATOM     11  C   UNL     1     137.359 139.580 140.725  1.00  0.00    -0.027 C 
ATOM     12  C   UNL     1     139.061 142.225 140.597  1.00  0.00     0.008 C 
ATOM     13  C   UNL     1     141.649 141.692 139.087  1.00  0.00     0.008 C 
ATOM     14  C   UNL     1     137.947 140.176 143.802  1.00  0.00     0.017 C 
ATOM     15  C   UNL     1     136.961 137.877 143.027  1.00  0.00    -0.020 C 
ATOM     16  C   UNL     1     135.935 139.372 141.137  1.00  0.00     0.032 C 
ATOM     17  C   UNL     1     135.650 138.594 142.471  1.00  0.00     0.006 C 
ATOM     18  C   UNL     1     137.199 136.593 142.157  1.00  0.00     0.008 C 
ATOM     19  C   UNL     1     136.787 137.429 144.517  1.00  0.00     0.012 C 
ATOM     20  C   UNL     1     134.351 137.657 142.342  1.00  0.00    -0.025 C 
ATOM     21  C   UNL     1     135.972 135.667 142.015  1.00  0.00     0.005 C 
ATOM     22  C   UNL     1     134.728 136.405 141.458  1.00  0.00     0.003 C 
ATOM     23  C   UNL     1     133.165 138.435 141.661  1.00  0.00     0.010 C 
ATOM     24  C   UNL     1     133.837 137.265 143.770  1.00  0.00     0.012 C 
ATOM     25  C   UNL     1     133.521 135.471 141.031  1.00  0.00    -0.006 C 
ATOM     26  C   UNL     1     131.973 137.545 141.276  1.00  0.00     0.033 C 
ATOM     27  C   UNL     1     132.406 136.365 140.387  1.00  0.00     0.120 C 
ATOM     28  C   UNL     1     132.956 134.621 142.199  1.00  0.00     0.014 C 
ATOM     29  C   UNL     1     133.996 134.474 139.936  1.00  0.00     0.014 C 
ENDROOT
BRANCH   1  30
ATOM     30  C   UNL     1     140.725 137.390 140.940  1.00  0.00     0.048 C 
ATOM     31  O   UNL     1     139.989 137.184 139.938  1.00  0.00    -0.550 OA
ATOM     32  O   UNL     1     141.286 136.296 141.589  1.00  0.00    -0.550 OA
ENDBRANCH   1  30
BRANCH  27  33
ATOM     33  O   UNL     1     131.289 135.608 139.987  1.00  0.00    -0.393 OA
ATOM     34  H   UNL     1     131.486 134.650 140.154  1.00  0.00     0.210 HD
ENDBRANCH  27  33
TORSDOF 2
ENDMDL
MODEL 3
REMARK VINA RESULT:    -8.551      2.784      4.657
REMARK INTER + INTRA:          -9.398
REMARK INTER:                  -9.301
REMARK INTRA:                  -0.097
REMARK UNBOUND:                -0.097
REMARK SMILES C[C@@H]1[C@H](C)CC[C@@]2(C(=O)[O-])CC[C@@]3(C)C(=CC[C@H]4[C@@]5(C)CC[C@H](O)C(C)(C)[C@@H]5CC[C@]43C)[C@@H]12
REMARK SMILES IDX 7 1 6 2 11 3 33 4 5 5 12 6 15 7 2 8 3 9 13 10 16 11 1 12
REMARK SMILES IDX 4 13 14 14 31 15 17 16 18 17 30 18 32 19 19 20 29 21 28 22
REMARK SMILES IDX 21 23 20 24 25 25 22 26 23 27 26 28 27 29 8 30 9 31 10 32
REMARK SMILES IDX 24 33
REMARK H PARENT 24 34
REMARK Flexibility Score: inf
ROOT
ATOM      1  C   UNL     1     139.875 138.592 142.208  1.00  0.00     0.017 C 
ATOM      2  C   UNL     1     141.420 138.592 142.377  1.00  0.00     0.014 C 
ATOM      3  C   UNL     1     139.337 140.043 142.171  1.00  0.00     0.014 C 
ATOM      4  C   UNL     1     139.456 137.872 140.890  1.00  0.00     0.030 C 
ATOM      5  C   UNL     1     142.179 139.092 141.144  1.00  0.00     0.004 C 
ATOM      6  C   UNL     1     137.805 140.085 142.133  1.00  0.00     0.013 C 
ATOM      7  C   UNL     1     137.935 137.972 140.670  1.00  0.00    -0.063 C 
ATOM      8  C   UNL     1     140.273 138.359 139.641  1.00  0.00    -0.003 C 
ATOM      9  C   UNL     1     141.807 138.304 139.879  1.00  0.00    -0.011 C 
ATOM     10  C   UNL     1     137.115 139.229 141.000  1.00  0.00    -0.006 C 
ATOM     11  C   UNL     1     137.338 136.940 140.053  1.00  0.00    -0.027 C 
ATOM     12  C   UNL     1     139.891 137.622 138.343  1.00  0.00     0.008 C 
ATOM     13  C   UNL     1     142.389 136.876 139.912  1.00  0.00     0.008 C 
ATOM     14  C   UNL     1     137.119 140.103 139.709  1.00  0.00     0.017 C 
ATOM     15  C   UNL     1     135.602 138.812 141.410  1.00  0.00    -0.020 C 
ATOM     16  C   UNL     1     135.896 136.894 139.651  1.00  0.00     0.032 C 
ATOM     17  C   UNL     1     134.926 137.988 140.226  1.00  0.00     0.006 C 
ATOM     18  C   UNL     1     135.574 137.905 142.690  1.00  0.00     0.008 C 
ATOM     19  C   UNL     1     134.809 140.125 141.727  1.00  0.00     0.012 C 
ATOM     20  C   UNL     1     133.474 137.379 140.547  1.00  0.00    -0.025 C 
ATOM     21  C   UNL     1     134.192 137.306 143.032  1.00  0.00     0.005 C 
ATOM     22  C   UNL     1     133.583 136.502 141.856  1.00  0.00     0.003 C 
ATOM     23  C   UNL     1     132.969 136.479 139.360  1.00  0.00     0.010 C 
ATOM     24  C   UNL     1     132.429 138.540 140.674  1.00  0.00     0.012 C 
ATOM     25  C   UNL     1     132.304 135.637 142.216  1.00  0.00    -0.006 C 
ATOM     26  C   UNL     1     131.707 135.663 139.687  1.00  0.00     0.033 C 
ATOM     27  C   UNL     1     131.895 134.807 140.952  1.00  0.00     0.120 C 
ATOM     28  C   UNL     1     131.116 136.484 142.744  1.00  0.00     0.014 C 
ATOM     29  C   UNL     1     132.664 134.619 143.336  1.00  0.00     0.014 C 
ENDROOT
BRANCH   1  30
ATOM     30  C   UNL     1     139.315 137.866 143.429  1.00  0.00     0.048 C 
ATOM     31  O   UNL     1     139.281 138.444 144.549  1.00  0.00    -0.550 OA
ATOM     32  O   UNL     1     138.909 136.538 143.353  1.00  0.00    -0.550 OA
ENDBRANCH   1  30
BRANCH  27  33
ATOM     33  O   UNL     1     130.756 134.014 141.189  1.00  0.00    -0.393 OA
ATOM     34  H   UNL     1     131.047 133.175 141.632  1.00  0.00     0.210 HD
ENDBRANCH  27  33
TORSDOF 2
ENDMDL
MODEL 4
REMARK VINA RESULT:    -8.179      2.864      6.990
REMARK INTER + INTRA:          -8.993
REMARK INTER:                  -8.899
REMARK INTRA:                  -0.095
REMARK UNBOUND:                -0.097
REMARK SMILES C[C@@H]1[C@H](C)CC[C@@]2(C(=O)[O-])CC[C@@]3(C)C(=CC[C@H]4[C@@]5(C)CC[C@H](O)C(C)(C)[C@@H]5CC[C@]43C)[C@@H]12
REMARK SMILES IDX 7 1 6 2 11 3 33 4 5 5 12 6 15 7 2 8 3 9 13 10 16 11 1 12
REMARK SMILES IDX 4 13 14 14 31 15 17 16 18 17 30 18 32 19 19 20 29 21 28 22
REMARK SMILES IDX 21 23 20 24 25 25 22 26 23 27 26 28 27 29 8 30 9 31 10 32
REMARK SMILES IDX 24 33
REMARK H PARENT 24 34
REMARK Flexibility Score: inf
ROOT
ATOM      1  C   UNL     1     131.442 137.057 141.589  1.00  0.00     0.017 C 
ATOM      2  C   UNL     1     129.947 137.137 142.007  1.00  0.00     0.014 C 
ATOM      3  C   UNL     1     131.589 136.276 140.261  1.00  0.00     0.014 C 
ATOM      4  C   UNL     1     132.047 138.482 141.399  1.00  0.00     0.030 C 
ATOM      5  C   UNL     1     129.099 138.042 141.107  1.00  0.00     0.004 C 
ATOM      6  C   UNL     1     133.060 136.066 139.880  1.00  0.00     0.013 C 
ATOM      7  C   UNL     1     133.493 138.398 140.877  1.00  0.00    -0.063 C 
ATOM      8  C   UNL     1     131.146 139.415 140.514  1.00  0.00    -0.003 C 
ATOM      9  C   UNL     1     129.675 139.462 141.012  1.00  0.00    -0.011 C 
ATOM     10  C   UNL     1     133.958 137.362 139.842  1.00  0.00    -0.006 C 
ATOM     11  C   UNL     1     134.343 139.358 141.274  1.00  0.00    -0.027 C 
ATOM     12  C   UNL     1     131.719 140.837 140.356  1.00  0.00     0.008 C 
ATOM     13  C   UNL     1     129.479 140.241 142.328  1.00  0.00     0.008 C 
ATOM     14  C   UNL     1     133.745 138.018 138.443  1.00  0.00     0.017 C 
ATOM     15  C   UNL     1     135.523 137.006 140.079  1.00  0.00    -0.020 C 
ATOM     16  C   UNL     1     135.752 139.515 140.794  1.00  0.00     0.032 C 
ATOM     17  C   UNL     1     136.402 138.332 139.989  1.00  0.00     0.006 C 
ATOM     18  C   UNL     1     135.769 136.373 141.493  1.00  0.00     0.008 C 
ATOM     19  C   UNL     1     135.948 135.957 138.996  1.00  0.00     0.012 C 
ATOM     20  C   UNL     1     137.957 138.157 140.351  1.00  0.00    -0.025 C 
ATOM     21  C   UNL     1     137.255 136.186 141.872  1.00  0.00     0.005 C 
ATOM     22  C   UNL     1     138.063 137.505 141.785  1.00  0.00     0.003 C 
ATOM     23  C   UNL     1     138.691 139.549 140.360  1.00  0.00     0.010 C 
ATOM     24  C   UNL     1     138.667 137.310 139.240  1.00  0.00     0.012 C 
ATOM     25  C   UNL     1     139.517 137.451 142.414  1.00  0.00    -0.006 C 
ATOM     26  C   UNL     1     140.116 139.502 140.934  1.00  0.00     0.033 C 
ATOM     27  C   UNL     1     140.140 138.887 142.345  1.00  0.00     0.120 C 
ATOM     28  C   UNL     1     140.442 136.402 141.743  1.00  0.00     0.014 C 
ATOM     29  C   UNL     1     139.419 137.067 143.919  1.00  0.00     0.014 C 
ENDROOT
BRANCH   1  30
ATOM     30  C   UNL     1     132.155 136.306 142.711  1.00  0.00     0.048 C 
ATOM     31  O   UNL     1     132.058 135.052 142.795  1.00  0.00    -0.550 OA
ATOM     32  O   UNL     1     132.856 136.986 143.700  1.00  0.00    -0.550 OA
ENDBRANCH   1  30
BRANCH  27  33
ATOM     33  O   UNL     1     141.442 138.922 142.880  1.00  0.00    -0.393 OA
ATOM     34  H   UNL     1     141.889 138.062 142.669  1.00  0.00     0.210 HD
ENDBRANCH  27  33
TORSDOF 2
ENDMDL
MODEL 5
REMARK VINA RESULT:    -8.160      3.364      8.019
REMARK INTER + INTRA:          -8.973
REMARK INTER:                  -9.242
REMARK INTRA:                   0.269
REMARK UNBOUND:                -0.097
REMARK SMILES C[C@@H]1[C@H](C)CC[C@@]2(C(=O)[O-])CC[C@@]3(C)C(=CC[C@H]4[C@@]5(C)CC[C@H](O)C(C)(C)[C@@H]5CC[C@]43C)[C@@H]12
REMARK SMILES IDX 7 1 6 2 11 3 33 4 5 5 12 6 15 7 2 8 3 9 13 10 16 11 1 12
REMARK SMILES IDX 4 13 14 14 31 15 17 16 18 17 30 18 32 19 19 20 29 21 28 22
REMARK SMILES IDX 21 23 20 24 25 25 22 26 23 27 26 28 27 29 8 30 9 31 10 32
REMARK SMILES IDX 24 33
REMARK H PARENT 24 34
REMARK Flexibility Score: inf
ROOT
ATOM      1  C   UNL     1     134.882 137.898 142.305  1.00  0.00     0.017 C 
ATOM      2  C   UNL     1     133.330 137.830 142.355  1.00  0.00     0.014 C 
ATOM      3  C   UNL     1     135.494 137.135 143.505  1.00  0.00     0.014 C 
ATOM      4  C   UNL     1     135.428 137.270 140.986  1.00  0.00     0.030 C 
ATOM      5  C   UNL     1     132.760 136.437 142.064  1.00  0.00     0.004 C 
ATOM      6  C   UNL     1     137.018 137.286 143.562  1.00  0.00     0.013 C 
ATOM      7  C   UNL     1     136.967 137.237 140.990  1.00  0.00    -0.063 C 
ATOM      8  C   UNL     1     134.802 135.864 140.674  1.00  0.00    -0.003 C 
ATOM      9  C   UNL     1     133.249 135.885 140.716  1.00  0.00    -0.011 C 
ATOM     10  C   UNL     1     137.801 136.922 142.242  1.00  0.00    -0.006 C 
ATOM     11  C   UNL     1     137.585 137.382 139.807  1.00  0.00    -0.027 C 
ATOM     12  C   UNL     1     135.308 135.257 139.351  1.00  0.00     0.008 C 
ATOM     13  C   UNL     1     132.595 136.625 139.532  1.00  0.00     0.008 C 
ATOM     14  C   UNL     1     138.007 135.377 142.251  1.00  0.00     0.017 C 
ATOM     15  C   UNL     1     139.227 137.693 142.166  1.00  0.00    -0.020 C 
ATOM     16  C   UNL     1     139.061 137.271 139.587  1.00  0.00     0.032 C 
ATOM     17  C   UNL     1     140.005 137.267 140.843  1.00  0.00     0.006 C 
ATOM     18  C   UNL     1     139.046 139.251 142.125  1.00  0.00     0.008 C 
ATOM     19  C   UNL     1     140.039 137.332 143.456  1.00  0.00     0.012 C 
ATOM     20  C   UNL     1     141.371 138.063 140.557  1.00  0.00    -0.025 C 
ATOM     21  C   UNL     1     140.340 140.049 141.856  1.00  0.00     0.005 C 
ATOM     22  C   UNL     1     141.052 139.609 140.552  1.00  0.00     0.003 C 
ATOM     23  C   UNL     1     141.977 137.654 139.164  1.00  0.00     0.010 C 
ATOM     24  C   UNL     1     142.449 137.664 141.622  1.00  0.00     0.012 C 
ATOM     25  C   UNL     1     142.229 140.556 140.070  1.00  0.00    -0.006 C 
ATOM     26  C   UNL     1     143.143 138.543 138.704  1.00  0.00     0.033 C 
ATOM     27  C   UNL     1     142.753 140.032 138.690  1.00  0.00     0.120 C 
ATOM     28  C   UNL     1     143.382 140.680 141.101  1.00  0.00     0.014 C 
ATOM     29  C   UNL     1     141.679 141.992 139.836  1.00  0.00     0.014 C 
ENDROOT
BRANCH   1  30
ATOM     30  C   UNL     1     135.244 139.378 142.396  1.00  0.00     0.048 C 
ATOM     31  O   UNL     1     134.928 140.165 141.463  1.00  0.00    -0.550 OA
ATOM     32  O   UNL     1     135.990 139.872 143.459  1.00  0.00    -0.550 OA
ENDBRANCH   1  30
BRANCH  27  33
ATOM     33  O   UNL     1     143.811 140.819 138.195  1.00  0.00    -0.393 OA
ATOM     34  H   UNL     1     144.596 140.693 138.788  1.00  0.00     0.210 HD
ENDBRANCH  27  33
TORSDOF 2
ENDMDL
MODEL 6
REMARK VINA RESULT:    -8.136      3.033      7.304
REMARK INTER + INTRA:          -8.947
REMARK INTER:                  -8.851
REMARK INTRA:                  -0.096
REMARK UNBOUND:                -0.097
REMARK SMILES C[C@@H]1[C@H](C)CC[C@@]2(C(=O)[O-])CC[C@@]3(C)C(=CC[C@H]4[C@@]5(C)CC[C@H](O)C(C)(C)[C@@H]5CC[C@]43C)[C@@H]12
REMARK SMILES IDX 7 1 6 2 11 3 33 4 5 5 12 6 15 7 2 8 3 9 13 10 16 11 1 12
REMARK SMILES IDX 4 13 14 14 31 15 17 16 18 17 30 18 32 19 19 20 29 21 28 22
REMARK SMILES IDX 21 23 20 24 25 25 22 26 23 27 26 28 27 29 8 30 9 31 10 32
REMARK SMILES IDX 24 33
REMARK H PARENT 24 34
REMARK Flexibility Score: inf
ROOT
ATOM      1  C   UNL     1     133.595 138.396 140.311  1.00  0.00     0.017 C 
ATOM      2  C   UNL     1     132.115 138.274 139.852  1.00  0.00     0.014 C 
ATOM      3  C   UNL     1     133.684 139.196 141.634  1.00  0.00     0.014 C 
ATOM      4  C   UNL     1     134.229 136.990 140.536  1.00  0.00     0.030 C 
ATOM      5  C   UNL     1     131.264 137.358 140.739  1.00  0.00     0.004 C 
ATOM      6  C   UNL     1     135.137 139.448 142.053  1.00  0.00     0.013 C 
ATOM      7  C   UNL     1     135.658 137.116 141.098  1.00  0.00    -0.063 C 
ATOM      8  C   UNL     1     133.327 136.044 141.407  1.00  0.00    -0.003 C 
ATOM      9  C   UNL     1     131.873 135.954 140.868  1.00  0.00    -0.011 C 
ATOM     10  C   UNL     1     136.067 138.175 142.133  1.00  0.00    -0.006 C 
ATOM     11  C   UNL     1     136.542 136.173 140.737  1.00  0.00    -0.027 C 
ATOM     12  C   UNL     1     133.931 134.640 141.599  1.00  0.00     0.008 C 
ATOM     13  C   UNL     1     131.734 135.155 139.556  1.00  0.00     0.008 C 
ATOM     14  C   UNL     1     135.830 137.531 143.533  1.00  0.00     0.017 C 
ATOM     15  C   UNL     1     137.628 138.569 141.937  1.00  0.00    -0.020 C 
ATOM     16  C   UNL     1     137.940 136.058 141.260  1.00  0.00     0.032 C 
ATOM     17  C   UNL     1     138.537 137.266 142.067  1.00  0.00     0.006 C 
ATOM     18  C   UNL     1     137.899 139.191 140.522  1.00  0.00     0.008 C 
ATOM     19  C   UNL     1     137.996 139.640 143.018  1.00  0.00     0.012 C 
ATOM     20  C   UNL     1     140.098 137.476 141.747  1.00  0.00    -0.025 C 
ATOM     21  C   UNL     1     139.390 139.411 140.183  1.00  0.00     0.005 C 
ATOM     22  C   UNL     1     140.228 138.114 140.310  1.00  0.00     0.003 C 
ATOM     23  C   UNL     1     140.865 136.103 141.777  1.00  0.00     0.010 C 
ATOM     24  C   UNL     1     140.754 138.354 142.868  1.00  0.00     0.012 C 
ATOM     25  C   UNL     1     141.698 138.198 139.721  1.00  0.00    -0.006 C 
ATOM     26  C   UNL     1     142.304 136.180 141.243  1.00  0.00     0.033 C 
ATOM     27  C   UNL     1     142.354 136.779 139.826  1.00  0.00     0.120 C 
ATOM     28  C   UNL     1     142.576 139.277 140.406  1.00  0.00     0.014 C 
ATOM     29  C   UNL     1     141.633 138.561 138.210  1.00  0.00     0.014 C 
ENDROOT
BRANCH   1  30
ATOM     30  C   UNL     1     134.321 139.152 139.201  1.00  0.00     0.048 C 
ATOM     31  O   UNL     1     134.156 140.395 139.068  1.00  0.00    -0.550 OA
ATOM     32  O   UNL     1     135.111 138.483 138.273  1.00  0.00    -0.550 OA
ENDBRANCH   1  30
BRANCH  27  33
ATOM     33  O   UNL     1     143.672 136.770 139.328  1.00  0.00    -0.393 OA
ATOM     34  H   UNL     1     144.248 136.296 139.983  1.00  0.00     0.210 HD
ENDBRANCH  27  33
TORSDOF 2
ENDMDL
MODEL 7
REMARK VINA RESULT:    -8.090      2.219      3.205
REMARK INTER + INTRA:          -8.897
REMARK INTER:                  -8.867
REMARK INTRA:                  -0.030
REMARK UNBOUND:                -0.097
REMARK SMILES C[C@@H]1[C@H](C)CC[C@@]2(C(=O)[O-])CC[C@@]3(C)C(=CC[C@H]4[C@@]5(C)CC[C@H](O)C(C)(C)[C@@H]5CC[C@]43C)[C@@H]12
REMARK SMILES IDX 7 1 6 2 11 3 33 4 5 5 12 6 15 7 2 8 3 9 13 10 16 11 1 12
REMARK SMILES IDX 4 13 14 14 31 15 17 16 18 17 30 18 32 19 19 20 29 21 28 22
REMARK SMILES IDX 21 23 20 24 25 25 22 26 23 27 26 28 27 29 8 30 9 31 10 32
REMARK SMILES IDX 24 33
REMARK H PARENT 24 34
REMARK Flexibility Score: inf
ROOT
ATOM      1  C   UNL     1     138.559 138.640 139.901  1.00  0.00     0.017 C 
ATOM      2  C   UNL     1     139.789 139.406 139.340  1.00  0.00     0.014 C 
ATOM      3  C   UNL     1     138.984 137.248 140.426  1.00  0.00     0.014 C 
ATOM      4  C   UNL     1     137.893 139.430 141.069  1.00  0.00     0.030 C 
ATOM      5  C   UNL     1     140.785 139.854 140.417  1.00  0.00     0.004 C 
ATOM      6  C   UNL     1     137.779 136.411 140.871  1.00  0.00     0.013 C 
ATOM      7  C   UNL     1     136.744 138.617 141.695  1.00  0.00    -0.063 C 
ATOM      8  C   UNL     1     138.928 139.924 142.142  1.00  0.00    -0.003 C 
ATOM      9  C   UNL     1     140.112 140.703 141.505  1.00  0.00    -0.011 C 
ATOM     10  C   UNL     1     136.802 137.096 141.903  1.00  0.00    -0.006 C 
ATOM     11  C   UNL     1     135.700 139.308 142.179  1.00  0.00    -0.027 C 
ATOM     12  C   UNL     1     138.279 140.740 143.277  1.00  0.00     0.008 C 
ATOM     13  C   UNL     1     139.736 142.103 140.979  1.00  0.00     0.008 C 
ATOM     14  C   UNL     1     137.413 136.872 143.320  1.00  0.00     0.017 C 
ATOM     15  C   UNL     1     135.310 136.467 141.813  1.00  0.00    -0.020 C 
ATOM     16  C   UNL     1     134.542 138.713 142.919  1.00  0.00     0.032 C 
ATOM     17  C   UNL     1     134.365 137.153 142.899  1.00  0.00     0.006 C 
ATOM     18  C   UNL     1     134.659 136.706 140.406  1.00  0.00     0.008 C 
ATOM     19  C   UNL     1     135.423 134.921 142.040  1.00  0.00     0.012 C 
ATOM     20  C   UNL     1     132.815 136.736 142.829  1.00  0.00    -0.025 C 
ATOM     21  C   UNL     1     133.170 136.312 140.301  1.00  0.00     0.005 C 
ATOM     22  C   UNL     1     132.291 137.015 141.366  1.00  0.00     0.003 C 
ATOM     23  C   UNL     1     131.964 137.572 143.854  1.00  0.00     0.010 C 
ATOM     24  C   UNL     1     132.650 135.238 143.263  1.00  0.00     0.012 C 
ATOM     25  C   UNL     1     130.726 136.874 141.154  1.00  0.00    -0.006 C 
ATOM     26  C   UNL     1     130.444 137.414 143.681  1.00  0.00     0.033 C 
ATOM     27  C   UNL     1     129.999 137.735 142.242  1.00  0.00     0.120 C 
ATOM     28  C   UNL     1     130.231 135.404 141.174  1.00  0.00     0.014 C 
ATOM     29  C   UNL     1     130.334 137.462 139.768  1.00  0.00     0.014 C 
ENDROOT
BRANCH   1  30
ATOM     30  C   UNL     1     137.593 138.477 138.731  1.00  0.00     0.048 C 
ATOM     31  O   UNL     1     136.661 139.309 138.558  1.00  0.00    -0.550 OA
ATOM     32  O   UNL     1     137.667 137.377 137.884  1.00  0.00    -0.550 OA
ENDBRANCH   1  30
BRANCH  27  33
ATOM     33  O   UNL     1     128.597 137.656 142.127  1.00  0.00    -0.393 OA
ATOM     34  H   UNL     1     128.380 137.255 141.245  1.00  0.00     0.210 HD
ENDBRANCH  27  33
TORSDOF 2
ENDMDL
MODEL 8
REMARK VINA RESULT:    -8.087      2.802      3.833
REMARK INTER + INTRA:          -8.894
REMARK INTER:                  -8.806
REMARK INTRA:                  -0.087
REMARK UNBOUND:                -0.097
REMARK SMILES C[C@@H]1[C@H](C)CC[C@@]2(C(=O)[O-])CC[C@@]3(C)C(=CC[C@H]4[C@@]5(C)CC[C@H](O)C(C)(C)[C@@H]5CC[C@]43C)[C@@H]12
REMARK SMILES IDX 7 1 6 2 11 3 33 4 5 5 12 6 15 7 2 8 3 9 13 10 16 11 1 12
REMARK SMILES IDX 4 13 14 14 31 15 17 16 18 17 30 18 32 19 19 20 29 21 28 22
REMARK SMILES IDX 21 23 20 24 25 25 22 26 23 27 26 28 27 29 8 30 9 31 10 32
REMARK SMILES IDX 24 33
REMARK H PARENT 24 34
REMARK Flexibility Score: inf
ROOT
ATOM      1  C   UNL     1     140.278 140.582 140.519  1.00  0.00     0.017 C 
ATOM      2  C   UNL     1     141.605 141.306 140.879  1.00  0.00     0.014 C 
ATOM      3  C   UNL     1     140.009 140.671 138.998  1.00  0.00     0.014 C 
ATOM      4  C   UNL     1     140.333 139.077 140.927  1.00  0.00     0.030 C 
ATOM      5  C   UNL     1     142.861 140.586 140.375  1.00  0.00     0.004 C 
ATOM      6  C   UNL     1     138.646 140.078 138.621  1.00  0.00     0.013 C 
ATOM      7  C   UNL     1     139.062 138.338 140.470  1.00  0.00    -0.063 C 
ATOM      8  C   UNL     1     141.646 138.362 140.447  1.00  0.00    -0.003 C 
ATOM      9  C   UNL     1     142.927 139.133 140.867  1.00  0.00    -0.011 C 
ATOM     10  C   UNL     1     138.363 138.612 139.129  1.00  0.00    -0.006 C 
ATOM     11  C   UNL     1     138.629 137.331 141.244  1.00  0.00    -0.027 C 
ATOM     12  C   UNL     1     141.724 136.886 140.882  1.00  0.00     0.008 C 
ATOM     13  C   UNL     1     143.241 139.061 142.376  1.00  0.00     0.008 C 
ATOM     14  C   UNL     1     139.011 137.643 138.094  1.00  0.00     0.017 C 
ATOM     15  C   UNL     1     136.772 138.328 139.266  1.00  0.00    -0.020 C 
ATOM     16  C   UNL     1     137.483 136.424 140.917  1.00  0.00     0.032 C 
ATOM     17  C   UNL     1     136.526 136.826 139.738  1.00  0.00     0.006 C 
ATOM     18  C   UNL     1     136.101 139.271 140.326  1.00  0.00     0.008 C 
ATOM     19  C   UNL     1     136.110 138.612 137.875  1.00  0.00     0.012 C 
ATOM     20  C   UNL     1     134.999 136.444 140.061  1.00  0.00    -0.025 C 
ATOM     21  C   UNL     1     134.630 138.934 140.657  1.00  0.00     0.005 C 
ATOM     22  C   UNL     1     134.445 137.469 141.126  1.00  0.00     0.003 C 
ATOM     23  C   UNL     1     134.898 134.986 140.643  1.00  0.00     0.010 C 
ATOM     24  C   UNL     1     134.166 136.429 138.733  1.00  0.00     0.012 C 
ATOM     25  C   UNL     1     133.023 137.128 141.738  1.00  0.00    -0.006 C 
ATOM     26  C   UNL     1     133.513 134.632 141.207  1.00  0.00     0.033 C 
ATOM     27  C   UNL     1     133.050 135.652 142.262  1.00  0.00     0.120 C 
ATOM     28  C   UNL     1     131.853 137.352 140.743  1.00  0.00     0.014 C 
ATOM     29  C   UNL     1     132.752 138.045 142.965  1.00  0.00     0.014 C 
ENDROOT
BRANCH   1  30
ATOM     30  C   UNL     1     139.176 141.314 141.282  1.00  0.00     0.048 C 
ATOM     31  O   UNL     1     138.694 142.385 140.824  1.00  0.00    -0.550 OA
ATOM     32  O   UNL     1     138.739 140.865 142.523  1.00  0.00    -0.550 OA
ENDBRANCH   1  30
BRANCH  27  33
ATOM     33  O   UNL     1     131.814 135.267 142.817  1.00  0.00    -0.393 OA
ATOM     34  H   UNL     1     131.454 136.033 143.336  1.00  0.00     0.210 HD
ENDBRANCH  27  33
TORSDOF 2
ENDMDL
MODEL 9
REMARK VINA RESULT:    -8.038      2.848      4.061
REMARK INTER + INTRA:          -8.840
REMARK INTER:                  -8.744
REMARK INTRA:                  -0.097
REMARK UNBOUND:                -0.097
REMARK SMILES C[C@@H]1[C@H](C)CC[C@@]2(C(=O)[O-])CC[C@@]3(C)C(=CC[C@H]4[C@@]5(C)CC[C@H](O)C(C)(C)[C@@H]5CC[C@]43C)[C@@H]12
REMARK SMILES IDX 7 1 6 2 11 3 33 4 5 5 12 6 15 7 2 8 3 9 13 10 16 11 1 12
REMARK SMILES IDX 4 13 14 14 31 15 17 16 18 17 30 18 32 19 19 20 29 21 28 22
REMARK SMILES IDX 21 23 20 24 25 25 22 26 23 27 26 28 27 29 8 30 9 31 10 32
REMARK SMILES IDX 24 33
REMARK H PARENT 24 34
REMARK Flexibility Score: inf
ROOT
ATOM      1  C   UNL     1     137.541 138.124 139.757  1.00  0.00     0.017 C 
ATOM      2  C   UNL     1     138.986 138.531 139.354  1.00  0.00     0.014 C 
ATOM      3  C   UNL     1     137.138 136.804 139.057  1.00  0.00     0.014 C 
ATOM      4  C   UNL     1     137.425 137.924 141.299  1.00  0.00     0.030 C 
ATOM      5  C   UNL     1     140.072 137.617 139.932  1.00  0.00     0.004 C 
ATOM      6  C   UNL     1     135.675 136.435 139.328  1.00  0.00     0.013 C 
ATOM      7  C   UNL     1     136.024 137.413 141.682  1.00  0.00    -0.063 C 
ATOM      8  C   UNL     1     138.570 137.024 141.887  1.00  0.00    -0.003 C 
ATOM      9  C   UNL     1     139.983 137.512 141.462  1.00  0.00    -0.011 C 
ATOM     10  C   UNL     1     135.241 136.391 140.844  1.00  0.00    -0.006 C 
ATOM     11  C   UNL     1     135.533 137.807 142.867  1.00  0.00    -0.027 C 
ATOM     12  C   UNL     1     138.483 136.857 143.417  1.00  0.00     0.008 C 
ATOM     13  C   UNL     1     140.431 138.820 142.145  1.00  0.00     0.008 C 
ATOM     14  C   UNL     1     135.640 134.985 141.387  1.00  0.00     0.017 C 
ATOM     15  C   UNL     1     133.647 136.642 141.012  1.00  0.00    -0.020 C 
ATOM     16  C   UNL     1     134.244 137.335 143.466  1.00  0.00     0.032 C 
ATOM     17  C   UNL     1     133.241 136.546 142.550  1.00  0.00     0.006 C 
ATOM     18  C   UNL     1     133.224 138.064 140.501  1.00  0.00     0.008 C 
ATOM     19  C   UNL     1     132.897 135.572 140.149  1.00  0.00     0.012 C 
ATOM     20  C   UNL     1     131.715 136.920 142.887  1.00  0.00    -0.025 C 
ATOM     21  C   UNL     1     131.761 138.455 140.805  1.00  0.00     0.005 C 
ATOM     22  C   UNL     1     131.419 138.360 142.313  1.00  0.00     0.003 C 
ATOM     23  C   UNL     1     131.469 136.921 144.441  1.00  0.00     0.010 C 
ATOM     24  C   UNL     1     130.760 135.821 142.307  1.00  0.00     0.012 C 
ATOM     25  C   UNL     1     130.031 139.000 142.734  1.00  0.00    -0.006 C 
ATOM     26  C   UNL     1     130.110 137.505 144.859  1.00  0.00     0.033 C 
ATOM     27  C   UNL     1     129.902 138.922 144.294  1.00  0.00     0.120 C 
ATOM     28  C   UNL     1     128.812 138.345 142.034  1.00  0.00     0.014 C 
ATOM     29  C   UNL     1     130.015 140.508 142.349  1.00  0.00     0.014 C 
ENDROOT
BRANCH   1  30
ATOM     30  C   UNL     1     136.635 139.257 139.283  1.00  0.00     0.048 C 
ATOM     31  O   UNL     1     136.366 139.382 138.058  1.00  0.00    -0.550 OA
ATOM     32  O   UNL     1     136.155 140.213 140.170  1.00  0.00    -0.550 OA
ENDBRANCH   1  30
BRANCH  27  33
ATOM     33  O   UNL     1     128.686 139.466 144.750  1.00  0.00    -0.393 OA
ATOM     34  H   UNL     1     128.617 139.299 145.726  1.00  0.00     0.210 HD
ENDBRANCH  27  33
TORSDOF 2
ENDMDL
