MODEL 1
REMARK VINA RESULT:    -8.707      0.000      0.000
REMARK INTER + INTRA:         -10.456
REMARK INTER:                 -10.235
REMARK INTRA:                  -0.222
REMARK UNBOUND:                -0.222
REMARK SMILES O=c1c(O)c(-c2ccc(O)cc2)oc2cc(O)cc(O)c12
REMARK SMILES IDX 5 1 3 2 2 3 1 4 21 5 19 6 18 7 16 8 15 9 14 10 13 11 6 12
REMARK SMILES IDX 7 13 8 14 9 15 12 16 11 17 10 18 4 20 20 22 17 24
REMARK H PARENT 10 19 4 21 20 23 17 25
REMARK Flexibility Score: inf
ROOT
ATOM      1  C   UNL     1      10.066 -46.123  35.733  1.00  0.00     0.180 A 
ATOM      2  C   UNL     1       9.218 -46.423  36.816  1.00  0.00     0.208 A 
ATOM      3  C   UNL     1       9.790 -46.768  38.050  1.00  0.00     0.238 A 
ATOM      4  O   UNL     1       9.040 -47.049  39.025  1.00  0.00    -0.285 OA
ATOM      5  C   UNL     1      11.194 -46.788  38.187  1.00  0.00     0.111 A 
ATOM      6  C   UNL     1      11.850 -47.122  39.397  1.00  0.00     0.134 A 
ATOM      7  C   UNL     1      13.251 -47.111  39.454  1.00  0.00     0.093 A 
ATOM      8  C   UNL     1      14.008 -46.772  38.326  1.00  0.00     0.123 A 
ATOM      9  C   UNL     1      13.365 -46.443  37.132  1.00  0.00     0.094 A 
ATOM     10  C   UNL     1      11.970 -46.450  37.053  1.00  0.00     0.146 A 
ATOM     11  O   UNL     1      11.384 -46.138  35.903  1.00  0.00    -0.452 OA
ENDROOT
BRANCH   1  12
ATOM     12  C   UNL     1       9.539 -45.768  34.396  1.00  0.00     0.021 A 
ATOM     13  C   UNL     1       9.539 -44.437  33.936  1.00  0.00     0.016 A 
ATOM     14  C   UNL     1       9.014 -44.124  32.679  1.00  0.00     0.047 A 
ATOM     15  C   UNL     1       8.472 -45.128  31.872  1.00  0.00     0.115 A 
ATOM     16  C   UNL     1       8.974 -46.768  33.588  1.00  0.00     0.016 A 
ATOM     17  C   UNL     1       8.450 -46.452  32.330  1.00  0.00     0.047 A 
BRANCH  15  18
ATOM     18  O   UNL     1       7.953 -44.801  30.621  1.00  0.00    -0.508 OA
ATOM     19  H   UNL     1       7.194 -44.137  30.520  1.00  0.00     0.293 HD
ENDBRANCH  15  18
ENDBRANCH   1  12
BRANCH   2  20
ATOM     20  O   UNL     1       7.831 -46.347  36.669  1.00  0.00    -0.502 OA
ATOM     21  H   UNL     1       7.346 -45.466  36.535  1.00  0.00     0.293 HD
ENDBRANCH   2  20
BRANCH   6  22
ATOM     22  O   UNL     1      11.122 -47.463  40.538  1.00  0.00    -0.507 OA
ATOM     23  H   UNL     1      11.579 -47.703  41.409  1.00  0.00     0.293 HD
ENDBRANCH   6  22
BRANCH   8  24
ATOM     24  O   UNL     1      15.400 -46.759  38.383  1.00  0.00    -0.508 OA
ATOM     25  H   UNL     1      15.958 -47.423  37.859  1.00  0.00     0.293 HD
ENDBRANCH   8  24
TORSDOF 5
ENDMDL
MODEL 2
REMARK VINA RESULT:    -8.125      2.259      4.365
REMARK INTER + INTRA:          -9.772
REMARK INTER:                  -9.788
REMARK INTRA:                   0.017
REMARK UNBOUND:                -0.222
REMARK SMILES O=c1c(O)c(-c2ccc(O)cc2)oc2cc(O)cc(O)c12
REMARK SMILES IDX 5 1 3 2 2 3 1 4 21 5 19 6 18 7 16 8 15 9 14 10 13 11 6 12
REMARK SMILES IDX 7 13 8 14 9 15 12 16 11 17 10 18 4 20 20 22 17 24
REMARK H PARENT 10 19 4 21 20 23 17 25
REMARK Flexibility Score: inf
ROOT
ATOM      1  C   UNL     1       7.829 -45.816  33.397  1.00  0.00     0.180 A 
ATOM      2  C   UNL     1       9.114 -45.336  33.079  1.00  0.00     0.208 A 
ATOM      3  C   UNL     1      10.142 -45.474  34.024  1.00  0.00     0.238 A 
ATOM      4  O   UNL     1      11.295 -45.037  33.755  1.00  0.00    -0.285 OA
ATOM      5  C   UNL     1       9.876 -46.104  35.257  1.00  0.00     0.111 A 
ATOM      6  C   UNL     1      10.857 -46.286  36.262  1.00  0.00     0.134 A 
ATOM      7  C   UNL     1      10.515 -46.931  37.459  1.00  0.00     0.093 A 
ATOM      8  C   UNL     1       9.213 -47.398  37.671  1.00  0.00     0.123 A 
ATOM      9  C   UNL     1       8.243 -47.220  36.683  1.00  0.00     0.094 A 
ATOM     10  C   UNL     1       8.563 -46.578  35.484  1.00  0.00     0.146 A 
ATOM     11  O   UNL     1       7.619 -46.418  34.563  1.00  0.00    -0.452 OA
ENDROOT
BRANCH   1  12
ATOM     12  C   UNL     1       6.689 -45.691  32.461  1.00  0.00     0.021 A 
ATOM     13  C   UNL     1       6.375 -44.464  31.846  1.00  0.00     0.016 A 
ATOM     14  C   UNL     1       5.279 -44.365  30.985  1.00  0.00     0.047 A 
ATOM     15  C   UNL     1       4.474 -45.482  30.737  1.00  0.00     0.115 A 
ATOM     16  C   UNL     1       5.863 -46.803  32.224  1.00  0.00     0.016 A 
ATOM     17  C   UNL     1       4.768 -46.701  31.361  1.00  0.00     0.047 A 
BRANCH  15  18
ATOM     18  O   UNL     1       3.386 -45.368  29.876  1.00  0.00    -0.508 OA
ATOM     19  H   UNL     1       3.364 -44.673  29.138  1.00  0.00     0.293 HD
ENDBRANCH  15  18
ENDBRANCH   1  12
BRANCH   2  20
ATOM     20  O   UNL     1       9.364 -44.760  31.831  1.00  0.00    -0.502 OA
ATOM     21  H   UNL     1      10.270 -44.814  31.380  1.00  0.00     0.293 HD
ENDBRANCH   2  20
BRANCH   6  22
ATOM     22  O   UNL     1      12.165 -45.832  36.080  1.00  0.00    -0.507 OA
ATOM     23  H   UNL     1      12.957 -46.462  36.114  1.00  0.00     0.293 HD
ENDBRANCH   6  22
BRANCH   8  24
ATOM     24  O   UNL     1       8.873 -48.041  38.859  1.00  0.00    -0.508 OA
ATOM     25  H   UNL     1       7.912 -48.095  39.176  1.00  0.00     0.293 HD
ENDBRANCH   8  24
TORSDOF 5
ENDMDL
MODEL 3
REMARK VINA RESULT:    -8.090      3.983      5.586
REMARK INTER + INTRA:          -9.731
REMARK INTER:                  -9.485
REMARK INTRA:                  -0.245
REMARK UNBOUND:                -0.222
REMARK SMILES O=c1c(O)c(-c2ccc(O)cc2)oc2cc(O)cc(O)c12
REMARK SMILES IDX 5 1 3 2 2 3 1 4 21 5 19 6 18 7 16 8 15 9 14 10 13 11 6 12
REMARK SMILES IDX 7 13 8 14 9 15 12 16 11 17 10 18 4 20 20 22 17 24
REMARK H PARENT 10 19 4 21 20 23 17 25
REMARK Flexibility Score: inf
ROOT
ATOM      1  C   UNL     1       7.406 -48.822  36.002  1.00  0.00     0.180 A 
ATOM      2  C   UNL     1       7.893 -48.300  34.789  1.00  0.00     0.208 A 
ATOM      3  C   UNL     1       8.971 -47.402  34.820  1.00  0.00     0.238 A 
ATOM      4  O   UNL     1       9.408 -46.920  33.739  1.00  0.00    -0.285 OA
ATOM      5  C   UNL     1       9.555 -47.057  36.056  1.00  0.00     0.111 A 
ATOM      6  C   UNL     1      10.646 -46.162  36.175  1.00  0.00     0.134 A 
ATOM      7  C   UNL     1      11.177 -45.877  37.441  1.00  0.00     0.093 A 
ATOM      8  C   UNL     1      10.639 -46.468  38.589  1.00  0.00     0.123 A 
ATOM      9  C   UNL     1       9.563 -47.350  38.477  1.00  0.00     0.094 A 
ATOM     10  C   UNL     1       9.018 -47.647  37.225  1.00  0.00     0.146 A 
ATOM     11  O   UNL     1       7.991 -48.485  37.148  1.00  0.00    -0.452 OA
ENDROOT
BRANCH   1  12
ATOM     12  C   UNL     1       6.262 -49.759  36.053  1.00  0.00     0.021 A 
ATOM     13  C   UNL     1       4.983 -49.335  36.463  1.00  0.00     0.016 A 
ATOM     14  C   UNL     1       3.923 -50.244  36.527  1.00  0.00     0.047 A 
ATOM     15  C   UNL     1       4.127 -51.587  36.196  1.00  0.00     0.115 A 
ATOM     16  C   UNL     1       6.463 -51.115  35.744  1.00  0.00     0.016 A 
ATOM     17  C   UNL     1       5.400 -52.022  35.807  1.00  0.00     0.047 A 
BRANCH  15  18
ATOM     18  O   UNL     1       3.061 -52.481  36.263  1.00  0.00    -0.508 OA
ATOM     19  H   UNL     1       2.546 -52.629  37.124  1.00  0.00     0.293 HD
ENDBRANCH  15  18
ENDBRANCH   1  12
BRANCH   2  20
ATOM     20  O   UNL     1       7.329 -48.696  33.573  1.00  0.00    -0.502 OA
ATOM     21  H   UNL     1       7.133 -48.040  32.826  1.00  0.00     0.293 HD
ENDBRANCH   2  20
BRANCH   6  22
ATOM     22  O   UNL     1      11.205 -45.557  35.047  1.00  0.00    -0.507 OA
ATOM     23  H   UNL     1      10.648 -45.003  34.409  1.00  0.00     0.293 HD
ENDBRANCH   6  22
BRANCH   8  24
ATOM     24  O   UNL     1      11.167 -46.186  39.847  1.00  0.00    -0.508 OA
ATOM     25  H   UNL     1      12.165 -46.077  39.990  1.00  0.00     0.293 HD
ENDBRANCH   8  24
TORSDOF 5
ENDMDL
MODEL 4
REMARK VINA RESULT:    -7.918      2.807      5.164
REMARK INTER + INTRA:          -9.528
REMARK INTER:                  -9.247
REMARK INTRA:                  -0.281
REMARK UNBOUND:                -0.222
REMARK SMILES O=c1c(O)c(-c2ccc(O)cc2)oc2cc(O)cc(O)c12
REMARK SMILES IDX 5 1 3 2 2 3 1 4 21 5 19 6 18 7 16 8 15 9 14 10 13 11 6 12
REMARK SMILES IDX 7 13 8 14 9 15 12 16 11 17 10 18 4 20 20 22 17 24
REMARK H PARENT 10 19 4 21 20 23 17 25
REMARK Flexibility Score: inf
ROOT
ATOM      1  C   UNL     1       8.533 -47.313  37.999  1.00  0.00     0.180 A 
ATOM      2  C   UNL     1       8.643 -46.723  36.725  1.00  0.00     0.208 A 
ATOM      3  C   UNL     1       9.908 -46.322  36.270  1.00  0.00     0.238 A 
ATOM      4  O   UNL     1      10.016 -45.782  35.135  1.00  0.00    -0.285 OA
ATOM      5  C   UNL     1      11.041 -46.535  37.082  1.00  0.00     0.111 A 
ATOM      6  C   UNL     1      12.352 -46.163  36.696  1.00  0.00     0.134 A 
ATOM      7  C   UNL     1      13.428 -46.417  37.558  1.00  0.00     0.093 A 
ATOM      8  C   UNL     1      13.220 -47.034  38.797  1.00  0.00     0.123 A 
ATOM      9  C   UNL     1      11.929 -47.401  39.181  1.00  0.00     0.094 A 
ATOM     10  C   UNL     1      10.843 -47.156  38.338  1.00  0.00     0.146 A 
ATOM     11  O   UNL     1       9.624 -47.511  38.731  1.00  0.00    -0.452 OA
ENDROOT
BRANCH   1  12
ATOM     12  C   UNL     1       7.231 -47.745  38.557  1.00  0.00     0.021 A 
ATOM     13  C   UNL     1       6.506 -46.927  39.445  1.00  0.00     0.016 A 
ATOM     14  C   UNL     1       5.291 -47.367  39.978  1.00  0.00     0.047 A 
ATOM     15  C   UNL     1       4.791 -48.630  39.645  1.00  0.00     0.115 A 
ATOM     16  C   UNL     1       6.733 -49.020  38.244  1.00  0.00     0.016 A 
ATOM     17  C   UNL     1       5.517 -49.457  38.778  1.00  0.00     0.047 A 
BRANCH  15  18
ATOM     18  O   UNL     1       3.579 -49.054  40.183  1.00  0.00    -0.508 OA
ATOM     19  H   UNL     1       3.521 -49.872  40.779  1.00  0.00     0.293 HD
ENDBRANCH  15  18
ENDBRANCH   1  12
BRANCH   2  20
ATOM     20  O   UNL     1       7.511 -46.569  35.919  1.00  0.00    -0.502 OA
ATOM     21  H   UNL     1       7.351 -45.737  35.362  1.00  0.00     0.293 HD
ENDBRANCH   2  20
BRANCH   6  22
ATOM     22  O   UNL     1      12.591 -45.547  35.467  1.00  0.00    -0.507 OA
ATOM     23  H   UNL     1      13.389 -44.940  35.321  1.00  0.00     0.293 HD
ENDBRANCH   6  22
BRANCH   8  24
ATOM     24  O   UNL     1      14.290 -47.288  39.653  1.00  0.00    -0.508 OA
ATOM     25  H   UNL     1      15.153 -46.759  39.593  1.00  0.00     0.293 HD
ENDBRANCH   8  24
TORSDOF 5
ENDMDL
MODEL 5
REMARK VINA RESULT:    -7.832      4.205      8.154
REMARK INTER + INTRA:          -9.428
REMARK INTER:                  -9.187
REMARK INTRA:                  -0.241
REMARK UNBOUND:                -0.222
REMARK SMILES O=c1c(O)c(-c2ccc(O)cc2)oc2cc(O)cc(O)c12
REMARK SMILES IDX 5 1 3 2 2 3 1 4 21 5 19 6 18 7 16 8 15 9 14 10 13 11 6 12
REMARK SMILES IDX 7 13 8 14 9 15 12 16 11 17 10 18 4 20 20 22 17 24
REMARK H PARENT 10 19 4 21 20 23 17 25
REMARK Flexibility Score: inf
ROOT
ATOM      1  C   UNL     1       7.119 -47.948  34.493  1.00  0.00     0.180 A 
ATOM      2  C   UNL     1       8.375 -47.431  34.123  1.00  0.00     0.208 A 
ATOM      3  C   UNL     1       8.461 -46.601  32.994  1.00  0.00     0.238 A 
ATOM      4  O   UNL     1       9.583 -46.142  32.646  1.00  0.00    -0.285 OA
ATOM      5  C   UNL     1       7.293 -46.287  32.269  1.00  0.00     0.111 A 
ATOM      6  C   UNL     1       7.293 -45.457  31.122  1.00  0.00     0.134 A 
ATOM      7  C   UNL     1       6.087 -45.185  30.461  1.00  0.00     0.093 A 
ATOM      8  C   UNL     1       4.882 -45.726  30.923  1.00  0.00     0.123 A 
ATOM      9  C   UNL     1       4.878 -46.546  32.053  1.00  0.00     0.094 A 
ATOM     10  C   UNL     1       6.069 -46.831  32.725  1.00  0.00     0.146 A 
ATOM     11  O   UNL     1       6.037 -47.619  33.795  1.00  0.00    -0.452 OA
ENDROOT
BRANCH   1  12
ATOM     12  C   UNL     1       6.949 -48.844  35.660  1.00  0.00     0.021 A 
ATOM     13  C   UNL     1       6.739 -50.226  35.498  1.00  0.00     0.016 A 
ATOM     14  C   UNL     1       6.557 -51.049  36.614  1.00  0.00     0.047 A 
ATOM     15  C   UNL     1       6.569 -50.503  37.901  1.00  0.00     0.115 A 
ATOM     16  C   UNL     1       6.939 -48.299  36.955  1.00  0.00     0.016 A 
ATOM     17  C   UNL     1       6.758 -49.124  38.069  1.00  0.00     0.047 A 
BRANCH  15  18
ATOM     18  O   UNL     1       6.388 -51.334  39.003  1.00  0.00    -0.508 OA
ATOM     19  H   UNL     1       6.500 -50.991  39.950  1.00  0.00     0.293 HD
ENDBRANCH  15  18
ENDBRANCH   1  12
BRANCH   2  20
ATOM     20  O   UNL     1       9.509 -47.717  34.887  1.00  0.00    -0.502 OA
ATOM     21  H   UNL     1       9.957 -47.023  35.475  1.00  0.00     0.293 HD
ENDBRANCH   2  20
BRANCH   6  22
ATOM     22  O   UNL     1       8.479 -44.901  30.637  1.00  0.00    -0.507 OA
ATOM     23  H   UNL     1       8.989 -44.198  31.157  1.00  0.00     0.293 HD
ENDBRANCH   6  22
BRANCH   8  24
ATOM     24  O   UNL     1       3.683 -45.455  30.268  1.00  0.00    -0.508 OA
ATOM     25  H   UNL     1       3.652 -44.865  29.443  1.00  0.00     0.293 HD
ENDBRANCH   8  24
TORSDOF 5
ENDMDL
MODEL 6
REMARK VINA RESULT:    -7.815      1.850      6.997
REMARK INTER + INTRA:          -9.408
REMARK INTER:                  -9.380
REMARK INTRA:                  -0.028
REMARK UNBOUND:                -0.222
REMARK SMILES O=c1c(O)c(-c2ccc(O)cc2)oc2cc(O)cc(O)c12
REMARK SMILES IDX 5 1 3 2 2 3 1 4 21 5 19 6 18 7 16 8 15 9 14 10 13 11 6 12
REMARK SMILES IDX 7 13 8 14 9 15 12 16 11 17 10 18 4 20 20 22 17 24
REMARK H PARENT 10 19 4 21 20 23 17 25
REMARK Flexibility Score: inf
ROOT
ATOM      1  C   UNL     1       9.167 -46.551  35.555  1.00  0.00     0.180 A 
ATOM      2  C   UNL     1       8.492 -47.668  35.026  1.00  0.00     0.208 A 
ATOM      3  C   UNL     1       7.700 -47.501  33.880  1.00  0.00     0.238 A 
ATOM      4  O   UNL     1       7.081 -48.492  33.404  1.00  0.00    -0.285 OA
ATOM      5  C   UNL     1       7.611 -46.232  33.273  1.00  0.00     0.111 A 
ATOM      6  C   UNL     1       6.837 -45.980  32.114  1.00  0.00     0.134 A 
ATOM      7  C   UNL     1       6.808 -44.690  31.564  1.00  0.00     0.093 A 
ATOM      8  C   UNL     1       7.537 -43.649  32.150  1.00  0.00     0.123 A 
ATOM      9  C   UNL     1       8.300 -43.893  33.293  1.00  0.00     0.094 A 
ATOM     10  C   UNL     1       8.341 -45.170  33.857  1.00  0.00     0.146 A 
ATOM     11  O   UNL     1       9.072 -45.373  34.947  1.00  0.00    -0.452 OA
ENDROOT
BRANCH   1  12
ATOM     12  C   UNL     1      10.007 -46.643  36.771  1.00  0.00     0.021 A 
ATOM     13  C   UNL     1       9.507 -47.188  37.969  1.00  0.00     0.016 A 
ATOM     14  C   UNL     1      10.311 -47.241  39.111  1.00  0.00     0.047 A 
ATOM     15  C   UNL     1      11.616 -46.740  39.078  1.00  0.00     0.115 A 
ATOM     16  C   UNL     1      11.312 -46.123  36.752  1.00  0.00     0.016 A 
ATOM     17  C   UNL     1      12.114 -46.178  37.895  1.00  0.00     0.047 A 
BRANCH  15  18
ATOM     18  O   UNL     1      12.406 -46.801  40.224  1.00  0.00    -0.508 OA
ATOM     19  H   UNL     1      12.100 -47.300  41.052  1.00  0.00     0.293 HD
ENDBRANCH  15  18
ENDBRANCH   1  12
BRANCH   2  20
ATOM     20  O   UNL     1       8.636 -48.926  35.618  1.00  0.00    -0.502 OA
ATOM     21  H   UNL     1       8.378 -49.783  35.142  1.00  0.00     0.293 HD
ENDBRANCH   2  20
BRANCH   6  22
ATOM     22  O   UNL     1       6.100 -46.999  31.507  1.00  0.00    -0.507 OA
ATOM     23  H   UNL     1       5.816 -47.827  32.016  1.00  0.00     0.293 HD
ENDBRANCH   6  22
BRANCH   8  24
ATOM     24  O   UNL     1       7.509 -42.368  31.603  1.00  0.00    -0.508 OA
ATOM     25  H   UNL     1       8.244 -42.039  30.987  1.00  0.00     0.293 HD
ENDBRANCH   8  24
TORSDOF 5
ENDMDL
MODEL 7
REMARK VINA RESULT:    -7.734      3.931      6.724
REMARK INTER + INTRA:          -9.313
REMARK INTER:                  -9.039
REMARK INTRA:                  -0.274
REMARK UNBOUND:                -0.222
REMARK SMILES O=c1c(O)c(-c2ccc(O)cc2)oc2cc(O)cc(O)c12
REMARK SMILES IDX 5 1 3 2 2 3 1 4 21 5 19 6 18 7 16 8 15 9 14 10 13 11 6 12
REMARK SMILES IDX 7 13 8 14 9 15 12 16 11 17 10 18 4 20 20 22 17 24
REMARK H PARENT 10 19 4 21 20 23 17 25
REMARK Flexibility Score: inf
ROOT
ATOM      1  C   UNL     1       6.892 -48.533  35.100  1.00  0.00     0.180 A 
ATOM      2  C   UNL     1       7.934 -48.193  35.983  1.00  0.00     0.208 A 
ATOM      3  C   UNL     1       8.901 -47.265  35.566  1.00  0.00     0.238 A 
ATOM      4  O   UNL     1       9.845 -46.961  36.345  1.00  0.00    -0.285 OA
ATOM      5  C   UNL     1       8.799 -46.679  34.287  1.00  0.00     0.111 A 
ATOM      6  C   UNL     1       9.730 -45.734  33.792  1.00  0.00     0.134 A 
ATOM      7  C   UNL     1       9.554 -45.190  32.512  1.00  0.00     0.093 A 
ATOM      8  C   UNL     1       8.467 -45.573  31.717  1.00  0.00     0.123 A 
ATOM      9  C   UNL     1       7.548 -46.506  32.202  1.00  0.00     0.094 A 
ATOM     10  C   UNL     1       7.706 -47.061  33.474  1.00  0.00     0.146 A 
ATOM     11  O   UNL     1       6.820 -47.950  33.907  1.00  0.00    -0.452 OA
ENDROOT
BRANCH   1  12
ATOM     12  C   UNL     1       5.845 -49.517  35.459  1.00  0.00     0.021 A 
ATOM     13  C   UNL     1       4.727 -49.150  36.232  1.00  0.00     0.016 A 
ATOM     14  C   UNL     1       3.764 -50.102  36.579  1.00  0.00     0.047 A 
ATOM     15  C   UNL     1       3.910 -51.432  36.172  1.00  0.00     0.115 A 
ATOM     16  C   UNL     1       5.995 -50.859  35.072  1.00  0.00     0.016 A 
ATOM     17  C   UNL     1       5.030 -51.809  35.419  1.00  0.00     0.047 A 
BRANCH  15  18
ATOM     18  O   UNL     1       2.942 -52.369  36.524  1.00  0.00    -0.508 OA
ATOM     19  H   UNL     1       3.009 -53.337  36.229  1.00  0.00     0.293 HD
ENDBRANCH  15  18
ENDBRANCH   1  12
BRANCH   2  20
ATOM     20  O   UNL     1       7.984 -48.750  37.263  1.00  0.00    -0.502 OA
ATOM     21  H   UNL     1       8.395 -49.659  37.445  1.00  0.00     0.293 HD
ENDBRANCH   2  20
BRANCH   6  22
ATOM     22  O   UNL     1      10.823 -45.331  34.562  1.00  0.00    -0.507 OA
ATOM     23  H   UNL     1      11.774 -45.433  34.230  1.00  0.00     0.293 HD
ENDBRANCH   6  22
BRANCH   8  24
ATOM     24  O   UNL     1       8.291 -45.032  30.446  1.00  0.00    -0.508 OA
ATOM     25  H   UNL     1       8.315 -44.031  30.288  1.00  0.00     0.293 HD
ENDBRANCH   8  24
TORSDOF 5
ENDMDL
MODEL 8
REMARK VINA RESULT:    -7.667      1.825      7.397
REMARK INTER + INTRA:          -9.233
REMARK INTER:                  -9.700
REMARK INTRA:                   0.467
REMARK UNBOUND:                -0.222
REMARK SMILES O=c1c(O)c(-c2ccc(O)cc2)oc2cc(O)cc(O)c12
REMARK SMILES IDX 5 1 3 2 2 3 1 4 21 5 19 6 18 7 16 8 15 9 14 10 13 11 6 12
REMARK SMILES IDX 7 13 8 14 9 15 12 16 11 17 10 18 4 20 20 22 17 24
REMARK H PARENT 10 19 4 21 20 23 17 25
REMARK Flexibility Score: inf
ROOT
ATOM      1  C   UNL     1       9.318 -46.319  35.146  1.00  0.00     0.180 A 
ATOM      2  C   UNL     1      10.196 -45.751  34.204  1.00  0.00     0.208 A 
ATOM      3  C   UNL     1       9.728 -45.499  32.905  1.00  0.00     0.238 A 
ATOM      4  O   UNL     1      10.510 -45.001  32.050  1.00  0.00    -0.285 OA
ATOM      5  C   UNL     1       8.390 -45.799  32.576  1.00  0.00     0.111 A 
ATOM      6  C   UNL     1       7.839 -45.574  31.291  1.00  0.00     0.134 A 
ATOM      7  C   UNL     1       6.495 -45.892  31.046  1.00  0.00     0.093 A 
ATOM      8  C   UNL     1       5.693 -46.430  32.059  1.00  0.00     0.123 A 
ATOM      9  C   UNL     1       6.233 -46.654  33.326  1.00  0.00     0.094 A 
ATOM     10  C   UNL     1       7.570 -46.346  33.591  1.00  0.00     0.146 A 
ATOM     11  O   UNL     1       8.059 -46.575  34.804  1.00  0.00    -0.452 OA
ENDROOT
BRANCH   1  12
ATOM     12  C   UNL     1       9.742 -46.631  36.530  1.00  0.00     0.021 A 
ATOM     13  C   UNL     1      10.961 -46.153  37.049  1.00  0.00     0.016 A 
ATOM     14  C   UNL     1      11.351 -46.480  38.351  1.00  0.00     0.047 A 
ATOM     15  C   UNL     1      10.541 -47.298  39.144  1.00  0.00     0.115 A 
ATOM     16  C   UNL     1       8.944 -47.469  37.326  1.00  0.00     0.016 A 
ATOM     17  C   UNL     1       9.337 -47.794  38.628  1.00  0.00     0.047 A 
BRANCH  15  18
ATOM     18  O   UNL     1      10.943 -47.615  40.440  1.00  0.00    -0.508 OA
ATOM     19  H   UNL     1      10.310 -48.057  41.097  1.00  0.00     0.293 HD
ENDBRANCH  15  18
ENDBRANCH   1  12
BRANCH   2  20
ATOM     20  O   UNL     1      11.503 -45.416  34.569  1.00  0.00    -0.502 OA
ATOM     21  H   UNL     1      11.862 -44.471  34.496  1.00  0.00     0.293 HD
ENDBRANCH   2  20
BRANCH   6  22
ATOM     22  O   UNL     1       8.614 -45.037  30.261  1.00  0.00    -0.507 OA
ATOM     23  H   UNL     1       8.227 -44.858  29.343  1.00  0.00     0.293 HD
ENDBRANCH   6  22
BRANCH   8  24
ATOM     24  O   UNL     1       4.358 -46.744  31.816  1.00  0.00    -0.508 OA
ATOM     25  H   UNL     1       3.667 -46.731  32.558  1.00  0.00     0.293 HD
ENDBRANCH   8  24
TORSDOF 5
ENDMDL
MODEL 9
REMARK VINA RESULT:    -7.656      2.913      6.963
REMARK INTER + INTRA:          -9.220
REMARK INTER:                  -9.045
REMARK INTRA:                  -0.175
REMARK UNBOUND:                -0.222
REMARK SMILES O=c1c(O)c(-c2ccc(O)cc2)oc2cc(O)cc(O)c12
REMARK SMILES IDX 5 1 3 2 2 3 1 4 21 5 19 6 18 7 16 8 15 9 14 10 13 11 6 12
REMARK SMILES IDX 7 13 8 14 9 15 12 16 11 17 10 18 4 20 20 22 17 24
REMARK H PARENT 10 19 4 21 20 23 17 25
REMARK Flexibility Score: inf
ROOT
ATOM      1  C   UNL     1       8.179 -47.432  35.636  1.00  0.00     0.180 A 
ATOM      2  C   UNL     1       9.480 -46.916  35.792  1.00  0.00     0.208 A 
ATOM      3  C   UNL     1      10.025 -46.127  34.768  1.00  0.00     0.238 A 
ATOM      4  O   UNL     1      11.193 -45.669  34.893  1.00  0.00    -0.285 OA
ATOM      5  C   UNL     1       9.257 -45.850  33.618  1.00  0.00     0.111 A 
ATOM      6  C   UNL     1       9.730 -45.061  32.542  1.00  0.00     0.134 A 
ATOM      7  C   UNL     1       8.902 -44.825  31.435  1.00  0.00     0.093 A 
ATOM      8  C   UNL     1       7.610 -45.362  31.385  1.00  0.00     0.123 A 
ATOM      9  C   UNL     1       7.140 -46.141  32.443  1.00  0.00     0.094 A 
ATOM     10  C   UNL     1       7.950 -46.390  33.553  1.00  0.00     0.146 A 
ATOM     11  O   UNL     1       7.480 -47.139  34.544  1.00  0.00    -0.452 OA
ENDROOT
BRANCH   1  12
ATOM     12  C   UNL     1       7.542 -48.288  36.663  1.00  0.00     0.021 A 
ATOM     13  C   UNL     1       7.274 -49.648  36.421  1.00  0.00     0.016 A 
ATOM     14  C   UNL     1       6.650 -50.430  37.397  1.00  0.00     0.047 A 
ATOM     15  C   UNL     1       6.274 -49.864  38.619  1.00  0.00     0.115 A 
ATOM     16  C   UNL     1       7.143 -47.721  37.884  1.00  0.00     0.016 A 
ATOM     17  C   UNL     1       6.520 -48.506  38.860  1.00  0.00     0.047 A 
BRANCH  15  18
ATOM     18  O   UNL     1       5.654 -50.656  39.582  1.00  0.00    -0.508 OA
ATOM     19  H   UNL     1       4.790 -51.149  39.387  1.00  0.00     0.293 HD
ENDBRANCH  15  18
ENDBRANCH   1  12
BRANCH   2  20
ATOM     20  O   UNL     1      10.201 -47.163  36.964  1.00  0.00    -0.502 OA
ATOM     21  H   UNL     1      11.030 -46.636  37.212  1.00  0.00     0.293 HD
ENDBRANCH   2  20
BRANCH   6  22
ATOM     22  O   UNL     1      11.014 -44.512  32.564  1.00  0.00    -0.507 OA
ATOM     23  H   UNL     1      11.235 -43.654  32.072  1.00  0.00     0.293 HD
ENDBRANCH   6  22
BRANCH   8  24
ATOM     24  O   UNL     1       6.786 -45.126  30.287  1.00  0.00    -0.508 OA
ATOM     25  H   UNL     1       6.482 -44.189  30.044  1.00  0.00     0.293 HD
ENDBRANCH   8  24
TORSDOF 5
ENDMDL
