MODEL 1
REMARK VINA RESULT:    -8.426      0.000      0.000
REMARK INTER + INTRA:         -10.182
REMARK INTER:                  -9.904
REMARK INTRA:                  -0.278
REMARK UNBOUND:                -0.278
REMARK SMILES O=c1c(O)c(-c2ccc(O)cc2)oc2cc(O)cc(O)c12
REMARK SMILES IDX 5 1 3 2 2 3 1 4 21 5 19 6 18 7 16 8 15 9 14 10 13 11 6 12
REMARK SMILES IDX 7 13 8 14 9 15 12 16 11 17 10 18 4 20 20 22 17 24
REMARK H PARENT 10 19 4 21 20 23 17 25
REMARK Flexibility Score: inf
ROOT
ATOM      1  C   UNL     1       1.557  -6.305  -8.189  1.00  0.00     0.180 A 
ATOM      2  C   UNL     1       0.772  -7.385  -7.750  1.00  0.00     0.208 A 
ATOM      3  C   UNL     1      -0.490  -7.127  -7.190  1.00  0.00     0.238 A 
ATOM      4  O   UNL     1      -1.166  -8.093  -6.750  1.00  0.00    -0.285 OA
ATOM      5  C   UNL     1      -0.957  -5.794  -7.092  1.00  0.00     0.111 A 
ATOM      6  C   UNL     1      -2.236  -5.419  -6.579  1.00  0.00     0.134 A 
ATOM      7  C   UNL     1      -2.541  -4.063  -6.408  1.00  0.00     0.093 A 
ATOM      8  C   UNL     1      -1.640  -3.069  -6.789  1.00  0.00     0.123 A 
ATOM      9  C   UNL     1      -0.411  -3.423  -7.348  1.00  0.00     0.094 A 
ATOM     10  C   UNL     1      -0.065  -4.768  -7.497  1.00  0.00     0.146 A 
ATOM     11  O   UNL     1       1.119  -5.063  -8.022  1.00  0.00    -0.452 OA
ENDROOT
BRANCH   1  12
ATOM     12  C   UNL     1       2.887  -6.500  -8.812  1.00  0.00     0.021 A 
ATOM     13  C   UNL     1       4.046  -6.263  -8.055  1.00  0.00     0.016 A 
ATOM     14  C   UNL     1       5.311  -6.419  -8.630  1.00  0.00     0.047 A 
ATOM     15  C   UNL     1       5.433  -6.798  -9.973  1.00  0.00     0.115 A 
ATOM     16  C   UNL     1       3.016  -6.861 -10.166  1.00  0.00     0.016 A 
ATOM     17  C   UNL     1       4.282  -7.015 -10.738  1.00  0.00     0.047 A 
BRANCH  15  18
ATOM     18  O   UNL     1       6.687  -6.957 -10.556  1.00  0.00    -0.508 OA
ATOM     19  H   UNL     1       7.035  -6.306 -11.249  1.00  0.00     0.293 HD
ENDBRANCH  15  18
ENDBRANCH   1  12
BRANCH   2  20
ATOM     20  O   UNL     1       1.261  -8.692  -7.837  1.00  0.00    -0.502 OA
ATOM     21  H   UNL     1       0.717  -9.497  -7.550  1.00  0.00     0.293 HD
ENDBRANCH   2  20
BRANCH   6  22
ATOM     22  O   UNL     1      -3.244  -6.331  -6.253  1.00  0.00    -0.507 OA
ATOM     23  H   UNL     1      -4.119  -6.420  -6.746  1.00  0.00     0.293 HD
ENDBRANCH   6  22
BRANCH   8  24
ATOM     24  O   UNL     1      -1.983  -1.730  -6.618  1.00  0.00    -0.508 OA
ATOM     25  H   UNL     1      -1.282  -0.997  -6.628  1.00  0.00     0.293 HD
ENDBRANCH   8  24
TORSDOF 5
ENDMDL
MODEL 2
REMARK VINA RESULT:    -8.330      1.510      3.500
REMARK INTER + INTRA:         -10.069
REMARK INTER:                  -9.769
REMARK INTRA:                  -0.300
REMARK UNBOUND:                -0.278
REMARK SMILES O=c1c(O)c(-c2ccc(O)cc2)oc2cc(O)cc(O)c12
REMARK SMILES IDX 5 1 3 2 2 3 1 4 21 5 19 6 18 7 16 8 15 9 14 10 13 11 6 12
REMARK SMILES IDX 7 13 8 14 9 15 12 16 11 17 10 18 4 20 20 22 17 24
REMARK H PARENT 10 19 4 21 20 23 17 25
REMARK Flexibility Score: inf
ROOT
ATOM      1  C   UNL     1       1.749  -6.624  -8.229  1.00  0.00     0.180 A 
ATOM      2  C   UNL     1       0.909  -5.497  -8.223  1.00  0.00     0.208 A 
ATOM      3  C   UNL     1      -0.354  -5.592  -7.616  1.00  0.00     0.238 A 
ATOM      4  O   UNL     1      -1.122  -4.597  -7.660  1.00  0.00    -0.285 OA
ATOM      5  C   UNL     1      -0.753  -6.807  -7.009  1.00  0.00     0.111 A 
ATOM      6  C   UNL     1      -1.993  -7.004  -6.329  1.00  0.00     0.134 A 
ATOM      7  C   UNL     1      -2.339  -8.285  -5.880  1.00  0.00     0.093 A 
ATOM      8  C   UNL     1      -1.463  -9.360  -6.027  1.00  0.00     0.123 A 
ATOM      9  C   UNL     1      -0.223  -9.166  -6.636  1.00  0.00     0.094 A 
ATOM     10  C   UNL     1       0.135  -7.908  -7.127  1.00  0.00     0.146 A 
ATOM     11  O   UNL     1       1.320  -7.768  -7.710  1.00  0.00    -0.452 OA
ENDROOT
BRANCH   1  12
ATOM     12  C   UNL     1       3.104  -6.594  -8.828  1.00  0.00     0.021 A 
ATOM     13  C   UNL     1       3.280  -7.002 -10.160  1.00  0.00     0.016 A 
ATOM     14  C   UNL     1       4.554  -7.003 -10.738  1.00  0.00     0.047 A 
ATOM     15  C   UNL     1       5.668  -6.610  -9.987  1.00  0.00     0.115 A 
ATOM     16  C   UNL     1       4.231  -6.220  -8.072  1.00  0.00     0.016 A 
ATOM     17  C   UNL     1       5.503  -6.222  -8.653  1.00  0.00     0.047 A 
BRANCH  15  18
ATOM     18  O   UNL     1       6.941  -6.606 -10.552  1.00  0.00    -0.508 OA
ATOM     19  H   UNL     1       7.491  -7.453 -10.623  1.00  0.00     0.293 HD
ENDBRANCH  15  18
ENDBRANCH   1  12
BRANCH   2  20
ATOM     20  O   UNL     1       1.315  -4.314  -8.847  1.00  0.00    -0.502 OA
ATOM     21  H   UNL     1       2.163  -3.825  -8.589  1.00  0.00     0.293 HD
ENDBRANCH   2  20
BRANCH   6  22
ATOM     22  O   UNL     1      -2.900  -5.978  -6.047  1.00  0.00    -0.507 OA
ATOM     23  H   UNL     1      -3.779  -6.104  -5.570  1.00  0.00     0.293 HD
ENDBRANCH   6  22
BRANCH   8  24
ATOM     24  O   UNL     1      -1.834 -10.616  -5.555  1.00  0.00    -0.508 OA
ATOM     25  H   UNL     1      -2.485 -10.723  -4.785  1.00  0.00     0.293 HD
ENDBRANCH   8  24
TORSDOF 5
ENDMDL
MODEL 3
REMARK VINA RESULT:    -8.259      4.404     10.255
REMARK INTER + INTRA:          -9.986
REMARK INTER:                  -9.750
REMARK INTRA:                  -0.236
REMARK UNBOUND:                -0.278
REMARK SMILES O=c1c(O)c(-c2ccc(O)cc2)oc2cc(O)cc(O)c12
REMARK SMILES IDX 5 1 3 2 2 3 1 4 21 5 19 6 18 7 16 8 15 9 14 10 13 11 6 12
REMARK SMILES IDX 7 13 8 14 9 15 12 16 11 17 10 18 4 20 20 22 17 24
REMARK H PARENT 10 19 4 21 20 23 17 25
REMARK Flexibility Score: inf
ROOT
ATOM      1  C   UNL     1       8.008  -6.928 -10.250  1.00  0.00     0.180 A 
ATOM      2  C   UNL     1       8.606  -8.148 -10.611  1.00  0.00     0.208 A 
ATOM      3  C   UNL     1       9.880  -8.133 -11.202  1.00  0.00     0.238 A 
ATOM      4  O   UNL     1      10.388  -9.224 -11.572  1.00  0.00    -0.285 OA
ATOM      5  C   UNL     1      10.546  -6.901 -11.410  1.00  0.00     0.111 A 
ATOM      6  C   UNL     1      11.856  -6.771 -11.963  1.00  0.00     0.134 A 
ATOM      7  C   UNL     1      12.363  -5.496 -12.243  1.00  0.00     0.093 A 
ATOM      8  C   UNL     1      11.637  -4.347 -11.931  1.00  0.00     0.123 A 
ATOM      9  C   UNL     1      10.380  -4.462 -11.333  1.00  0.00     0.094 A 
ATOM     10  C   UNL     1       9.833  -5.721 -11.076  1.00  0.00     0.146 A 
ATOM     11  O   UNL     1       8.630  -5.786 -10.517  1.00  0.00    -0.452 OA
ENDROOT
BRANCH   1  12
ATOM     12  C   UNL     1       6.679  -6.865  -9.599  1.00  0.00     0.021 A 
ATOM     13  C   UNL     1       5.521  -7.028 -10.377  1.00  0.00     0.016 A 
ATOM     14  C   UNL     1       4.255  -6.950  -9.788  1.00  0.00     0.047 A 
ATOM     15  C   UNL     1       4.131  -6.692  -8.417  1.00  0.00     0.115 A 
ATOM     16  C   UNL     1       6.547  -6.586  -8.226  1.00  0.00     0.016 A 
ATOM     17  C   UNL     1       5.280  -6.507  -7.640  1.00  0.00     0.047 A 
BRANCH  15  18
ATOM     18  O   UNL     1       2.876  -6.612  -7.819  1.00  0.00    -0.508 OA
ATOM     19  H   UNL     1       2.399  -7.439  -7.478  1.00  0.00     0.293 HD
ENDBRANCH  15  18
ENDBRANCH   1  12
BRANCH   2  20
ATOM     20  O   UNL     1       7.922  -9.352 -10.418  1.00  0.00    -0.502 OA
ATOM     21  H   UNL     1       7.426  -9.823 -11.165  1.00  0.00     0.293 HD
ENDBRANCH   2  20
BRANCH   6  22
ATOM     22  O   UNL     1      12.703  -7.851 -12.227  1.00  0.00    -0.507 OA
ATOM     23  H   UNL     1      12.407  -8.814 -12.279  1.00  0.00     0.293 HD
ENDBRANCH   6  22
BRANCH   8  24
ATOM     24  O   UNL     1      12.179  -3.095 -12.209  1.00  0.00    -0.508 OA
ATOM     25  H   UNL     1      12.807  -2.633 -11.561  1.00  0.00     0.293 HD
ENDBRANCH   8  24
TORSDOF 5
ENDMDL
MODEL 4
REMARK VINA RESULT:    -7.513      3.066      6.764
REMARK INTER + INTRA:          -9.109
REMARK INTER:                  -8.865
REMARK INTRA:                  -0.245
REMARK UNBOUND:                -0.278
REMARK SMILES O=c1c(O)c(-c2ccc(O)cc2)oc2cc(O)cc(O)c12
REMARK SMILES IDX 5 1 3 2 2 3 1 4 21 5 19 6 18 7 16 8 15 9 14 10 13 11 6 12
REMARK SMILES IDX 7 13 8 14 9 15 12 16 11 17 10 18 4 20 20 22 17 24
REMARK H PARENT 10 19 4 21 20 23 17 25
REMARK Flexibility Score: inf
ROOT
ATOM      1  C   UNL     1      -1.505  -6.035  -6.732  1.00  0.00     0.180 A 
ATOM      2  C   UNL     1      -0.361  -6.340  -7.489  1.00  0.00     0.208 A 
ATOM      3  C   UNL     1       0.219  -7.614  -7.366  1.00  0.00     0.238 A 
ATOM      4  O   UNL     1       1.273  -7.863  -8.006  1.00  0.00    -0.285 OA
ATOM      5  C   UNL     1      -0.363  -8.570  -6.499  1.00  0.00     0.111 A 
ATOM      6  C   UNL     1       0.117  -9.904  -6.326  1.00  0.00     0.134 A 
ATOM      7  C   UNL     1      -0.458 -10.722  -5.345  1.00  0.00     0.093 A 
ATOM      8  C   UNL     1      -1.534 -10.279  -4.577  1.00  0.00     0.123 A 
ATOM      9  C   UNL     1      -2.049  -8.997  -4.780  1.00  0.00     0.094 A 
ATOM     10  C   UNL     1      -1.474  -8.145  -5.725  1.00  0.00     0.146 A 
ATOM     11  O   UNL     1      -1.987  -6.931  -5.879  1.00  0.00    -0.452 OA
ENDROOT
BRANCH   1  12
ATOM     12  C   UNL     1      -2.186  -4.723  -6.828  1.00  0.00     0.021 A 
ATOM     13  C   UNL     1      -1.653  -3.616  -6.147  1.00  0.00     0.016 A 
ATOM     14  C   UNL     1      -2.292  -2.374  -6.205  1.00  0.00     0.047 A 
ATOM     15  C   UNL     1      -3.480  -2.226  -6.932  1.00  0.00     0.115 A 
ATOM     16  C   UNL     1      -3.391  -4.573  -7.540  1.00  0.00     0.016 A 
ATOM     17  C   UNL     1      -4.028  -3.329  -7.596  1.00  0.00     0.047 A 
BRANCH  15  18
ATOM     18  O   UNL     1      -4.125  -0.994  -6.998  1.00  0.00    -0.508 OA
ATOM     19  H   UNL     1      -3.707  -0.203  -7.473  1.00  0.00     0.293 HD
ENDBRANCH  15  18
ENDBRANCH   1  12
BRANCH   2  20
ATOM     20  O   UNL     1       0.210  -5.374  -8.323  1.00  0.00    -0.502 OA
ATOM     21  H   UNL     1       0.300  -5.502  -9.324  1.00  0.00     0.293 HD
ENDBRANCH   2  20
BRANCH   6  22
ATOM     22  O   UNL     1       1.126 -10.478  -7.104  1.00  0.00    -0.507 OA
ATOM     23  H   UNL     1       1.011 -10.786  -8.058  1.00  0.00     0.293 HD
ENDBRANCH   6  22
BRANCH   8  24
ATOM     24  O   UNL     1      -2.090 -11.125  -3.621  1.00  0.00    -0.508 OA
ATOM     25  H   UNL     1      -1.580 -11.921  -3.256  1.00  0.00     0.293 HD
ENDBRANCH   8  24
TORSDOF 5
ENDMDL
MODEL 5
REMARK VINA RESULT:    -7.244      6.464     12.458
REMARK INTER + INTRA:          -8.792
REMARK INTER:                  -8.578
REMARK INTRA:                  -0.214
REMARK UNBOUND:                -0.278
REMARK SMILES O=c1c(O)c(-c2ccc(O)cc2)oc2cc(O)cc(O)c12
REMARK SMILES IDX 5 1 3 2 2 3 1 4 21 5 19 6 18 7 16 8 15 9 14 10 13 11 6 12
REMARK SMILES IDX 7 13 8 14 9 15 12 16 11 17 10 18 4 20 20 22 17 24
REMARK H PARENT 10 19 4 21 20 23 17 25
REMARK Flexibility Score: inf
ROOT
ATOM      1  C   UNL     1      10.133  -5.391 -11.509  1.00  0.00     0.180 A 
ATOM      2  C   UNL     1      10.857  -4.339 -10.921  1.00  0.00     0.208 A 
ATOM      3  C   UNL     1      12.081  -3.953 -11.493  1.00  0.00     0.238 A 
ATOM      4  O   UNL     1      12.751  -3.047 -10.932  1.00  0.00    -0.285 OA
ATOM      5  C   UNL     1      12.556  -4.612 -12.652  1.00  0.00     0.111 A 
ATOM      6  C   UNL     1      13.762  -4.276 -13.339  1.00  0.00     0.134 A 
ATOM      7  C   UNL     1      14.199  -5.079 -14.399  1.00  0.00     0.093 A 
ATOM      8  C   UNL     1      13.444  -6.166 -14.839  1.00  0.00     0.123 A 
ATOM      9  C   UNL     1      12.233  -6.467 -14.214  1.00  0.00     0.094 A 
ATOM     10  C   UNL     1      11.788  -5.706 -13.130  1.00  0.00     0.146 A 
ATOM     11  O   UNL     1      10.636  -6.032 -12.556  1.00  0.00    -0.452 OA
ENDROOT
BRANCH   1  12
ATOM     12  C   UNL     1       8.824  -5.838 -10.978  1.00  0.00     0.021 A 
ATOM     13  C   UNL     1       8.714  -7.109 -10.390  1.00  0.00     0.016 A 
ATOM     14  C   UNL     1       7.483  -7.560  -9.904  1.00  0.00     0.047 A 
ATOM     15  C   UNL     1       6.344  -6.752 -10.013  1.00  0.00     0.115 A 
ATOM     16  C   UNL     1       7.671  -5.040 -11.103  1.00  0.00     0.016 A 
ATOM     17  C   UNL     1       6.442  -5.494 -10.616  1.00  0.00     0.047 A 
BRANCH  15  18
ATOM     18  O   UNL     1       5.113  -7.190  -9.531  1.00  0.00    -0.508 OA
ATOM     19  H   UNL     1       4.883  -8.176  -9.485  1.00  0.00     0.293 HD
ENDBRANCH  15  18
ENDBRANCH   1  12
BRANCH   2  20
ATOM     20  O   UNL     1      10.381  -3.717  -9.764  1.00  0.00    -0.502 OA
ATOM     21  H   UNL     1      10.392  -2.711  -9.643  1.00  0.00     0.293 HD
ENDBRANCH   2  20
BRANCH   6  22
ATOM     22  O   UNL     1      14.544  -3.157 -13.040  1.00  0.00    -0.507 OA
ATOM     23  H   UNL     1      15.525  -3.067 -13.256  1.00  0.00     0.293 HD
ENDBRANCH   6  22
BRANCH   8  24
ATOM     24  O   UNL     1      13.902  -6.934 -15.906  1.00  0.00    -0.508 OA
ATOM     25  H   UNL     1      13.268  -7.480 -16.478  1.00  0.00     0.293 HD
ENDBRANCH   8  24
TORSDOF 5
ENDMDL
MODEL 6
REMARK VINA RESULT:    -7.010      6.827     10.594
REMARK INTER + INTRA:          -8.518
REMARK INTER:                  -8.987
REMARK INTRA:                   0.469
REMARK UNBOUND:                -0.278
REMARK SMILES O=c1c(O)c(-c2ccc(O)cc2)oc2cc(O)cc(O)c12
REMARK SMILES IDX 5 1 3 2 2 3 1 4 21 5 19 6 18 7 16 8 15 9 14 10 13 11 6 12
REMARK SMILES IDX 7 13 8 14 9 15 12 16 11 17 10 18 4 20 20 22 17 24
REMARK H PARENT 10 19 4 21 20 23 17 25
REMARK Flexibility Score: inf
ROOT
ATOM      1  C   UNL     1      11.099  -6.174 -11.859  1.00  0.00     0.180 A 
ATOM      2  C   UNL     1      11.281  -7.562 -11.986  1.00  0.00     0.208 A 
ATOM      3  C   UNL     1      10.287  -8.426 -11.498  1.00  0.00     0.238 A 
ATOM      4  O   UNL     1      10.479  -9.669 -11.566  1.00  0.00    -0.285 OA
ATOM      5  C   UNL     1       9.118  -7.892 -10.905  1.00  0.00     0.111 A 
ATOM      6  C   UNL     1       8.029  -8.673 -10.413  1.00  0.00     0.134 A 
ATOM      7  C   UNL     1       6.981  -8.044  -9.729  1.00  0.00     0.093 A 
ATOM      8  C   UNL     1       6.952  -6.658  -9.574  1.00  0.00     0.123 A 
ATOM      9  C   UNL     1       7.982  -5.879 -10.104  1.00  0.00     0.094 A 
ATOM     10  C   UNL     1       9.058  -6.481 -10.760  1.00  0.00     0.146 A 
ATOM     11  O   UNL     1      10.022  -5.705 -11.240  1.00  0.00    -0.452 OA
ENDROOT
BRANCH   1  12
ATOM     12  C   UNL     1      12.090  -5.200 -12.372  1.00  0.00     0.021 A 
ATOM     13  C   UNL     1      13.031  -5.611 -13.331  1.00  0.00     0.016 A 
ATOM     14  C   UNL     1      13.990  -4.714 -13.812  1.00  0.00     0.047 A 
ATOM     15  C   UNL     1      14.030  -3.400 -13.329  1.00  0.00     0.115 A 
ATOM     16  C   UNL     1      12.149  -3.884 -11.876  1.00  0.00     0.016 A 
ATOM     17  C   UNL     1      13.110  -2.990 -12.359  1.00  0.00     0.047 A 
BRANCH  15  18
ATOM     18  O   UNL     1      14.980  -2.498 -13.801  1.00  0.00    -0.508 OA
ATOM     19  H   UNL     1      15.244  -1.679 -13.267  1.00  0.00     0.293 HD
ENDBRANCH  15  18
ENDBRANCH   1  12
BRANCH   2  20
ATOM     20  O   UNL     1      12.452  -8.069 -12.556  1.00  0.00    -0.502 OA
ATOM     21  H   UNL     1      13.360  -7.648 -12.400  1.00  0.00     0.293 HD
ENDBRANCH   2  20
BRANCH   6  22
ATOM     22  O   UNL     1       7.914 -10.054 -10.595  1.00  0.00    -0.507 OA
ATOM     23  H   UNL     1       8.299 -10.749  -9.975  1.00  0.00     0.293 HD
ENDBRANCH   6  22
BRANCH   8  24
ATOM     24  O   UNL     1       5.887  -6.065  -8.901  1.00  0.00    -0.508 OA
ATOM     25  H   UNL     1       5.988  -5.710  -7.957  1.00  0.00     0.293 HD
ENDBRANCH   8  24
TORSDOF 5
ENDMDL
MODEL 7
REMARK VINA RESULT:    -6.663      2.099      3.033
REMARK INTER + INTRA:          -8.110
REMARK INTER:                  -7.980
REMARK INTRA:                  -0.130
REMARK UNBOUND:                -0.278
REMARK SMILES O=c1c(O)c(-c2ccc(O)cc2)oc2cc(O)cc(O)c12
REMARK SMILES IDX 5 1 3 2 2 3 1 4 21 5 19 6 18 7 16 8 15 9 14 10 13 11 6 12
REMARK SMILES IDX 7 13 8 14 9 15 12 16 11 17 10 18 4 20 20 22 17 24
REMARK H PARENT 10 19 4 21 20 23 17 25
REMARK Flexibility Score: inf
ROOT
ATOM      1  C   UNL     1       0.735  -4.604  -8.235  1.00  0.00     0.180 A 
ATOM      2  C   UNL     1      -0.143  -4.134  -9.227  1.00  0.00     0.208 A 
ATOM      3  C   UNL     1      -1.386  -3.605  -8.842  1.00  0.00     0.238 A 
ATOM      4  O   UNL     1      -2.190  -3.235  -9.737  1.00  0.00    -0.285 OA
ATOM      5  C   UNL     1      -1.728  -3.539  -7.470  1.00  0.00     0.111 A 
ATOM      6  C   UNL     1      -2.943  -2.987  -6.963  1.00  0.00     0.134 A 
ATOM      7  C   UNL     1      -3.232  -3.092  -5.596  1.00  0.00     0.093 A 
ATOM      8  C   UNL     1      -2.324  -3.671  -4.711  1.00  0.00     0.123 A 
ATOM      9  C   UNL     1      -1.107  -4.160  -5.187  1.00  0.00     0.094 A 
ATOM     10  C   UNL     1      -0.806  -4.102  -6.549  1.00  0.00     0.146 A 
ATOM     11  O   UNL     1       0.358  -4.589  -6.962  1.00  0.00    -0.452 OA
ENDROOT
BRANCH   1  12
ATOM     12  C   UNL     1       2.072  -5.151  -8.562  1.00  0.00     0.021 A 
ATOM     13  C   UNL     1       2.169  -6.358  -9.274  1.00  0.00     0.016 A 
ATOM     14  C   UNL     1       3.422  -6.905  -9.574  1.00  0.00     0.047 A 
ATOM     15  C   UNL     1       4.591  -6.259  -9.153  1.00  0.00     0.115 A 
ATOM     16  C   UNL     1       3.250  -4.518  -8.125  1.00  0.00     0.016 A 
ATOM     17  C   UNL     1       4.501  -5.067  -8.425  1.00  0.00     0.047 A 
BRANCH  15  18
ATOM     18  O   UNL     1       5.843  -6.793  -9.446  1.00  0.00    -0.508 OA
ATOM     19  H   UNL     1       6.528  -6.272  -9.979  1.00  0.00     0.293 HD
ENDBRANCH  15  18
ENDBRANCH   1  12
BRANCH   2  20
ATOM     20  O   UNL     1       0.205  -4.228 -10.578  1.00  0.00    -0.502 OA
ATOM     21  H   UNL     1       1.017  -3.762 -10.965  1.00  0.00     0.293 HD
ENDBRANCH   2  20
BRANCH   6  22
ATOM     22  O   UNL     1      -3.877  -2.305  -7.747  1.00  0.00    -0.507 OA
ATOM     23  H   UNL     1      -4.618  -2.745  -8.271  1.00  0.00     0.293 HD
ENDBRANCH   6  22
BRANCH   8  24
ATOM     24  O   UNL     1      -2.639  -3.745  -3.356  1.00  0.00    -0.508 OA
ATOM     25  H   UNL     1      -1.921  -3.699  -2.641  1.00  0.00     0.293 HD
ENDBRANCH   8  24
TORSDOF 5
ENDMDL
MODEL 8
REMARK VINA RESULT:    -6.268      7.904     13.683
REMARK INTER + INTRA:          -7.645
REMARK INTER:                  -7.638
REMARK INTRA:                  -0.007
REMARK UNBOUND:                -0.278
REMARK SMILES O=c1c(O)c(-c2ccc(O)cc2)oc2cc(O)cc(O)c12
REMARK SMILES IDX 5 1 3 2 2 3 1 4 21 5 19 6 18 7 16 8 15 9 14 10 13 11 6 12
REMARK SMILES IDX 7 13 8 14 9 15 12 16 11 17 10 18 4 20 20 22 17 24
REMARK H PARENT 10 19 4 21 20 23 17 25
REMARK Flexibility Score: inf
ROOT
ATOM      1  C   UNL     1      11.526  -5.589 -12.691  1.00  0.00     0.180 A 
ATOM      2  C   UNL     1      11.877  -6.547 -13.659  1.00  0.00     0.208 A 
ATOM      3  C   UNL     1      13.052  -6.361 -14.406  1.00  0.00     0.238 A 
ATOM      4  O   UNL     1      13.333  -7.193 -15.308  1.00  0.00    -0.285 OA
ATOM      5  C   UNL     1      13.867  -5.229 -14.166  1.00  0.00     0.111 A 
ATOM      6  C   UNL     1      15.099  -4.961 -14.836  1.00  0.00     0.134 A 
ATOM      7  C   UNL     1      15.758  -3.746 -14.610  1.00  0.00     0.093 A 
ATOM      8  C   UNL     1      15.263  -2.819 -13.694  1.00  0.00     0.123 A 
ATOM      9  C   UNL     1      14.092  -3.097 -12.989  1.00  0.00     0.094 A 
ATOM     10  C   UNL     1      13.393  -4.285 -13.219  1.00  0.00     0.146 A 
ATOM     11  O   UNL     1      12.277  -4.506 -12.535  1.00  0.00    -0.452 OA
ENDROOT
BRANCH   1  12
ATOM     12  C   UNL     1      10.317  -5.730 -11.847  1.00  0.00     0.021 A 
ATOM     13  C   UNL     1      10.125  -6.906 -11.104  1.00  0.00     0.016 A 
ATOM     14  C   UNL     1       8.980  -7.070 -10.318  1.00  0.00     0.047 A 
ATOM     15  C   UNL     1       8.005  -6.065 -10.277  1.00  0.00     0.115 A 
ATOM     16  C   UNL     1       9.324  -4.733 -11.817  1.00  0.00     0.016 A 
ATOM     17  C   UNL     1       8.180  -4.899 -11.031  1.00  0.00     0.047 A 
BRANCH  15  18
ATOM     18  O   UNL     1       6.861  -6.215  -9.497  1.00  0.00    -0.508 OA
ATOM     19  H   UNL     1       6.675  -7.073  -8.991  1.00  0.00     0.293 HD
ENDBRANCH  15  18
ENDBRANCH   1  12
BRANCH   2  20
ATOM     20  O   UNL     1      11.046  -7.646 -13.895  1.00  0.00    -0.502 OA
ATOM     21  H   UNL     1      10.240  -7.853 -13.318  1.00  0.00     0.293 HD
ENDBRANCH   2  20
BRANCH   6  22
ATOM     22  O   UNL     1      15.728  -5.860 -15.702  1.00  0.00    -0.507 OA
ATOM     23  H   UNL     1      15.782  -6.857 -15.556  1.00  0.00     0.293 HD
ENDBRANCH   6  22
BRANCH   8  24
ATOM     24  O   UNL     1      15.952  -1.626 -13.484  1.00  0.00    -0.508 OA
ATOM     25  H   UNL     1      16.434  -1.439 -12.612  1.00  0.00     0.293 HD
ENDBRANCH   8  24
TORSDOF 5
ENDMDL
MODEL 9
REMARK VINA RESULT:    -5.995      4.499     10.814
REMARK INTER + INTRA:          -7.324
REMARK INTER:                  -7.050
REMARK INTRA:                  -0.274
REMARK UNBOUND:                -0.278
REMARK SMILES O=c1c(O)c(-c2ccc(O)cc2)oc2cc(O)cc(O)c12
REMARK SMILES IDX 5 1 3 2 2 3 1 4 21 5 19 6 18 7 16 8 15 9 14 10 13 11 6 12
REMARK SMILES IDX 7 13 8 14 9 15 12 16 11 17 10 18 4 20 20 22 17 24
REMARK H PARENT 10 19 4 21 20 23 17 25
REMARK Flexibility Score: inf
ROOT
ATOM      1  C   UNL     1       8.077  -6.820 -10.431  1.00  0.00     0.180 A 
ATOM      2  C   UNL     1       8.840  -5.685 -10.752  1.00  0.00     0.208 A 
ATOM      3  C   UNL     1      10.041  -5.850 -11.461  1.00  0.00     0.238 A 
ATOM      4  O   UNL     1      10.747  -4.836 -11.700  1.00  0.00    -0.285 OA
ATOM      5  C   UNL     1      10.455  -7.146 -11.853  1.00  0.00     0.111 A 
ATOM      6  C   UNL     1      11.633  -7.427 -12.609  1.00  0.00     0.134 A 
ATOM      7  C   UNL     1      12.012  -8.757 -12.829  1.00  0.00     0.093 A 
ATOM      8  C   UNL     1      11.224  -9.814 -12.376  1.00  0.00     0.123 A 
ATOM      9  C   UNL     1      10.038  -9.551 -11.688  1.00  0.00     0.094 A 
ATOM     10  C   UNL     1       9.653  -8.235 -11.422  1.00  0.00     0.146 A 
ATOM     11  O   UNL     1       8.524  -8.028 -10.755  1.00  0.00    -0.452 OA
ENDROOT
BRANCH   1  12
ATOM     12  C   UNL     1       6.787  -6.724  -9.707  1.00  0.00     0.021 A 
ATOM     13  C   UNL     1       5.588  -6.670 -10.437  1.00  0.00     0.016 A 
ATOM     14  C   UNL     1       4.361  -6.555  -9.776  1.00  0.00     0.047 A 
ATOM     15  C   UNL     1       4.319  -6.478  -8.378  1.00  0.00     0.115 A 
ATOM     16  C   UNL     1       6.739  -6.625  -8.304  1.00  0.00     0.016 A 
ATOM     17  C   UNL     1       5.511  -6.510  -7.646  1.00  0.00     0.047 A 
BRANCH  15  18
ATOM     18  O   UNL     1       3.103  -6.365  -7.709  1.00  0.00    -0.508 OA
ATOM     19  H   UNL     1       2.220  -6.436  -8.200  1.00  0.00     0.293 HD
ENDBRANCH  15  18
ENDBRANCH   1  12
BRANCH   2  20
ATOM     20  O   UNL     1       8.424  -4.416 -10.337  1.00  0.00    -0.502 OA
ATOM     21  H   UNL     1       8.380  -4.150  -9.361  1.00  0.00     0.293 HD
ENDBRANCH   2  20
BRANCH   6  22
ATOM     22  O   UNL     1      12.442  -6.444 -13.187  1.00  0.00    -0.507 OA
ATOM     23  H   UNL     1      12.569  -6.314 -14.179  1.00  0.00     0.293 HD
ENDBRANCH   6  22
BRANCH   8  24
ATOM     24  O   UNL     1      11.624 -11.125 -12.625  1.00  0.00    -0.508 OA
ATOM     25  H   UNL     1      12.540 -11.461 -12.350  1.00  0.00     0.293 HD
ENDBRANCH   8  24
TORSDOF 5
ENDMDL
