MODEL 1
REMARK VINA RESULT:    -4.468      0.000      0.000
REMARK INTER + INTRA:         -10.244
REMARK INTER:                  -8.647
REMARK INTRA:                  -1.597
REMARK UNBOUND:                -1.597
REMARK SMILES CCCCCCCCCCCCCCCCCC(=O)[O-]
REMARK SMILES IDX 10 1 11 2 12 3 13 4 14 5 15 6 16 7 17 8 18 9 19 10 20 11
REMARK SMILES IDX 9 12 8 13 7 14 6 15 5 16 4 17 3 18 2 19 1 20
REMARK H PARENT
REMARK Flexibility Score: inf
ROOT
ATOM      1  C   UNL     1      96.706  81.591  79.299  1.00  0.00     0.000 C 
ENDROOT
BRANCH   1   2
ATOM      2  C   UNL     1      98.193  81.975  79.204  1.00  0.00     0.000 C 
BRANCH   2   3
ATOM      3  C   UNL     1      98.865  82.091  80.582  1.00  0.00     0.000 C 
BRANCH   3   4
ATOM      4  C   UNL     1     100.285  82.677  80.504  1.00  0.00     0.000 C 
BRANCH   4   5
ATOM      5  C   UNL     1     100.393  84.051  81.187  1.00  0.00     0.000 C 
BRANCH   5   6
ATOM      6  C   UNL     1      99.023  84.619  81.588  1.00  0.00     0.000 C 
BRANCH   6   7
ATOM      7  C   UNL     1      98.953  84.876  83.098  1.00  0.00     0.006 C 
BRANCH   7   8
ATOM      8  C   UNL     1      97.889  83.993  83.756  1.00  0.00     0.053 C 
BRANCH   8   9
ATOM      9  C   UNL     1      98.531  82.942  84.605  1.00  0.00     0.041 C 
ATOM     10  O   UNL     1      99.079  81.942  84.071  1.00  0.00    -0.550 OA
ATOM     11  O   UNL     1      98.565  83.089  85.987  1.00  0.00    -0.550 OA
ENDBRANCH   8   9
ENDBRANCH   7   8
ENDBRANCH   6   7
ENDBRANCH   5   6
ENDBRANCH   4   5
ENDBRANCH   3   4
ENDBRANCH   2   3
ENDBRANCH   1   2
BRANCH   1  12
ATOM     12  C   UNL     1      95.774  82.740  78.881  1.00  0.00     0.000 C 
BRANCH  12  13
ATOM     13  C   UNL     1      96.542  84.010  78.481  1.00  0.00    -0.000 C 
BRANCH  13  14
ATOM     14  C   UNL     1      95.624  84.998  77.751  1.00  0.00    -0.000 C 
BRANCH  14  15
ATOM     15  C   UNL     1      94.146  84.631  77.955  1.00  0.00    -0.000 C 
BRANCH  15  16
ATOM     16  C   UNL     1      93.404  84.371  76.631  1.00  0.00    -0.000 C 
BRANCH  16  17
ATOM     17  C   UNL     1      92.368  83.233  76.682  1.00  0.00    -0.000 C 
BRANCH  17  18
ATOM     18  C   UNL     1      92.079  82.750  78.114  1.00  0.00    -0.000 C 
BRANCH  18  19
ATOM     19  C   UNL     1      90.727  83.256  78.643  1.00  0.00    -0.003 C 
ATOM     20  C   UNL     1      89.756  83.630  77.523  1.00  0.00     0.004 C 
ENDBRANCH  18  19
ENDBRANCH  17  18
ENDBRANCH  16  17
ENDBRANCH  15  16
ENDBRANCH  14  15
ENDBRANCH  13  14
ENDBRANCH  12  13
ENDBRANCH   1  12
TORSDOF 16
ENDMDL
MODEL 2
REMARK VINA RESULT:    -4.434      3.544      7.134
REMARK INTER + INTRA:         -10.177
REMARK INTER:                  -7.376
REMARK INTRA:                  -2.801
REMARK UNBOUND:                -1.597
REMARK SMILES CCCCCCCCCCCCCCCCCC(=O)[O-]
REMARK SMILES IDX 10 1 11 2 12 3 13 4 14 5 15 6 16 7 17 8 18 9 19 10 20 11
REMARK SMILES IDX 9 12 8 13 7 14 6 15 5 16 4 17 3 18 2 19 1 20
REMARK H PARENT
REMARK Flexibility Score: inf
ROOT
ATOM      1  C   UNL     1     100.864  83.567  80.754  1.00  0.00     0.000 C 
ENDROOT
BRANCH   1   2
ATOM      2  C   UNL     1      99.909  82.365  80.841  1.00  0.00     0.000 C 
BRANCH   2   3
ATOM      3  C   UNL     1      98.960  82.271  79.636  1.00  0.00     0.000 C 
BRANCH   3   4
ATOM      4  C   UNL     1      97.580  81.703  80.008  1.00  0.00     0.000 C 
BRANCH   4   5
ATOM      5  C   UNL     1      96.459  82.238  79.100  1.00  0.00     0.000 C 
BRANCH   5   6
ATOM      6  C   UNL     1      96.880  83.492  78.320  1.00  0.00     0.000 C 
BRANCH   6   7
ATOM      7  C   UNL     1      95.689  84.434  78.105  1.00  0.00     0.006 C 
BRANCH   7   8
ATOM      8  C   UNL     1      94.370  83.735  78.444  1.00  0.00     0.053 C 
BRANCH   8   9
ATOM      9  C   UNL     1      93.363  83.959  77.361  1.00  0.00     0.041 C 
ATOM     10  O   UNL     1      93.312  85.065  76.762  1.00  0.00    -0.550 OA
ATOM     11  O   UNL     1      92.508  82.931  76.982  1.00  0.00    -0.550 OA
ENDBRANCH   8   9
ENDBRANCH   7   8
ENDBRANCH   6   7
ENDBRANCH   5   6
ENDBRANCH   4   5
ENDBRANCH   3   4
ENDBRANCH   2   3
ENDBRANCH   1   2
BRANCH   1  12
ATOM     12  C   UNL     1     100.117  84.910  80.720  1.00  0.00     0.000 C 
BRANCH  12  13
ATOM     13  C   UNL     1      99.964  85.539  82.114  1.00  0.00    -0.000 C 
BRANCH  13  14
ATOM     14  C   UNL     1      98.534  86.046  82.333  1.00  0.00    -0.000 C 
BRANCH  14  15
ATOM     15  C   UNL     1      97.510  85.109  81.672  1.00  0.00    -0.000 C 
BRANCH  15  16
ATOM     16  C   UNL     1      96.984  84.024  82.629  1.00  0.00    -0.000 C 
BRANCH  16  17
ATOM     17  C   UNL     1      96.976  84.419  84.117  1.00  0.00    -0.000 C 
BRANCH  17  18
ATOM     18  C   UNL     1      97.672  83.382  85.016  1.00  0.00    -0.000 C 
BRANCH  18  19
ATOM     19  C   UNL     1      98.653  82.492  84.236  1.00  0.00    -0.003 C 
ATOM     20  C   UNL     1     100.114  82.782  84.578  1.00  0.00     0.004 C 
ENDBRANCH  18  19
ENDBRANCH  17  18
ENDBRANCH  16  17
ENDBRANCH  15  16
ENDBRANCH  14  15
ENDBRANCH  13  14
ENDBRANCH  12  13
ENDBRANCH   1  12
TORSDOF 16
ENDMDL
MODEL 3
REMARK VINA RESULT:    -4.394      2.986      3.757
REMARK INTER + INTRA:         -10.101
REMARK INTER:                  -8.467
REMARK INTRA:                  -1.634
REMARK UNBOUND:                -1.597
REMARK SMILES CCCCCCCCCCCCCCCCCC(=O)[O-]
REMARK SMILES IDX 10 1 11 2 12 3 13 4 14 5 15 6 16 7 17 8 18 9 19 10 20 11
REMARK SMILES IDX 9 12 8 13 7 14 6 15 5 16 4 17 3 18 2 19 1 20
REMARK H PARENT
REMARK Flexibility Score: inf
ROOT
ATOM      1  C   UNL     1      96.588  81.633  79.563  1.00  0.00     0.000 C 
ENDROOT
BRANCH   1   2
ATOM      2  C   UNL     1      98.016  82.137  79.290  1.00  0.00     0.000 C 
BRANCH   2   3
ATOM      3  C   UNL     1      98.911  82.089  80.539  1.00  0.00     0.000 C 
BRANCH   3   4
ATOM      4  C   UNL     1      98.971  83.436  81.280  1.00  0.00     0.000 C 
BRANCH   4   5
ATOM      5  C   UNL     1      99.896  84.450  80.585  1.00  0.00     0.000 C 
BRANCH   5   6
ATOM      6  C   UNL     1     101.381  84.076  80.711  1.00  0.00     0.000 C 
BRANCH   6   7
ATOM      7  C   UNL     1     102.222  85.291  81.117  1.00  0.00     0.006 C 
BRANCH   7   8
ATOM      8  C   UNL     1     102.662  86.089  79.887  1.00  0.00     0.053 C 
BRANCH   8   9
ATOM      9  C   UNL     1     102.561  87.558  80.150  1.00  0.00     0.041 C 
ATOM     10  O   UNL     1     103.604  88.248  80.306  1.00  0.00    -0.550 OA
ATOM     11  O   UNL     1     101.317  88.177  80.178  1.00  0.00    -0.550 OA
ENDBRANCH   8   9
ENDBRANCH   7   8
ENDBRANCH   6   7
ENDBRANCH   5   6
ENDBRANCH   4   5
ENDBRANCH   3   4
ENDBRANCH   2   3
ENDBRANCH   1   2
BRANCH   1  12
ATOM     12  C   UNL     1      95.515  82.567  78.981  1.00  0.00     0.000 C 
BRANCH  12  13
ATOM     13  C   UNL     1      96.112  83.831  78.342  1.00  0.00    -0.000 C 
BRANCH  13  14
ATOM     14  C   UNL     1      95.258  85.063  78.663  1.00  0.00    -0.000 C 
BRANCH  14  15
ATOM     15  C   UNL     1      94.860  85.808  77.379  1.00  0.00    -0.000 C 
BRANCH  15  16
ATOM     16  C   UNL     1      94.117  84.913  76.371  1.00  0.00    -0.000 C 
BRANCH  16  17
ATOM     17  C   UNL     1      92.638  84.647  76.708  1.00  0.00    -0.000 C 
BRANCH  17  18
ATOM     18  C   UNL     1      92.371  83.189  77.120  1.00  0.00    -0.000 C 
BRANCH  18  19
ATOM     19  C   UNL     1      91.433  83.083  78.333  1.00  0.00    -0.003 C 
ATOM     20  C   UNL     1      91.709  84.156  79.388  1.00  0.00     0.004 C 
ENDBRANCH  18  19
ENDBRANCH  17  18
ENDBRANCH  16  17
ENDBRANCH  15  16
ENDBRANCH  14  15
ENDBRANCH  13  14
ENDBRANCH  12  13
ENDBRANCH   1  12
TORSDOF 16
ENDMDL
MODEL 4
REMARK VINA RESULT:    -4.346      3.425      7.102
REMARK INTER + INTRA:         -10.008
REMARK INTER:                  -7.249
REMARK INTRA:                  -2.759
REMARK UNBOUND:                -1.597
REMARK SMILES CCCCCCCCCCCCCCCCCC(=O)[O-]
REMARK SMILES IDX 10 1 11 2 12 3 13 4 14 5 15 6 16 7 17 8 18 9 19 10 20 11
REMARK SMILES IDX 9 12 8 13 7 14 6 15 5 16 4 17 3 18 2 19 1 20
REMARK H PARENT
REMARK Flexibility Score: inf
ROOT
ATOM      1  C   UNL     1      96.374  85.148  80.748  1.00  0.00     0.000 C 
ENDROOT
BRANCH   1   2
ATOM      2  C   UNL     1      97.478  85.553  79.756  1.00  0.00     0.000 C 
BRANCH   2   3
ATOM      3  C   UNL     1      96.972  85.640  78.307  1.00  0.00     0.000 C 
BRANCH   3   4
ATOM      4  C   UNL     1      95.791  86.613  78.147  1.00  0.00     0.000 C 
BRANCH   4   5
ATOM      5  C   UNL     1      94.502  85.904  77.697  1.00  0.00     0.000 C 
BRANCH   5   6
ATOM      6  C   UNL     1      94.725  84.417  77.384  1.00  0.00     0.000 C 
BRANCH   6   7
ATOM      7  C   UNL     1      93.673  83.544  78.079  1.00  0.00     0.006 C 
BRANCH   7   8
ATOM      8  C   UNL     1      93.023  84.293  79.245  1.00  0.00     0.053 C 
BRANCH   8   9
ATOM      9  C   UNL     1      91.533  84.169  79.184  1.00  0.00     0.041 C 
ATOM     10  O   UNL     1      90.803  85.160  79.447  1.00  0.00    -0.550 OA
ATOM     11  O   UNL     1      90.951  82.969  78.791  1.00  0.00    -0.550 OA
ENDBRANCH   8   9
ENDBRANCH   7   8
ENDBRANCH   6   7
ENDBRANCH   5   6
ENDBRANCH   4   5
ENDBRANCH   3   4
ENDBRANCH   2   3
ENDBRANCH   1   2
BRANCH   1  12
ATOM     12  C   UNL     1      96.938  84.715  82.111  1.00  0.00     0.000 C 
BRANCH  12  13
ATOM     13  C   UNL     1      98.360  85.244  82.359  1.00  0.00    -0.000 C 
BRANCH  13  14
ATOM     14  C   UNL     1      99.067  84.427  83.446  1.00  0.00    -0.000 C 
BRANCH  14  15
ATOM     15  C   UNL     1      99.697  83.155  82.858  1.00  0.00    -0.000 C 
BRANCH  15  16
ATOM     16  C   UNL     1     100.521  83.426  81.586  1.00  0.00    -0.000 C 
BRANCH  16  17
ATOM     17  C   UNL     1     100.093  82.612  80.351  1.00  0.00    -0.000 C 
BRANCH  17  18
ATOM     18  C   UNL     1      98.704  81.970  80.509  1.00  0.00    -0.000 C 
BRANCH  18  19
ATOM     19  C   UNL     1      97.883  82.017  79.210  1.00  0.00    -0.003 C 
ATOM     20  C   UNL     1      96.430  81.586  79.415  1.00  0.00     0.004 C 
ENDBRANCH  18  19
ENDBRANCH  17  18
ENDBRANCH  16  17
ENDBRANCH  15  16
ENDBRANCH  14  15
ENDBRANCH  13  14
ENDBRANCH  12  13
ENDBRANCH   1  12
TORSDOF 16
ENDMDL
MODEL 5
REMARK VINA RESULT:    -4.332      3.366      8.026
REMARK INTER + INTRA:          -9.981
REMARK INTER:                  -8.554
REMARK INTRA:                  -1.427
REMARK UNBOUND:                -1.597
REMARK SMILES CCCCCCCCCCCCCCCCCC(=O)[O-]
REMARK SMILES IDX 10 1 11 2 12 3 13 4 14 5 15 6 16 7 17 8 18 9 19 10 20 11
REMARK SMILES IDX 9 12 8 13 7 14 6 15 5 16 4 17 3 18 2 19 1 20
REMARK H PARENT
REMARK Flexibility Score: inf
ROOT
ATOM      1  C   UNL     1      95.858  84.006  77.972  1.00  0.00     0.000 C 
ENDROOT
BRANCH   1   2
ATOM      2  C   UNL     1      94.878  85.166  77.730  1.00  0.00     0.000 C 
BRANCH   2   3
ATOM      3  C   UNL     1      94.083  85.011  76.424  1.00  0.00     0.000 C 
BRANCH   3   4
ATOM      4  C   UNL     1      92.614  84.621  76.664  1.00  0.00     0.000 C 
BRANCH   4   5
ATOM      5  C   UNL     1      92.456  83.148  77.076  1.00  0.00     0.000 C 
BRANCH   5   6
ATOM      6  C   UNL     1      91.530  82.971  78.289  1.00  0.00     0.000 C 
BRANCH   6   7
ATOM      7  C   UNL     1      91.210  84.322  78.939  1.00  0.00     0.006 C 
BRANCH   7   8
ATOM      8  C   UNL     1      91.519  84.296  80.439  1.00  0.00     0.053 C 
BRANCH   8   9
ATOM      9  C   UNL     1      90.299  83.923  81.221  1.00  0.00     0.041 C 
ATOM     10  O   UNL     1      90.404  83.548  82.418  1.00  0.00    -0.550 OA
ATOM     11  O   UNL     1      89.041  84.033  80.641  1.00  0.00    -0.550 OA
ENDBRANCH   8   9
ENDBRANCH   7   8
ENDBRANCH   6   7
ENDBRANCH   5   6
ENDBRANCH   4   5
ENDBRANCH   3   4
ENDBRANCH   2   3
ENDBRANCH   1   2
BRANCH   1  12
ATOM     12  C   UNL     1      95.508  83.193  79.229  1.00  0.00     0.000 C 
BRANCH  12  13
ATOM     13  C   UNL     1      96.169  81.805  79.241  1.00  0.00    -0.000 C 
BRANCH  13  14
ATOM     14  C   UNL     1      97.694  81.924  79.137  1.00  0.00    -0.000 C 
BRANCH  14  15
ATOM     15  C   UNL     1      98.326  82.154  80.519  1.00  0.00    -0.000 C 
BRANCH  15  16
ATOM     16  C   UNL     1      99.774  82.669  80.439  1.00  0.00    -0.000 C 
BRANCH  16  17
ATOM     17  C   UNL     1     100.384  83.100  81.787  1.00  0.00    -0.000 C 
BRANCH  17  18
ATOM     18  C   UNL     1     100.664  84.611  81.862  1.00  0.00    -0.000 C 
BRANCH  18  19
ATOM     19  C   UNL     1     100.854  85.243  80.474  1.00  0.00    -0.003 C 
ATOM     20  C   UNL     1     102.289  85.709  80.228  1.00  0.00     0.004 C 
ENDBRANCH  18  19
ENDBRANCH  17  18
ENDBRANCH  16  17
ENDBRANCH  15  16
ENDBRANCH  14  15
ENDBRANCH  13  14
ENDBRANCH  12  13
ENDBRANCH   1  12
TORSDOF 16
ENDMDL
MODEL 6
REMARK VINA RESULT:    -4.302      1.248      3.592
REMARK INTER + INTRA:          -9.924
REMARK INTER:                  -7.375
REMARK INTRA:                  -2.549
REMARK UNBOUND:                -1.597
REMARK SMILES CCCCCCCCCCCCCCCCCC(=O)[O-]
REMARK SMILES IDX 10 1 11 2 12 3 13 4 14 5 15 6 16 7 17 8 18 9 19 10 20 11
REMARK SMILES IDX 9 12 8 13 7 14 6 15 5 16 4 17 3 18 2 19 1 20
REMARK H PARENT
REMARK Flexibility Score: inf
ROOT
ATOM      1  C   UNL     1     101.262  84.006  80.634  1.00  0.00     0.000 C 
ENDROOT
BRANCH   1   2
ATOM      2  C   UNL     1     100.923  85.263  81.453  1.00  0.00     0.000 C 
BRANCH   2   3
ATOM      3  C   UNL     1     100.204  86.338  80.622  1.00  0.00     0.000 C 
BRANCH   3   4
ATOM      4  C   UNL     1      98.767  85.938  80.247  1.00  0.00     0.000 C 
BRANCH   4   5
ATOM      5  C   UNL     1      97.743  86.344  81.321  1.00  0.00     0.000 C 
BRANCH   5   6
ATOM      6  C   UNL     1      97.107  85.131  82.018  1.00  0.00     0.000 C 
BRANCH   6   7
ATOM      7  C   UNL     1      97.852  84.787  83.313  1.00  0.00     0.006 C 
BRANCH   7   8
ATOM      8  C   UNL     1      97.470  83.390  83.810  1.00  0.00     0.053 C 
BRANCH   8   9
ATOM      9  C   UNL     1      98.637  82.731  84.475  1.00  0.00     0.041 C 
ATOM     10  O   UNL     1      99.120  83.214  85.532  1.00  0.00    -0.550 OA
ATOM     11  O   UNL     1      99.163  81.556  83.951  1.00  0.00    -0.550 OA
ENDBRANCH   8   9
ENDBRANCH   7   8
ENDBRANCH   6   7
ENDBRANCH   5   6
ENDBRANCH   4   5
ENDBRANCH   3   4
ENDBRANCH   2   3
ENDBRANCH   1   2
BRANCH   1  12
ATOM     12  C   UNL     1     100.446  82.780  81.073  1.00  0.00     0.000 C 
BRANCH  12  13
ATOM     13  C   UNL     1      99.486  82.284  79.980  1.00  0.00    -0.000 C 
BRANCH  13  14
ATOM     14  C   UNL     1      98.094  82.004  80.558  1.00  0.00    -0.000 C 
BRANCH  14  15
ATOM     15  C   UNL     1      97.031  81.981  79.448  1.00  0.00    -0.000 C 
BRANCH  15  16
ATOM     16  C   UNL     1      97.220  83.103  78.412  1.00  0.00    -0.000 C 
BRANCH  16  17
ATOM     17  C   UNL     1      96.091  84.150  78.376  1.00  0.00    -0.000 C 
BRANCH  17  18
ATOM     18  C   UNL     1      94.721  83.567  78.763  1.00  0.00    -0.000 C 
BRANCH  18  19
ATOM     19  C   UNL     1      93.633  83.884  77.726  1.00  0.00    -0.003 C 
ATOM     20  C   UNL     1      92.613  82.754  77.576  1.00  0.00     0.004 C 
ENDBRANCH  18  19
ENDBRANCH  17  18
ENDBRANCH  16  17
ENDBRANCH  15  16
ENDBRANCH  14  15
ENDBRANCH  13  14
ENDBRANCH  12  13
ENDBRANCH   1  12
TORSDOF 16
ENDMDL
MODEL 7
REMARK VINA RESULT:    -4.292      3.711      7.090
REMARK INTER + INTRA:          -9.903
REMARK INTER:                  -7.163
REMARK INTRA:                  -2.740
REMARK UNBOUND:                -1.597
REMARK SMILES CCCCCCCCCCCCCCCCCC(=O)[O-]
REMARK SMILES IDX 10 1 11 2 12 3 13 4 14 5 15 6 16 7 17 8 18 9 19 10 20 11
REMARK SMILES IDX 9 12 8 13 7 14 6 15 5 16 4 17 3 18 2 19 1 20
REMARK H PARENT
REMARK Flexibility Score: inf
ROOT
ATOM      1  C   UNL     1      97.338  81.972  79.406  1.00  0.00     0.000 C 
ENDROOT
BRANCH   1   2
ATOM      2  C   UNL     1      96.977  83.157  78.494  1.00  0.00     0.000 C 
BRANCH   2   3
ATOM      3  C   UNL     1      95.482  83.511  78.544  1.00  0.00     0.000 C 
BRANCH   3   4
ATOM      4  C   UNL     1      95.188  84.926  78.016  1.00  0.00     0.000 C 
BRANCH   4   5
ATOM      5  C   UNL     1      94.040  85.611  78.776  1.00  0.00     0.000 C 
BRANCH   5   6
ATOM      6  C   UNL     1      93.265  84.636  79.677  1.00  0.00     0.000 C 
BRANCH   6   7
ATOM      7  C   UNL     1      91.758  84.718  79.409  1.00  0.00     0.006 C 
BRANCH   7   8
ATOM      8  C   UNL     1      91.248  83.431  78.753  1.00  0.00     0.053 C 
BRANCH   8   9
ATOM      9  C   UNL     1      91.432  83.489  77.270  1.00  0.00     0.041 C 
ATOM     10  O   UNL     1      92.447  82.969  76.736  1.00  0.00    -0.550 OA
ATOM     11  O   UNL     1      90.459  84.079  76.470  1.00  0.00    -0.550 OA
ENDBRANCH   8   9
ENDBRANCH   7   8
ENDBRANCH   6   7
ENDBRANCH   5   6
ENDBRANCH   4   5
ENDBRANCH   3   4
ENDBRANCH   2   3
ENDBRANCH   1   2
BRANCH   1  12
ATOM     12  C   UNL     1      98.802  82.014  79.875  1.00  0.00     0.000 C 
BRANCH  12  13
ATOM     13  C   UNL     1      98.934  82.018  81.406  1.00  0.00    -0.000 C 
BRANCH  13  14
ATOM     14  C   UNL     1      99.860  83.148  81.873  1.00  0.00    -0.000 C 
BRANCH  14  15
ATOM     15  C   UNL     1      99.786  84.351  80.920  1.00  0.00    -0.000 C 
BRANCH  15  16
ATOM     16  C   UNL     1      98.951  85.514  81.484  1.00  0.00    -0.000 C 
BRANCH  16  17
ATOM     17  C   UNL     1      97.492  85.563  80.993  1.00  0.00    -0.000 C 
BRANCH  17  18
ATOM     18  C   UNL     1      96.472  85.361  82.127  1.00  0.00    -0.000 C 
BRANCH  18  19
ATOM     19  C   UNL     1      95.922  83.927  82.175  1.00  0.00    -0.003 C 
ATOM     20  C   UNL     1      95.494  83.505  83.581  1.00  0.00     0.004 C 
ENDBRANCH  18  19
ENDBRANCH  17  18
ENDBRANCH  16  17
ENDBRANCH  15  16
ENDBRANCH  14  15
ENDBRANCH  13  14
ENDBRANCH  12  13
ENDBRANCH   1  12
TORSDOF 16
ENDMDL
MODEL 8
REMARK VINA RESULT:    -4.263      2.247      3.689
REMARK INTER + INTRA:          -9.848
REMARK INTER:                  -8.225
REMARK INTRA:                  -1.623
REMARK UNBOUND:                -1.597
REMARK SMILES CCCCCCCCCCCCCCCCCC(=O)[O-]
REMARK SMILES IDX 10 1 11 2 12 3 13 4 14 5 15 6 16 7 17 8 18 9 19 10 20 11
REMARK SMILES IDX 9 12 8 13 7 14 6 15 5 16 4 17 3 18 2 19 1 20
REMARK H PARENT
REMARK Flexibility Score: inf
ROOT
ATOM      1  C   UNL     1      95.990  84.246  78.042  1.00  0.00     0.000 C 
ENDROOT
BRANCH   1   2
ATOM      2  C   UNL     1      96.741  84.348  79.381  1.00  0.00     0.000 C 
BRANCH   2   3
ATOM      3  C   UNL     1      96.730  83.029  80.170  1.00  0.00     0.000 C 
BRANCH   3   4
ATOM      4  C   UNL     1      97.658  81.964  79.561  1.00  0.00     0.000 C 
BRANCH   4   5
ATOM      5  C   UNL     1      99.091  82.046  80.116  1.00  0.00     0.000 C 
BRANCH   5   6
ATOM      6  C   UNL     1      99.125  82.413  81.608  1.00  0.00     0.000 C 
BRANCH   6   7
ATOM      7  C   UNL     1     100.396  83.199  81.952  1.00  0.00     0.006 C 
BRANCH   7   8
ATOM      8  C   UNL     1     101.063  83.744  80.687  1.00  0.00     0.053 C 
BRANCH   8   9
ATOM      9  C   UNL     1     101.875  84.960  81.003  1.00  0.00     0.041 C 
ATOM     10  O   UNL     1     101.990  85.354  82.194  1.00  0.00    -0.550 OA
ATOM     11  O   UNL     1     102.544  85.634  79.988  1.00  0.00    -0.550 OA
ENDBRANCH   8   9
ENDBRANCH   7   8
ENDBRANCH   6   7
ENDBRANCH   5   6
ENDBRANCH   4   5
ENDBRANCH   3   4
ENDBRANCH   2   3
ENDBRANCH   1   2
BRANCH   1  12
ATOM     12  C   UNL     1      94.522  83.828  78.221  1.00  0.00     0.000 C 
BRANCH  12  13
ATOM     13  C   UNL     1      93.639  84.238  77.031  1.00  0.00    -0.000 C 
BRANCH  13  14
ATOM     14  C   UNL     1      92.368  83.384  76.972  1.00  0.00    -0.000 C 
BRANCH  14  15
ATOM     15  C   UNL     1      91.129  84.256  76.716  1.00  0.00    -0.000 C 
BRANCH  15  16
ATOM     16  C   UNL     1      89.890  83.785  77.499  1.00  0.00    -0.000 C 
BRANCH  16  17
ATOM     17  C   UNL     1      90.196  83.095  78.842  1.00  0.00    -0.000 C 
BRANCH  17  18
ATOM     18  C   UNL     1      90.249  84.081  80.022  1.00  0.00    -0.000 C 
BRANCH  18  19
ATOM     19  C   UNL     1      91.685  84.340  80.507  1.00  0.00    -0.003 C 
ATOM     20  C   UNL     1      92.108  85.800  80.346  1.00  0.00     0.004 C 
ENDBRANCH  18  19
ENDBRANCH  17  18
ENDBRANCH  16  17
ENDBRANCH  15  16
ENDBRANCH  14  15
ENDBRANCH  13  14
ENDBRANCH  12  13
ENDBRANCH   1  12
TORSDOF 16
ENDMDL
MODEL 9
REMARK VINA RESULT:    -4.257      2.961      3.581
REMARK INTER + INTRA:          -9.836
REMARK INTER:                  -7.761
REMARK INTRA:                  -2.075
REMARK UNBOUND:                -1.597
REMARK SMILES CCCCCCCCCCCCCCCCCC(=O)[O-]
REMARK SMILES IDX 10 1 11 2 12 3 13 4 14 5 15 6 16 7 17 8 18 9 19 10 20 11
REMARK SMILES IDX 9 12 8 13 7 14 6 15 5 16 4 17 3 18 2 19 1 20
REMARK H PARENT
REMARK Flexibility Score: inf
ROOT
ATOM      1  C   UNL     1      96.194  82.156  78.886  1.00  0.00     0.000 C 
ENDROOT
BRANCH   1   2
ATOM      2  C   UNL     1      97.179  81.748  79.994  1.00  0.00     0.000 C 
BRANCH   2   3
ATOM      3  C   UNL     1      98.645  82.017  79.615  1.00  0.00     0.000 C 
BRANCH   3   4
ATOM      4  C   UNL     1      99.440  82.683  80.751  1.00  0.00     0.000 C 
BRANCH   4   5
ATOM      5  C   UNL     1      98.578  83.640  81.590  1.00  0.00     0.000 C 
BRANCH   5   6
ATOM      6  C   UNL     1      99.121  85.077  81.591  1.00  0.00     0.000 C 
BRANCH   6   7
ATOM      7  C   UNL     1      99.762  85.424  80.242  1.00  0.00     0.006 C 
BRANCH   7   8
ATOM      8  C   UNL     1      98.795  86.226  79.366  1.00  0.00     0.053 C 
BRANCH   8   9
ATOM      9  C   UNL     1      99.510  87.351  78.688  1.00  0.00     0.041 C 
ATOM     10  O   UNL     1      99.071  87.821  77.605  1.00  0.00    -0.550 OA
ATOM     11  O   UNL     1     100.639  87.913  79.274  1.00  0.00    -0.550 OA
ENDBRANCH   8   9
ENDBRANCH   7   8
ENDBRANCH   6   7
ENDBRANCH   5   6
ENDBRANCH   4   5
ENDBRANCH   3   4
ENDBRANCH   2   3
ENDBRANCH   1   2
BRANCH   1  12
ATOM     12  C   UNL     1      96.362  83.624  78.462  1.00  0.00     0.000 C 
BRANCH  12  13
ATOM     13  C   UNL     1      95.565  84.593  79.351  1.00  0.00    -0.000 C 
BRANCH  13  14
ATOM     14  C   UNL     1      94.565  85.404  78.519  1.00  0.00    -0.000 C 
BRANCH  14  15
ATOM     15  C   UNL     1      94.479  84.866  77.082  1.00  0.00    -0.000 C 
BRANCH  15  16
ATOM     16  C   UNL     1      93.102  84.264  76.747  1.00  0.00    -0.000 C 
BRANCH  16  17
ATOM     17  C   UNL     1      92.753  82.977  77.518  1.00  0.00    -0.000 C 
BRANCH  17  18
ATOM     18  C   UNL     1      91.479  83.116  78.369  1.00  0.00    -0.000 C 
BRANCH  18  19
ATOM     19  C   UNL     1      90.577  84.268  77.895  1.00  0.00    -0.003 C 
ATOM     20  C   UNL     1      89.499  83.807  76.914  1.00  0.00     0.004 C 
ENDBRANCH  18  19
ENDBRANCH  17  18
ENDBRANCH  16  17
ENDBRANCH  15  16
ENDBRANCH  14  15
ENDBRANCH  13  14
ENDBRANCH  12  13
ENDBRANCH   1  12
TORSDOF 16
ENDMDL
