MODEL 1
REMARK VINA RESULT:    -6.918      0.000      0.000
REMARK INTER + INTRA:          -8.396
REMARK INTER:                  -8.131
REMARK INTRA:                  -0.265
REMARK UNBOUND:                -0.265
REMARK SMILES O=c1cc(-c2ccc(O)c(O)c2)oc2cc(O)cc(O)c12
REMARK SMILES IDX 4 1 3 2 2 3 1 4 21 5 19 6 18 7 16 8 15 9 14 10 13 11 5 12
REMARK SMILES IDX 6 13 7 14 8 15 12 16 10 17 9 18 11 20 20 22 17 24
REMARK H PARENT 9 19 11 21 20 23 17 25
REMARK Flexibility Score: inf
ROOT
ATOM      1  C   UNL     1       6.477  11.089  46.606  1.00  0.00     0.138 A 
ATOM      2  C   UNL     1       7.177  12.154  46.014  1.00  0.00     0.100 A 
ATOM      3  C   UNL     1       8.425  11.918  45.436  1.00  0.00     0.197 A 
ATOM      4  O   UNL     1       9.045  12.879  44.906  1.00  0.00    -0.289 OA
ATOM      5  C   UNL     1       8.964  10.616  45.450  1.00  0.00     0.107 A 
ATOM      6  C   UNL     1      10.221  10.291  44.888  1.00  0.00     0.134 A 
ATOM      7  C   UNL     1      10.684   8.968  44.940  1.00  0.00     0.093 A 
ATOM      8  C   UNL     1       9.917   7.967  45.539  1.00  0.00     0.123 A 
ATOM      9  C   UNL     1       8.673   8.282  46.096  1.00  0.00     0.094 A 
ATOM     10  C   UNL     1       8.194   9.594  46.056  1.00  0.00     0.146 A 
ATOM     11  O   UNL     1       7.010   9.869  46.595  1.00  0.00    -0.456 OA
ENDROOT
BRANCH   1  12
ATOM     12  C   UNL     1       5.146  11.281  47.236  1.00  0.00     0.021 A 
ATOM     13  C   UNL     1       4.007  10.727  46.627  1.00  0.00     0.016 A 
ATOM     14  C   UNL     1       2.744  10.887  47.202  1.00  0.00     0.051 A 
ATOM     15  C   UNL     1       2.599  11.594  48.401  1.00  0.00     0.157 A 
ATOM     16  C   UNL     1       4.994  11.981  48.449  1.00  0.00     0.062 A 
ATOM     17  C   UNL     1       3.730  12.140  49.029  1.00  0.00     0.158 A 
BRANCH  15  18
ATOM     18  O   UNL     1       1.337  11.753  48.972  1.00  0.00    -0.504 OA
ATOM     19  H   UNL     1       1.183  11.616  49.964  1.00  0.00     0.293 HD
ENDBRANCH  15  18
BRANCH  17  20
ATOM     20  O   UNL     1       3.619  12.840  50.230  1.00  0.00    -0.504 OA
ATOM     21  H   UNL     1       3.874  12.426  51.120  1.00  0.00     0.293 HD
ENDBRANCH  17  20
ENDBRANCH   1  12
BRANCH   6  22
ATOM     22  O   UNL     1      11.010  11.271  44.283  1.00  0.00    -0.507 OA
ATOM     23  H   UNL     1      11.914  11.051  43.879  1.00  0.00     0.293 HD
ENDBRANCH   6  22
BRANCH   8  24
ATOM     24  O   UNL     1      10.400   6.661  45.575  1.00  0.00    -0.508 OA
ATOM     25  H   UNL     1       9.794   5.878  45.791  1.00  0.00     0.293 HD
ENDBRANCH   8  24
TORSDOF 5
ENDMDL
MODEL 2
REMARK VINA RESULT:    -6.875      1.349      7.176
REMARK INTER + INTRA:          -8.346
REMARK INTER:                  -8.082
REMARK INTRA:                  -0.264
REMARK UNBOUND:                -0.265
REMARK SMILES O=c1cc(-c2ccc(O)c(O)c2)oc2cc(O)cc(O)c12
REMARK SMILES IDX 4 1 3 2 2 3 1 4 21 5 19 6 18 7 16 8 15 9 14 10 13 11 5 12
REMARK SMILES IDX 6 13 7 14 8 15 12 16 10 17 9 18 11 20 20 22 17 24
REMARK H PARENT 9 19 11 21 20 23 17 25
REMARK Flexibility Score: inf
ROOT
ATOM      1  C   UNL     1       5.929  10.909  47.203  1.00  0.00     0.138 A 
ATOM      2  C   UNL     1       5.941  11.715  48.354  1.00  0.00     0.100 A 
ATOM      3  C   UNL     1       4.735  12.049  48.971  1.00  0.00     0.197 A 
ATOM      4  O   UNL     1       4.757  12.771  50.005  1.00  0.00    -0.289 OA
ATOM      5  C   UNL     1       3.523  11.572  48.435  1.00  0.00     0.107 A 
ATOM      6  C   UNL     1       2.258  11.864  48.998  1.00  0.00     0.134 A 
ATOM      7  C   UNL     1       1.097  11.346  48.405  1.00  0.00     0.093 A 
ATOM      8  C   UNL     1       1.176  10.543  47.265  1.00  0.00     0.123 A 
ATOM      9  C   UNL     1       2.424  10.250  46.704  1.00  0.00     0.094 A 
ATOM     10  C   UNL     1       3.592  10.758  47.279  1.00  0.00     0.146 A 
ATOM     11  O   UNL     1       4.766  10.467  46.726  1.00  0.00    -0.456 OA
ENDROOT
BRANCH   1  12
ATOM     12  C   UNL     1       7.180  10.521  46.504  1.00  0.00     0.021 A 
ATOM     13  C   UNL     1       7.724   9.244  46.720  1.00  0.00     0.016 A 
ATOM     14  C   UNL     1       8.897   8.851  46.070  1.00  0.00     0.051 A 
ATOM     15  C   UNL     1       9.541   9.725  45.186  1.00  0.00     0.157 A 
ATOM     16  C   UNL     1       7.826  11.391  45.603  1.00  0.00     0.062 A 
ATOM     17  C   UNL     1       8.999  10.999  44.950  1.00  0.00     0.158 A 
BRANCH  15  18
ATOM     18  O   UNL     1      10.712   9.331  44.540  1.00  0.00    -0.504 OA
ATOM     19  H   UNL     1      11.611   9.363  45.006  1.00  0.00     0.293 HD
ENDBRANCH  15  18
BRANCH  17  20
ATOM     20  O   UNL     1       9.611  11.888  44.065  1.00  0.00    -0.504 OA
ATOM     21  H   UNL     1      10.196  11.570  43.302  1.00  0.00     0.293 HD
ENDBRANCH  17  20
ENDBRANCH   1  12
BRANCH   6  22
ATOM     22  O   UNL     1       2.147  12.664  50.136  1.00  0.00    -0.507 OA
ATOM     23  H   UNL     1       2.673  12.465  50.979  1.00  0.00     0.293 HD
ENDBRANCH   6  22
BRANCH   8  24
ATOM     24  O   UNL     1       0.008  10.040  46.697  1.00  0.00    -0.508 OA
ATOM     25  H   UNL     1      -0.527  10.576  46.023  1.00  0.00     0.293 HD
ENDBRANCH   8  24
TORSDOF 5
ENDMDL
MODEL 3
REMARK VINA RESULT:    -6.761      8.207     11.232
REMARK INTER + INTRA:          -8.212
REMARK INTER:                  -7.946
REMARK INTRA:                  -0.265
REMARK UNBOUND:                -0.265
REMARK SMILES O=c1cc(-c2ccc(O)c(O)c2)oc2cc(O)cc(O)c12
REMARK SMILES IDX 4 1 3 2 2 3 1 4 21 5 19 6 18 7 16 8 15 9 14 10 13 11 5 12
REMARK SMILES IDX 6 13 7 14 8 15 12 16 10 17 9 18 11 20 20 22 17 24
REMARK H PARENT 9 19 11 21 20 23 17 25
REMARK Flexibility Score: inf
ROOT
ATOM      1  C   UNL     1      10.880   4.078  51.581  1.00  0.00     0.138 A 
ATOM      2  C   UNL     1      12.093   3.758  52.213  1.00  0.00     0.100 A 
ATOM      3  C   UNL     1      12.074   3.175  53.481  1.00  0.00     0.197 A 
ATOM      4  O   UNL     1      13.168   2.890  54.040  1.00  0.00    -0.289 OA
ATOM      5  C   UNL     1      10.840   2.913  54.109  1.00  0.00     0.107 A 
ATOM      6  C   UNL     1      10.732   2.327  55.392  1.00  0.00     0.134 A 
ATOM      7  C   UNL     1       9.464   2.094  55.944  1.00  0.00     0.093 A 
ATOM      8  C   UNL     1       8.306   2.434  55.242  1.00  0.00     0.123 A 
ATOM      9  C   UNL     1       8.406   3.013  53.972  1.00  0.00     0.094 A 
ATOM     10  C   UNL     1       9.660   3.255  53.404  1.00  0.00     0.146 A 
ATOM     11  O   UNL     1       9.730   3.808  52.197  1.00  0.00    -0.456 OA
ENDROOT
BRANCH   1  12
ATOM     12  C   UNL     1      10.839   4.698  50.233  1.00  0.00     0.021 A 
ATOM     13  C   UNL     1      10.298   5.986  50.081  1.00  0.00     0.016 A 
ATOM     14  C   UNL     1      10.254   6.595  48.825  1.00  0.00     0.051 A 
ATOM     15  C   UNL     1      10.757   5.931  47.700  1.00  0.00     0.157 A 
ATOM     16  C   UNL     1      11.356   4.040  49.099  1.00  0.00     0.062 A 
ATOM     17  C   UNL     1      11.314   4.649  47.840  1.00  0.00     0.158 A 
BRANCH  15  18
ATOM     18  O   UNL     1      10.711   6.541  46.447  1.00  0.00    -0.504 OA
ATOM     19  H   UNL     1      11.018   7.497  46.310  1.00  0.00     0.293 HD
ENDBRANCH  15  18
BRANCH  17  20
ATOM     20  O   UNL     1      11.835   3.967  46.740  1.00  0.00    -0.504 OA
ATOM     21  H   UNL     1      12.822   3.987  46.512  1.00  0.00     0.293 HD
ENDBRANCH  17  20
ENDBRANCH   1  12
BRANCH   6  22
ATOM     22  O   UNL     1      11.871   1.977  56.119  1.00  0.00    -0.507 OA
ATOM     23  H   UNL     1      12.269   1.046  56.069  1.00  0.00     0.293 HD
ENDBRANCH   6  22
BRANCH   8  24
ATOM     24  O   UNL     1       7.059   2.191  55.813  1.00  0.00    -0.508 OA
ATOM     25  H   UNL     1       6.260   1.926  55.248  1.00  0.00     0.293 HD
ENDBRANCH   8  24
TORSDOF 5
ENDMDL
MODEL 4
REMARK VINA RESULT:    -6.715      1.756      6.815
REMARK INTER + INTRA:          -8.158
REMARK INTER:                  -7.867
REMARK INTRA:                  -0.291
REMARK UNBOUND:                -0.265
REMARK SMILES O=c1cc(-c2ccc(O)c(O)c2)oc2cc(O)cc(O)c12
REMARK SMILES IDX 4 1 3 2 2 3 1 4 21 5 19 6 18 7 16 8 15 9 14 10 13 11 5 12
REMARK SMILES IDX 6 13 7 14 8 15 12 16 10 17 9 18 11 20 20 22 17 24
REMARK H PARENT 9 19 11 21 20 23 17 25
REMARK Flexibility Score: inf
ROOT
ATOM      1  C   UNL     1       7.198  10.130  46.677  1.00  0.00     0.138 A 
ATOM      2  C   UNL     1       7.146  11.040  45.608  1.00  0.00     0.100 A 
ATOM      3  C   UNL     1       6.179  12.045  45.607  1.00  0.00     0.197 A 
ATOM      4  O   UNL     1       6.140  12.858  44.644  1.00  0.00    -0.289 OA
ATOM      5  C   UNL     1       5.269  12.136  46.680  1.00  0.00     0.107 A 
ATOM      6  C   UNL     1       4.258  13.123  46.757  1.00  0.00     0.134 A 
ATOM      7  C   UNL     1       3.395  13.148  47.863  1.00  0.00     0.093 A 
ATOM      8  C   UNL     1       3.524  12.210  48.890  1.00  0.00     0.123 A 
ATOM      9  C   UNL     1       4.522  11.232  48.819  1.00  0.00     0.094 A 
ATOM     10  C   UNL     1       5.391  11.189  47.725  1.00  0.00     0.146 A 
ATOM     11  O   UNL     1       6.330  10.249  47.680  1.00  0.00    -0.456 OA
ENDROOT
BRANCH   1  12
ATOM     12  C   UNL     1       8.206   9.041  46.731  1.00  0.00     0.021 A 
ATOM     13  C   UNL     1       8.545   8.474  47.971  1.00  0.00     0.016 A 
ATOM     14  C   UNL     1       9.485   7.444  48.049  1.00  0.00     0.051 A 
ATOM     15  C   UNL     1      10.096   6.956  46.888  1.00  0.00     0.157 A 
ATOM     16  C   UNL     1       8.815   8.537  45.565  1.00  0.00     0.062 A 
ATOM     17  C   UNL     1       9.756   7.504  45.640  1.00  0.00     0.158 A 
BRANCH  15  18
ATOM     18  O   UNL     1      11.035   5.929  46.968  1.00  0.00    -0.504 OA
ATOM     19  H   UNL     1      11.985   6.101  47.276  1.00  0.00     0.293 HD
ENDBRANCH  15  18
BRANCH  17  20
ATOM     20  O   UNL     1      10.339   7.031  44.464  1.00  0.00    -0.504 OA
ATOM     21  H   UNL     1      11.306   6.732  44.425  1.00  0.00     0.293 HD
ENDBRANCH  17  20
ENDBRANCH   1  12
BRANCH   6  22
ATOM     22  O   UNL     1       4.105  14.073  45.747  1.00  0.00    -0.507 OA
ATOM     23  H   UNL     1       3.306  14.062  45.123  1.00  0.00     0.293 HD
ENDBRANCH   6  22
BRANCH   8  24
ATOM     24  O   UNL     1       2.655  12.258  49.977  1.00  0.00    -0.508 OA
ATOM     25  H   UNL     1       1.659  12.101  49.866  1.00  0.00     0.293 HD
ENDBRANCH   8  24
TORSDOF 5
ENDMDL
MODEL 5
REMARK VINA RESULT:    -6.510      7.804     10.702
REMARK INTER + INTRA:          -7.917
REMARK INTER:                  -7.648
REMARK INTRA:                  -0.268
REMARK UNBOUND:                -0.265
REMARK SMILES O=c1cc(-c2ccc(O)c(O)c2)oc2cc(O)cc(O)c12
REMARK SMILES IDX 4 1 3 2 2 3 1 4 21 5 19 6 18 7 16 8 15 9 14 10 13 11 5 12
REMARK SMILES IDX 6 13 7 14 8 15 12 16 10 17 9 18 11 20 20 22 17 24
REMARK H PARENT 9 19 11 21 20 23 17 25
REMARK Flexibility Score: inf
ROOT
ATOM      1  C   UNL     1       9.619   4.689  51.384  1.00  0.00     0.138 A 
ATOM      2  C   UNL     1       8.250   4.735  51.694  1.00  0.00     0.100 A 
ATOM      3  C   UNL     1       7.784   4.099  52.846  1.00  0.00     0.197 A 
ATOM      4  O   UNL     1       6.553   4.147  53.116  1.00  0.00    -0.289 OA
ATOM      5  C   UNL     1       8.694   3.423  53.684  1.00  0.00     0.107 A 
ATOM      6  C   UNL     1       8.306   2.753  54.868  1.00  0.00     0.134 A 
ATOM      7  C   UNL     1       9.275   2.107  55.649  1.00  0.00     0.093 A 
ATOM      8  C   UNL     1      10.619   2.120  55.273  1.00  0.00     0.123 A 
ATOM      9  C   UNL     1      11.010   2.781  54.104  1.00  0.00     0.094 A 
ATOM     10  C   UNL     1      10.059   3.430  53.310  1.00  0.00     0.146 A 
ATOM     11  O   UNL     1      10.454   4.050  52.202  1.00  0.00    -0.456 OA
ENDROOT
BRANCH   1  12
ATOM     12  C   UNL     1      10.171   5.347  50.173  1.00  0.00     0.021 A 
ATOM     13  C   UNL     1      10.284   6.748  50.139  1.00  0.00     0.016 A 
ATOM     14  C   UNL     1      10.806   7.392  49.015  1.00  0.00     0.051 A 
ATOM     15  C   UNL     1      11.233   6.647  47.909  1.00  0.00     0.157 A 
ATOM     16  C   UNL     1      10.615   4.603  49.063  1.00  0.00     0.062 A 
ATOM     17  C   UNL     1      11.140   5.246  47.936  1.00  0.00     0.158 A 
BRANCH  15  18
ATOM     18  O   UNL     1      11.753   7.292  46.788  1.00  0.00    -0.504 OA
ATOM     19  H   UNL     1      12.341   6.806  46.121  1.00  0.00     0.293 HD
ENDBRANCH  15  18
BRANCH  17  20
ATOM     20  O   UNL     1      11.569   4.476  46.855  1.00  0.00    -0.504 OA
ATOM     21  H   UNL     1      10.921   4.099  46.172  1.00  0.00     0.293 HD
ENDBRANCH  17  20
ENDBRANCH   1  12
BRANCH   6  22
ATOM     22  O   UNL     1       6.969   2.722  55.269  1.00  0.00    -0.507 OA
ATOM     23  H   UNL     1       6.362   1.945  55.037  1.00  0.00     0.293 HD
ENDBRANCH   6  22
BRANCH   8  24
ATOM     24  O   UNL     1      11.561   1.472  56.069  1.00  0.00    -0.508 OA
ATOM     25  H   UNL     1      11.727   1.753  57.029  1.00  0.00     0.293 HD
ENDBRANCH   8  24
TORSDOF 5
ENDMDL
MODEL 6
REMARK VINA RESULT:    -6.435      6.686      8.923
REMARK INTER + INTRA:          -7.829
REMARK INTER:                  -7.540
REMARK INTRA:                  -0.289
REMARK UNBOUND:                -0.265
REMARK SMILES O=c1cc(-c2ccc(O)c(O)c2)oc2cc(O)cc(O)c12
REMARK SMILES IDX 4 1 3 2 2 3 1 4 21 5 19 6 18 7 16 8 15 9 14 10 13 11 5 12
REMARK SMILES IDX 6 13 7 14 8 15 12 16 10 17 9 18 11 20 20 22 17 24
REMARK H PARENT 9 19 11 21 20 23 17 25
REMARK Flexibility Score: inf
ROOT
ATOM      1  C   UNL     1      -0.353   9.994  45.518  1.00  0.00     0.138 A 
ATOM      2  C   UNL     1      -1.138  11.067  45.066  1.00  0.00     0.100 A 
ATOM      3  C   UNL     1      -1.804  10.964  43.844  1.00  0.00     0.197 A 
ATOM      4  O   UNL     1      -2.508  11.932  43.447  1.00  0.00    -0.289 OA
ATOM      5  C   UNL     1      -1.683   9.784  43.083  1.00  0.00     0.107 A 
ATOM      6  C   UNL     1      -2.324   9.597  41.835  1.00  0.00     0.134 A 
ATOM      7  C   UNL     1      -2.156   8.389  41.143  1.00  0.00     0.093 A 
ATOM      8  C   UNL     1      -1.365   7.367  41.671  1.00  0.00     0.123 A 
ATOM      9  C   UNL     1      -0.729   7.546  42.905  1.00  0.00     0.094 A 
ATOM     10  C   UNL     1      -0.883   8.742  43.611  1.00  0.00     0.146 A 
ATOM     11  O   UNL     1      -0.267   8.889  44.780  1.00  0.00    -0.456 OA
ENDROOT
BRANCH   1  12
ATOM     12  C   UNL     1       0.378  10.047  46.810  1.00  0.00     0.021 A 
ATOM     13  C   UNL     1       0.655   8.853  47.497  1.00  0.00     0.016 A 
ATOM     14  C   UNL     1       1.347   8.875  48.710  1.00  0.00     0.051 A 
ATOM     15  C   UNL     1       1.782  10.090  49.253  1.00  0.00     0.157 A 
ATOM     16  C   UNL     1       0.830  11.265  47.355  1.00  0.00     0.062 A 
ATOM     17  C   UNL     1       1.526  11.289  48.569  1.00  0.00     0.158 A 
BRANCH  15  18
ATOM     18  O   UNL     1       2.471  10.109  50.465  1.00  0.00    -0.504 OA
ATOM     19  H   UNL     1       3.396  10.517  50.543  1.00  0.00     0.293 HD
ENDBRANCH  15  18
BRANCH  17  20
ATOM     20  O   UNL     1       1.957  12.514  49.079  1.00  0.00    -0.504 OA
ATOM     21  H   UNL     1       1.531  13.392  48.804  1.00  0.00     0.293 HD
ENDBRANCH  17  20
ENDBRANCH   1  12
BRANCH   6  22
ATOM     22  O   UNL     1      -3.121  10.600  41.282  1.00  0.00    -0.507 OA
ATOM     23  H   UNL     1      -2.839  11.103  40.448  1.00  0.00     0.293 HD
ENDBRANCH   6  22
BRANCH   8  24
ATOM     24  O   UNL     1      -1.217   6.177  40.963  1.00  0.00    -0.508 OA
ATOM     25  H   UNL     1      -1.380   6.132  39.963  1.00  0.00     0.293 HD
ENDBRANCH   8  24
TORSDOF 5
ENDMDL
MODEL 7
REMARK VINA RESULT:    -6.406      7.174      9.625
REMARK INTER + INTRA:          -7.795
REMARK INTER:                  -7.530
REMARK INTRA:                  -0.265
REMARK UNBOUND:                -0.265
REMARK SMILES O=c1cc(-c2ccc(O)c(O)c2)oc2cc(O)cc(O)c12
REMARK SMILES IDX 4 1 3 2 2 3 1 4 21 5 19 6 18 7 16 8 15 9 14 10 13 11 5 12
REMARK SMILES IDX 6 13 7 14 8 15 12 16 10 17 9 18 11 20 20 22 17 24
REMARK H PARENT 9 19 11 21 20 23 17 25
REMARK Flexibility Score: inf
ROOT
ATOM      1  C   UNL     1       9.682   5.181  50.919  1.00  0.00     0.138 A 
ATOM      2  C   UNL     1      10.962   4.625  51.079  1.00  0.00     0.100 A 
ATOM      3  C   UNL     1      11.190   3.711  52.108  1.00  0.00     0.197 A 
ATOM      4  O   UNL     1      12.342   3.216  52.243  1.00  0.00    -0.289 OA
ATOM      5  C   UNL     1      10.134   3.356  52.970  1.00  0.00     0.107 A 
ATOM      6  C   UNL     1      10.280   2.438  54.038  1.00  0.00     0.134 A 
ATOM      7  C   UNL     1       9.176   2.134  54.848  1.00  0.00     0.093 A 
ATOM      8  C   UNL     1       7.933   2.726  54.612  1.00  0.00     0.123 A 
ATOM      9  C   UNL     1       7.782   3.633  53.558  1.00  0.00     0.094 A 
ATOM     10  C   UNL     1       8.870   3.951  52.739  1.00  0.00     0.146 A 
ATOM     11  O   UNL     1       8.703   4.818  51.745  1.00  0.00    -0.456 OA
ENDROOT
BRANCH   1  12
ATOM     12  C   UNL     1       9.381   6.158  49.842  1.00  0.00     0.021 A 
ATOM     13  C   UNL     1       9.611   7.526  50.066  1.00  0.00     0.016 A 
ATOM     14  C   UNL     1       9.343   8.466  49.068  1.00  0.00     0.051 A 
ATOM     15  C   UNL     1       8.848   8.053  47.825  1.00  0.00     0.157 A 
ATOM     16  C   UNL     1       8.896   5.748  48.585  1.00  0.00     0.062 A 
ATOM     17  C   UNL     1       8.628   6.687  47.582  1.00  0.00     0.158 A 
BRANCH  15  18
ATOM     18  O   UNL     1       8.580   8.992  46.830  1.00  0.00    -0.504 OA
ATOM     19  H   UNL     1       8.617   9.988  47.017  1.00  0.00     0.293 HD
ENDBRANCH  15  18
BRANCH  17  20
ATOM     20  O   UNL     1       8.148   6.244  46.349  1.00  0.00    -0.504 OA
ATOM     21  H   UNL     1       8.563   6.536  45.473  1.00  0.00     0.293 HD
ENDBRANCH  17  20
ENDBRANCH   1  12
BRANCH   6  22
ATOM     22  O   UNL     1      11.509   1.831  54.298  1.00  0.00    -0.507 OA
ATOM     23  H   UNL     1      12.363   2.372  54.375  1.00  0.00     0.293 HD
ENDBRANCH   6  22
BRANCH   8  24
ATOM     24  O   UNL     1       6.854   2.405  55.431  1.00  0.00    -0.508 OA
ATOM     25  H   UNL     1       6.015   1.973  55.058  1.00  0.00     0.293 HD
ENDBRANCH   8  24
TORSDOF 5
ENDMDL
MODEL 8
REMARK VINA RESULT:    -6.390      2.347      3.361
REMARK INTER + INTRA:          -7.776
REMARK INTER:                  -7.462
REMARK INTRA:                  -0.314
REMARK UNBOUND:                -0.265
REMARK SMILES O=c1cc(-c2ccc(O)c(O)c2)oc2cc(O)cc(O)c12
REMARK SMILES IDX 4 1 3 2 2 3 1 4 21 5 19 6 18 7 16 8 15 9 14 10 13 11 5 12
REMARK SMILES IDX 6 13 7 14 8 15 12 16 10 17 9 18 11 20 20 22 17 24
REMARK H PARENT 9 19 11 21 20 23 17 25
REMARK Flexibility Score: inf
ROOT
ATOM      1  C   UNL     1       7.070  10.237  48.328  1.00  0.00     0.138 A 
ATOM      2  C   UNL     1       7.739   9.917  49.521  1.00  0.00     0.100 A 
ATOM      3  C   UNL     1       8.811   9.024  49.489  1.00  0.00     0.197 A 
ATOM      4  O   UNL     1       9.407   8.744  50.565  1.00  0.00    -0.289 OA
ATOM      5  C   UNL     1       9.209   8.458  48.261  1.00  0.00     0.107 A 
ATOM      6  C   UNL     1      10.283   7.544  48.141  1.00  0.00     0.134 A 
ATOM      7  C   UNL     1      10.619   7.030  46.880  1.00  0.00     0.093 A 
ATOM      8  C   UNL     1       9.907   7.410  45.741  1.00  0.00     0.123 A 
ATOM      9  C   UNL     1       8.844   8.313  45.854  1.00  0.00     0.094 A 
ATOM     10  C   UNL     1       8.492   8.837  47.101  1.00  0.00     0.146 A 
ATOM     11  O   UNL     1       7.477   9.692  47.183  1.00  0.00    -0.456 OA
ENDROOT
BRANCH   1  12
ATOM     12  C   UNL     1       5.924  11.180  48.301  1.00  0.00     0.021 A 
ATOM     13  C   UNL     1       5.252  11.485  49.497  1.00  0.00     0.016 A 
ATOM     14  C   UNL     1       4.175  12.374  49.501  1.00  0.00     0.051 A 
ATOM     15  C   UNL     1       3.757  12.983  48.312  1.00  0.00     0.157 A 
ATOM     16  C   UNL     1       5.507  11.806  47.110  1.00  0.00     0.062 A 
ATOM     17  C   UNL     1       4.430  12.700  47.112  1.00  0.00     0.158 A 
BRANCH  15  18
ATOM     18  O   UNL     1       2.681  13.870  48.318  1.00  0.00    -0.504 OA
ATOM     19  H   UNL     1       2.121  14.030  47.489  1.00  0.00     0.293 HD
ENDBRANCH  15  18
BRANCH  17  20
ATOM     20  O   UNL     1       4.045  13.299  45.912  1.00  0.00    -0.504 OA
ATOM     21  H   UNL     1       3.521  12.799  45.204  1.00  0.00     0.293 HD
ENDBRANCH  17  20
ENDBRANCH   1  12
BRANCH   6  22
ATOM     22  O   UNL     1      11.014   7.146  49.261  1.00  0.00    -0.507 OA
ATOM     23  H   UNL     1      11.969   6.815  49.183  1.00  0.00     0.293 HD
ENDBRANCH   6  22
BRANCH   8  24
ATOM     24  O   UNL     1      10.262   6.885  44.501  1.00  0.00    -0.508 OA
ATOM     25  H   UNL     1       9.871   6.013  44.163  1.00  0.00     0.293 HD
ENDBRANCH   8  24
TORSDOF 5
ENDMDL
MODEL 9
REMARK VINA RESULT:    -6.306      1.172      2.700
REMARK INTER + INTRA:          -7.678
REMARK INTER:                  -7.412
REMARK INTRA:                  -0.266
REMARK UNBOUND:                -0.265
REMARK SMILES O=c1cc(-c2ccc(O)c(O)c2)oc2cc(O)cc(O)c12
REMARK SMILES IDX 4 1 3 2 2 3 1 4 21 5 19 6 18 7 16 8 15 9 14 10 13 11 5 12
REMARK SMILES IDX 6 13 7 14 8 15 12 16 10 17 9 18 11 20 20 22 17 24
REMARK H PARENT 9 19 11 21 20 23 17 25
REMARK Flexibility Score: inf
ROOT
ATOM      1  C   UNL     1       6.986  10.498  46.728  1.00  0.00     0.138 A 
ATOM      2  C   UNL     1       7.397   9.156  46.753  1.00  0.00     0.100 A 
ATOM      3  C   UNL     1       8.632   8.805  46.205  1.00  0.00     0.197 A 
ATOM      4  O   UNL     1       8.993   7.597  46.232  1.00  0.00    -0.289 OA
ATOM      5  C   UNL     1       9.451   9.802  45.638  1.00  0.00     0.107 A 
ATOM      6  C   UNL     1      10.714   9.533  45.062  1.00  0.00     0.134 A 
ATOM      7  C   UNL     1      11.470  10.584  44.523  1.00  0.00     0.093 A 
ATOM      8  C   UNL     1      10.990  11.895  44.550  1.00  0.00     0.123 A 
ATOM      9  C   UNL     1       9.741  12.168  45.119  1.00  0.00     0.094 A 
ATOM     10  C   UNL     1       8.972  11.135  45.661  1.00  0.00     0.146 A 
ATOM     11  O   UNL     1       7.787  11.418  46.194  1.00  0.00    -0.456 OA
ENDROOT
BRANCH   1  12
ATOM     12  C   UNL     1       5.684  10.930  47.296  1.00  0.00     0.021 A 
ATOM     13  C   UNL     1       4.501  10.683  46.578  1.00  0.00     0.016 A 
ATOM     14  C   UNL     1       3.262  11.072  47.093  1.00  0.00     0.051 A 
ATOM     15  C   UNL     1       3.183  11.706  48.339  1.00  0.00     0.157 A 
ATOM     16  C   UNL     1       5.596  11.556  48.555  1.00  0.00     0.062 A 
ATOM     17  C   UNL     1       4.355  11.944  49.074  1.00  0.00     0.158 A 
BRANCH  15  18
ATOM     18  O   UNL     1       1.945  12.094  48.850  1.00  0.00    -0.504 OA
ATOM     19  H   UNL     1       1.200  12.419  48.245  1.00  0.00     0.293 HD
ENDBRANCH  15  18
BRANCH  17  20
ATOM     20  O   UNL     1       4.308  12.563  50.324  1.00  0.00    -0.504 OA
ATOM     21  H   UNL     1       4.422  12.044  51.186  1.00  0.00     0.293 HD
ENDBRANCH  17  20
ENDBRANCH   1  12
BRANCH   6  22
ATOM     22  O   UNL     1      11.221   8.233  45.020  1.00  0.00    -0.507 OA
ATOM     23  H   UNL     1      10.817   7.524  44.418  1.00  0.00     0.293 HD
ENDBRANCH   6  22
BRANCH   8  24
ATOM     24  O   UNL     1      11.762  12.921  44.009  1.00  0.00    -0.508 OA
ATOM     25  H   UNL     1      12.483  12.735  43.321  1.00  0.00     0.293 HD
ENDBRANCH   8  24
TORSDOF 5
ENDMDL
