MODEL 1
REMARK VINA RESULT:    -4.390      0.000      0.000
REMARK INTER + INTRA:          -8.180
REMARK INTER:                  -7.470
REMARK INTRA:                  -0.710
REMARK UNBOUND:                -0.710
REMARK SMILES CCCCCCCCCCCCCC(=O)[O-]
REMARK SMILES IDX 8 1 9 2 10 3 11 4 12 5 13 6 14 7 15 8 16 9 7 10 6 11 5 12
REMARK SMILES IDX 4 13 3 14 2 15 1 16
REMARK H PARENT
REMARK Flexibility Score: inf
ROOT
ATOM      1  C   UNL     1      19.256  25.388   3.310  1.00  0.00     0.000 C 
ENDROOT
BRANCH   1   2
ATOM      2  C   UNL     1      19.084  24.498   4.551  1.00  0.00     0.000 C 
BRANCH   2   3
ATOM      3  C   UNL     1      18.150  23.302   4.301  1.00  0.00     0.000 C 
BRANCH   3   4
ATOM      4  C   UNL     1      17.104  23.128   5.414  1.00  0.00     0.000 C 
BRANCH   4   5
ATOM      5  C   UNL     1      16.281  21.834   5.268  1.00  0.00     0.006 C 
BRANCH   5   6
ATOM      6  C   UNL     1      14.853  21.934   5.833  1.00  0.00     0.053 C 
BRANCH   6   7
ATOM      7  C   UNL     1      13.909  22.621   4.893  1.00  0.00     0.041 C 
ATOM      8  O   UNL     1      13.471  23.770   5.165  1.00  0.00    -0.550 OA
ATOM      9  O   UNL     1      13.485  21.982   3.735  1.00  0.00    -0.550 OA
ENDBRANCH   6   7
ENDBRANCH   5   6
ENDBRANCH   4   5
ENDBRANCH   3   4
ENDBRANCH   2   3
ENDBRANCH   1   2
BRANCH   1  10
ATOM     10  C   UNL     1      19.773  24.571   2.118  1.00  0.00     0.000 C 
BRANCH  10  11
ATOM     11  C   UNL     1      19.051  24.905   0.799  1.00  0.00    -0.000 C 
BRANCH  11  12
ATOM     12  C   UNL     1      18.675  26.388   0.617  1.00  0.00    -0.000 C 
BRANCH  12  13
ATOM     13  C   UNL     1      17.629  26.609  -0.488  1.00  0.00    -0.000 C 
BRANCH  13  14
ATOM     14  C   UNL     1      17.367  25.340  -1.314  1.00  0.00    -0.000 C 
BRANCH  14  15
ATOM     15  C   UNL     1      16.145  25.475  -2.234  1.00  0.00    -0.003 C 
ATOM     16  C   UNL     1      14.874  25.002  -1.532  1.00  0.00     0.004 C 
ENDBRANCH  14  15
ENDBRANCH  13  14
ENDBRANCH  12  13
ENDBRANCH  11  12
ENDBRANCH  10  11
ENDBRANCH   1  10
TORSDOF 12
ENDMDL
MODEL 2
REMARK VINA RESULT:    -4.238      2.567      6.290
REMARK INTER + INTRA:          -7.921
REMARK INTER:                  -7.386
REMARK INTRA:                  -0.534
REMARK UNBOUND:                -0.710
REMARK SMILES CCCCCCCCCCCCCC(=O)[O-]
REMARK SMILES IDX 8 1 9 2 10 3 11 4 12 5 13 6 14 7 15 8 16 9 7 10 6 11 5 12
REMARK SMILES IDX 4 13 3 14 2 15 1 16
REMARK H PARENT
REMARK Flexibility Score: inf
ROOT
ATOM      1  C   UNL     1      19.650  24.179   3.265  1.00  0.00     0.000 C 
ENDROOT
BRANCH   1   2
ATOM      2  C   UNL     1      19.335  25.510   2.564  1.00  0.00     0.000 C 
BRANCH   2   3
ATOM      3  C   UNL     1      19.060  25.340   1.061  1.00  0.00     0.000 C 
BRANCH   3   4
ATOM      4  C   UNL     1      18.525  26.627   0.410  1.00  0.00     0.000 C 
BRANCH   4   5
ATOM      5  C   UNL     1      17.709  26.359  -0.869  1.00  0.00     0.006 C 
BRANCH   5   6
ATOM      6  C   UNL     1      16.925  25.035  -0.845  1.00  0.00     0.053 C 
BRANCH   6   7
ATOM      7  C   UNL     1      15.739  25.051  -1.761  1.00  0.00     0.041 C 
ATOM      8  O   UNL     1      15.810  25.632  -2.876  1.00  0.00    -0.550 OA
ATOM      9  O   UNL     1      14.546  24.455  -1.372  1.00  0.00    -0.550 OA
ENDBRANCH   6   7
ENDBRANCH   5   6
ENDBRANCH   4   5
ENDBRANCH   3   4
ENDBRANCH   2   3
ENDBRANCH   1   2
BRANCH   1  10
ATOM     10  C   UNL     1      18.817  24.024   4.546  1.00  0.00     0.000 C 
BRANCH  10  11
ATOM     11  C   UNL     1      17.731  22.939   4.432  1.00  0.00    -0.000 C 
BRANCH  11  12
ATOM     12  C   UNL     1      16.746  22.872   5.613  1.00  0.00    -0.000 C 
BRANCH  12  13
ATOM     13  C   UNL     1      15.684  21.773   5.447  1.00  0.00    -0.000 C 
BRANCH  13  14
ATOM     14  C   UNL     1      14.251  22.321   5.527  1.00  0.00    -0.000 C 
BRANCH  14  15
ATOM     15  C   UNL     1      13.566  22.391   4.155  1.00  0.00    -0.003 C 
ATOM     16  C   UNL     1      12.462  23.446   4.146  1.00  0.00     0.004 C 
ENDBRANCH  14  15
ENDBRANCH  13  14
ENDBRANCH  12  13
ENDBRANCH  11  12
ENDBRANCH  10  11
ENDBRANCH   1  10
TORSDOF 12
ENDMDL
MODEL 3
REMARK VINA RESULT:    -4.148      2.585      6.341
REMARK INTER + INTRA:          -7.769
REMARK INTER:                  -7.030
REMARK INTRA:                  -0.739
REMARK UNBOUND:                -0.710
REMARK SMILES CCCCCCCCCCCCCC(=O)[O-]
REMARK SMILES IDX 8 1 9 2 10 3 11 4 12 5 13 6 14 7 15 8 16 9 7 10 6 11 5 12
REMARK SMILES IDX 4 13 3 14 2 15 1 16
REMARK H PARENT
REMARK Flexibility Score: inf
ROOT
ATOM      1  C   UNL     1      19.227  25.769   2.556  1.00  0.00     0.000 C 
ENDROOT
BRANCH   1   2
ATOM      2  C   UNL     1      19.471  24.533   1.674  1.00  0.00     0.000 C 
BRANCH   2   3
ATOM      3  C   UNL     1      19.117  24.778   0.198  1.00  0.00     0.000 C 
BRANCH   3   4
ATOM      4  C   UNL     1      18.676  26.226  -0.071  1.00  0.00     0.000 C 
BRANCH   4   5
ATOM      5  C   UNL     1      17.306  26.318  -0.770  1.00  0.00     0.006 C 
BRANCH   5   6
ATOM      6  C   UNL     1      16.697  24.952  -1.133  1.00  0.00     0.053 C 
BRANCH   6   7
ATOM      7  C   UNL     1      15.434  25.079  -1.931  1.00  0.00     0.041 C 
ATOM      8  O   UNL     1      14.348  24.644  -1.468  1.00  0.00    -0.550 OA
ATOM      9  O   UNL     1      15.462  25.644  -3.199  1.00  0.00    -0.550 OA
ENDBRANCH   6   7
ENDBRANCH   5   6
ENDBRANCH   4   5
ENDBRANCH   3   4
ENDBRANCH   2   3
ENDBRANCH   1   2
BRANCH   1  10
ATOM     10  C   UNL     1      19.216  25.386   4.043  1.00  0.00     0.000 C 
BRANCH  10  11
ATOM     11  C   UNL     1      18.965  23.885   4.278  1.00  0.00    -0.000 C 
BRANCH  11  12
ATOM     12  C   UNL     1      17.913  23.558   5.354  1.00  0.00    -0.000 C 
BRANCH  12  13
ATOM     13  C   UNL     1      16.739  22.726   4.812  1.00  0.00    -0.000 C 
BRANCH  13  14
ATOM     14  C   UNL     1      16.051  21.895   5.906  1.00  0.00    -0.000 C 
BRANCH  14  15
ATOM     15  C   UNL     1      14.562  21.656   5.620  1.00  0.00    -0.003 C 
ATOM     16  C   UNL     1      13.875  22.945   5.174  1.00  0.00     0.004 C 
ENDBRANCH  14  15
ENDBRANCH  13  14
ENDBRANCH  12  13
ENDBRANCH  11  12
ENDBRANCH  10  11
ENDBRANCH   1  10
TORSDOF 12
ENDMDL
MODEL 4
REMARK VINA RESULT:    -4.059      2.616      6.145
REMARK INTER + INTRA:          -7.616
REMARK INTER:                  -6.991
REMARK INTRA:                  -0.626
REMARK UNBOUND:                -0.710
REMARK SMILES CCCCCCCCCCCCCC(=O)[O-]
REMARK SMILES IDX 8 1 9 2 10 3 11 4 12 5 13 6 14 7 15 8 16 9 7 10 6 11 5 12
REMARK SMILES IDX 4 13 3 14 2 15 1 16
REMARK H PARENT
REMARK Flexibility Score: inf
ROOT
ATOM      1  C   UNL     1      18.179  24.252   5.016  1.00  0.00     0.000 C 
ENDROOT
BRANCH   1   2
ATOM      2  C   UNL     1      19.228  23.670   4.056  1.00  0.00     0.000 C 
BRANCH   2   3
ATOM      3  C   UNL     1      20.079  24.756   3.376  1.00  0.00     0.000 C 
BRANCH   3   4
ATOM      4  C   UNL     1      19.263  25.618   2.399  1.00  0.00     0.000 C 
BRANCH   4   5
ATOM      5  C   UNL     1      19.163  25.000   0.991  1.00  0.00     0.006 C 
BRANCH   5   6
ATOM      6  C   UNL     1      18.390  25.867  -0.019  1.00  0.00     0.053 C 
BRANCH   6   7
ATOM      7  C   UNL     1      17.362  25.086  -0.780  1.00  0.00     0.041 C 
ATOM      8  O   UNL     1      17.054  23.922  -0.413  1.00  0.00    -0.550 OA
ATOM      9  O   UNL     1      16.769  25.628  -1.913  1.00  0.00    -0.550 OA
ENDBRANCH   6   7
ENDBRANCH   5   6
ENDBRANCH   4   5
ENDBRANCH   3   4
ENDBRANCH   2   3
ENDBRANCH   1   2
BRANCH   1  10
ATOM     10  C   UNL     1      17.515  23.139   5.841  1.00  0.00     0.000 C 
BRANCH  10  11
ATOM     11  C   UNL     1      16.510  22.303   5.027  1.00  0.00    -0.000 C 
BRANCH  11  12
ATOM     12  C   UNL     1      15.186  21.989   5.748  1.00  0.00    -0.000 C 
BRANCH  12  13
ATOM     13  C   UNL     1      13.964  22.066   4.817  1.00  0.00    -0.000 C 
BRANCH  13  14
ATOM     14  C   UNL     1      13.248  23.423   4.895  1.00  0.00    -0.000 C 
BRANCH  14  15
ATOM     15  C   UNL     1      12.101  23.546   3.882  1.00  0.00    -0.003 C 
ATOM     16  C   UNL     1      12.154  22.419   2.853  1.00  0.00     0.004 C 
ENDBRANCH  14  15
ENDBRANCH  13  14
ENDBRANCH  12  13
ENDBRANCH  11  12
ENDBRANCH  10  11
ENDBRANCH   1  10
TORSDOF 12
ENDMDL
MODEL 5
REMARK VINA RESULT:    -3.927     15.812     17.584
REMARK INTER + INTRA:          -7.392
REMARK INTER:                  -5.561
REMARK INTRA:                  -1.831
REMARK UNBOUND:                -0.710
REMARK SMILES CCCCCCCCCCCCCC(=O)[O-]
REMARK SMILES IDX 8 1 9 2 10 3 11 4 12 5 13 6 14 7 15 8 16 9 7 10 6 11 5 12
REMARK SMILES IDX 4 13 3 14 2 15 1 16
REMARK H PARENT
REMARK Flexibility Score: inf
ROOT
ATOM      1  C   UNL     1      26.870  33.773  15.388  1.00  0.00     0.000 C 
ENDROOT
BRANCH   1   2
ATOM      2  C   UNL     1      25.518  33.261  15.909  1.00  0.00     0.000 C 
BRANCH   2   3
ATOM      3  C   UNL     1      24.618  32.713  14.789  1.00  0.00     0.000 C 
BRANCH   3   4
ATOM      4  C   UNL     1      23.145  33.113  14.968  1.00  0.00     0.000 C 
BRANCH   4   5
ATOM      5  C   UNL     1      22.961  34.614  15.266  1.00  0.00     0.006 C 
BRANCH   5   6
ATOM      6  C   UNL     1      22.576  35.453  14.034  1.00  0.00     0.053 C 
BRANCH   6   7
ATOM      7  C   UNL     1      21.546  34.781  13.178  1.00  0.00     0.041 C 
ATOM      8  O   UNL     1      21.803  34.512  11.975  1.00  0.00    -0.550 OA
ATOM      9  O   UNL     1      20.292  34.482  13.695  1.00  0.00    -0.550 OA
ENDBRANCH   6   7
ENDBRANCH   5   6
ENDBRANCH   4   5
ENDBRANCH   3   4
ENDBRANCH   2   3
ENDBRANCH   1   2
BRANCH   1  10
ATOM     10  C   UNL     1      27.056  35.261  15.719  1.00  0.00     0.000 C 
BRANCH  10  11
ATOM     11  C   UNL     1      26.187  36.186  14.847  1.00  0.00    -0.000 C 
BRANCH  11  12
ATOM     12  C   UNL     1      26.958  37.018  13.806  1.00  0.00    -0.000 C 
BRANCH  12  13
ATOM     13  C   UNL     1      26.540  36.704  12.359  1.00  0.00    -0.000 C 
BRANCH  13  14
ATOM     14  C   UNL     1      25.920  35.306  12.215  1.00  0.00    -0.000 C 
BRANCH  14  15
ATOM     15  C   UNL     1      26.901  34.281  11.628  1.00  0.00    -0.003 C 
ATOM     16  C   UNL     1      26.251  32.905  11.509  1.00  0.00     0.004 C 
ENDBRANCH  14  15
ENDBRANCH  13  14
ENDBRANCH  12  13
ENDBRANCH  11  12
ENDBRANCH  10  11
ENDBRANCH   1  10
TORSDOF 12
ENDMDL
MODEL 6
REMARK VINA RESULT:    -3.815     15.567     17.860
REMARK INTER + INTRA:          -7.202
REMARK INTER:                  -5.484
REMARK INTRA:                  -1.718
REMARK UNBOUND:                -0.710
REMARK SMILES CCCCCCCCCCCCCC(=O)[O-]
REMARK SMILES IDX 8 1 9 2 10 3 11 4 12 5 13 6 14 7 15 8 16 9 7 10 6 11 5 12
REMARK SMILES IDX 4 13 3 14 2 15 1 16
REMARK H PARENT
REMARK Flexibility Score: inf
ROOT
ATOM      1  C   UNL     1      23.563  35.132  16.086  1.00  0.00     0.000 C 
ENDROOT
BRANCH   1   2
ATOM      2  C   UNL     1      23.744  36.465  15.342  1.00  0.00     0.000 C 
BRANCH   2   3
ATOM      3  C   UNL     1      25.211  36.748  14.978  1.00  0.00     0.000 C 
BRANCH   3   4
ATOM      4  C   UNL     1      25.406  37.010  13.476  1.00  0.00     0.000 C 
BRANCH   4   5
ATOM      5  C   UNL     1      26.702  36.388  12.920  1.00  0.00     0.006 C 
BRANCH   5   6
ATOM      6  C   UNL     1      26.730  34.850  12.973  1.00  0.00     0.053 C 
BRANCH   6   7
ATOM      7  C   UNL     1      26.790  34.228  11.611  1.00  0.00     0.041 C 
ATOM      8  O   UNL     1      27.125  34.920  10.614  1.00  0.00    -0.550 OA
ATOM      9  O   UNL     1      26.445  32.894  11.435  1.00  0.00    -0.550 OA
ENDBRANCH   6   7
ENDBRANCH   5   6
ENDBRANCH   4   5
ENDBRANCH   3   4
ENDBRANCH   2   3
ENDBRANCH   1   2
BRANCH   1  10
ATOM     10  C   UNL     1      24.831  34.271  15.984  1.00  0.00     0.000 C 
BRANCH  10  11
ATOM     11  C   UNL     1      24.600  32.944  15.238  1.00  0.00    -0.000 C 
BRANCH  11  12
ATOM     12  C   UNL     1      23.158  32.712  14.748  1.00  0.00    -0.000 C 
BRANCH  12  13
ATOM     13  C   UNL     1      23.028  32.781  13.217  1.00  0.00    -0.000 C 
BRANCH  13  14
ATOM     14  C   UNL     1      22.888  34.221  12.701  1.00  0.00    -0.000 C 
BRANCH  14  15
ATOM     15  C   UNL     1      21.459  34.551  12.246  1.00  0.00    -0.003 C 
ATOM     16  C   UNL     1      20.496  34.567  13.431  1.00  0.00     0.004 C 
ENDBRANCH  14  15
ENDBRANCH  13  14
ENDBRANCH  12  13
ENDBRANCH  11  12
ENDBRANCH  10  11
ENDBRANCH   1  10
TORSDOF 12
ENDMDL
MODEL 7
REMARK VINA RESULT:    -3.788     15.313     16.817
REMARK INTER + INTRA:          -7.155
REMARK INTER:                  -5.508
REMARK INTRA:                  -1.648
REMARK UNBOUND:                -0.710
REMARK SMILES CCCCCCCCCCCCCC(=O)[O-]
REMARK SMILES IDX 8 1 9 2 10 3 11 4 12 5 13 6 14 7 15 8 16 9 7 10 6 11 5 12
REMARK SMILES IDX 4 13 3 14 2 15 1 16
REMARK H PARENT
REMARK Flexibility Score: inf
ROOT
ATOM      1  C   UNL     1      24.248  32.745  12.507  1.00  0.00     0.000 C 
ENDROOT
BRANCH   1   2
ATOM      2  C   UNL     1      24.551  32.934  14.002  1.00  0.00     0.000 C 
BRANCH   2   3
ATOM      3  C   UNL     1      23.400  32.460  14.906  1.00  0.00     0.000 C 
BRANCH   3   4
ATOM      4  C   UNL     1      22.833  33.591  15.780  1.00  0.00     0.000 C 
BRANCH   4   5
ATOM      5  C   UNL     1      21.468  34.106  15.285  1.00  0.00     0.006 C 
BRANCH   5   6
ATOM      6  C   UNL     1      21.560  35.093  14.108  1.00  0.00     0.053 C 
BRANCH   6   7
ATOM      7  C   UNL     1      20.805  34.622  12.901  1.00  0.00     0.041 C 
ATOM      8  O   UNL     1      19.607  34.252  13.010  1.00  0.00    -0.550 OA
ATOM      9  O   UNL     1      21.433  34.559  11.664  1.00  0.00    -0.550 OA
ENDBRANCH   6   7
ENDBRANCH   5   6
ENDBRANCH   4   5
ENDBRANCH   3   4
ENDBRANCH   2   3
ENDBRANCH   1   2
BRANCH   1  10
ATOM     10  C   UNL     1      25.546  32.603  11.699  1.00  0.00     0.000 C 
BRANCH  10  11
ATOM     11  C   UNL     1      26.681  33.504  12.219  1.00  0.00    -0.000 C 
BRANCH  11  12
ATOM     12  C   UNL     1      27.125  34.619  11.254  1.00  0.00    -0.000 C 
BRANCH  12  13
ATOM     13  C   UNL     1      26.492  35.982  11.582  1.00  0.00    -0.000 C 
BRANCH  13  14
ATOM     14  C   UNL     1      26.415  36.247  13.094  1.00  0.00    -0.000 C 
BRANCH  14  15
ATOM     15  C   UNL     1      24.974  36.439  13.588  1.00  0.00    -0.003 C 
ATOM     16  C   UNL     1      24.922  36.514  15.112  1.00  0.00     0.004 C 
ENDBRANCH  14  15
ENDBRANCH  13  14
ENDBRANCH  12  13
ENDBRANCH  11  12
ENDBRANCH  10  11
ENDBRANCH   1  10
TORSDOF 12
ENDMDL
MODEL 8
REMARK VINA RESULT:    -3.688     15.897     18.478
REMARK INTER + INTRA:          -6.985
REMARK INTER:                  -5.314
REMARK INTRA:                  -1.671
REMARK UNBOUND:                -0.710
REMARK SMILES CCCCCCCCCCCCCC(=O)[O-]
REMARK SMILES IDX 8 1 9 2 10 3 11 4 12 5 13 6 14 7 15 8 16 9 7 10 6 11 5 12
REMARK SMILES IDX 4 13 3 14 2 15 1 16
REMARK H PARENT
REMARK Flexibility Score: inf
ROOT
ATOM      1  C   UNL     1      22.196  35.384  15.205  1.00  0.00     0.000 C 
ENDROOT
BRANCH   1   2
ATOM      2  C   UNL     1      22.580  36.740  14.590  1.00  0.00     0.000 C 
BRANCH   2   3
ATOM      3  C   UNL     1      23.910  37.284  15.136  1.00  0.00     0.000 C 
BRANCH   3   4
ATOM      4  C   UNL     1      25.131  36.560  14.544  1.00  0.00     0.000 C 
BRANCH   4   5
ATOM      5  C   UNL     1      25.550  37.115  13.169  1.00  0.00     0.006 C 
BRANCH   5   6
ATOM      6  C   UNL     1      26.914  36.600  12.676  1.00  0.00     0.053 C 
BRANCH   6   7
ATOM      7  C   UNL     1      26.820  35.888  11.361  1.00  0.00     0.041 C 
ATOM      8  O   UNL     1      26.604  36.538  10.305  1.00  0.00    -0.550 OA
ATOM      9  O   UNL     1      26.936  34.505  11.304  1.00  0.00    -0.550 OA
ENDBRANCH   6   7
ENDBRANCH   5   6
ENDBRANCH   4   5
ENDBRANCH   3   4
ENDBRANCH   2   3
ENDBRANCH   1   2
BRANCH   1  10
ATOM     10  C   UNL     1      21.622  34.442  14.136  1.00  0.00     0.000 C 
BRANCH  10  11
ATOM     11  C   UNL     1      22.547  34.280  12.916  1.00  0.00    -0.000 C 
BRANCH  11  12
ATOM     12  C   UNL     1      23.348  32.966  12.872  1.00  0.00    -0.000 C 
BRANCH  12  13
ATOM     13  C   UNL     1      24.717  33.075  13.565  1.00  0.00    -0.000 C 
BRANCH  13  14
ATOM     14  C   UNL     1      24.636  32.815  15.077  1.00  0.00    -0.000 C 
BRANCH  14  15
ATOM     15  C   UNL     1      25.931  33.187  15.812  1.00  0.00    -0.003 C 
ATOM     16  C   UNL     1      27.013  33.627  14.829  1.00  0.00     0.004 C 
ENDBRANCH  14  15
ENDBRANCH  13  14
ENDBRANCH  12  13
ENDBRANCH  11  12
ENDBRANCH  10  11
ENDBRANCH   1  10
TORSDOF 12
ENDMDL
