MODEL 1
REMARK VINA RESULT:    -5.333      0.000      0.000
REMARK INTER + INTRA:          -5.617
REMARK INTER:                  -5.801
REMARK INTRA:                   0.184
REMARK UNBOUND:                 0.184
REMARK SMILES C[C@H]1[C@H](C)CC[C@@]2(C(=O)[O-])CC[C@@]3(C)C(=CC[C@@H]4[C@@]5(C)CC[C@@H](O)C(C)(C)[C@H]5CC[C@@]43C)[C@H]12
REMARK SMILES IDX 7 1 6 2 11 3 33 4 5 5 12 6 15 7 2 8 3 9 13 10 16 11 1 12
REMARK SMILES IDX 4 13 14 14 31 15 17 16 18 17 30 18 32 19 19 20 29 21 28 22
REMARK SMILES IDX 21 23 20 24 25 25 22 26 23 27 26 28 27 29 8 30 9 31 10 32
REMARK SMILES IDX 24 33
REMARK H PARENT 24 34
REMARK Flexibility Score: inf
ROOT
ATOM      1  C   UNL     1      54.357  37.193 124.249  1.00  0.00     0.017 C 
ATOM      2  C   UNL     1      53.387  36.184 123.583  1.00  0.00     0.014 C 
ATOM      3  C   UNL     1      55.639  37.348 123.350  1.00  0.00     0.014 C 
ATOM      4  C   UNL     1      53.622  38.564 124.367  1.00  0.00     0.030 C 
ATOM      5  C   UNL     1      52.090  36.028 124.382  1.00  0.00     0.004 C 
ATOM      6  C   UNL     1      55.971  38.793 122.879  1.00  0.00     0.013 C 
ATOM      7  C   UNL     1      54.628  39.615 124.856  1.00  0.00    -0.063 C 
ATOM      8  C   UNL     1      52.232  38.494 125.092  1.00  0.00    -0.003 C 
ATOM      9  C   UNL     1      51.339  37.366 124.484  1.00  0.00    -0.011 C 
ATOM     10  C   UNL     1      55.809  39.956 123.944  1.00  0.00    -0.006 C 
ATOM     11  C   UNL     1      54.528  40.213 126.052  1.00  0.00    -0.027 C 
ATOM     12  C   UNL     1      51.489  39.847 124.975  1.00  0.00     0.008 C 
ATOM     13  C   UNL     1      50.046  37.154 125.294  1.00  0.00     0.008 C 
ATOM     14  C   UNL     1      55.380  41.211 123.132  1.00  0.00     0.017 C 
ATOM     15  C   UNL     1      57.158  40.229 124.812  1.00  0.00    -0.020 C 
ATOM     16  C   UNL     1      55.412  41.357 126.414  1.00  0.00     0.032 C 
ATOM     17  C   UNL     1      56.918  41.049 126.172  1.00  0.00     0.006 C 
ATOM     18  C   UNL     1      58.255  40.915 123.941  1.00  0.00     0.008 C 
ATOM     19  C   UNL     1      57.759  38.853 125.237  1.00  0.00     0.012 C 
ATOM     20  C   UNL     1      57.861  42.319 126.427  1.00  0.00    -0.025 C 
ATOM     21  C   UNL     1      58.235  42.450 123.860  1.00  0.00     0.005 C 
ATOM     22  C   UNL     1      57.874  43.253 125.158  1.00  0.00     0.003 C 
ATOM     23  C   UNL     1      59.332  41.896 126.791  1.00  0.00     0.010 C 
ATOM     24  C   UNL     1      57.310  43.064 127.685  1.00  0.00     0.012 C 
ATOM     25  C   UNL     1      58.760  44.585 125.324  1.00  0.00    -0.006 C 
ATOM     26  C   UNL     1      60.434  42.842 126.259  1.00  0.00     0.033 C 
ATOM     27  C   UNL     1      60.016  44.321 126.243  1.00  0.00     0.120 C 
ATOM     28  C   UNL     1      59.209  45.165 123.942  1.00  0.00     0.014 C 
ATOM     29  C   UNL     1      57.903  45.725 125.947  1.00  0.00     0.014 C 
ENDROOT
BRANCH   1  30
ATOM     30  C   UNL     1      54.783  36.626 125.605  1.00  0.00     0.048 C 
ATOM     31  O   UNL     1      55.830  35.929 125.690  1.00  0.00    -0.550 OA
ATOM     32  O   UNL     1      54.060  36.876 126.766  1.00  0.00    -0.550 OA
ENDBRANCH   1  30
BRANCH  27  33
ATOM     33  O   UNL     1      61.125  45.092 125.848  1.00  0.00    -0.393 OA
ATOM     34  H   UNL     1      61.580  44.592 125.121  1.00  0.00     0.210 HD
ENDBRANCH  27  33
TORSDOF 2
ENDMDL
MODEL 2
REMARK VINA RESULT:    -5.207      1.841      3.031
REMARK INTER + INTRA:          -5.479
REMARK INTER:                  -5.679
REMARK INTRA:                   0.200
REMARK UNBOUND:                 0.184
REMARK SMILES C[C@H]1[C@H](C)CC[C@@]2(C(=O)[O-])CC[C@@]3(C)C(=CC[C@@H]4[C@@]5(C)CC[C@@H](O)C(C)(C)[C@H]5CC[C@@]43C)[C@H]12
REMARK SMILES IDX 7 1 6 2 11 3 33 4 5 5 12 6 15 7 2 8 3 9 13 10 16 11 1 12
REMARK SMILES IDX 4 13 14 14 31 15 17 16 18 17 30 18 32 19 19 20 29 21 28 22
REMARK SMILES IDX 21 23 20 24 25 25 22 26 23 27 26 28 27 29 8 30 9 31 10 32
REMARK SMILES IDX 24 33
REMARK H PARENT 24 34
REMARK Flexibility Score: inf
ROOT
ATOM      1  C   UNL     1      56.972  38.987 124.135  1.00  0.00     0.017 C 
ATOM      2  C   UNL     1      56.628  37.747 123.269  1.00  0.00     0.014 C 
ATOM      3  C   UNL     1      58.491  39.347 123.938  1.00  0.00     0.014 C 
ATOM      4  C   UNL     1      56.079  40.172 123.656  1.00  0.00     0.030 C 
ATOM      5  C   UNL     1      55.146  37.375 123.372  1.00  0.00     0.004 C 
ATOM      6  C   UNL     1      58.791  40.791 123.445  1.00  0.00     0.013 C 
ATOM      7  C   UNL     1      56.536  41.447 124.378  1.00  0.00    -0.063 C 
ATOM      8  C   UNL     1      54.541  39.858 123.636  1.00  0.00    -0.003 C 
ATOM      9  C   UNL     1      54.251  38.523 122.877  1.00  0.00    -0.011 C 
ATOM     10  C   UNL     1      57.946  41.966 124.092  1.00  0.00    -0.006 C 
ATOM     11  C   UNL     1      55.764  42.095 125.263  1.00  0.00    -0.027 C 
ATOM     12  C   UNL     1      53.760  41.008 122.953  1.00  0.00     0.008 C 
ATOM     13  C   UNL     1      52.776  38.099 123.000  1.00  0.00     0.008 C 
ATOM     14  C   UNL     1      57.795  43.038 122.974  1.00  0.00     0.017 C 
ATOM     15  C   UNL     1      58.625  42.585 125.436  1.00  0.00    -0.020 C 
ATOM     16  C   UNL     1      56.166  43.426 125.801  1.00  0.00     0.032 C 
ATOM     17  C   UNL     1      57.619  43.431 126.358  1.00  0.00     0.006 C 
ATOM     18  C   UNL     1      59.892  43.426 125.087  1.00  0.00     0.008 C 
ATOM     19  C   UNL     1      59.134  41.405 126.320  1.00  0.00     0.012 C 
ATOM     20  C   UNL     1      58.106  44.890 126.811  1.00  0.00    -0.025 C 
ATOM     21  C   UNL     1      59.683  44.910 124.747  1.00  0.00     0.005 C 
ATOM     22  C   UNL     1      58.607  45.709 125.562  1.00  0.00     0.003 C 
ATOM     23  C   UNL     1      59.244  44.820 127.893  1.00  0.00     0.010 C 
ATOM     24  C   UNL     1      56.896  45.588 127.510  1.00  0.00     0.012 C 
ATOM     25  C   UNL     1      59.080  47.209 125.900  1.00  0.00    -0.006 C 
ATOM     26  C   UNL     1      60.307  45.939 127.796  1.00  0.00     0.033 C 
ATOM     27  C   UNL     1      59.735  47.289 127.335  1.00  0.00     0.120 C 
ATOM     28  C   UNL     1      60.064  47.770 124.821  1.00  0.00     0.014 C 
ATOM     29  C   UNL     1      57.866  48.181 125.840  1.00  0.00     0.014 C 
ENDROOT
BRANCH   1  30
ATOM     30  C   UNL     1      56.746  38.624 125.604  1.00  0.00     0.048 C 
ATOM     31  O   UNL     1      57.715  38.228 126.306  1.00  0.00    -0.550 OA
ATOM     32  O   UNL     1      55.498  38.742 126.206  1.00  0.00    -0.550 OA
ENDBRANCH   1  30
BRANCH  27  33
ATOM     33  O   UNL     1      60.762  48.249 127.389  1.00  0.00    -0.393 OA
ATOM     34  H   UNL     1      61.568  47.790 127.745  1.00  0.00     0.210 HD
ENDBRANCH  27  33
TORSDOF 2
ENDMDL
MODEL 3
REMARK VINA RESULT:    -5.095     15.730     17.932
REMARK INTER + INTRA:          -5.358
REMARK INTER:                  -5.544
REMARK INTRA:                   0.187
REMARK UNBOUND:                 0.184
REMARK SMILES C[C@H]1[C@H](C)CC[C@@]2(C(=O)[O-])CC[C@@]3(C)C(=CC[C@@H]4[C@@]5(C)CC[C@@H](O)C(C)(C)[C@H]5CC[C@@]43C)[C@H]12
REMARK SMILES IDX 7 1 6 2 11 3 33 4 5 5 12 6 15 7 2 8 3 9 13 10 16 11 1 12
REMARK SMILES IDX 4 13 14 14 31 15 17 16 18 17 30 18 32 19 19 20 29 21 28 22
REMARK SMILES IDX 21 23 20 24 25 25 22 26 23 27 26 28 27 29 8 30 9 31 10 32
REMARK SMILES IDX 24 33
REMARK H PARENT 24 34
REMARK Flexibility Score: inf
ROOT
ATOM      1  C   UNL     1      46.075  46.457 141.658  1.00  0.00     0.017 C 
ATOM      2  C   UNL     1      44.655  46.003 142.086  1.00  0.00     0.014 C 
ATOM      3  C   UNL     1      47.145  45.651 142.483  1.00  0.00     0.014 C 
ATOM      4  C   UNL     1      46.240  46.155 140.137  1.00  0.00     0.030 C 
ATOM      5  C   UNL     1      43.564  46.711 141.279  1.00  0.00     0.004 C 
ATOM      6  C   UNL     1      48.185  44.847 141.651  1.00  0.00     0.013 C 
ATOM      7  C   UNL     1      47.697  46.429 139.742  1.00  0.00    -0.063 C 
ATOM      8  C   UNL     1      45.113  46.762 139.229  1.00  0.00    -0.003 C 
ATOM      9  C   UNL     1      43.695  46.401 139.778  1.00  0.00    -0.011 C 
ATOM     10  C   UNL     1      48.787  45.556 140.367  1.00  0.00    -0.006 C 
ATOM     11  C   UNL     1      48.047  47.416 138.904  1.00  0.00    -0.027 C 
ATOM     12  C   UNL     1      45.242  46.237 137.777  1.00  0.00     0.008 C 
ATOM     13  C   UNL     1      42.577  47.134 139.014  1.00  0.00     0.008 C 
ATOM     14  C   UNL     1      49.063  44.413 139.349  1.00  0.00     0.017 C 
ATOM     15  C   UNL     1      50.127  46.426 140.679  1.00  0.00    -0.020 C 
ATOM     16  C   UNL     1      49.446  47.535 138.400  1.00  0.00     0.032 C 
ATOM     17  C   UNL     1      50.498  47.501 139.546  1.00  0.00     0.006 C 
ATOM     18  C   UNL     1      51.342  45.494 140.975  1.00  0.00     0.008 C 
ATOM     19  C   UNL     1      49.893  47.241 141.988  1.00  0.00     0.012 C 
ATOM     20  C   UNL     1      52.007  47.488 139.003  1.00  0.00    -0.025 C 
ATOM     21  C   UNL     1      52.173  45.014 139.775  1.00  0.00     0.005 C 
ATOM     22  C   UNL     1      52.430  46.025 138.603  1.00  0.00     0.003 C 
ATOM     23  C   UNL     1      53.017  48.064 140.062  1.00  0.00     0.010 C 
ATOM     24  C   UNL     1      52.071  48.461 137.782  1.00  0.00     0.012 C 
ATOM     25  C   UNL     1      53.918  45.906 138.004  1.00  0.00    -0.006 C 
ATOM     26  C   UNL     1      54.410  47.392 140.069  1.00  0.00     0.033 C 
ATOM     27  C   UNL     1      54.887  46.958 138.673  1.00  0.00     0.120 C 
ATOM     28  C   UNL     1      54.496  44.461 138.155  1.00  0.00     0.014 C 
ATOM     29  C   UNL     1      53.897  46.141 136.465  1.00  0.00     0.014 C 
ENDROOT
BRANCH   1  30
ATOM     30  C   UNL     1      46.224  47.943 141.991  1.00  0.00     0.048 C 
ATOM     31  O   UNL     1      46.712  48.289 143.101  1.00  0.00    -0.550 OA
ATOM     32  O   UNL     1      45.860  48.938 141.090  1.00  0.00    -0.550 OA
ENDBRANCH   1  30
BRANCH  27  33
ATOM     33  O   UNL     1      56.199  46.464 138.786  1.00  0.00    -0.393 OA
ATOM     34  H   UNL     1      56.660  46.670 137.931  1.00  0.00     0.210 HD
ENDBRANCH  27  33
TORSDOF 2
ENDMDL
MODEL 4
REMARK VINA RESULT:    -4.840      2.595      8.227
REMARK INTER + INTRA:          -5.081
REMARK INTER:                  -5.270
REMARK INTRA:                   0.189
REMARK UNBOUND:                 0.184
REMARK SMILES C[C@H]1[C@H](C)CC[C@@]2(C(=O)[O-])CC[C@@]3(C)C(=CC[C@@H]4[C@@]5(C)CC[C@@H](O)C(C)(C)[C@H]5CC[C@@]43C)[C@H]12
REMARK SMILES IDX 7 1 6 2 11 3 33 4 5 5 12 6 15 7 2 8 3 9 13 10 16 11 1 12
REMARK SMILES IDX 4 13 14 14 31 15 17 16 18 17 30 18 32 19 19 20 29 21 28 22
REMARK SMILES IDX 21 23 20 24 25 25 22 26 23 27 26 28 27 29 8 30 9 31 10 32
REMARK SMILES IDX 24 33
REMARK H PARENT 24 34
REMARK Flexibility Score: inf
ROOT
ATOM      1  C   UNL     1      57.952  46.808 127.810  1.00  0.00     0.017 C 
ATOM      2  C   UNL     1      58.090  47.946 128.855  1.00  0.00     0.014 C 
ATOM      3  C   UNL     1      59.070  45.732 128.068  1.00  0.00     0.014 C 
ATOM      4  C   UNL     1      56.543  46.163 127.984  1.00  0.00     0.030 C 
ATOM      5  C   UNL     1      56.994  49.003 128.694  1.00  0.00     0.004 C 
ATOM      6  C   UNL     1      58.574  44.278 128.313  1.00  0.00     0.013 C 
ATOM      7  C   UNL     1      56.462  44.922 127.085  1.00  0.00    -0.063 C 
ATOM      8  C   UNL     1      55.351  47.182 127.929  1.00  0.00    -0.003 C 
ATOM      9  C   UNL     1      55.599  48.388 128.890  1.00  0.00    -0.011 C 
ATOM     10  C   UNL     1      57.397  43.751 127.392  1.00  0.00    -0.006 C 
ATOM     11  C   UNL     1      55.633  44.843 126.032  1.00  0.00    -0.027 C 
ATOM     12  C   UNL     1      54.023  46.488 128.319  1.00  0.00     0.008 C 
ATOM     13  C   UNL     1      54.536  49.489 128.720  1.00  0.00     0.008 C 
ATOM     14  C   UNL     1      56.581  42.766 128.277  1.00  0.00     0.017 C 
ATOM     15  C   UNL     1      57.918  43.044 126.021  1.00  0.00    -0.020 C 
ATOM     16  C   UNL     1      55.449  43.560 125.296  1.00  0.00     0.032 C 
ATOM     17  C   UNL     1      56.800  42.912 124.876  1.00  0.00     0.006 C 
ATOM     18  C   UNL     1      58.568  41.657 126.319  1.00  0.00     0.008 C 
ATOM     19  C   UNL     1      59.057  43.921 125.415  1.00  0.00     0.012 C 
ATOM     20  C   UNL     1      56.615  41.467 124.208  1.00  0.00    -0.025 C 
ATOM     21  C   UNL     1      57.637  40.435 126.361  1.00  0.00     0.005 C 
ATOM     22  C   UNL     1      56.462  40.366 125.324  1.00  0.00     0.003 C 
ATOM     23  C   UNL     1      57.814  41.100 123.259  1.00  0.00     0.010 C 
ATOM     24  C   UNL     1      55.352  41.536 123.290  1.00  0.00     0.012 C 
ATOM     25  C   UNL     1      56.227  38.878 124.760  1.00  0.00    -0.006 C 
ATOM     26  C   UNL     1      58.198  39.602 123.242  1.00  0.00     0.033 C 
ATOM     27  C   UNL     1      56.994  38.659 123.397  1.00  0.00     0.120 C 
ATOM     28  C   UNL     1      56.642  37.785 125.799  1.00  0.00     0.014 C 
ATOM     29  C   UNL     1      54.708  38.623 124.536  1.00  0.00     0.014 C 
ENDROOT
BRANCH   1  30
ATOM     30  C   UNL     1      58.166  47.406 126.418  1.00  0.00     0.048 C 
ATOM     31  O   UNL     1      59.327  47.450 125.929  1.00  0.00    -0.550 OA
ATOM     32  O   UNL     1      57.108  47.886 125.653  1.00  0.00    -0.550 OA
ENDBRANCH   1  30
BRANCH  27  33
ATOM     33  O   UNL     1      57.446  37.334 123.258  1.00  0.00    -0.393 OA
ATOM     34  H   UNL     1      57.952  37.113 124.083  1.00  0.00     0.210 HD
ENDBRANCH  27  33
TORSDOF 2
ENDMDL
MODEL 5
REMARK VINA RESULT:    -4.533      2.085      3.372
REMARK INTER + INTRA:          -4.746
REMARK INTER:                  -4.935
REMARK INTRA:                   0.189
REMARK UNBOUND:                 0.184
REMARK SMILES C[C@H]1[C@H](C)CC[C@@]2(C(=O)[O-])CC[C@@]3(C)C(=CC[C@@H]4[C@@]5(C)CC[C@@H](O)C(C)(C)[C@H]5CC[C@@]43C)[C@H]12
REMARK SMILES IDX 7 1 6 2 11 3 33 4 5 5 12 6 15 7 2 8 3 9 13 10 16 11 1 12
REMARK SMILES IDX 4 13 14 14 31 15 17 16 18 17 30 18 32 19 19 20 29 21 28 22
REMARK SMILES IDX 21 23 20 24 25 25 22 26 23 27 26 28 27 29 8 30 9 31 10 32
REMARK SMILES IDX 24 33
REMARK H PARENT 24 34
REMARK Flexibility Score: inf
ROOT
ATOM      1  C   UNL     1      56.898  39.251 124.227  1.00  0.00     0.017 C 
ATOM      2  C   UNL     1      56.548  38.134 123.209  1.00  0.00     0.014 C 
ATOM      3  C   UNL     1      57.800  40.329 123.520  1.00  0.00     0.014 C 
ATOM      4  C   UNL     1      55.565  39.904 124.705  1.00  0.00     0.030 C 
ATOM      5  C   UNL     1      55.624  37.077 123.819  1.00  0.00     0.004 C 
ATOM      6  C   UNL     1      57.263  41.789 123.545  1.00  0.00     0.013 C 
ATOM      7  C   UNL     1      55.905  41.125 125.570  1.00  0.00    -0.063 C 
ATOM      8  C   UNL     1      54.509  38.886 125.264  1.00  0.00    -0.003 C 
ATOM      9  C   UNL     1      54.292  37.700 124.271  1.00  0.00    -0.011 C 
ATOM     10  C   UNL     1      56.621  42.300 124.901  1.00  0.00    -0.006 C 
ATOM     11  C   UNL     1      55.628  41.184 126.881  1.00  0.00    -0.027 C 
ATOM     12  C   UNL     1      53.153  39.592 125.514  1.00  0.00     0.008 C 
ATOM     13  C   UNL     1      53.402  36.598 124.874  1.00  0.00     0.008 C 
ATOM     14  C   UNL     1      55.510  43.305 124.485  1.00  0.00     0.017 C 
ATOM     15  C   UNL     1      57.703  42.977 125.912  1.00  0.00    -0.020 C 
ATOM     16  C   UNL     1      55.803  42.452 127.645  1.00  0.00     0.032 C 
ATOM     17  C   UNL     1      57.208  43.088 127.436  1.00  0.00     0.006 C 
ATOM     18  C   UNL     1      58.170  44.368 125.382  1.00  0.00     0.008 C 
ATOM     19  C   UNL     1      58.982  42.085 125.936  1.00  0.00     0.012 C 
ATOM     20  C   UNL     1      57.354  44.520 128.142  1.00  0.00    -0.025 C 
ATOM     21  C   UNL     1      57.330  45.593 125.777  1.00  0.00     0.005 C 
ATOM     22  C   UNL     1      56.735  45.644 127.228  1.00  0.00     0.003 C 
ATOM     23  C   UNL     1      58.853  44.864 128.469  1.00  0.00     0.010 C 
ATOM     24  C   UNL     1      56.626  44.434 129.522  1.00  0.00     0.012 C 
ATOM     25  C   UNL     1      56.792  47.120 127.864  1.00  0.00    -0.006 C 
ATOM     26  C   UNL     1      59.222  46.360 128.341  1.00  0.00     0.033 C 
ATOM     27  C   UNL     1      58.084  47.309 128.751  1.00  0.00     0.120 C 
ATOM     28  C   UNL     1      56.717  48.233 126.768  1.00  0.00     0.014 C 
ATOM     29  C   UNL     1      55.531  47.375 128.741  1.00  0.00     0.014 C 
ENDROOT
BRANCH   1  30
ATOM     30  C   UNL     1      57.699  38.623 125.370  1.00  0.00     0.048 C 
ATOM     31  O   UNL     1      58.956  38.565 125.293  1.00  0.00    -0.550 OA
ATOM     32  O   UNL     1      57.083  38.132 126.516  1.00  0.00    -0.550 OA
ENDBRANCH   1  30
BRANCH  27  33
ATOM     33  O   UNL     1      58.566  48.629 128.699  1.00  0.00    -0.393 OA
ATOM     34  H   UNL     1      57.773  49.226 128.682  1.00  0.00     0.210 HD
ENDBRANCH  27  33
TORSDOF 2
ENDMDL
MODEL 6
REMARK VINA RESULT:    -4.406      4.371      7.495
REMARK INTER + INTRA:          -4.608
REMARK INTER:                  -4.797
REMARK INTRA:                   0.190
REMARK UNBOUND:                 0.184
REMARK SMILES C[C@H]1[C@H](C)CC[C@@]2(C(=O)[O-])CC[C@@]3(C)C(=CC[C@@H]4[C@@]5(C)CC[C@@H](O)C(C)(C)[C@H]5CC[C@@]43C)[C@H]12
REMARK SMILES IDX 7 1 6 2 11 3 33 4 5 5 12 6 15 7 2 8 3 9 13 10 16 11 1 12
REMARK SMILES IDX 4 13 14 14 31 15 17 16 18 17 30 18 32 19 19 20 29 21 28 22
REMARK SMILES IDX 21 23 20 24 25 25 22 26 23 27 26 28 27 29 8 30 9 31 10 32
REMARK SMILES IDX 24 33
REMARK H PARENT 24 34
REMARK Flexibility Score: inf
ROOT
ATOM      1  C   UNL     1      51.689  45.614 126.221  1.00  0.00     0.017 C 
ATOM      2  C   UNL     1      51.048  46.780 127.018  1.00  0.00     0.014 C 
ATOM      3  C   UNL     1      53.191  45.454 126.658  1.00  0.00     0.014 C 
ATOM      4  C   UNL     1      50.897  44.312 126.552  1.00  0.00     0.030 C 
ATOM      5  C   UNL     1      49.566  46.955 126.678  1.00  0.00     0.004 C 
ATOM      6  C   UNL     1      53.599  44.052 127.196  1.00  0.00     0.013 C 
ATOM      7  C   UNL     1      51.629  43.123 125.915  1.00  0.00    -0.063 C 
ATOM      8  C   UNL     1      49.348  44.419 126.325  1.00  0.00    -0.003 C 
ATOM      9  C   UNL     1      48.765  45.689 127.025  1.00  0.00    -0.011 C 
ATOM     10  C   UNL     1      53.033  42.789 126.424  1.00  0.00    -0.006 C 
ATOM     11  C   UNL     1      51.101  42.396 124.919  1.00  0.00    -0.027 C 
ATOM     12  C   UNL     1      48.629  43.163 126.876  1.00  0.00     0.008 C 
ATOM     13  C   UNL     1      47.285  45.917 126.667  1.00  0.00     0.008 C 
ATOM     14  C   UNL     1      52.850  41.685 127.505  1.00  0.00     0.017 C 
ATOM     15  C   UNL     1      53.993  42.292 125.207  1.00  0.00    -0.020 C 
ATOM     16  C   UNL     1      51.758  41.141 124.454  1.00  0.00     0.032 C 
ATOM     17  C   UNL     1      53.268  41.339 124.137  1.00  0.00     0.006 C 
ATOM     18  C   UNL     1      55.289  41.619 125.756  1.00  0.00     0.008 C 
ATOM     19  C   UNL     1      54.473  43.546 124.414  1.00  0.00     0.012 C 
ATOM     20  C   UNL     1      54.011  39.966 123.771  1.00  0.00    -0.025 C 
ATOM     21  C   UNL     1      55.229  40.114 126.060  1.00  0.00     0.005 C 
ATOM     22  C   UNL     1      54.412  39.196 125.085  1.00  0.00     0.003 C 
ATOM     23  C   UNL     1      55.287  40.207 122.884  1.00  0.00     0.010 C 
ATOM     24  C   UNL     1      53.032  39.128 122.887  1.00  0.00     0.012 C 
ATOM     25  C   UNL     1      55.129  37.779 124.829  1.00  0.00    -0.006 C 
ATOM     26  C   UNL     1      56.461  39.237 123.152  1.00  0.00     0.033 C 
ATOM     27  C   UNL     1      56.009  37.814 123.518  1.00  0.00     0.120 C 
ATOM     28  C   UNL     1      55.995  37.331 126.053  1.00  0.00     0.014 C 
ATOM     29  C   UNL     1      54.062  36.654 124.696  1.00  0.00     0.014 C 
ENDROOT
BRANCH   1  30
ATOM     30  C   UNL     1      51.653  45.973 124.734  1.00  0.00     0.048 C 
ATOM     31  O   UNL     1      52.651  46.528 124.200  1.00  0.00    -0.550 OA
ATOM     32  O   UNL     1      50.553  45.681 123.934  1.00  0.00    -0.550 OA
ENDBRANCH   1  30
BRANCH  27  33
ATOM     33  O   UNL     1      57.150  37.000 123.631  1.00  0.00    -0.393 OA
ATOM     34  H   UNL     1      57.201  36.457 122.801  1.00  0.00     0.210 HD
ENDBRANCH  27  33
TORSDOF 2
ENDMDL
MODEL 7
REMARK VINA RESULT:    -4.360     10.769     14.017
REMARK INTER + INTRA:          -4.558
REMARK INTER:                  -4.746
REMARK INTRA:                   0.187
REMARK UNBOUND:                 0.184
REMARK SMILES C[C@H]1[C@H](C)CC[C@@]2(C(=O)[O-])CC[C@@]3(C)C(=CC[C@@H]4[C@@]5(C)CC[C@@H](O)C(C)(C)[C@H]5CC[C@@]43C)[C@H]12
REMARK SMILES IDX 7 1 6 2 11 3 33 4 5 5 12 6 15 7 2 8 3 9 13 10 16 11 1 12
REMARK SMILES IDX 4 13 14 14 31 15 17 16 18 17 30 18 32 19 19 20 29 21 28 22
REMARK SMILES IDX 21 23 20 24 25 25 22 26 23 27 26 28 27 29 8 30 9 31 10 32
REMARK SMILES IDX 24 33
REMARK H PARENT 24 34
REMARK Flexibility Score: inf
ROOT
ATOM      1  C   UNL     1      50.033  37.371 134.124  1.00  0.00     0.017 C 
ATOM      2  C   UNL     1      50.956  36.188 134.515  1.00  0.00     0.014 C 
ATOM      3  C   UNL     1      49.217  36.985 132.836  1.00  0.00     0.014 C 
ATOM      4  C   UNL     1      49.057  37.635 135.312  1.00  0.00     0.030 C 
ATOM      5  C   UNL     1      51.741  36.478 135.797  1.00  0.00     0.004 C 
ATOM      6  C   UNL     1      47.668  37.058 132.961  1.00  0.00     0.013 C 
ATOM      7  C   UNL     1      48.022  38.677 134.869  1.00  0.00    -0.063 C 
ATOM      8  C   UNL     1      49.764  37.852 136.696  1.00  0.00    -0.003 C 
ATOM      9  C   UNL     1      50.793  36.713 136.985  1.00  0.00    -0.011 C 
ATOM     10  C   UNL     1      47.064  38.301 133.737  1.00  0.00    -0.006 C 
ATOM     11  C   UNL     1      47.951  39.903 135.410  1.00  0.00    -0.027 C 
ATOM     12  C   UNL     1      48.720  37.894 137.839  1.00  0.00     0.008 C 
ATOM     13  C   UNL     1      51.630  36.998 138.246  1.00  0.00     0.008 C 
ATOM     14  C   UNL     1      45.769  37.778 134.422  1.00  0.00     0.017 C 
ATOM     15  C   UNL     1      46.766  39.579 132.774  1.00  0.00    -0.020 C 
ATOM     16  C   UNL     1      46.821  40.820 135.086  1.00  0.00     0.032 C 
ATOM     17  C   UNL     1      46.595  40.972 133.554  1.00  0.00     0.006 C 
ATOM     18  C   UNL     1      45.537  39.310 131.851  1.00  0.00     0.008 C 
ATOM     19  C   UNL     1      47.980  39.768 131.813  1.00  0.00     0.012 C 
ATOM     20  C   UNL     1      45.297  41.844 133.202  1.00  0.00    -0.025 C 
ATOM     21  C   UNL     1      44.147  39.655 132.407  1.00  0.00     0.005 C 
ATOM     22  C   UNL     1      44.001  40.951 133.280  1.00  0.00     0.003 C 
ATOM     23  C   UNL     1      45.402  42.507 131.779  1.00  0.00     0.010 C 
ATOM     24  C   UNL     1      45.241  43.029 134.219  1.00  0.00     0.012 C 
ATOM     25  C   UNL     1      42.632  41.741 132.984  1.00  0.00    -0.006 C 
ATOM     26  C   UNL     1      44.064  42.620 131.011  1.00  0.00     0.033 C 
ATOM     27  C   UNL     1      42.856  42.889 131.923  1.00  0.00     0.120 C 
ATOM     28  C   UNL     1      41.491  40.780 132.514  1.00  0.00     0.014 C 
ATOM     29  C   UNL     1      42.078  42.365 134.298  1.00  0.00     0.014 C 
ENDROOT
BRANCH   1  30
ATOM     30  C   UNL     1      50.914  38.578 133.796  1.00  0.00     0.048 C 
ATOM     31  O   UNL     1      51.293  38.771 132.609  1.00  0.00    -0.550 OA
ATOM     32  O   UNL     1      51.294  39.497 134.769  1.00  0.00    -0.550 OA
ENDBRANCH   1  30
BRANCH  27  33
ATOM     33  O   UNL     1      41.722  43.080 131.112  1.00  0.00    -0.393 OA
ATOM     34  H   UNL     1      41.833  43.959 130.662  1.00  0.00     0.210 HD
ENDBRANCH  27  33
TORSDOF 2
ENDMDL
MODEL 8
REMARK VINA RESULT:    -4.339      4.457      7.347
REMARK INTER + INTRA:          -4.535
REMARK INTER:                  -4.721
REMARK INTRA:                   0.187
REMARK UNBOUND:                 0.184
REMARK SMILES C[C@H]1[C@H](C)CC[C@@]2(C(=O)[O-])CC[C@@]3(C)C(=CC[C@@H]4[C@@]5(C)CC[C@@H](O)C(C)(C)[C@H]5CC[C@@]43C)[C@H]12
REMARK SMILES IDX 7 1 6 2 11 3 33 4 5 5 12 6 15 7 2 8 3 9 13 10 16 11 1 12
REMARK SMILES IDX 4 13 14 14 31 15 17 16 18 17 30 18 32 19 19 20 29 21 28 22
REMARK SMILES IDX 21 23 20 24 25 25 22 26 23 27 26 28 27 29 8 30 9 31 10 32
REMARK SMILES IDX 24 33
REMARK H PARENT 24 34
REMARK Flexibility Score: inf
ROOT
ATOM      1  C   UNL     1      52.449  46.119 126.379  1.00  0.00     0.017 C 
ATOM      2  C   UNL     1      52.119  47.512 126.974  1.00  0.00     0.014 C 
ATOM      3  C   UNL     1      53.762  46.223 125.519  1.00  0.00     0.014 C 
ATOM      4  C   UNL     1      52.667  45.128 127.564  1.00  0.00     0.030 C 
ATOM      5  C   UNL     1      50.879  47.469 127.871  1.00  0.00     0.004 C 
ATOM      6  C   UNL     1      54.922  45.271 125.927  1.00  0.00     0.013 C 
ATOM      7  C   UNL     1      53.172  43.795 126.995  1.00  0.00    -0.063 C 
ATOM      8  C   UNL     1      51.486  45.080 128.595  1.00  0.00    -0.003 C 
ATOM      9  C   UNL     1      51.088  46.517 129.060  1.00  0.00    -0.011 C 
ATOM     10  C   UNL     1      54.536  43.780 126.303  1.00  0.00    -0.006 C 
ATOM     11  C   UNL     1      52.453  42.663 127.055  1.00  0.00    -0.027 C 
ATOM     12  C   UNL     1      51.879  44.237 129.834  1.00  0.00     0.008 C 
ATOM     13  C   UNL     1      49.816  46.511 129.928  1.00  0.00     0.008 C 
ATOM     14  C   UNL     1      55.565  43.341 127.383  1.00  0.00     0.017 C 
ATOM     15  C   UNL     1      54.532  42.772 125.025  1.00  0.00    -0.020 C 
ATOM     16  C   UNL     1      53.049  41.355 126.661  1.00  0.00     0.032 C 
ATOM     17  C   UNL     1      53.727  41.403 125.261  1.00  0.00     0.006 C 
ATOM     18  C   UNL     1      55.985  42.480 124.539  1.00  0.00     0.008 C 
ATOM     19  C   UNL     1      53.826  43.489 123.833  1.00  0.00     0.012 C 
ATOM     20  C   UNL     1      54.489  40.042 124.892  1.00  0.00    -0.025 C 
ATOM     21  C   UNL     1      56.732  41.313 125.205  1.00  0.00     0.005 C 
ATOM     22  C   UNL     1      55.917  40.020 125.556  1.00  0.00     0.003 C 
ATOM     23  C   UNL     1      54.621  39.846 123.337  1.00  0.00     0.010 C 
ATOM     24  C   UNL     1      53.600  38.860 125.396  1.00  0.00     0.012 C 
ATOM     25  C   UNL     1      56.753  38.673 125.283  1.00  0.00    -0.006 C 
ATOM     26  C   UNL     1      55.924  39.154 122.875  1.00  0.00     0.033 C 
ATOM     27  C   UNL     1      56.429  38.082 123.855  1.00  0.00     0.120 C 
ATOM     28  C   UNL     1      58.293  38.898 125.442  1.00  0.00     0.014 C 
ATOM     29  C   UNL     1      56.418  37.604 126.364  1.00  0.00     0.014 C 
ENDROOT
BRANCH   1  30
ATOM     30  C   UNL     1      51.298  45.705 125.460  1.00  0.00     0.048 C 
ATOM     31  O   UNL     1      51.353  45.976 124.229  1.00  0.00    -0.550 OA
ATOM     32  O   UNL     1      50.191  45.010 125.935  1.00  0.00    -0.550 OA
ENDBRANCH   1  30
BRANCH  27  33
ATOM     33  O   UNL     1      57.548  37.450 123.284  1.00  0.00    -0.393 OA
ATOM     34  H   UNL     1      58.243  37.397 123.991  1.00  0.00     0.210 HD
ENDBRANCH  27  33
TORSDOF 2
ENDMDL
MODEL 9
REMARK VINA RESULT:    -4.318      1.698      2.368
REMARK INTER + INTRA:          -4.512
REMARK INTER:                  -4.712
REMARK INTRA:                   0.200
REMARK UNBOUND:                 0.184
REMARK SMILES C[C@H]1[C@H](C)CC[C@@]2(C(=O)[O-])CC[C@@]3(C)C(=CC[C@@H]4[C@@]5(C)CC[C@@H](O)C(C)(C)[C@H]5CC[C@@]43C)[C@H]12
REMARK SMILES IDX 7 1 6 2 11 3 33 4 5 5 12 6 15 7 2 8 3 9 13 10 16 11 1 12
REMARK SMILES IDX 4 13 14 14 31 15 17 16 18 17 30 18 32 19 19 20 29 21 28 22
REMARK SMILES IDX 21 23 20 24 25 25 22 26 23 27 26 28 27 29 8 30 9 31 10 32
REMARK SMILES IDX 24 33
REMARK H PARENT 24 34
REMARK Flexibility Score: inf
ROOT
ATOM      1  C   UNL     1      53.540  37.896 124.895  1.00  0.00     0.017 C 
ATOM      2  C   UNL     1      52.157  37.204 125.006  1.00  0.00     0.014 C 
ATOM      3  C   UNL     1      53.504  38.935 123.714  1.00  0.00     0.014 C 
ATOM      4  C   UNL     1      53.821  38.632 126.241  1.00  0.00     0.030 C 
ATOM      5  C   UNL     1      52.107  36.217 126.176  1.00  0.00     0.004 C 
ATOM      6  C   UNL     1      53.860  40.403 124.085  1.00  0.00     0.013 C 
ATOM      7  C   UNL     1      55.097  39.469 126.081  1.00  0.00    -0.063 C 
ATOM      8  C   UNL     1      53.702  37.723 127.514  1.00  0.00    -0.003 C 
ATOM      9  C   UNL     1      52.354  36.931 127.514  1.00  0.00    -0.011 C 
ATOM     10  C   UNL     1      55.077  40.623 125.077  1.00  0.00    -0.006 C 
ATOM     11  C   UNL     1      56.226  39.207 126.757  1.00  0.00    -0.027 C 
ATOM     12  C   UNL     1      53.787  38.577 128.803  1.00  0.00     0.008 C 
ATOM     13  C   UNL     1      52.292  35.898 128.654  1.00  0.00     0.008 C 
ATOM     14  C   UNL     1      54.726  41.900 125.892  1.00  0.00     0.017 C 
ATOM     15  C   UNL     1      56.510  40.764 124.318  1.00  0.00    -0.020 C 
ATOM     16  C   UNL     1      57.381  40.148 126.716  1.00  0.00     0.032 C 
ATOM     17  C   UNL     1      57.787  40.532 125.263  1.00  0.00     0.006 C 
ATOM     18  C   UNL     1      56.617  42.130 123.572  1.00  0.00     0.008 C 
ATOM     19  C   UNL     1      56.590  39.671 123.207  1.00  0.00     0.012 C 
ATOM     20  C   UNL     1      58.936  41.648 125.214  1.00  0.00    -0.025 C 
ATOM     21  C   UNL     1      57.146  43.331 124.371  1.00  0.00     0.005 C 
ATOM     22  C   UNL     1      58.311  43.083 125.393  1.00  0.00     0.003 C 
ATOM     23  C   UNL     1      59.757  41.588 123.874  1.00  0.00     0.010 C 
ATOM     24  C   UNL     1      59.955  41.318 126.351  1.00  0.00     0.012 C 
ATOM     25  C   UNL     1      59.387  44.279 125.401  1.00  0.00    -0.006 C 
ATOM     26  C   UNL     1      60.235  42.959 123.339  1.00  0.00     0.033 C 
ATOM     27  C   UNL     1      60.605  43.954 124.450  1.00  0.00     0.120 C 
ATOM     28  C   UNL     1      58.741  45.649 125.011  1.00  0.00     0.014 C 
ATOM     29  C   UNL     1      59.917  44.513 126.845  1.00  0.00     0.014 C 
ENDROOT
BRANCH   1  30
ATOM     30  C   UNL     1      54.586  36.828 124.569  1.00  0.00     0.048 C 
ATOM     31  O   UNL     1      54.812  36.520 123.368  1.00  0.00    -0.550 OA
ATOM     32  O   UNL     1      55.325  36.195 125.563  1.00  0.00    -0.550 OA
ENDBRANCH   1  30
BRANCH  27  33
ATOM     33  O   UNL     1      61.125  45.116 123.851  1.00  0.00    -0.393 OA
ATOM     34  H   UNL     1      60.446  45.831 123.969  1.00  0.00     0.210 HD
ENDBRANCH  27  33
TORSDOF 2
ENDMDL
