MODEL 1
REMARK VINA RESULT:    15.589      0.000      0.000
REMARK INTER + INTRA:          29.260
REMARK INTER:                  30.171
REMARK INTRA:                  -0.911
REMARK UNBOUND:                -0.911
REMARK SMILES CCCCCCCCCCCCCCCCCC(=O)[O-]
REMARK SMILES IDX 10 1 11 2 12 3 13 4 14 5 15 6 16 7 17 8 18 9 19 10 20 11
REMARK SMILES IDX 9 12 8 13 7 14 6 15 5 16 4 17 3 18 2 19 1 20
REMARK H PARENT
REMARK Flexibility Score: inf
ROOT
ATOM      1  C   UNL     1      -5.651 -10.703  23.955  1.00  0.00     0.000 C 
ENDROOT
BRANCH   1   2
ATOM      2  C   UNL     1      -6.434 -12.012  23.797  1.00  0.00     0.000 C 
BRANCH   2   3
ATOM      3  C   UNL     1      -6.446 -12.808  25.107  1.00  0.00     0.000 C 
BRANCH   3   4
ATOM      4  C   UNL     1      -5.366 -13.901  25.098  1.00  0.00     0.000 C 
BRANCH   4   5
ATOM      5  C   UNL     1      -4.926 -14.307  26.514  1.00  0.00     0.000 C 
BRANCH   5   6
ATOM      6  C   UNL     1      -5.343 -15.745  26.872  1.00  0.00     0.000 C 
BRANCH   6   7
ATOM      7  C   UNL     1      -4.576 -16.806  26.062  1.00  0.00     0.006 C 
BRANCH   7   8
ATOM      8  C   UNL     1      -5.397 -18.062  25.733  1.00  0.00     0.053 C 
BRANCH   8   9
ATOM      9  C   UNL     1      -5.544 -18.268  24.257  1.00  0.00     0.041 C 
ATOM     10  O   UNL     1      -4.709 -17.762  23.460  1.00  0.00    -0.550 OA
ATOM     11  O   UNL     1      -6.579 -19.052  23.763  1.00  0.00    -0.550 OA
ENDBRANCH   8   9
ENDBRANCH   7   8
ENDBRANCH   6   7
ENDBRANCH   5   6
ENDBRANCH   4   5
ENDBRANCH   3   4
ENDBRANCH   2   3
ENDBRANCH   1   2
BRANCH   1  12
ATOM     12  C   UNL     1      -6.152  -9.905  25.164  1.00  0.00     0.000 C 
BRANCH  12  13
ATOM     13  C   UNL     1      -5.117  -8.860  25.600  1.00  0.00    -0.000 C 
BRANCH  13  14
ATOM     14  C   UNL     1      -3.748  -9.142  24.971  1.00  0.00    -0.000 C 
BRANCH  14  15
ATOM     15  C   UNL     1      -3.373  -8.049  23.959  1.00  0.00    -0.000 C 
BRANCH  15  16
ATOM     16  C   UNL     1      -1.886  -8.104  23.563  1.00  0.00    -0.000 C 
BRANCH  16  17
ATOM     17  C   UNL     1      -0.986  -8.743  24.645  1.00  0.00    -0.000 C 
BRANCH  17  18
ATOM     18  C   UNL     1       0.161  -7.827  25.112  1.00  0.00    -0.000 C 
BRANCH  18  19
ATOM     19  C   UNL     1       0.445  -7.884  26.622  1.00  0.00    -0.003 C 
ATOM     20  C   UNL     1       0.703  -9.305  27.124  1.00  0.00     0.004 C 
ENDBRANCH  18  19
ENDBRANCH  17  18
ENDBRANCH  16  17
ENDBRANCH  15  16
ENDBRANCH  14  15
ENDBRANCH  13  14
ENDBRANCH  12  13
ENDBRANCH   1  12
TORSDOF 16
ENDMDL
MODEL 2
REMARK VINA RESULT:    16.740      1.518      2.912
REMARK INTER + INTRA:          31.486
REMARK INTER:                  32.114
REMARK INTRA:                  -0.627
REMARK UNBOUND:                -0.911
REMARK SMILES CCCCCCCCCCCCCCCCCC(=O)[O-]
REMARK SMILES IDX 10 1 11 2 12 3 13 4 14 5 15 6 16 7 17 8 18 9 19 10 20 11
REMARK SMILES IDX 9 12 8 13 7 14 6 15 5 16 4 17 3 18 2 19 1 20
REMARK H PARENT
REMARK Flexibility Score: inf
ROOT
ATOM      1  C   UNL     1      -6.095 -10.698  23.910  1.00  0.00     0.000 C 
ENDROOT
BRANCH   1   2
ATOM      2  C   UNL     1      -6.543 -12.163  23.824  1.00  0.00     0.000 C 
BRANCH   2   3
ATOM      3  C   UNL     1      -6.436 -12.851  25.190  1.00  0.00     0.000 C 
BRANCH   3   4
ATOM      4  C   UNL     1      -5.366 -13.953  25.170  1.00  0.00     0.000 C 
BRANCH   4   5
ATOM      5  C   UNL     1      -4.950 -14.397  26.582  1.00  0.00     0.000 C 
BRANCH   5   6
ATOM      6  C   UNL     1      -5.355 -15.850  26.888  1.00  0.00     0.000 C 
BRANCH   6   7
ATOM      7  C   UNL     1      -4.639 -16.870  25.984  1.00  0.00     0.006 C 
BRANCH   7   8
ATOM      8  C   UNL     1      -5.458 -18.137  25.691  1.00  0.00     0.053 C 
BRANCH   8   9
ATOM      9  C   UNL     1      -5.592 -18.393  24.222  1.00  0.00     0.041 C 
ATOM     10  O   UNL     1      -6.503 -19.148  23.790  1.00  0.00    -0.550 OA
ATOM     11  O   UNL     1      -4.735 -17.766  23.326  1.00  0.00    -0.550 OA
ENDBRANCH   8   9
ENDBRANCH   7   8
ENDBRANCH   6   7
ENDBRANCH   5   6
ENDBRANCH   4   5
ENDBRANCH   3   4
ENDBRANCH   2   3
ENDBRANCH   1   2
BRANCH   1  12
ATOM     12  C   UNL     1      -6.015 -10.231  25.367  1.00  0.00     0.000 C 
BRANCH  12  13
ATOM     13  C   UNL     1      -5.233  -8.917  25.482  1.00  0.00    -0.000 C 
BRANCH  13  14
ATOM     14  C   UNL     1      -4.285  -8.733  24.291  1.00  0.00    -0.000 C 
BRANCH  14  15
ATOM     15  C   UNL     1      -2.820  -8.706  24.754  1.00  0.00    -0.000 C 
BRANCH  15  16
ATOM     16  C   UNL     1      -1.835  -8.929  23.593  1.00  0.00    -0.000 C 
BRANCH  16  17
ATOM     17  C   UNL     1      -1.625  -7.673  22.716  1.00  0.00    -0.000 C 
BRANCH  17  18
ATOM     18  C   UNL     1      -2.847  -7.314  21.850  1.00  0.00    -0.000 C 
BRANCH  18  19
ATOM     19  C   UNL     1      -2.521  -7.030  20.374  1.00  0.00    -0.003 C 
ATOM     20  C   UNL     1      -3.658  -7.418  19.430  1.00  0.00     0.004 C 
ENDBRANCH  18  19
ENDBRANCH  17  18
ENDBRANCH  16  17
ENDBRANCH  15  16
ENDBRANCH  14  15
ENDBRANCH  13  14
ENDBRANCH  12  13
ENDBRANCH   1  12
TORSDOF 16
ENDMDL
MODEL 3
REMARK VINA RESULT:    17.171      3.875      8.616
REMARK INTER + INTRA:          32.321
REMARK INTER:                  33.209
REMARK INTRA:                  -0.888
REMARK UNBOUND:                -0.911
REMARK SMILES CCCCCCCCCCCCCCCCCC(=O)[O-]
REMARK SMILES IDX 10 1 11 2 12 3 13 4 14 5 15 6 16 7 17 8 18 9 19 10 20 11
REMARK SMILES IDX 9 12 8 13 7 14 6 15 5 16 4 17 3 18 2 19 1 20
REMARK H PARENT
REMARK Flexibility Score: inf
ROOT
ATOM      1  C   UNL     1      -6.080 -11.843  23.754  1.00  0.00     0.000 C 
ENDROOT
BRANCH   1   2
ATOM      2  C   UNL     1      -6.005 -10.312  23.805  1.00  0.00     0.000 C 
BRANCH   2   3
ATOM      3  C   UNL     1      -5.608  -9.827  25.205  1.00  0.00     0.000 C 
BRANCH   3   4
ATOM      4  C   UNL     1      -4.598  -8.673  25.122  1.00  0.00     0.000 C 
BRANCH   4   5
ATOM      5  C   UNL     1      -3.643  -8.809  23.924  1.00  0.00     0.000 C 
BRANCH   5   6
ATOM      6  C   UNL     1      -2.306  -8.083  24.150  1.00  0.00     0.000 C 
BRANCH   6   7
ATOM      7  C   UNL     1      -1.150  -9.050  24.466  1.00  0.00     0.006 C 
BRANCH   7   8
ATOM      8  C   UNL     1      -0.867  -9.225  25.966  1.00  0.00     0.053 C 
BRANCH   8   9
ATOM      9  C   UNL     1       0.422  -8.580  26.375  1.00  0.00     0.041 C 
ATOM     10  O   UNL     1       1.271  -9.227  27.044  1.00  0.00    -0.550 OA
ATOM     11  O   UNL     1       0.704  -7.278  25.981  1.00  0.00    -0.550 OA
ENDBRANCH   8   9
ENDBRANCH   7   8
ENDBRANCH   6   7
ENDBRANCH   5   6
ENDBRANCH   4   5
ENDBRANCH   3   4
ENDBRANCH   2   3
ENDBRANCH   1   2
BRANCH   1  12
ATOM     12  C   UNL     1      -7.156 -12.374  24.708  1.00  0.00     0.000 C 
BRANCH  12  13
ATOM     13  C   UNL     1      -6.524 -12.990  25.961  1.00  0.00    -0.000 C 
BRANCH  13  14
ATOM     14  C   UNL     1      -5.489 -14.059  25.590  1.00  0.00    -0.000 C 
BRANCH  14  15
ATOM     15  C   UNL     1      -4.787 -14.602  26.844  1.00  0.00    -0.000 C 
BRANCH  15  16
ATOM     16  C   UNL     1      -4.815 -16.140  26.910  1.00  0.00    -0.000 C 
BRANCH  16  17
ATOM     17  C   UNL     1      -4.824 -16.814  25.519  1.00  0.00    -0.000 C 
BRANCH  17  18
ATOM     18  C   UNL     1      -5.495 -18.201  25.510  1.00  0.00    -0.000 C 
BRANCH  18  19
ATOM     19  C   UNL     1      -5.992 -18.658  24.128  1.00  0.00    -0.003 C 
ATOM     20  C   UNL     1      -5.259 -17.969  22.977  1.00  0.00     0.004 C 
ENDBRANCH  18  19
ENDBRANCH  17  18
ENDBRANCH  16  17
ENDBRANCH  15  16
ENDBRANCH  14  15
ENDBRANCH  13  14
ENDBRANCH  12  13
ENDBRANCH   1  12
TORSDOF 16
ENDMDL
MODEL 4
REMARK VINA RESULT:    17.801      4.428      8.333
REMARK INTER + INTRA:          33.540
REMARK INTER:                  34.190
REMARK INTRA:                  -0.650
REMARK UNBOUND:                -0.911
REMARK SMILES CCCCCCCCCCCCCCCCCC(=O)[O-]
REMARK SMILES IDX 10 1 11 2 12 3 13 4 14 5 15 6 16 7 17 8 18 9 19 10 20 11
REMARK SMILES IDX 9 12 8 13 7 14 6 15 5 16 4 17 3 18 2 19 1 20
REMARK H PARENT
REMARK Flexibility Score: inf
ROOT
ATOM      1  C   UNL     1      -7.513 -12.080  22.856  1.00  0.00     0.000 C 
ENDROOT
BRANCH   1   2
ATOM      2  C   UNL     1      -6.240 -12.035  23.709  1.00  0.00     0.000 C 
BRANCH   2   3
ATOM      3  C   UNL     1      -6.387 -12.903  24.964  1.00  0.00     0.000 C 
BRANCH   3   4
ATOM      4  C   UNL     1      -5.351 -14.036  24.975  1.00  0.00     0.000 C 
BRANCH   4   5
ATOM      5  C   UNL     1      -5.237 -14.718  26.349  1.00  0.00     0.000 C 
BRANCH   5   6
ATOM      6  C   UNL     1      -4.647 -16.136  26.257  1.00  0.00     0.000 C 
BRANCH   6   7
ATOM      7  C   UNL     1      -5.720 -17.235  26.360  1.00  0.00     0.006 C 
BRANCH   7   8
ATOM      8  C   UNL     1      -5.415 -18.494  25.532  1.00  0.00     0.053 C 
BRANCH   8   9
ATOM      9  C   UNL     1      -5.529 -18.240  24.061  1.00  0.00     0.041 C 
ATOM     10  O   UNL     1      -4.591 -17.673  23.440  1.00  0.00    -0.550 OA
ATOM     11  O   UNL     1      -6.654 -18.668  23.366  1.00  0.00    -0.550 OA
ENDBRANCH   8   9
ENDBRANCH   7   8
ENDBRANCH   6   7
ENDBRANCH   5   6
ENDBRANCH   4   5
ENDBRANCH   3   4
ENDBRANCH   2   3
ENDBRANCH   1   2
BRANCH   1  12
ATOM     12  C   UNL     1      -7.573 -13.366  22.023  1.00  0.00     0.000 C 
BRANCH  12  13
ATOM     13  C   UNL     1      -8.734 -13.319  21.022  1.00  0.00    -0.000 C 
BRANCH  13  14
ATOM     14  C   UNL     1      -8.548 -14.360  19.911  1.00  0.00    -0.000 C 
BRANCH  14  15
ATOM     15  C   UNL     1      -8.794 -13.737  18.529  1.00  0.00    -0.000 C 
BRANCH  15  16
ATOM     16  C   UNL     1      -9.759 -14.577  17.673  1.00  0.00    -0.000 C 
BRANCH  16  17
ATOM     17  C   UNL     1      -9.259 -16.017  17.418  1.00  0.00    -0.000 C 
BRANCH  17  18
ATOM     18  C   UNL     1     -10.080 -17.095  18.151  1.00  0.00    -0.000 C 
BRANCH  18  19
ATOM     19  C   UNL     1      -9.986 -18.499  17.532  1.00  0.00    -0.003 C 
ATOM     20  C   UNL     1      -8.570 -18.853  17.077  1.00  0.00     0.004 C 
ENDBRANCH  18  19
ENDBRANCH  17  18
ENDBRANCH  16  17
ENDBRANCH  15  16
ENDBRANCH  14  15
ENDBRANCH  13  14
ENDBRANCH  12  13
ENDBRANCH   1  12
TORSDOF 16
ENDMDL
MODEL 5
REMARK VINA RESULT:    18.251      5.557     10.171
REMARK INTER + INTRA:          34.412
REMARK INTER:                  35.035
REMARK INTRA:                  -0.623
REMARK UNBOUND:                -0.911
REMARK SMILES CCCCCCCCCCCCCCCCCC(=O)[O-]
REMARK SMILES IDX 10 1 11 2 12 3 13 4 14 5 15 6 16 7 17 8 18 9 19 10 20 11
REMARK SMILES IDX 9 12 8 13 7 14 6 15 5 16 4 17 3 18 2 19 1 20
REMARK H PARENT
REMARK Flexibility Score: inf
ROOT
ATOM      1  C   UNL     1      -6.704 -12.522  23.176  1.00  0.00     0.000 C 
ENDROOT
BRANCH   1   2
ATOM      2  C   UNL     1      -6.440 -11.518  24.305  1.00  0.00     0.000 C 
BRANCH   2   3
ATOM      3  C   UNL     1      -5.478 -10.415  23.847  1.00  0.00     0.000 C 
BRANCH   3   4
ATOM      4  C   UNL     1      -5.351  -9.317  24.913  1.00  0.00     0.000 C 
BRANCH   4   5
ATOM      5  C   UNL     1      -3.887  -8.956  25.216  1.00  0.00     0.000 C 
BRANCH   5   6
ATOM      6  C   UNL     1      -3.123  -8.488  23.965  1.00  0.00     0.000 C 
BRANCH   6   7
ATOM      7  C   UNL     1      -1.596  -8.588  24.128  1.00  0.00     0.006 C 
BRANCH   7   8
ATOM      8  C   UNL     1      -1.143  -9.201  25.464  1.00  0.00     0.053 C 
BRANCH   8   9
ATOM      9  C   UNL     1       0.063  -8.510  26.019  1.00  0.00     0.041 C 
ATOM     10  O   UNL     1       0.800  -9.096  26.857  1.00  0.00    -0.550 OA
ATOM     11  O   UNL     1       0.398  -7.235  25.581  1.00  0.00    -0.550 OA
ENDBRANCH   8   9
ENDBRANCH   7   8
ENDBRANCH   6   7
ENDBRANCH   5   6
ENDBRANCH   4   5
ENDBRANCH   3   4
ENDBRANCH   2   3
ENDBRANCH   1   2
BRANCH   1  12
ATOM     12  C   UNL     1      -7.590 -11.907  22.088  1.00  0.00     0.000 C 
BRANCH  12  13
ATOM     13  C   UNL     1      -8.714 -12.869  21.684  1.00  0.00    -0.000 C 
BRANCH  13  14
ATOM     14  C   UNL     1      -8.270 -13.788  20.540  1.00  0.00    -0.000 C 
BRANCH  14  15
ATOM     15  C   UNL     1      -9.179 -13.615  19.313  1.00  0.00    -0.000 C 
BRANCH  15  16
ATOM     16  C   UNL     1      -8.716 -14.468  18.118  1.00  0.00    -0.000 C 
BRANCH  16  17
ATOM     17  C   UNL     1      -9.761 -15.513  17.668  1.00  0.00    -0.000 C 
BRANCH  17  18
ATOM     18  C   UNL     1      -9.513 -16.921  18.244  1.00  0.00    -0.000 C 
BRANCH  18  19
ATOM     19  C   UNL     1     -10.308 -18.041  17.552  1.00  0.00    -0.003 C 
ATOM     20  C   UNL     1      -9.433 -19.229  17.151  1.00  0.00     0.004 C 
ENDBRANCH  18  19
ENDBRANCH  17  18
ENDBRANCH  16  17
ENDBRANCH  15  16
ENDBRANCH  14  15
ENDBRANCH  13  14
ENDBRANCH  12  13
ENDBRANCH   1  12
TORSDOF 16
ENDMDL
