MODEL 1
REMARK VINA RESULT:    -4.655      0.000      0.000
REMARK INTER + INTRA:          -4.927
REMARK INTER:                  -4.927
REMARK INTRA:                   0.000
REMARK UNBOUND:                 0.000
REMARK SMILES O=c1ccc2cc(O)c(O)cc2o1
REMARK SMILES IDX 4 1 3 2 2 3 1 4 13 5 12 6 11 7 9 8 7 9 6 10 5 11 8 12 10 14
REMARK H PARENT 8 13 10 15
REMARK Flexibility Score: inf
ROOT
ATOM      1  C   UNL     1      37.995 -20.083   1.614  1.00  0.00     0.019 A 
ATOM      2  C   UNL     1      37.099 -20.666   0.719  1.00  0.00     0.094 A 
ATOM      3  C   UNL     1      37.578 -21.587  -0.218  1.00  0.00     0.336 A 
ATOM      4  O   UNL     1      36.784 -22.125  -1.034  1.00  0.00    -0.246 OA
ATOM      5  O   UNL     1      38.871 -21.902  -0.253  1.00  0.00    -0.423 OA
ATOM      6  C   UNL     1      39.759 -21.370   0.582  1.00  0.00     0.142 A 
ATOM      7  C   UNL     1      41.105 -21.739   0.499  1.00  0.00     0.098 A 
ATOM      8  C   UNL     1      42.047 -21.181   1.376  1.00  0.00     0.161 A 
ATOM      9  C   UNL     1      41.637 -20.246   2.345  1.00  0.00     0.158 A 
ATOM     10  C   UNL     1      40.290 -19.875   2.430  1.00  0.00     0.062 A 
ATOM     11  C   UNL     1      39.349 -20.432   1.554  1.00  0.00     0.022 A 
ENDROOT
BRANCH   9  12
ATOM     12  O   UNL     1      42.553 -19.677   3.228  1.00  0.00    -0.504 OA
ATOM     13  H   UNL     1      43.037 -20.225   3.929  1.00  0.00     0.293 HD
ENDBRANCH   9  12
BRANCH   8  14
ATOM     14  O   UNL     1      43.389 -21.551   1.289  1.00  0.00    -0.504 OA
ATOM     15  H   UNL     1      43.739 -22.097   0.510  1.00  0.00     0.293 HD
ENDBRANCH   8  14
TORSDOF 2
ENDMDL
MODEL 2
REMARK VINA RESULT:    -4.620      1.470      2.379
REMARK INTER + INTRA:          -4.890
REMARK INTER:                  -4.890
REMARK INTRA:                   0.000
REMARK UNBOUND:                 0.000
REMARK SMILES O=c1ccc2cc(O)c(O)cc2o1
REMARK SMILES IDX 4 1 3 2 2 3 1 4 13 5 12 6 11 7 9 8 7 9 6 10 5 11 8 12 10 14
REMARK H PARENT 8 13 10 15
REMARK Flexibility Score: inf
ROOT
ATOM      1  C   UNL     1      38.518 -21.527   0.010  1.00  0.00     0.019 A 
ATOM      2  C   UNL     1      37.179 -21.380   0.367  1.00  0.00     0.094 A 
ATOM      3  C   UNL     1      36.863 -20.735   1.568  1.00  0.00     0.336 A 
ATOM      4  O   UNL     1      35.659 -20.592   1.907  1.00  0.00    -0.246 OA
ATOM      5  O   UNL     1      37.829 -20.271   2.357  1.00  0.00    -0.423 OA
ATOM      6  C   UNL     1      39.119 -20.390   2.055  1.00  0.00     0.142 A 
ATOM      7  C   UNL     1      40.090 -19.882   2.922  1.00  0.00     0.098 A 
ATOM      8  C   UNL     1      41.453 -20.004   2.609  1.00  0.00     0.161 A 
ATOM      9  C   UNL     1      41.844 -20.641   1.418  1.00  0.00     0.158 A 
ATOM     10  C   UNL     1      40.873 -21.152   0.547  1.00  0.00     0.062 A 
ATOM     11  C   UNL     1      39.513 -21.029   0.859  1.00  0.00     0.022 A 
ENDROOT
BRANCH   9  12
ATOM     12  O   UNL     1      43.191 -20.777   1.083  1.00  0.00    -0.504 OA
ATOM     13  H   UNL     1      43.504 -21.413   0.360  1.00  0.00     0.293 HD
ENDBRANCH   9  12
BRANCH   8  14
ATOM     14  O   UNL     1      42.418 -19.496   3.478  1.00  0.00    -0.504 OA
ATOM     15  H   UNL     1      42.206 -18.747   4.127  1.00  0.00     0.293 HD
ENDBRANCH   8  14
TORSDOF 2
ENDMDL
MODEL 3
REMARK VINA RESULT:    -4.549      6.855      8.948
REMARK INTER + INTRA:          -4.814
REMARK INTER:                  -4.814
REMARK INTRA:                   0.000
REMARK UNBOUND:                 0.000
REMARK SMILES O=c1ccc2cc(O)c(O)cc2o1
REMARK SMILES IDX 4 1 3 2 2 3 1 4 13 5 12 6 11 7 9 8 7 9 6 10 5 11 8 12 10 14
REMARK H PARENT 8 13 10 15
REMARK Flexibility Score: inf
ROOT
ATOM      1  C   UNL     1      30.166 -22.104   3.427  1.00  0.00     0.019 A 
ATOM      2  C   UNL     1      30.319 -21.747   4.766  1.00  0.00     0.094 A 
ATOM      3  C   UNL     1      31.450 -21.018   5.149  1.00  0.00     0.336 A 
ATOM      4  O   UNL     1      31.606 -20.686   6.353  1.00  0.00    -0.246 OA
ATOM      5  O   UNL     1      32.365 -20.671   4.247  1.00  0.00    -0.423 OA
ATOM      6  C   UNL     1      32.257 -20.990   2.960  1.00  0.00     0.142 A 
ATOM      7  C   UNL     1      33.250 -20.598   2.057  1.00  0.00     0.098 A 
ATOM      8  C   UNL     1      33.143 -20.932   0.698  1.00  0.00     0.161 A 
ATOM      9  C   UNL     1      32.032 -21.665   0.241  1.00  0.00     0.158 A 
ATOM     10  C   UNL     1      31.037 -22.059   1.144  1.00  0.00     0.062 A 
ATOM     11  C   UNL     1      31.144 -21.726   2.500  1.00  0.00     0.022 A 
ENDROOT
BRANCH   9  12
ATOM     12  O   UNL     1      31.902 -22.010  -1.103  1.00  0.00    -0.504 OA
ATOM     13  H   UNL     1      32.382 -22.807  -1.503  1.00  0.00     0.293 HD
ENDBRANCH   9  12
BRANCH   8  14
ATOM     14  O   UNL     1      34.136 -20.539  -0.199  1.00  0.00    -0.504 OA
ATOM     15  H   UNL     1      33.978 -19.802  -0.876  1.00  0.00     0.293 HD
ENDBRANCH   8  14
TORSDOF 2
ENDMDL
MODEL 4
REMARK VINA RESULT:    -4.106      1.735      2.268
REMARK INTER + INTRA:          -4.346
REMARK INTER:                  -4.346
REMARK INTRA:                   0.000
REMARK UNBOUND:                 0.000
REMARK SMILES O=c1ccc2cc(O)c(O)cc2o1
REMARK SMILES IDX 4 1 3 2 2 3 1 4 13 5 12 6 11 7 9 8 7 9 6 10 5 11 8 12 10 14
REMARK H PARENT 8 13 10 15
REMARK Flexibility Score: inf
ROOT
ATOM      1  C   UNL     1      36.517 -21.027   2.470  1.00  0.00     0.019 A 
ATOM      2  C   UNL     1      35.973 -20.981   1.186  1.00  0.00     0.094 A 
ATOM      3  C   UNL     1      36.777 -20.555   0.124  1.00  0.00     0.336 A 
ATOM      4  O   UNL     1      36.305 -20.508  -1.042  1.00  0.00    -0.246 OA
ATOM      5  O   UNL     1      38.042 -20.199   0.336  1.00  0.00    -0.423 OA
ATOM      6  C   UNL     1      38.600 -20.228   1.544  1.00  0.00     0.142 A 
ATOM      7  C   UNL     1      39.933 -19.842   1.708  1.00  0.00     0.098 A 
ATOM      8  C   UNL     1      40.527 -19.870   2.979  1.00  0.00     0.161 A 
ATOM      9  C   UNL     1      39.778 -20.287   4.094  1.00  0.00     0.158 A 
ATOM     10  C   UNL     1      38.442 -20.673   3.934  1.00  0.00     0.062 A 
ATOM     11  C   UNL     1      37.849 -20.646   2.664  1.00  0.00     0.022 A 
ENDROOT
BRANCH   9  12
ATOM     12  O   UNL     1      40.344 -20.324   5.368  1.00  0.00    -0.504 OA
ATOM     13  H   UNL     1      41.334 -20.176   5.521  1.00  0.00     0.293 HD
ENDBRANCH   9  12
BRANCH   8  14
ATOM     14  O   UNL     1      41.858 -19.483   3.137  1.00  0.00    -0.504 OA
ATOM     15  H   UNL     1      42.109 -18.531   3.374  1.00  0.00     0.293 HD
ENDBRANCH   8  14
TORSDOF 2
ENDMDL
MODEL 5
REMARK VINA RESULT:    -4.069      3.032      5.547
REMARK INTER + INTRA:          -4.307
REMARK INTER:                  -4.307
REMARK INTRA:                   0.000
REMARK UNBOUND:                 0.000
REMARK SMILES O=c1ccc2cc(O)c(O)cc2o1
REMARK SMILES IDX 4 1 3 2 2 3 1 4 13 5 12 6 11 7 9 8 7 9 6 10 5 11 8 12 10 14
REMARK H PARENT 8 13 10 15
REMARK Flexibility Score: inf
ROOT
ATOM      1  C   UNL     1      36.375 -21.776   3.584  1.00  0.00     0.019 A 
ATOM      2  C   UNL     1      37.476 -21.342   4.322  1.00  0.00     0.094 A 
ATOM      3  C   UNL     1      38.461 -20.579   3.687  1.00  0.00     0.336 A 
ATOM      4  O   UNL     1      39.462 -20.178   4.337  1.00  0.00    -0.246 OA
ATOM      5  O   UNL     1      38.348 -20.271   2.398  1.00  0.00    -0.423 OA
ATOM      6  C   UNL     1      37.315 -20.664   1.657  1.00  0.00     0.142 A 
ATOM      7  C   UNL     1      37.249 -20.311   0.306  1.00  0.00     0.098 A 
ATOM      8  C   UNL     1      36.163 -20.722  -0.481  1.00  0.00     0.161 A 
ATOM      9  C   UNL     1      35.134 -21.493   0.090  1.00  0.00     0.158 A 
ATOM     10  C   UNL     1      35.198 -21.849   1.443  1.00  0.00     0.062 A 
ATOM     11  C   UNL     1      36.282 -21.438   2.229  1.00  0.00     0.022 A 
ENDROOT
BRANCH   9  12
ATOM     12  O   UNL     1      34.044 -21.915  -0.669  1.00  0.00    -0.504 OA
ATOM     13  H   UNL     1      33.838 -22.895  -0.816  1.00  0.00     0.293 HD
ENDBRANCH   9  12
BRANCH   8  14
ATOM     14  O   UNL     1      36.102 -20.368  -1.829  1.00  0.00    -0.504 OA
ATOM     15  H   UNL     1      36.248 -21.050  -2.564  1.00  0.00     0.293 HD
ENDBRANCH   8  14
TORSDOF 2
ENDMDL
MODEL 6
REMARK VINA RESULT:    -3.965      3.126      6.515
REMARK INTER + INTRA:          -4.196
REMARK INTER:                  -4.196
REMARK INTRA:                   0.000
REMARK UNBOUND:                 0.000
REMARK SMILES O=c1ccc2cc(O)c(O)cc2o1
REMARK SMILES IDX 4 1 3 2 2 3 1 4 13 5 12 6 11 7 9 8 7 9 6 10 5 11 8 12 10 14
REMARK H PARENT 8 13 10 15
REMARK Flexibility Score: inf
ROOT
ATOM      1  C   UNL     1      37.258 -20.620   0.139  1.00  0.00     0.019 A 
ATOM      2  C   UNL     1      38.321 -20.443   1.024  1.00  0.00     0.094 A 
ATOM      3  C   UNL     1      38.103 -20.631   2.392  1.00  0.00     0.336 A 
ATOM      4  O   UNL     1      39.050 -20.477   3.207  1.00  0.00    -0.246 OA
ATOM      5  O   UNL     1      36.898 -20.973   2.842  1.00  0.00    -0.423 OA
ATOM      6  C   UNL     1      35.857 -21.153   2.032  1.00  0.00     0.142 A 
ATOM      7  C   UNL     1      34.615 -21.513   2.561  1.00  0.00     0.098 A 
ATOM      8  C   UNL     1      33.513 -21.703   1.713  1.00  0.00     0.161 A 
ATOM      9  C   UNL     1      33.658 -21.531   0.325  1.00  0.00     0.158 A 
ATOM     10  C   UNL     1      34.902 -21.169  -0.208  1.00  0.00     0.062 A 
ATOM     11  C   UNL     1      36.002 -20.980   0.639  1.00  0.00     0.022 A 
ENDROOT
BRANCH   9  12
ATOM     12  O   UNL     1      32.580 -21.713  -0.540  1.00  0.00    -0.504 OA
ATOM     13  H   UNL     1      31.705 -22.119  -0.231  1.00  0.00     0.293 HD
ENDBRANCH   9  12
BRANCH   8  14
ATOM     14  O   UNL     1      32.275 -22.061   2.246  1.00  0.00    -0.504 OA
ATOM     15  H   UNL     1      32.026 -23.031   2.404  1.00  0.00     0.293 HD
ENDBRANCH   8  14
TORSDOF 2
ENDMDL
MODEL 7
REMARK VINA RESULT:    -2.139      1.488      4.951
REMARK INTER + INTRA:          -2.264
REMARK INTER:                  -2.264
REMARK INTRA:                   0.000
REMARK UNBOUND:                 0.000
REMARK SMILES O=c1ccc2cc(O)c(O)cc2o1
REMARK SMILES IDX 4 1 3 2 2 3 1 4 13 5 12 6 11 7 9 8 7 9 6 10 5 11 8 12 10 14
REMARK H PARENT 8 13 10 15
REMARK Flexibility Score: inf
ROOT
ATOM      1  C   UNL     1      38.910 -20.258   1.840  1.00  0.00     0.019 A 
ATOM      2  C   UNL     1      40.217 -20.743   1.858  1.00  0.00     0.094 A 
ATOM      3  C   UNL     1      40.611 -21.668   0.886  1.00  0.00     0.336 A 
ATOM      4  O   UNL     1      41.788 -22.116   0.885  1.00  0.00    -0.246 OA
ATOM      5  O   UNL     1      39.750 -22.080  -0.041  1.00  0.00    -0.423 OA
ATOM      6  C   UNL     1      38.494 -21.643  -0.094  1.00  0.00     0.142 A 
ATOM      7  C   UNL     1      37.633 -22.111  -1.091  1.00  0.00     0.098 A 
ATOM      8  C   UNL     1      36.308 -21.655  -1.153  1.00  0.00     0.161 A 
ATOM      9  C   UNL     1      35.841 -20.724  -0.207  1.00  0.00     0.158 A 
ATOM     10  C   UNL     1      36.701 -20.254   0.793  1.00  0.00     0.062 A 
ATOM     11  C   UNL     1      38.025 -20.709   0.854  1.00  0.00     0.022 A 
ENDROOT
BRANCH   9  12
ATOM     12  O   UNL     1      34.529 -20.255  -0.246  1.00  0.00    -0.504 OA
ATOM     13  H   UNL     1      34.280 -19.327   0.074  1.00  0.00     0.293 HD
ENDBRANCH   9  12
BRANCH   8  14
ATOM     14  O   UNL     1      35.452 -22.125  -2.149  1.00  0.00    -0.504 OA
ATOM     15  H   UNL     1      34.813 -22.893  -1.981  1.00  0.00     0.293 HD
ENDBRANCH   8  14
TORSDOF 2
ENDMDL
