MODEL 1
REMARK VINA RESULT:    -5.206      0.000      0.000
REMARK INTER + INTRA:          -6.099
REMARK INTER:                  -5.966
REMARK INTRA:                  -0.133
REMARK UNBOUND:                -0.133
REMARK SMILES O=C([O-])C=Cc1ccc(O)cc1
REMARK SMILES IDX 6 1 7 2 12 3 8 4 11 5 9 6 5 7 4 8 2 9 1 10 3 11 10 12
REMARK H PARENT 10 13
REMARK Flexibility Score: inf
ROOT
ATOM      1  C   UNL     1      10.116  -4.749  19.363  1.00  0.00    -0.025 A 
ATOM      2  C   UNL     1      11.180  -5.517  19.881  1.00  0.00     0.012 A 
ATOM      3  C   UNL     1       8.882  -5.378  19.123  1.00  0.00     0.012 A 
ATOM      4  C   UNL     1      11.013  -6.883  20.124  1.00  0.00     0.047 A 
ATOM      5  C   UNL     1       8.720  -6.744  19.366  1.00  0.00     0.047 A 
ATOM      6  C   UNL     1       9.786  -7.501  19.867  1.00  0.00     0.115 A 
ENDROOT
BRANCH   1   7
ATOM      7  C   UNL     1      10.236  -3.294  19.097  1.00  0.00     0.010 C 
ATOM      8  C   UNL     1      10.583  -2.779  17.909  1.00  0.00     0.025 C 
BRANCH   8   9
ATOM      9  C   UNL     1      10.678  -1.328  17.688  1.00  0.00     0.064 C 
ATOM     10  O   UNL     1       9.665  -0.692  17.295  1.00  0.00    -0.545 OA
ATOM     11  O   UNL     1      11.869  -0.645  17.905  1.00  0.00    -0.545 OA
ENDBRANCH   8   9
ENDBRANCH   1   7
BRANCH   6  12
ATOM     12  O   UNL     1       9.636  -8.864  20.114  1.00  0.00    -0.508 OA
ATOM     13  H   UNL     1      10.438  -9.475  20.210  1.00  0.00     0.293 HD
ENDBRANCH   6  12
TORSDOF 3
ENDMDL
MODEL 2
REMARK VINA RESULT:    -5.202      0.485      1.731
REMARK INTER + INTRA:          -6.095
REMARK INTER:                  -5.961
REMARK INTRA:                  -0.134
REMARK UNBOUND:                -0.133
REMARK SMILES O=C([O-])C=Cc1ccc(O)cc1
REMARK SMILES IDX 6 1 7 2 12 3 8 4 11 5 9 6 5 7 4 8 2 9 1 10 3 11 10 12
REMARK H PARENT 10 13
REMARK Flexibility Score: inf
ROOT
ATOM      1  C   UNL     1       9.731  -4.649  19.368  1.00  0.00    -0.025 A 
ATOM      2  C   UNL     1       8.582  -5.421  19.099  1.00  0.00     0.012 A 
ATOM      3  C   UNL     1      10.876  -5.291  19.870  1.00  0.00     0.012 A 
ATOM      4  C   UNL     1       8.578  -6.796  19.354  1.00  0.00     0.047 A 
ATOM      5  C   UNL     1      10.868  -6.665  20.125  1.00  0.00     0.047 A 
ATOM      6  C   UNL     1       9.717  -7.421  19.869  1.00  0.00     0.115 A 
ENDROOT
BRANCH   1   7
ATOM      7  C   UNL     1       9.793  -3.189  19.104  1.00  0.00     0.010 C 
ATOM      8  C   UNL     1      10.030  -2.659  17.896  1.00  0.00     0.025 C 
BRANCH   8   9
ATOM      9  C   UNL     1      10.070  -1.204  17.680  1.00  0.00     0.064 C 
ATOM     10  O   UNL     1      11.179  -0.633  17.510  1.00  0.00    -0.545 OA
ATOM     11  O   UNL     1       8.904  -0.449  17.662  1.00  0.00    -0.545 OA
ENDBRANCH   8   9
ENDBRANCH   1   7
BRANCH   6  12
ATOM     12  O   UNL     1       9.697  -8.791  20.119  1.00  0.00    -0.508 OA
ATOM     13  H   UNL     1       8.962  -9.218  20.668  1.00  0.00     0.293 HD
ENDBRANCH   6  12
TORSDOF 3
ENDMDL
MODEL 3
REMARK VINA RESULT:    -5.190     10.362     12.939
REMARK INTER + INTRA:          -6.082
REMARK INTER:                  -5.927
REMARK INTRA:                  -0.155
REMARK UNBOUND:                -0.133
REMARK SMILES O=C([O-])C=Cc1ccc(O)cc1
REMARK SMILES IDX 6 1 7 2 12 3 8 4 11 5 9 6 5 7 4 8 2 9 1 10 3 11 10 12
REMARK H PARENT 10 13
REMARK Flexibility Score: inf
ROOT
ATOM      1  C   UNL     1       7.221   4.191  10.297  1.00  0.00    -0.025 A 
ATOM      2  C   UNL     1       6.921   2.994   9.614  1.00  0.00     0.012 A 
ATOM      3  C   UNL     1       8.060   4.134  11.424  1.00  0.00     0.012 A 
ATOM      4  C   UNL     1       7.429   1.773  10.068  1.00  0.00     0.047 A 
ATOM      5  C   UNL     1       8.565   2.912  11.875  1.00  0.00     0.047 A 
ATOM      6  C   UNL     1       8.250   1.727  11.199  1.00  0.00     0.115 A 
ENDROOT
BRANCH   1   7
ATOM      7  C   UNL     1       6.717   5.514   9.852  1.00  0.00     0.010 C 
ATOM      8  C   UNL     1       7.003   6.667  10.471  1.00  0.00     0.025 C 
BRANCH   8   9
ATOM      9  C   UNL     1       6.491   7.958   9.987  1.00  0.00     0.064 C 
ATOM     10  O   UNL     1       5.875   8.010   8.890  1.00  0.00    -0.545 OA
ATOM     11  O   UNL     1       6.676   9.125  10.719  1.00  0.00    -0.545 OA
ENDBRANCH   8   9
ENDBRANCH   1   7
BRANCH   6  12
ATOM     12  O   UNL     1       8.748   0.503  11.639  1.00  0.00    -0.508 OA
ATOM     13  H   UNL     1       9.727   0.382  11.866  1.00  0.00     0.293 HD
ENDBRANCH   6  12
TORSDOF 3
ENDMDL
MODEL 4
REMARK VINA RESULT:    -4.899      1.854      2.435
REMARK INTER + INTRA:          -5.748
REMARK INTER:                  -5.601
REMARK INTRA:                  -0.147
REMARK UNBOUND:                -0.133
REMARK SMILES O=C([O-])C=Cc1ccc(O)cc1
REMARK SMILES IDX 6 1 7 2 12 3 8 4 11 5 9 6 5 7 4 8 2 9 1 10 3 11 10 12
REMARK H PARENT 10 13
REMARK Flexibility Score: inf
ROOT
ATOM      1  C   UNL     1      10.841  -5.215  19.720  1.00  0.00    -0.025 A 
ATOM      2  C   UNL     1      10.887  -6.565  20.125  1.00  0.00     0.012 A 
ATOM      3  C   UNL     1       9.606  -4.667  19.332  1.00  0.00     0.012 A 
ATOM      4  C   UNL     1       9.728  -7.347  20.115  1.00  0.00     0.047 A 
ATOM      5  C   UNL     1       8.450  -5.452  19.322  1.00  0.00     0.047 A 
ATOM      6  C   UNL     1       8.509  -6.796  19.712  1.00  0.00     0.115 A 
ENDROOT
BRANCH   1   7
ATOM      7  C   UNL     1      12.038  -4.338  19.723  1.00  0.00     0.010 C 
ATOM      8  C   UNL     1      12.260  -3.376  18.816  1.00  0.00     0.025 C 
BRANCH   8   9
ATOM      9  C   UNL     1      13.457  -2.522  18.865  1.00  0.00     0.064 C 
ATOM     10  O   UNL     1      14.582  -3.042  19.077  1.00  0.00    -0.545 OA
ATOM     11  O   UNL     1      13.365  -1.147  18.682  1.00  0.00    -0.545 OA
ENDBRANCH   8   9
ENDBRANCH   1   7
BRANCH   6  12
ATOM     12  O   UNL     1       7.363  -7.588  19.706  1.00  0.00    -0.508 OA
ATOM     13  H   UNL     1       7.189  -8.261  18.970  1.00  0.00     0.293 HD
ENDBRANCH   6  12
TORSDOF 3
ENDMDL
MODEL 5
REMARK VINA RESULT:    -4.760      9.140     12.730
REMARK INTER + INTRA:          -5.588
REMARK INTER:                  -5.439
REMARK INTRA:                  -0.149
REMARK UNBOUND:                -0.133
REMARK SMILES O=C([O-])C=Cc1ccc(O)cc1
REMARK SMILES IDX 6 1 7 2 12 3 8 4 11 5 9 6 5 7 4 8 2 9 1 10 3 11 10 12
REMARK H PARENT 10 13
REMARK Flexibility Score: inf
ROOT
ATOM      1  C   UNL     1       7.805   3.406  10.477  1.00  0.00    -0.025 A 
ATOM      2  C   UNL     1       6.621   3.628   9.745  1.00  0.00     0.012 A 
ATOM      3  C   UNL     1       8.342   4.463  11.232  1.00  0.00     0.012 A 
ATOM      4  C   UNL     1       6.009   4.886   9.752  1.00  0.00     0.047 A 
ATOM      5  C   UNL     1       7.729   5.719  11.236  1.00  0.00     0.047 A 
ATOM      6  C   UNL     1       6.561   5.934  10.494  1.00  0.00     0.115 A 
ENDROOT
BRANCH   1   7
ATOM      7  C   UNL     1       8.488   2.089  10.513  1.00  0.00     0.010 C 
ATOM      8  C   UNL     1       9.244   1.669  11.537  1.00  0.00     0.025 C 
BRANCH   8   9
ATOM      9  C   UNL     1       9.893   0.349  11.535  1.00  0.00     0.064 C 
ATOM     10  O   UNL     1      10.070  -0.258  12.623  1.00  0.00    -0.545 OA
ATOM     11  O   UNL     1      10.317  -0.240  10.349  1.00  0.00    -0.545 OA
ENDBRANCH   8   9
ENDBRANCH   1   7
BRANCH   6  12
ATOM     12  O   UNL     1       5.941   7.181  10.490  1.00  0.00    -0.508 OA
ATOM     13  H   UNL     1       5.848   7.728  11.337  1.00  0.00     0.293 HD
ENDBRANCH   6  12
TORSDOF 3
ENDMDL
MODEL 6
REMARK VINA RESULT:    -4.706     10.450     14.123
REMARK INTER + INTRA:          -5.527
REMARK INTER:                  -5.380
REMARK INTRA:                  -0.147
REMARK UNBOUND:                -0.133
REMARK SMILES O=C([O-])C=Cc1ccc(O)cc1
REMARK SMILES IDX 6 1 7 2 12 3 8 4 11 5 9 6 5 7 4 8 2 9 1 10 3 11 10 12
REMARK H PARENT 10 13
REMARK Flexibility Score: inf
ROOT
ATOM      1  C   UNL     1       7.299   5.286  10.759  1.00  0.00    -0.025 A 
ATOM      2  C   UNL     1       7.790   6.508  11.264  1.00  0.00     0.012 A 
ATOM      3  C   UNL     1       6.347   5.315   9.726  1.00  0.00     0.012 A 
ATOM      4  C   UNL     1       7.318   7.723  10.760  1.00  0.00     0.047 A 
ATOM      5  C   UNL     1       5.876   6.532   9.225  1.00  0.00     0.047 A 
ATOM      6  C   UNL     1       6.360   7.740   9.742  1.00  0.00     0.115 A 
ENDROOT
BRANCH   1   7
ATOM      7  C   UNL     1       7.774   3.969  11.251  1.00  0.00     0.010 C 
ATOM      8  C   UNL     1       8.096   2.945  10.447  1.00  0.00     0.025 C 
BRANCH   8   9
ATOM      9  C   UNL     1       8.575   1.660  10.979  1.00  0.00     0.064 C 
ATOM     10  O   UNL     1       8.231   1.300  12.134  1.00  0.00    -0.545 OA
ATOM     11  O   UNL     1       9.403   0.836  10.225  1.00  0.00    -0.545 OA
ENDBRANCH   8   9
ENDBRANCH   1   7
BRANCH   6  12
ATOM     12  O   UNL     1       5.898   8.959   9.251  1.00  0.00    -0.508 OA
ATOM     13  H   UNL     1       6.388   9.452   8.515  1.00  0.00     0.293 HD
ENDBRANCH   6  12
TORSDOF 3
ENDMDL
MODEL 7
REMARK VINA RESULT:    -4.142      1.259      5.700
REMARK INTER + INTRA:          -4.881
REMARK INTER:                  -4.732
REMARK INTRA:                  -0.149
REMARK UNBOUND:                -0.133
REMARK SMILES O=C([O-])C=Cc1ccc(O)cc1
REMARK SMILES IDX 6 1 7 2 12 3 8 4 11 5 9 6 5 7 4 8 2 9 1 10 3 11 10 12
REMARK H PARENT 10 13
REMARK Flexibility Score: inf
ROOT
ATOM      1  C   UNL     1      10.464  -3.405  18.930  1.00  0.00    -0.025 A 
ATOM      2  C   UNL     1      11.455  -2.639  19.578  1.00  0.00     0.012 A 
ATOM      3  C   UNL     1       9.833  -2.873  17.793  1.00  0.00     0.012 A 
ATOM      4  C   UNL     1      11.782  -1.363  19.110  1.00  0.00     0.047 A 
ATOM      5  C   UNL     1      10.162  -1.596  17.328  1.00  0.00     0.047 A 
ATOM      6  C   UNL     1      11.137  -0.837  17.987  1.00  0.00     0.115 A 
ENDROOT
BRANCH   1   7
ATOM      7  C   UNL     1      10.087  -4.769  19.378  1.00  0.00     0.010 C 
ATOM      8  C   UNL     1       8.893  -5.329  19.139  1.00  0.00     0.025 C 
BRANCH   8   9
ATOM      9  C   UNL     1       8.567  -6.690  19.593  1.00  0.00     0.064 C 
ATOM     10  O   UNL     1       7.374  -6.984  19.867  1.00  0.00    -0.545 OA
ATOM     11  O   UNL     1       9.556  -7.657  19.727  1.00  0.00    -0.545 OA
ENDBRANCH   8   9
ENDBRANCH   1   7
BRANCH   6  12
ATOM     12  O   UNL     1      11.474   0.436  17.533  1.00  0.00    -0.508 OA
ATOM     13  H   UNL     1      11.464   1.238  18.151  1.00  0.00     0.293 HD
ENDBRANCH   6  12
TORSDOF 3
ENDMDL
MODEL 8
REMARK VINA RESULT:    -4.011      2.151      5.676
REMARK INTER + INTRA:          -4.730
REMARK INTER:                  -4.584
REMARK INTRA:                  -0.147
REMARK UNBOUND:                -0.133
REMARK SMILES O=C([O-])C=Cc1ccc(O)cc1
REMARK SMILES IDX 6 1 7 2 12 3 8 4 11 5 9 6 5 7 4 8 2 9 1 10 3 11 10 12
REMARK H PARENT 10 13
REMARK Flexibility Score: inf
ROOT
ATOM      1  C   UNL     1      11.976  -4.428  19.801  1.00  0.00    -0.025 A 
ATOM      2  C   UNL     1      13.374  -4.522  19.640  1.00  0.00     0.012 A 
ATOM      3  C   UNL     1      11.362  -3.172  19.666  1.00  0.00     0.012 A 
ATOM      4  C   UNL     1      14.134  -3.378  19.378  1.00  0.00     0.047 A 
ATOM      5  C   UNL     1      12.125  -2.030  19.404  1.00  0.00     0.047 A 
ATOM      6  C   UNL     1      13.514  -2.130  19.261  1.00  0.00     0.115 A 
ENDROOT
BRANCH   1   7
ATOM      7  C   UNL     1      11.122  -5.612  20.069  1.00  0.00     0.010 C 
ATOM      8  C   UNL     1       9.950  -5.839  19.459  1.00  0.00     0.025 C 
BRANCH   8   9
ATOM      9  C   UNL     1       9.141  -7.033  19.749  1.00  0.00     0.064 C 
ATOM     10  O   UNL     1       9.714  -8.126  19.996  1.00  0.00    -0.545 OA
ATOM     11  O   UNL     1       7.752  -6.976  19.752  1.00  0.00    -0.545 OA
ENDBRANCH   8   9
ENDBRANCH   1   7
BRANCH   6  12
ATOM     12  O   UNL     1      14.285  -1.000  19.000  1.00  0.00    -0.508 OA
ATOM     13  H   UNL     1      13.861  -0.092  18.855  1.00  0.00     0.293 HD
ENDBRANCH   6  12
TORSDOF 3
ENDMDL
MODEL 9
REMARK VINA RESULT:    -3.265      9.405     10.431
REMARK INTER + INTRA:          -3.875
REMARK INTER:                  -3.737
REMARK INTRA:                  -0.139
REMARK UNBOUND:                -0.133
REMARK SMILES O=C([O-])C=Cc1ccc(O)cc1
REMARK SMILES IDX 6 1 7 2 12 3 8 4 11 5 9 6 5 7 4 8 2 9 1 10 3 11 10 12
REMARK H PARENT 10 13
REMARK Flexibility Score: inf
ROOT
ATOM      1  C   UNL     1      19.814  -7.620  19.071  1.00  0.00    -0.025 A 
ATOM      2  C   UNL     1      19.947  -8.093  17.749  1.00  0.00     0.012 A 
ATOM      3  C   UNL     1      20.443  -8.328  20.109  1.00  0.00     0.012 A 
ATOM      4  C   UNL     1      20.671  -9.260  17.484  1.00  0.00     0.047 A 
ATOM      5  C   UNL     1      21.165  -9.494  19.841  1.00  0.00     0.047 A 
ATOM      6  C   UNL     1      21.280  -9.964  18.527  1.00  0.00     0.115 A 
ENDROOT
BRANCH   1   7
ATOM      7  C   UNL     1      19.066  -6.382  19.406  1.00  0.00     0.010 C 
ATOM      8  C   UNL     1      19.618  -5.161  19.426  1.00  0.00     0.025 C 
BRANCH   8   9
ATOM      9  C   UNL     1      18.835  -3.959  19.753  1.00  0.00     0.064 C 
ATOM     10  O   UNL     1      17.639  -4.080  20.125  1.00  0.00    -0.545 OA
ATOM     11  O   UNL     1      19.394  -2.690  19.655  1.00  0.00    -0.545 OA
ENDBRANCH   8   9
ENDBRANCH   1   7
BRANCH   6  12
ATOM     12  O   UNL     1      21.997 -11.125  18.247  1.00  0.00    -0.508 OA
ATOM     13  H   UNL     1      22.358 -11.715  18.987  1.00  0.00     0.293 HD
ENDBRANCH   6  12
TORSDOF 3
ENDMDL
