MODEL 1
REMARK VINA RESULT:    -4.808      0.000      0.000
REMARK INTER + INTRA:          -5.777
REMARK INTER:                  -5.791
REMARK INTRA:                   0.015
REMARK UNBOUND:                 0.015
REMARK SMILES O=c1c(O)c(-c2ccc(O)c(O)c2)oc2cc(O)cc(O)c12
REMARK SMILES IDX 5 1 3 2 2 3 1 4 22 5 20 6 19 7 17 8 16 9 15 10 14 11 6 12
REMARK SMILES IDX 7 13 8 14 9 15 13 16 11 17 10 18 12 20 4 22 21 24 18 26
REMARK H PARENT 10 19 12 21 4 23 21 25 18 27
REMARK Flexibility Score: inf
ROOT
ATOM      1  C   UNL     1      24.208  44.716  86.097  1.00  0.00     0.180 A 
ATOM      2  C   UNL     1      25.384  44.467  85.369  1.00  0.00     0.208 A 
ATOM      3  C   UNL     1      26.273  45.526  85.126  1.00  0.00     0.238 A 
ATOM      4  O   UNL     1      27.297  45.308  84.428  1.00  0.00    -0.285 OA
ATOM      5  C   UNL     1      25.984  46.818  85.629  1.00  0.00     0.111 A 
ATOM      6  C   UNL     1      26.832  47.955  85.477  1.00  0.00     0.134 A 
ATOM      7  C   UNL     1      26.385  49.213  85.900  1.00  0.00     0.093 A 
ATOM      8  C   UNL     1      25.146  49.362  86.529  1.00  0.00     0.123 A 
ATOM      9  C   UNL     1      24.336  48.248  86.735  1.00  0.00     0.094 A 
ATOM     10  C   UNL     1      24.740  46.986  86.292  1.00  0.00     0.146 A 
ATOM     11  O   UNL     1      23.933  45.952  86.498  1.00  0.00    -0.452 OA
ENDROOT
BRANCH   1  12
ATOM     12  C   UNL     1      23.235  43.646  86.414  1.00  0.00     0.025 A 
ATOM     13  C   UNL     1      22.768  43.446  87.726  1.00  0.00     0.016 A 
ATOM     14  C   UNL     1      21.832  42.446  87.997  1.00  0.00     0.051 A 
ATOM     15  C   UNL     1      21.337  41.641  86.963  1.00  0.00     0.157 A 
ATOM     16  C   UNL     1      22.720  42.852  85.378  1.00  0.00     0.062 A 
ATOM     17  C   UNL     1      21.781  41.848  85.646  1.00  0.00     0.158 A 
BRANCH  15  18
ATOM     18  O   UNL     1      20.403  40.642  87.238  1.00  0.00    -0.504 OA
ATOM     19  H   UNL     1      20.671  39.775  87.690  1.00  0.00     0.293 HD
ENDBRANCH  15  18
BRANCH  17  20
ATOM     20  O   UNL     1      21.302  41.068  84.593  1.00  0.00    -0.504 OA
ATOM     21  H   UNL     1      21.828  40.289  84.218  1.00  0.00     0.293 HD
ENDBRANCH  17  20
ENDBRANCH   1  12
BRANCH   2  22
ATOM     22  O   UNL     1      25.639  43.189  84.864  1.00  0.00    -0.502 OA
ATOM     23  H   UNL     1      25.288  42.879  83.967  1.00  0.00     0.293 HD
ENDBRANCH   2  22
BRANCH   6  24
ATOM     24  O   UNL     1      28.125  47.899  84.946  1.00  0.00    -0.507 OA
ATOM     25  H   UNL     1      28.972  47.962  85.488  1.00  0.00     0.293 HD
ENDBRANCH   6  24
BRANCH   8  26
ATOM     26  O   UNL     1      24.715  50.614  86.962  1.00  0.00    -0.508 OA
ATOM     27  H   UNL     1      23.739  50.883  86.919  1.00  0.00     0.293 HD
ENDBRANCH   8  26
TORSDOF 6
ENDMDL
MODEL 2
REMARK VINA RESULT:    -4.676      1.965      2.560
REMARK INTER + INTRA:          -5.618
REMARK INTER:                  -5.409
REMARK INTRA:                  -0.209
REMARK UNBOUND:                 0.015
REMARK SMILES O=c1c(O)c(-c2ccc(O)c(O)c2)oc2cc(O)cc(O)c12
REMARK SMILES IDX 5 1 3 2 2 3 1 4 22 5 20 6 19 7 17 8 16 9 15 10 14 11 6 12
REMARK SMILES IDX 7 13 8 14 9 15 13 16 11 17 10 18 12 20 4 22 21 24 18 26
REMARK H PARENT 10 19 12 21 4 23 21 25 18 27
REMARK Flexibility Score: inf
ROOT
ATOM      1  C   UNL     1      25.249  44.700  86.135  1.00  0.00     0.180 A 
ATOM      2  C   UNL     1      26.422  44.450  86.869  1.00  0.00     0.208 A 
ATOM      3  C   UNL     1      27.045  45.514  87.541  1.00  0.00     0.238 A 
ATOM      4  O   UNL     1      28.123  45.295  88.151  1.00  0.00    -0.285 OA
ATOM      5  C   UNL     1      26.478  46.811  87.485  1.00  0.00     0.111 A 
ATOM      6  C   UNL     1      27.002  47.953  88.161  1.00  0.00     0.134 A 
ATOM      7  C   UNL     1      26.436  49.213  87.929  1.00  0.00     0.093 A 
ATOM      8  C   UNL     1      25.323  49.360  87.096  1.00  0.00     0.123 A 
ATOM      9  C   UNL     1      24.768  48.242  86.480  1.00  0.00     0.094 A 
ATOM     10  C   UNL     1      25.333  46.977  86.663  1.00  0.00     0.146 A 
ATOM     11  O   UNL     1      24.780  45.939  86.048  1.00  0.00    -0.452 OA
ENDROOT
BRANCH   1  12
ATOM     12  C   UNL     1      24.523  43.625  85.421  1.00  0.00     0.025 A 
ATOM     13  C   UNL     1      25.068  43.004  84.284  1.00  0.00     0.016 A 
ATOM     14  C   UNL     1      24.375  41.976  83.641  1.00  0.00     0.051 A 
ATOM     15  C   UNL     1      23.136  41.544  84.129  1.00  0.00     0.157 A 
ATOM     16  C   UNL     1      23.290  43.175  85.920  1.00  0.00     0.062 A 
ATOM     17  C   UNL     1      22.593  42.145  85.278  1.00  0.00     0.158 A 
BRANCH  15  18
ATOM     18  O   UNL     1      22.445  40.518  83.484  1.00  0.00    -0.504 OA
ATOM     19  H   UNL     1      22.243  39.641  83.949  1.00  0.00     0.293 HD
ENDBRANCH  15  18
BRANCH  17  20
ATOM     20  O   UNL     1      21.364  41.732  85.794  1.00  0.00    -0.504 OA
ATOM     21  H   UNL     1      20.526  42.293  85.702  1.00  0.00     0.293 HD
ENDBRANCH  17  20
ENDBRANCH   1  12
BRANCH   2  22
ATOM     22  O   UNL     1      26.976  43.168  86.892  1.00  0.00    -0.502 OA
ATOM     23  H   UNL     1      26.437  42.347  87.140  1.00  0.00     0.293 HD
ENDBRANCH   2  22
BRANCH   6  24
ATOM     24  O   UNL     1      28.052  47.901  89.083  1.00  0.00    -0.507 OA
ATOM     25  H   UNL     1      28.054  47.340  89.921  1.00  0.00     0.293 HD
ENDBRANCH   6  24
BRANCH   8  26
ATOM     26  O   UNL     1      24.756  50.614  86.884  1.00  0.00    -0.508 OA
ATOM     27  H   UNL     1      25.054  51.427  87.411  1.00  0.00     0.293 HD
ENDBRANCH   8  26
TORSDOF 6
ENDMDL
MODEL 3
REMARK VINA RESULT:    -4.646      2.800      5.730
REMARK INTER + INTRA:          -5.582
REMARK INTER:                  -5.277
REMARK INTRA:                  -0.305
REMARK UNBOUND:                 0.015
REMARK SMILES O=c1c(O)c(-c2ccc(O)c(O)c2)oc2cc(O)cc(O)c12
REMARK SMILES IDX 5 1 3 2 2 3 1 4 22 5 20 6 19 7 17 8 16 9 15 10 14 11 6 12
REMARK SMILES IDX 7 13 8 14 9 15 13 16 11 17 10 18 12 20 4 22 21 24 18 26
REMARK H PARENT 10 19 12 21 4 23 21 25 18 27
REMARK Flexibility Score: inf
ROOT
ATOM      1  C   UNL     1      23.252  46.187  86.953  1.00  0.00     0.180 A 
ATOM      2  C   UNL     1      24.615  46.427  87.196  1.00  0.00     0.208 A 
ATOM      3  C   UNL     1      25.568  45.543  86.666  1.00  0.00     0.238 A 
ATOM      4  O   UNL     1      26.783  45.733  86.932  1.00  0.00    -0.285 OA
ATOM      5  C   UNL     1      25.148  44.440  85.884  1.00  0.00     0.111 A 
ATOM      6  C   UNL     1      26.029  43.503  85.265  1.00  0.00     0.134 A 
ATOM      7  C   UNL     1      25.499  42.376  84.625  1.00  0.00     0.093 A 
ATOM      8  C   UNL     1      24.118  42.185  84.527  1.00  0.00     0.123 A 
ATOM      9  C   UNL     1      23.250  43.125  85.077  1.00  0.00     0.094 A 
ATOM     10  C   UNL     1      23.748  44.241  85.753  1.00  0.00     0.146 A 
ATOM     11  O   UNL     1      22.886  45.106  86.273  1.00  0.00    -0.452 OA
ENDROOT
BRANCH   1  12
ATOM     12  C   UNL     1      22.190  47.087  87.458  1.00  0.00     0.025 A 
ATOM     13  C   UNL     1      21.507  46.814  88.656  1.00  0.00     0.016 A 
ATOM     14  C   UNL     1      20.526  47.690  89.125  1.00  0.00     0.051 A 
ATOM     15  C   UNL     1      20.222  48.858  88.414  1.00  0.00     0.157 A 
ATOM     16  C   UNL     1      21.898  48.270  86.760  1.00  0.00     0.062 A 
ATOM     17  C   UNL     1      20.915  49.151  87.227  1.00  0.00     0.158 A 
BRANCH  15  18
ATOM     18  O   UNL     1      19.241  49.731  88.885  1.00  0.00    -0.504 OA
ATOM     19  H   UNL     1      18.255  49.508  88.813  1.00  0.00     0.293 HD
ENDBRANCH  15  18
BRANCH  17  20
ATOM     20  O   UNL     1      20.641  50.309  86.500  1.00  0.00    -0.504 OA
ATOM     21  H   UNL     1      19.845  50.379  85.878  1.00  0.00     0.293 HD
ENDBRANCH  17  20
ENDBRANCH   1  12
BRANCH   2  22
ATOM     22  O   UNL     1      25.007  47.510  87.987  1.00  0.00    -0.502 OA
ATOM     23  H   UNL     1      25.858  47.503  88.536  1.00  0.00     0.293 HD
ENDBRANCH   2  22
BRANCH   6  24
ATOM     24  O   UNL     1      27.419  43.648  85.225  1.00  0.00    -0.507 OA
ATOM     25  H   UNL     1      27.985  43.969  85.995  1.00  0.00     0.293 HD
ENDBRANCH   6  24
BRANCH   8  26
ATOM     26  O   UNL     1      23.599  41.069  83.875  1.00  0.00    -0.508 OA
ATOM     27  H   UNL     1      24.139  40.219  83.769  1.00  0.00     0.293 HD
ENDBRANCH   8  26
TORSDOF 6
ENDMDL
MODEL 4
REMARK VINA RESULT:    -4.561      1.688      6.696
REMARK INTER + INTRA:          -5.480
REMARK INTER:                  -5.160
REMARK INTRA:                  -0.319
REMARK UNBOUND:                 0.015
REMARK SMILES O=c1c(O)c(-c2ccc(O)c(O)c2)oc2cc(O)cc(O)c12
REMARK SMILES IDX 5 1 3 2 2 3 1 4 22 5 20 6 19 7 17 8 16 9 15 10 14 11 6 12
REMARK SMILES IDX 7 13 8 14 9 15 13 16 11 17 10 18 12 20 4 22 21 24 18 26
REMARK H PARENT 10 19 12 21 4 23 21 25 18 27
REMARK Flexibility Score: inf
ROOT
ATOM      1  C   UNL     1      25.894  46.435  86.397  1.00  0.00     0.180 A 
ATOM      2  C   UNL     1      26.721  45.920  85.384  1.00  0.00     0.208 A 
ATOM      3  C   UNL     1      26.337  44.743  84.722  1.00  0.00     0.238 A 
ATOM      4  O   UNL     1      27.108  44.258  83.854  1.00  0.00    -0.285 OA
ATOM      5  C   UNL     1      25.122  44.104  85.070  1.00  0.00     0.111 A 
ATOM      6  C   UNL     1      24.615  42.929  84.439  1.00  0.00     0.134 A 
ATOM      7  C   UNL     1      23.470  42.308  84.952  1.00  0.00     0.093 A 
ATOM      8  C   UNL     1      22.776  42.858  86.034  1.00  0.00     0.123 A 
ATOM      9  C   UNL     1      23.230  44.037  86.619  1.00  0.00     0.094 A 
ATOM     10  C   UNL     1      24.390  44.659  86.152  1.00  0.00     0.146 A 
ATOM     11  O   UNL     1      24.795  45.776  86.746  1.00  0.00    -0.452 OA
ENDROOT
BRANCH   1  12
ATOM     12  C   UNL     1      26.219  47.684  87.123  1.00  0.00     0.025 A 
ATOM     13  C   UNL     1      27.057  47.678  88.252  1.00  0.00     0.016 A 
ATOM     14  C   UNL     1      27.369  48.871  88.905  1.00  0.00     0.051 A 
ATOM     15  C   UNL     1      26.863  50.090  88.435  1.00  0.00     0.157 A 
ATOM     16  C   UNL     1      25.732  48.909  86.641  1.00  0.00     0.062 A 
ATOM     17  C   UNL     1      26.043  50.108  87.294  1.00  0.00     0.158 A 
BRANCH  15  18
ATOM     18  O   UNL     1      27.176  51.280  89.091  1.00  0.00    -0.504 OA
ATOM     19  H   UNL     1      28.125  51.635  89.122  1.00  0.00     0.293 HD
ENDBRANCH  15  18
BRANCH  17  20
ATOM     20  O   UNL     1      25.529  51.305  86.795  1.00  0.00    -0.504 OA
ATOM     21  H   UNL     1      25.710  52.196  87.241  1.00  0.00     0.293 HD
ENDBRANCH  17  20
ENDBRANCH   1  12
BRANCH   2  22
ATOM     22  O   UNL     1      27.926  46.555  85.071  1.00  0.00    -0.502 OA
ATOM     23  H   UNL     1      28.256  46.658  84.119  1.00  0.00     0.293 HD
ENDBRANCH   2  22
BRANCH   6  24
ATOM     24  O   UNL     1      25.179  42.352  83.297  1.00  0.00    -0.507 OA
ATOM     25  H   UNL     1      26.076  42.601  82.910  1.00  0.00     0.293 HD
ENDBRANCH   6  24
BRANCH   8  26
ATOM     26  O   UNL     1      21.628  42.243  86.528  1.00  0.00    -0.508 OA
ATOM     27  H   UNL     1      20.784  42.771  86.718  1.00  0.00     0.293 HD
ENDBRANCH   8  26
TORSDOF 6
ENDMDL
MODEL 5
REMARK VINA RESULT:    -4.509      2.464      4.572
REMARK INTER + INTRA:          -5.417
REMARK INTER:                  -5.390
REMARK INTRA:                  -0.027
REMARK UNBOUND:                 0.015
REMARK SMILES O=c1c(O)c(-c2ccc(O)c(O)c2)oc2cc(O)cc(O)c12
REMARK SMILES IDX 5 1 3 2 2 3 1 4 22 5 20 6 19 7 17 8 16 9 15 10 14 11 6 12
REMARK SMILES IDX 7 13 8 14 9 15 13 16 11 17 10 18 12 20 4 22 21 24 18 26
REMARK H PARENT 10 19 12 21 4 23 21 25 18 27
REMARK Flexibility Score: inf
ROOT
ATOM      1  C   UNL     1      23.992  47.186  86.789  1.00  0.00     0.180 A 
ATOM      2  C   UNL     1      24.995  47.930  87.433  1.00  0.00     0.208 A 
ATOM      3  C   UNL     1      24.683  49.205  87.933  1.00  0.00     0.238 A 
ATOM      4  O   UNL     1      25.599  49.888  88.460  1.00  0.00    -0.285 OA
ATOM      5  C   UNL     1      23.368  49.712  87.798  1.00  0.00     0.111 A 
ATOM      6  C   UNL     1      22.930  50.974  88.302  1.00  0.00     0.134 A 
ATOM      7  C   UNL     1      21.643  51.431  87.996  1.00  0.00     0.093 A 
ATOM      8  C   UNL     1      20.755  50.643  87.258  1.00  0.00     0.123 A 
ATOM      9  C   UNL     1      21.153  49.385  86.813  1.00  0.00     0.094 A 
ATOM     10  C   UNL     1      22.443  48.917  87.072  1.00  0.00     0.146 A 
ATOM     11  O   UNL     1      22.786  47.717  86.619  1.00  0.00    -0.452 OA
ENDROOT
BRANCH   1  12
ATOM     12  C   UNL     1      24.237  45.826  86.257  1.00  0.00     0.025 A 
ATOM     13  C   UNL     1      23.417  44.741  86.614  1.00  0.00     0.016 A 
ATOM     14  C   UNL     1      23.653  43.472  86.082  1.00  0.00     0.051 A 
ATOM     15  C   UNL     1      24.702  43.269  85.175  1.00  0.00     0.157 A 
ATOM     16  C   UNL     1      25.274  45.623  85.332  1.00  0.00     0.062 A 
ATOM     17  C   UNL     1      25.513  44.352  84.796  1.00  0.00     0.158 A 
BRANCH  15  18
ATOM     18  O   UNL     1      24.936  42.000  84.646  1.00  0.00    -0.504 OA
ATOM     19  H   UNL     1      25.726  41.816  84.038  1.00  0.00     0.293 HD
ENDBRANCH  15  18
BRANCH  17  20
ATOM     20  O   UNL     1      26.561  44.184  83.890  1.00  0.00    -0.504 OA
ATOM     21  H   UNL     1      26.461  43.629  83.049  1.00  0.00     0.293 HD
ENDBRANCH  17  20
ENDBRANCH   1  12
BRANCH   2  22
ATOM     22  O   UNL     1      26.291  47.419  87.537  1.00  0.00    -0.502 OA
ATOM     23  H   UNL     1      26.512  46.452  87.336  1.00  0.00     0.293 HD
ENDBRANCH   2  22
BRANCH   6  24
ATOM     24  O   UNL     1      23.706  51.796  89.125  1.00  0.00    -0.507 OA
ATOM     25  H   UNL     1      24.361  52.487  88.794  1.00  0.00     0.293 HD
ENDBRANCH   6  24
BRANCH   8  26
ATOM     26  O   UNL     1      19.470  51.099  86.972  1.00  0.00    -0.508 OA
ATOM     27  H   UNL     1      18.849  51.426  87.703  1.00  0.00     0.293 HD
ENDBRANCH   8  26
TORSDOF 6
ENDMDL
MODEL 6
REMARK VINA RESULT:    -4.485      2.148      3.607
REMARK INTER + INTRA:          -5.388
REMARK INTER:                  -5.565
REMARK INTRA:                   0.178
REMARK UNBOUND:                 0.015
REMARK SMILES O=c1c(O)c(-c2ccc(O)c(O)c2)oc2cc(O)cc(O)c12
REMARK SMILES IDX 5 1 3 2 2 3 1 4 22 5 20 6 19 7 17 8 16 9 15 10 14 11 6 12
REMARK SMILES IDX 7 13 8 14 9 15 13 16 11 17 10 18 12 20 4 22 21 24 18 26
REMARK H PARENT 10 19 12 21 4 23 21 25 18 27
REMARK Flexibility Score: inf
ROOT
ATOM      1  C   UNL     1      24.225  45.828  86.216  1.00  0.00     0.180 A 
ATOM      2  C   UNL     1      25.272  46.330  87.009  1.00  0.00     0.208 A 
ATOM      3  C   UNL     1      25.105  47.565  87.655  1.00  0.00     0.238 A 
ATOM      4  O   UNL     1      26.065  48.035  88.319  1.00  0.00    -0.285 OA
ATOM      5  C   UNL     1      23.887  48.275  87.516  1.00  0.00     0.111 A 
ATOM      6  C   UNL     1      23.594  49.515  88.158  1.00  0.00     0.134 A 
ATOM      7  C   UNL     1      22.409  50.193  87.844  1.00  0.00     0.093 A 
ATOM      8  C   UNL     1      21.477  49.642  86.959  1.00  0.00     0.123 A 
ATOM      9  C   UNL     1      21.728  48.404  86.374  1.00  0.00     0.094 A 
ATOM     10  C   UNL     1      22.917  47.721  86.640  1.00  0.00     0.146 A 
ATOM     11  O   UNL     1      23.121  46.549  86.051  1.00  0.00    -0.452 OA
ENDROOT
BRANCH   1  12
ATOM     12  C   UNL     1      24.317  44.523  85.524  1.00  0.00     0.025 A 
ATOM     13  C   UNL     1      25.518  44.088  84.936  1.00  0.00     0.016 A 
ATOM     14  C   UNL     1      25.588  42.843  84.310  1.00  0.00     0.051 A 
ATOM     15  C   UNL     1      24.466  42.006  84.271  1.00  0.00     0.157 A 
ATOM     16  C   UNL     1      23.200  43.672  85.502  1.00  0.00     0.062 A 
ATOM     17  C   UNL     1      23.266  42.422  84.875  1.00  0.00     0.158 A 
BRANCH  15  18
ATOM     18  O   UNL     1      24.538  40.763  83.643  1.00  0.00    -0.504 OA
ATOM     19  H   UNL     1      23.802  40.436  83.028  1.00  0.00     0.293 HD
ENDBRANCH  15  18
BRANCH  17  20
ATOM     20  O   UNL     1      22.133  41.609  84.860  1.00  0.00    -0.504 OA
ATOM     21  H   UNL     1      21.200  41.988  84.760  1.00  0.00     0.293 HD
ENDBRANCH  17  20
ENDBRANCH   1  12
BRANCH   2  22
ATOM     22  O   UNL     1      26.472  45.624  87.115  1.00  0.00    -0.502 OA
ATOM     23  H   UNL     1      26.506  44.643  87.362  1.00  0.00     0.293 HD
ENDBRANCH   2  22
BRANCH   6  24
ATOM     24  O   UNL     1      24.414  50.106  89.124  1.00  0.00    -0.507 OA
ATOM     25  H   UNL     1      24.463  51.096  89.309  1.00  0.00     0.293 HD
ENDBRANCH   6  24
BRANCH   8  26
ATOM     26  O   UNL     1      20.294  50.315  86.665  1.00  0.00    -0.508 OA
ATOM     27  H   UNL     1      19.471  50.221  87.250  1.00  0.00     0.293 HD
ENDBRANCH   8  26
TORSDOF 6
ENDMDL
MODEL 7
REMARK VINA RESULT:    -4.422      2.075      3.683
REMARK INTER + INTRA:          -5.312
REMARK INTER:                  -5.486
REMARK INTRA:                   0.173
REMARK UNBOUND:                 0.015
REMARK SMILES O=c1c(O)c(-c2ccc(O)c(O)c2)oc2cc(O)cc(O)c12
REMARK SMILES IDX 5 1 3 2 2 3 1 4 22 5 20 6 19 7 17 8 16 9 15 10 14 11 6 12
REMARK SMILES IDX 7 13 8 14 9 15 13 16 11 17 10 18 12 20 4 22 21 24 18 26
REMARK H PARENT 10 19 12 21 4 23 21 25 18 27
REMARK Flexibility Score: inf
ROOT
ATOM      1  C   UNL     1      23.772  45.330  86.308  1.00  0.00     0.180 A 
ATOM      2  C   UNL     1      22.867  45.416  87.380  1.00  0.00     0.208 A 
ATOM      3  C   UNL     1      22.705  46.645  88.038  1.00  0.00     0.238 A 
ATOM      4  O   UNL     1      21.934  46.703  89.031  1.00  0.00    -0.285 OA
ATOM      5  C   UNL     1      23.437  47.778  87.605  1.00  0.00     0.111 A 
ATOM      6  C   UNL     1      23.323  49.082  88.173  1.00  0.00     0.134 A 
ATOM      7  C   UNL     1      24.191  50.097  87.753  1.00  0.00     0.093 A 
ATOM      8  C   UNL     1      25.127  49.871  86.740  1.00  0.00     0.123 A 
ATOM      9  C   UNL     1      25.205  48.618  86.139  1.00  0.00     0.094 A 
ATOM     10  C   UNL     1      24.377  47.575  86.561  1.00  0.00     0.146 A 
ATOM     11  O   UNL     1      24.493  46.392  85.969  1.00  0.00    -0.452 OA
ENDROOT
BRANCH   1  12
ATOM     12  C   UNL     1      23.979  44.075  85.550  1.00  0.00     0.025 A 
ATOM     13  C   UNL     1      25.265  43.652  85.170  1.00  0.00     0.016 A 
ATOM     14  C   UNL     1      25.437  42.453  84.476  1.00  0.00     0.051 A 
ATOM     15  C   UNL     1      24.333  41.650  84.163  1.00  0.00     0.157 A 
ATOM     16  C   UNL     1      22.876  43.257  85.253  1.00  0.00     0.062 A 
ATOM     17  C   UNL     1      23.046  42.054  84.558  1.00  0.00     0.158 A 
BRANCH  15  18
ATOM     18  O   UNL     1      24.509  40.454  83.469  1.00  0.00    -0.504 OA
ATOM     19  H   UNL     1      25.423  40.027  83.370  1.00  0.00     0.293 HD
ENDBRANCH  15  18
BRANCH  17  20
ATOM     20  O   UNL     1      21.926  41.274  84.268  1.00  0.00    -0.504 OA
ATOM     21  H   UNL     1      21.148  41.629  83.726  1.00  0.00     0.293 HD
ENDBRANCH  17  20
ENDBRANCH   1  12
BRANCH   2  22
ATOM     22  O   UNL     1      22.171  44.281  87.804  1.00  0.00    -0.502 OA
ATOM     23  H   UNL     1      22.206  43.402  87.302  1.00  0.00     0.293 HD
ENDBRANCH   2  22
BRANCH   6  24
ATOM     24  O   UNL     1      22.361  49.437  89.125  1.00  0.00    -0.507 OA
ATOM     25  H   UNL     1      21.463  48.992  89.228  1.00  0.00     0.293 HD
ENDBRANCH   6  24
BRANCH   8  26
ATOM     26  O   UNL     1      25.976  50.891  86.317  1.00  0.00    -0.508 OA
ATOM     27  H   UNL     1      26.367  51.560  86.970  1.00  0.00     0.293 HD
ENDBRANCH   8  26
TORSDOF 6
ENDMDL
MODEL 8
REMARK VINA RESULT:    -4.384      2.405      6.112
REMARK INTER + INTRA:          -5.266
REMARK INTER:                  -4.994
REMARK INTRA:                  -0.272
REMARK UNBOUND:                 0.015
REMARK SMILES O=c1c(O)c(-c2ccc(O)c(O)c2)oc2cc(O)cc(O)c12
REMARK SMILES IDX 5 1 3 2 2 3 1 4 22 5 20 6 19 7 17 8 16 9 15 10 14 11 6 12
REMARK SMILES IDX 7 13 8 14 9 15 13 16 11 17 10 18 12 20 4 22 21 24 18 26
REMARK H PARENT 10 19 12 21 4 23 21 25 18 27
REMARK Flexibility Score: inf
ROOT
ATOM      1  C   UNL     1      23.541  47.075  86.801  1.00  0.00     0.180 A 
ATOM      2  C   UNL     1      22.904  45.837  86.994  1.00  0.00     0.208 A 
ATOM      3  C   UNL     1      23.479  44.681  86.441  1.00  0.00     0.238 A 
ATOM      4  O   UNL     1      22.876  43.585  86.571  1.00  0.00    -0.285 OA
ATOM      5  C   UNL     1      24.692  44.776  85.717  1.00  0.00     0.111 A 
ATOM      6  C   UNL     1      25.385  43.665  85.147  1.00  0.00     0.134 A 
ATOM      7  C   UNL     1      26.506  43.890  84.340  1.00  0.00     0.093 A 
ATOM      8  C   UNL     1      26.998  45.182  84.135  1.00  0.00     0.123 A 
ATOM      9  C   UNL     1      26.365  46.267  84.735  1.00  0.00     0.094 A 
ATOM     10  C   UNL     1      25.222  46.077  85.517  1.00  0.00     0.146 A 
ATOM     11  O   UNL     1      24.641  47.140  86.061  1.00  0.00    -0.452 OA
ENDROOT
BRANCH   1  12
ATOM     12  C   UNL     1      23.009  48.333  87.374  1.00  0.00     0.025 A 
ATOM     13  C   UNL     1      23.604  48.935  88.496  1.00  0.00     0.016 A 
ATOM     14  C   UNL     1      23.099  50.134  89.004  1.00  0.00     0.051 A 
ATOM     15  C   UNL     1      22.003  50.757  88.393  1.00  0.00     0.157 A 
ATOM     16  C   UNL     1      21.924  48.971  86.751  1.00  0.00     0.062 A 
ATOM     17  C   UNL     1      21.416  50.173  87.258  1.00  0.00     0.158 A 
BRANCH  15  18
ATOM     18  O   UNL     1      21.501  51.953  88.904  1.00  0.00    -0.504 OA
ATOM     19  H   UNL     1      21.834  52.337  89.781  1.00  0.00     0.293 HD
ENDBRANCH  15  18
BRANCH  17  20
ATOM     20  O   UNL     1      20.328  50.771  86.621  1.00  0.00    -0.504 OA
ATOM     21  H   UNL     1      19.456  50.280  86.469  1.00  0.00     0.293 HD
ENDBRANCH  17  20
ENDBRANCH   1  12
BRANCH   2  22
ATOM     22  O   UNL     1      21.696  45.769  87.693  1.00  0.00    -0.502 OA
ATOM     23  H   UNL     1      20.800  45.703  87.227  1.00  0.00     0.293 HD
ENDBRANCH   2  22
BRANCH   6  24
ATOM     24  O   UNL     1      25.030  42.330  85.365  1.00  0.00    -0.507 OA
ATOM     25  H   UNL     1      24.869  41.919  86.271  1.00  0.00     0.293 HD
ENDBRANCH   6  24
BRANCH   8  26
ATOM     26  O   UNL     1      28.125  45.396  83.344  1.00  0.00    -0.508 OA
ATOM     27  H   UNL     1      28.205  46.211  82.746  1.00  0.00     0.293 HD
ENDBRANCH   8  26
TORSDOF 6
ENDMDL
MODEL 9
REMARK VINA RESULT:    -4.378      3.151      5.146
REMARK INTER + INTRA:          -5.259
REMARK INTER:                  -4.944
REMARK INTRA:                  -0.315
REMARK UNBOUND:                 0.015
REMARK SMILES O=c1c(O)c(-c2ccc(O)c(O)c2)oc2cc(O)cc(O)c12
REMARK SMILES IDX 5 1 3 2 2 3 1 4 22 5 20 6 19 7 17 8 16 9 15 10 14 11 6 12
REMARK SMILES IDX 7 13 8 14 9 15 13 16 11 17 10 18 12 20 4 22 21 24 18 26
REMARK H PARENT 10 19 12 21 4 23 21 25 18 27
REMARK Flexibility Score: inf
ROOT
ATOM      1  C   UNL     1      24.085  47.017  86.911  1.00  0.00     0.180 A 
ATOM      2  C   UNL     1      22.721  46.696  86.797  1.00  0.00     0.208 A 
ATOM      3  C   UNL     1      21.764  47.699  87.017  1.00  0.00     0.238 A 
ATOM      4  O   UNL     1      20.545  47.393  86.967  1.00  0.00    -0.285 OA
ATOM      5  C   UNL     1      22.183  49.015  87.330  1.00  0.00     0.111 A 
ATOM      6  C   UNL     1      21.301  50.119  87.534  1.00  0.00     0.134 A 
ATOM      7  C   UNL     1      21.818  51.345  87.969  1.00  0.00     0.093 A 
ATOM      8  C   UNL     1      23.193  51.525  88.145  1.00  0.00     0.123 A 
ATOM      9  C   UNL     1      24.066  50.471  87.892  1.00  0.00     0.094 A 
ATOM     10  C   UNL     1      23.577  49.225  87.491  1.00  0.00     0.146 A 
ATOM     11  O   UNL     1      24.443  48.244  87.272  1.00  0.00    -0.452 OA
ENDROOT
BRANCH   1  12
ATOM     12  C   UNL     1      25.152  46.019  86.670  1.00  0.00     0.025 A 
ATOM     13  C   UNL     1      25.711  45.276  87.724  1.00  0.00     0.016 A 
ATOM     14  C   UNL     1      26.699  44.323  87.470  1.00  0.00     0.051 A 
ATOM     15  C   UNL     1      27.136  44.088  86.160  1.00  0.00     0.157 A 
ATOM     16  C   UNL     1      25.577  45.765  85.356  1.00  0.00     0.062 A 
ATOM     17  C   UNL     1      26.568  44.811  85.097  1.00  0.00     0.158 A 
BRANCH  15  18
ATOM     18  O   UNL     1      28.125  43.137  85.910  1.00  0.00    -0.504 OA
ATOM     19  H   UNL     1      28.514  42.569  86.653  1.00  0.00     0.293 HD
ENDBRANCH  15  18
BRANCH  17  20
ATOM     20  O   UNL     1      26.975  44.596  83.781  1.00  0.00    -0.504 OA
ATOM     21  H   UNL     1      26.352  44.734  82.995  1.00  0.00     0.293 HD
ENDBRANCH  17  20
ENDBRANCH   1  12
BRANCH   2  22
ATOM     22  O   UNL     1      22.330  45.386  86.507  1.00  0.00    -0.502 OA
ATOM     23  H   UNL     1      22.745  44.581  86.961  1.00  0.00     0.293 HD
ENDBRANCH   2  22
BRANCH   6  24
ATOM     24  O   UNL     1      19.924  50.071  87.297  1.00  0.00    -0.507 OA
ATOM     25  H   UNL     1      19.496  50.091  86.385  1.00  0.00     0.293 HD
ENDBRANCH   6  24
BRANCH   8  26
ATOM     26  O   UNL     1      23.701  52.753  88.562  1.00  0.00    -0.508 OA
ATOM     27  H   UNL     1      24.489  52.813  89.197  1.00  0.00     0.293 HD
ENDBRANCH   8  26
TORSDOF 6
ENDMDL
