MODEL 1
REMARK VINA RESULT:    -3.806      0.000      0.000
REMARK INTER + INTRA:          -7.079
REMARK INTER:                  -6.031
REMARK INTRA:                  -1.048
REMARK UNBOUND:                -1.048
REMARK SMILES CCCCCCCCCCCC(=O)[O-]
REMARK SMILES IDX 7 1 8 2 9 3 10 4 11 5 12 6 13 7 14 8 6 9 5 10 4 11 3 12 2 13
REMARK SMILES IDX 1 14
REMARK H PARENT
REMARK Flexibility Score: inf
ROOT
ATOM      1  C   UNL     1      -8.871  17.269  -1.898  1.00  0.00     0.000 C 
ENDROOT
BRANCH   1   2
ATOM      2  C   UNL     1      -8.746  16.505  -3.221  1.00  0.00     0.000 C 
BRANCH   2   3
ATOM      3  C   UNL     1      -8.923  14.995  -3.004  1.00  0.00     0.000 C 
BRANCH   3   4
ATOM      4  C   UNL     1      -8.496  14.167  -4.227  1.00  0.00     0.006 C 
BRANCH   4   5
ATOM      5  C   UNL     1      -8.749  14.896  -5.553  1.00  0.00     0.053 C 
BRANCH   5   6
ATOM      6  C   UNL     1      -7.528  14.845  -6.417  1.00  0.00     0.041 C 
ATOM      7  O   UNL     1      -6.388  14.727  -5.897  1.00  0.00    -0.550 OA
ATOM      8  O   UNL     1      -7.646  14.977  -7.795  1.00  0.00    -0.550 OA
ENDBRANCH   5   6
ENDBRANCH   4   5
ENDBRANCH   3   4
ENDBRANCH   2   3
ENDBRANCH   1   2
BRANCH   1   9
ATOM      9  C   UNL     1      -9.877  16.589  -0.962  1.00  0.00     0.000 C 
BRANCH   9  10
ATOM     10  C   UNL     1      -9.569  16.911   0.505  1.00  0.00    -0.000 C 
BRANCH  10  11
ATOM     11  C   UNL     1      -8.475  15.982   1.055  1.00  0.00    -0.000 C 
BRANCH  11  12
ATOM     12  C   UNL     1      -7.130  16.714   1.247  1.00  0.00    -0.000 C 
BRANCH  12  13
ATOM     13  C   UNL     1      -5.911  15.886   0.807  1.00  0.00    -0.003 C 
ATOM     14  C   UNL     1      -6.145  15.122  -0.494  1.00  0.00     0.004 C 
ENDBRANCH  12  13
ENDBRANCH  11  12
ENDBRANCH  10  11
ENDBRANCH   9  10
ENDBRANCH   1   9
TORSDOF 10
ENDMDL
MODEL 2
REMARK VINA RESULT:    -3.778      4.492      6.855
REMARK INTER + INTRA:          -7.034
REMARK INTER:                  -6.009
REMARK INTRA:                  -1.025
REMARK UNBOUND:                -1.048
REMARK SMILES CCCCCCCCCCCC(=O)[O-]
REMARK SMILES IDX 7 1 8 2 9 3 10 4 11 5 12 6 13 7 14 8 6 9 5 10 4 11 3 12 2 13
REMARK SMILES IDX 1 14
REMARK H PARENT
REMARK Flexibility Score: inf
ROOT
ATOM      1  C   UNL     1      -9.503  16.730   0.347  1.00  0.00     0.000 C 
ENDROOT
BRANCH   1   2
ATOM      2  C   UNL     1      -7.981  16.903   0.405  1.00  0.00     0.000 C 
BRANCH   2   3
ATOM      3  C   UNL     1      -7.404  16.264   1.677  1.00  0.00     0.000 C 
BRANCH   3   4
ATOM      4  C   UNL     1      -6.457  17.208   2.437  1.00  0.00     0.006 C 
BRANCH   4   5
ATOM      5  C   UNL     1      -6.986  17.582   3.828  1.00  0.00     0.053 C 
BRANCH   5   6
ATOM      6  C   UNL     1      -7.821  18.821   3.753  1.00  0.00     0.041 C 
ATOM      7  O   UNL     1      -9.034  18.749   3.422  1.00  0.00    -0.550 OA
ATOM      8  O   UNL     1      -7.247  20.062   4.001  1.00  0.00    -0.550 OA
ENDBRANCH   5   6
ENDBRANCH   4   5
ENDBRANCH   3   4
ENDBRANCH   2   3
ENDBRANCH   1   2
BRANCH   1   9
ATOM      9  C   UNL     1      -9.990  16.616  -1.103  1.00  0.00     0.000 C 
BRANCH   9  10
ATOM     10  C   UNL     1      -8.967  17.216  -2.076  1.00  0.00    -0.000 C 
BRANCH  10  11
ATOM     11  C   UNL     1      -8.690  16.258  -3.244  1.00  0.00    -0.000 C 
BRANCH  11  12
ATOM     12  C   UNL     1      -8.167  14.887  -2.765  1.00  0.00    -0.000 C 
BRANCH  12  13
ATOM     13  C   UNL     1      -6.633  14.786  -2.747  1.00  0.00    -0.003 C 
ATOM     14  C   UNL     1      -6.068  14.490  -1.359  1.00  0.00     0.004 C 
ENDBRANCH  12  13
ENDBRANCH  11  12
ENDBRANCH  10  11
ENDBRANCH   9  10
ENDBRANCH   1   9
TORSDOF 10
ENDMDL
MODEL 3
REMARK VINA RESULT:    -3.753      2.310      4.293
REMARK INTER + INTRA:          -6.996
REMARK INTER:                  -6.053
REMARK INTRA:                  -0.943
REMARK UNBOUND:                -1.048
REMARK SMILES CCCCCCCCCCCC(=O)[O-]
REMARK SMILES IDX 7 1 8 2 9 3 10 4 11 5 12 6 13 7 14 8 6 9 5 10 4 11 3 12 2 13
REMARK SMILES IDX 1 14
REMARK H PARENT
REMARK Flexibility Score: inf
ROOT
ATOM      1  C   UNL     1      -6.815  16.546   0.937  1.00  0.00     0.000 C 
ENDROOT
BRANCH   1   2
ATOM      2  C   UNL     1      -8.165  15.845   0.748  1.00  0.00     0.000 C 
BRANCH   2   3
ATOM      3  C   UNL     1      -9.197  16.798   0.127  1.00  0.00     0.000 C 
BRANCH   3   4
ATOM      4  C   UNL     1      -9.655  16.347  -1.269  1.00  0.00     0.006 C 
BRANCH   4   5
ATOM      5  C   UNL     1      -8.851  17.006  -2.397  1.00  0.00     0.053 C 
BRANCH   5   6
ATOM      6  C   UNL     1      -8.314  15.967  -3.331  1.00  0.00     0.041 C 
ATOM      7  O   UNL     1      -7.559  15.056  -2.899  1.00  0.00    -0.550 OA
ATOM      8  O   UNL     1      -8.610  16.032  -4.687  1.00  0.00    -0.550 OA
ENDBRANCH   5   6
ENDBRANCH   4   5
ENDBRANCH   3   4
ENDBRANCH   2   3
ENDBRANCH   1   2
BRANCH   1   9
ATOM      9  C   UNL     1      -6.420  16.592   2.417  1.00  0.00     0.000 C 
BRANCH   9  10
ATOM     10  C   UNL     1      -6.464  18.028   2.954  1.00  0.00    -0.000 C 
BRANCH  10  11
ATOM     11  C   UNL     1      -7.624  18.210   3.946  1.00  0.00    -0.000 C 
BRANCH  11  12
ATOM     12  C   UNL     1      -8.840  18.908   3.302  1.00  0.00    -0.000 C 
BRANCH  12  13
ATOM     13  C   UNL     1     -10.131  18.074   3.362  1.00  0.00    -0.003 C 
ATOM     14  C   UNL     1     -11.394  18.929   3.415  1.00  0.00     0.004 C 
ENDBRANCH  12  13
ENDBRANCH  11  12
ENDBRANCH  10  11
ENDBRANCH   9  10
ENDBRANCH   1   9
TORSDOF 10
ENDMDL
MODEL 4
REMARK VINA RESULT:    -3.734      5.571      7.856
REMARK INTER + INTRA:          -6.965
REMARK INTER:                  -6.107
REMARK INTRA:                  -0.858
REMARK UNBOUND:                -1.048
REMARK SMILES CCCCCCCCCCCC(=O)[O-]
REMARK SMILES IDX 7 1 8 2 9 3 10 4 11 5 12 6 13 7 14 8 6 9 5 10 4 11 3 12 2 13
REMARK SMILES IDX 1 14
REMARK H PARENT
REMARK Flexibility Score: inf
ROOT
ATOM      1  C   UNL     1      -7.618  15.693   0.939  1.00  0.00     0.000 C 
ENDROOT
BRANCH   1   2
ATOM      2  C   UNL     1      -6.217  16.287   1.128  1.00  0.00     0.000 C 
BRANCH   2   3
ATOM      3  C   UNL     1      -6.244  17.449   2.132  1.00  0.00     0.000 C 
BRANCH   3   4
ATOM      4  C   UNL     1      -7.061  17.124   3.393  1.00  0.00     0.006 C 
BRANCH   4   5
ATOM      5  C   UNL     1      -6.314  17.471   4.687  1.00  0.00     0.053 C 
BRANCH   5   6
ATOM      6  C   UNL     1      -6.396  18.940   4.959  1.00  0.00     0.041 C 
ATOM      7  O   UNL     1      -5.625  19.473   5.800  1.00  0.00    -0.550 OA
ATOM      8  O   UNL     1      -7.355  19.713   4.317  1.00  0.00    -0.550 OA
ENDBRANCH   5   6
ENDBRANCH   4   5
ENDBRANCH   3   4
ENDBRANCH   2   3
ENDBRANCH   1   2
BRANCH   1   9
ATOM      9  C   UNL     1      -8.448  16.538  -0.034  1.00  0.00     0.000 C 
BRANCH   9  10
ATOM     10  C   UNL     1      -9.874  16.743   0.494  1.00  0.00    -0.000 C 
BRANCH  10  11
ATOM     11  C   UNL     1     -10.017  16.197   1.923  1.00  0.00    -0.000 C 
BRANCH  11  12
ATOM     12  C   UNL     1     -11.127  16.918   2.716  1.00  0.00    -0.000 C 
BRANCH  12  13
ATOM     13  C   UNL     1     -10.690  18.277   3.289  1.00  0.00    -0.003 C 
ATOM     14  C   UNL     1     -11.845  19.265   3.435  1.00  0.00     0.004 C 
ENDBRANCH  12  13
ENDBRANCH  11  12
ENDBRANCH  10  11
ENDBRANCH   9  10
ENDBRANCH   1   9
TORSDOF 10
ENDMDL
MODEL 5
REMARK VINA RESULT:    -3.723      1.264      2.047
REMARK INTER + INTRA:          -6.948
REMARK INTER:                  -5.527
REMARK INTRA:                  -1.421
REMARK UNBOUND:                -1.048
REMARK SMILES CCCCCCCCCCCC(=O)[O-]
REMARK SMILES IDX 7 1 8 2 9 3 10 4 11 5 12 6 13 7 14 8 6 9 5 10 4 11 3 12 2 13
REMARK SMILES IDX 1 14
REMARK H PARENT
REMARK Flexibility Score: inf
ROOT
ATOM      1  C   UNL     1      -9.652  16.050  -0.616  1.00  0.00     0.000 C 
ENDROOT
BRANCH   1   2
ATOM      2  C   UNL     1      -9.875  15.673  -2.085  1.00  0.00     0.000 C 
BRANCH   2   3
ATOM      3  C   UNL     1      -8.774  16.264  -2.978  1.00  0.00     0.000 C 
BRANCH   3   4
ATOM      4  C   UNL     1      -8.576  15.469  -4.279  1.00  0.00     0.006 C 
BRANCH   4   5
ATOM      5  C   UNL     1      -7.282  14.646  -4.278  1.00  0.00     0.053 C 
BRANCH   5   6
ATOM      6  C   UNL     1      -6.654  14.659  -5.636  1.00  0.00     0.041 C 
ATOM      7  O   UNL     1      -7.063  15.462  -6.516  1.00  0.00    -0.550 OA
ATOM      8  O   UNL     1      -5.648  13.752  -5.945  1.00  0.00    -0.550 OA
ENDBRANCH   5   6
ENDBRANCH   4   5
ENDBRANCH   3   4
ENDBRANCH   2   3
ENDBRANCH   1   2
BRANCH   1   9
ATOM      9  C   UNL     1      -8.306  16.760  -0.428  1.00  0.00     0.000 C 
BRANCH   9  10
ATOM     10  C   UNL     1      -7.681  16.403   0.927  1.00  0.00    -0.000 C 
BRANCH  10  11
ATOM     11  C   UNL     1      -6.321  15.714   0.743  1.00  0.00    -0.000 C 
BRANCH  11  12
ATOM     12  C   UNL     1      -6.134  15.164  -0.688  1.00  0.00    -0.000 C 
BRANCH  12  13
ATOM     13  C   UNL     1      -6.087  13.629  -0.755  1.00  0.00    -0.003 C 
ATOM     14  C   UNL     1      -7.466  12.995  -0.923  1.00  0.00     0.004 C 
ENDBRANCH  12  13
ENDBRANCH  11  12
ENDBRANCH  10  11
ENDBRANCH   9  10
ENDBRANCH   1   9
TORSDOF 10
ENDMDL
MODEL 6
REMARK VINA RESULT:    -3.693      2.603      6.162
REMARK INTER + INTRA:          -6.901
REMARK INTER:                  -5.815
REMARK INTRA:                  -1.086
REMARK UNBOUND:                -1.048
REMARK SMILES CCCCCCCCCCCC(=O)[O-]
REMARK SMILES IDX 7 1 8 2 9 3 10 4 11 5 12 6 13 7 14 8 6 9 5 10 4 11 3 12 2 13
REMARK SMILES IDX 1 14
REMARK H PARENT
REMARK Flexibility Score: inf
ROOT
ATOM      1  C   UNL     1      -9.140  14.784  -3.223  1.00  0.00     0.000 C 
ENDROOT
BRANCH   1   2
ATOM      2  C   UNL     1      -8.700  16.246  -3.352  1.00  0.00     0.000 C 
BRANCH   2   3
ATOM      3  C   UNL     1      -8.818  16.977  -2.006  1.00  0.00     0.000 C 
BRANCH   3   4
ATOM      4  C   UNL     1      -8.740  16.021  -0.804  1.00  0.00     0.006 C 
BRANCH   4   5
ATOM      5  C   UNL     1      -7.733  16.486   0.256  1.00  0.00     0.053 C 
BRANCH   5   6
ATOM      6  C   UNL     1      -6.488  15.659   0.192  1.00  0.00     0.041 C 
ATOM      7  O   UNL     1      -6.324  14.832  -0.744  1.00  0.00    -0.550 OA
ATOM      8  O   UNL     1      -5.529  15.767   1.191  1.00  0.00    -0.550 OA
ENDBRANCH   5   6
ENDBRANCH   4   5
ENDBRANCH   3   4
ENDBRANCH   2   3
ENDBRANCH   1   2
BRANCH   1   9
ATOM      9  C   UNL     1      -8.160  13.848  -3.940  1.00  0.00     0.000 C 
BRANCH   9  10
ATOM     10  C   UNL     1      -6.810  14.537  -4.172  1.00  0.00    -0.000 C 
BRANCH  10  11
ATOM     11  C   UNL     1      -6.384  14.434  -5.645  1.00  0.00    -0.000 C 
BRANCH  11  12
ATOM     12  C   UNL     1      -7.258  15.308  -6.569  1.00  0.00    -0.000 C 
BRANCH  12  13
ATOM     13  C   UNL     1      -8.010  14.506  -7.644  1.00  0.00    -0.003 C 
ATOM     14  C   UNL     1      -9.528  14.629  -7.531  1.00  0.00     0.004 C 
ENDBRANCH  12  13
ENDBRANCH  11  12
ENDBRANCH  10  11
ENDBRANCH   9  10
ENDBRANCH   1   9
TORSDOF 10
ENDMDL
MODEL 7
REMARK VINA RESULT:    -3.687      1.354      2.953
REMARK INTER + INTRA:          -6.891
REMARK INTER:                  -5.617
REMARK INTRA:                  -1.274
REMARK UNBOUND:                -1.048
REMARK SMILES CCCCCCCCCCCC(=O)[O-]
REMARK SMILES IDX 7 1 8 2 9 3 10 4 11 5 12 6 13 7 14 8 6 9 5 10 4 11 3 12 2 13
REMARK SMILES IDX 1 14
REMARK H PARENT
REMARK Flexibility Score: inf
ROOT
ATOM      1  C   UNL     1      -6.110  15.357  -0.402  1.00  0.00     0.000 C 
ENDROOT
BRANCH   1   2
ATOM      2  C   UNL     1      -6.533  13.903  -0.638  1.00  0.00     0.000 C 
BRANCH   2   3
ATOM      3  C   UNL     1      -7.175  13.734  -2.023  1.00  0.00     0.000 C 
BRANCH   3   4
ATOM      4  C   UNL     1      -6.619  14.725  -3.058  1.00  0.00     0.006 C 
BRANCH   4   5
ATOM      5  C   UNL     1      -6.698  14.189  -4.494  1.00  0.00     0.053 C 
BRANCH   5   6
ATOM      6  C   UNL     1      -7.542  15.088  -5.341  1.00  0.00     0.041 C 
ATOM      7  O   UNL     1      -8.654  15.500  -4.917  1.00  0.00    -0.550 OA
ATOM      8  O   UNL     1      -7.121  15.434  -6.619  1.00  0.00    -0.550 OA
ENDBRANCH   5   6
ENDBRANCH   4   5
ENDBRANCH   3   4
ENDBRANCH   2   3
ENDBRANCH   1   2
BRANCH   1   9
ATOM      9  C   UNL     1      -6.164  15.712   1.088  1.00  0.00     0.000 C 
BRANCH   9  10
ATOM     10  C   UNL     1      -7.184  16.827   1.352  1.00  0.00    -0.000 C 
BRANCH  10  11
ATOM     11  C   UNL     1      -8.603  16.255   1.492  1.00  0.00    -0.000 C 
BRANCH  11  12
ATOM     12  C   UNL     1      -9.605  16.938   0.537  1.00  0.00    -0.000 C 
BRANCH  12  13
ATOM     13  C   UNL     1      -9.589  16.360  -0.888  1.00  0.00    -0.003 C 
ATOM     14  C   UNL     1      -9.001  17.321  -1.918  1.00  0.00     0.004 C 
ENDBRANCH  12  13
ENDBRANCH  11  12
ENDBRANCH  10  11
ENDBRANCH   9  10
ENDBRANCH   1   9
TORSDOF 10
ENDMDL
MODEL 8
REMARK VINA RESULT:    -3.677      1.671      2.688
REMARK INTER + INTRA:          -6.874
REMARK INTER:                  -6.108
REMARK INTRA:                  -0.766
REMARK UNBOUND:                -1.048
REMARK SMILES CCCCCCCCCCCC(=O)[O-]
REMARK SMILES IDX 7 1 8 2 9 3 10 4 11 5 12 6 13 7 14 8 6 9 5 10 4 11 3 12 2 13
REMARK SMILES IDX 1 14
REMARK H PARENT
REMARK Flexibility Score: inf
ROOT
ATOM      1  C   UNL     1      -9.312  16.280  -0.680  1.00  0.00     0.000 C 
ENDROOT
BRANCH   1   2
ATOM      2  C   UNL     1      -9.006  17.207  -1.861  1.00  0.00     0.000 C 
BRANCH   2   3
ATOM      3  C   UNL     1      -8.618  16.400  -3.108  1.00  0.00     0.000 C 
BRANCH   3   4
ATOM      4  C   UNL     1      -8.224  14.951  -2.777  1.00  0.00     0.006 C 
BRANCH   4   5
ATOM      5  C   UNL     1      -6.791  14.614  -3.211  1.00  0.00     0.053 C 
BRANCH   5   6
ATOM      6  C   UNL     1      -6.782  14.079  -4.609  1.00  0.00     0.041 C 
ATOM      7  O   UNL     1      -7.058  12.870  -4.826  1.00  0.00    -0.550 OA
ATOM      8  O   UNL     1      -6.422  14.905  -5.666  1.00  0.00    -0.550 OA
ENDBRANCH   5   6
ENDBRANCH   4   5
ENDBRANCH   3   4
ENDBRANCH   2   3
ENDBRANCH   1   2
BRANCH   1   9
ATOM      9  C   UNL     1      -8.458  16.642   0.541  1.00  0.00     0.000 C 
BRANCH   9  10
ATOM     10  C   UNL     1      -7.300  15.651   0.717  1.00  0.00    -0.000 C 
BRANCH  10  11
ATOM     11  C   UNL     1      -6.057  16.351   1.287  1.00  0.00    -0.000 C 
BRANCH  11  12
ATOM     12  C   UNL     1      -6.420  17.595   2.126  1.00  0.00    -0.000 C 
BRANCH  12  13
ATOM     13  C   UNL     1      -6.500  17.317   3.636  1.00  0.00    -0.003 C 
ATOM     14  C   UNL     1      -6.399  18.582   4.484  1.00  0.00     0.004 C 
ENDBRANCH  12  13
ENDBRANCH  11  12
ENDBRANCH  10  11
ENDBRANCH   9  10
ENDBRANCH   1   9
TORSDOF 10
ENDMDL
MODEL 9
REMARK VINA RESULT:    -3.656      4.244      6.100
REMARK INTER + INTRA:          -6.842
REMARK INTER:                  -5.467
REMARK INTRA:                  -1.375
REMARK UNBOUND:                -1.048
REMARK SMILES CCCCCCCCCCCC(=O)[O-]
REMARK SMILES IDX 7 1 8 2 9 3 10 4 11 5 12 6 13 7 14 8 6 9 5 10 4 11 3 12 2 13
REMARK SMILES IDX 1 14
REMARK H PARENT
REMARK Flexibility Score: inf
ROOT
ATOM      1  C   UNL     1      -9.893  16.731  -1.101  1.00  0.00     0.000 C 
ENDROOT
BRANCH   1   2
ATOM      2  C   UNL     1      -9.362  16.869   0.330  1.00  0.00     0.000 C 
BRANCH   2   3
ATOM      3  C   UNL     1      -9.052  15.493   0.937  1.00  0.00     0.000 C 
BRANCH   3   4
ATOM      4  C   UNL     1      -7.730  15.475   1.721  1.00  0.00     0.006 C 
BRANCH   4   5
ATOM      5  C   UNL     1      -6.920  16.767   1.544  1.00  0.00     0.053 C 
BRANCH   5   6
ATOM      6  C   UNL     1      -6.643  17.394   2.874  1.00  0.00     0.041 C 
ATOM      7  O   UNL     1      -6.498  18.641   2.968  1.00  0.00    -0.550 OA
ATOM      8  O   UNL     1      -6.495  16.596   4.002  1.00  0.00    -0.550 OA
ENDBRANCH   5   6
ENDBRANCH   4   5
ENDBRANCH   3   4
ENDBRANCH   2   3
ENDBRANCH   1   2
BRANCH   1   9
ATOM      9  C   UNL     1      -8.833  17.153  -2.126  1.00  0.00     0.000 C 
BRANCH   9  10
ATOM     10  C   UNL     1      -8.745  16.142  -3.275  1.00  0.00    -0.000 C 
BRANCH  10  11
ATOM     11  C   UNL     1      -8.127  14.818  -2.799  1.00  0.00    -0.000 C 
BRANCH  11  12
ATOM     12  C   UNL     1      -6.613  14.945  -2.525  1.00  0.00    -0.000 C 
BRANCH  12  13
ATOM     13  C   UNL     1      -6.166  14.269  -1.218  1.00  0.00    -0.003 C 
ATOM     14  C   UNL     1      -6.897  12.957  -0.943  1.00  0.00     0.004 C 
ENDBRANCH  12  13
ENDBRANCH  11  12
ENDBRANCH  10  11
ENDBRANCH   9  10
ENDBRANCH   1   9
TORSDOF 10
ENDMDL
