MODEL 1
REMARK VINA RESULT:     6.691      0.000      0.000
REMARK INTER + INTRA:          17.575
REMARK INTER:                  17.644
REMARK INTRA:                  -0.069
REMARK UNBOUND:                -0.069
REMARK SMILES CCCCCCCCCCCCCCCCCCCCCCCCCCCCCC(=O)[O-]
REMARK SMILES IDX 16 1 17 2 18 3 19 4 20 5 21 6 22 7 23 8 24 9 25 10 26 11
REMARK SMILES IDX 27 12 28 13 29 14 30 15 31 16 32 17 15 18 14 19 13 20 12 21
REMARK SMILES IDX 11 22 10 23 9 24 8 25 7 26 6 27 5 28 4 29 3 30 2 31 1 32
REMARK H PARENT
REMARK Flexibility Score: inf
ROOT
ATOM      1  C   UNL     1       3.610 -36.817  19.189  1.00  0.00     0.000 C 
ENDROOT
BRANCH   1   2
ATOM      2  C   UNL     1       5.060 -37.071  19.641  1.00  0.00     0.000 C 
BRANCH   2   3
ATOM      3  C   UNL     1       5.537 -38.502  19.344  1.00  0.00     0.000 C 
BRANCH   3   4
ATOM      4  C   UNL     1       5.920 -39.286  20.612  1.00  0.00     0.000 C 
BRANCH   4   5
ATOM      5  C   UNL     1       6.088 -38.437  21.887  1.00  0.00     0.000 C 
BRANCH   5   6
ATOM      6  C   UNL     1       5.790 -39.217  23.177  1.00  0.00     0.000 C 
BRANCH   6   7
ATOM      7  C   UNL     1       4.873 -38.410  24.109  1.00  0.00     0.000 C 
BRANCH   7   8
ATOM      8  C   UNL     1       5.091 -38.749  25.593  1.00  0.00     0.000 C 
BRANCH   8   9
ATOM      9  C   UNL     1       5.503 -37.521  26.426  1.00  0.00     0.000 C 
BRANCH   9  10
ATOM     10  C   UNL     1       4.577 -36.316  26.200  1.00  0.00     0.000 C 
BRANCH  10  11
ATOM     11  C   UNL     1       3.112 -36.723  25.982  1.00  0.00     0.000 C 
BRANCH  11  12
ATOM     12  C   UNL     1       2.469 -37.179  27.301  1.00  0.00     0.000 C 
BRANCH  12  13
ATOM     13  C   UNL     1       1.470 -36.153  27.865  1.00  0.00     0.006 C 
BRANCH  13  14
ATOM     14  C   UNL     1       2.059 -34.751  28.089  1.00  0.00     0.053 C 
BRANCH  14  15
ATOM     15  C   UNL     1       1.346 -34.009  29.178  1.00  0.00     0.041 C 
ATOM     16  O   UNL     1       0.098 -33.849  29.122  1.00  0.00    -0.550 OA
ATOM     17  O   UNL     1       2.064 -33.462  30.233  1.00  0.00    -0.550 OA
ENDBRANCH  14  15
ENDBRANCH  13  14
ENDBRANCH  12  13
ENDBRANCH  11  12
ENDBRANCH  10  11
ENDBRANCH   9  10
ENDBRANCH   8   9
ENDBRANCH   7   8
ENDBRANCH   6   7
ENDBRANCH   5   6
ENDBRANCH   4   5
ENDBRANCH   3   4
ENDBRANCH   2   3
ENDBRANCH   1   2
BRANCH   1  18
ATOM     18  C   UNL     1       2.620 -36.486  20.320  1.00  0.00     0.000 C 
BRANCH  18  19
ATOM     19  C   UNL     1       1.173 -36.873  19.982  1.00  0.00     0.000 C 
BRANCH  19  20
ATOM     20  C   UNL     1       1.086 -37.505  18.584  1.00  0.00     0.000 C 
BRANCH  20  21
ATOM     21  C   UNL     1       0.678 -36.494  17.502  1.00  0.00     0.000 C 
BRANCH  21  22
ATOM     22  C   UNL     1       1.526 -36.623  16.225  1.00  0.00     0.000 C 
BRANCH  22  23
ATOM     23  C   UNL     1       1.690 -35.282  15.490  1.00  0.00     0.000 C 
BRANCH  23  24
ATOM     24  C   UNL     1       3.156 -34.969  15.143  1.00  0.00    -0.000 C 
BRANCH  24  25
ATOM     25  C   UNL     1       4.158 -35.661  16.085  1.00  0.00    -0.000 C 
BRANCH  25  26
ATOM     26  C   UNL     1       4.268 -35.043  17.491  1.00  0.00    -0.000 C 
BRANCH  26  27
ATOM     27  C   UNL     1       4.837 -33.615  17.476  1.00  0.00    -0.000 C 
BRANCH  27  28
ATOM     28  C   UNL     1       5.835 -33.354  18.620  1.00  0.00    -0.000 C 
BRANCH  28  29
ATOM     29  C   UNL     1       5.988 -34.501  19.637  1.00  0.00    -0.000 C 
BRANCH  29  30
ATOM     30  C   UNL     1       6.123 -34.004  21.087  1.00  0.00    -0.000 C 
BRANCH  30  31
ATOM     31  C   UNL     1       5.421 -34.929  22.094  1.00  0.00    -0.003 C 
ATOM     32  C   UNL     1       4.847 -34.171  23.293  1.00  0.00     0.004 C 
ENDBRANCH  30  31
ENDBRANCH  29  30
ENDBRANCH  28  29
ENDBRANCH  27  28
ENDBRANCH  26  27
ENDBRANCH  25  26
ENDBRANCH  24  25
ENDBRANCH  23  24
ENDBRANCH  22  23
ENDBRANCH  21  22
ENDBRANCH  20  21
ENDBRANCH  19  20
ENDBRANCH  18  19
ENDBRANCH   1  18
TORSDOF 28
ENDMDL
MODEL 2
REMARK VINA RESULT:     7.173      4.118      9.428
REMARK INTER + INTRA:          18.845
REMARK INTER:                  20.159
REMARK INTRA:                  -1.314
REMARK UNBOUND:                -0.069
REMARK SMILES CCCCCCCCCCCCCCCCCCCCCCCCCCCCCC(=O)[O-]
REMARK SMILES IDX 16 1 17 2 18 3 19 4 20 5 21 6 22 7 23 8 24 9 25 10 26 11
REMARK SMILES IDX 27 12 28 13 29 14 30 15 31 16 32 17 15 18 14 19 13 20 12 21
REMARK SMILES IDX 11 22 10 23 9 24 8 25 7 26 6 27 5 28 4 29 3 30 2 31 1 32
REMARK H PARENT
REMARK Flexibility Score: inf
ROOT
ATOM      1  C   UNL     1       5.719 -36.618  22.722  1.00  0.00     0.000 C 
ENDROOT
BRANCH   1   2
ATOM      2  C   UNL     1       6.116 -35.195  23.157  1.00  0.00     0.000 C 
BRANCH   2   3
ATOM      3  C   UNL     1       4.902 -34.283  23.394  1.00  0.00     0.000 C 
BRANCH   3   4
ATOM      4  C   UNL     1       4.345 -33.668  22.097  1.00  0.00     0.000 C 
BRANCH   4   5
ATOM      5  C   UNL     1       5.333 -33.616  20.915  1.00  0.00     0.000 C 
BRANCH   5   6
ATOM      6  C   UNL     1       4.681 -33.962  19.567  1.00  0.00     0.000 C 
BRANCH   6   7
ATOM      7  C   UNL     1       5.624 -34.809  18.700  1.00  0.00     0.000 C 
BRANCH   7   8
ATOM      8  C   UNL     1       4.928 -36.040  18.096  1.00  0.00     0.000 C 
BRANCH   8   9
ATOM      9  C   UNL     1       3.737 -36.522  18.944  1.00  0.00     0.000 C 
BRANCH   9  10
ATOM     10  C   UNL     1       2.648 -37.203  18.101  1.00  0.00     0.000 C 
BRANCH  10  11
ATOM     11  C   UNL     1       1.418 -36.310  17.881  1.00  0.00     0.000 C 
BRANCH  11  12
ATOM     12  C   UNL     1       1.114 -36.157  16.383  1.00  0.00     0.000 C 
BRANCH  12  13
ATOM     13  C   UNL     1       2.201 -35.368  15.629  1.00  0.00     0.006 C 
BRANCH  13  14
ATOM     14  C   UNL     1       2.583 -35.961  14.264  1.00  0.00     0.053 C 
BRANCH  14  15
ATOM     15  C   UNL     1       3.940 -36.595  14.288  1.00  0.00     0.041 C 
ATOM     16  O   UNL     1       4.083 -37.771  14.715  1.00  0.00    -0.550 OA
ATOM     17  O   UNL     1       5.053 -35.873  13.875  1.00  0.00    -0.550 OA
ENDBRANCH  14  15
ENDBRANCH  13  14
ENDBRANCH  12  13
ENDBRANCH  11  12
ENDBRANCH  10  11
ENDBRANCH   9  10
ENDBRANCH   8   9
ENDBRANCH   7   8
ENDBRANCH   6   7
ENDBRANCH   5   6
ENDBRANCH   4   5
ENDBRANCH   3   4
ENDBRANCH   2   3
ENDBRANCH   1   2
BRANCH   1  18
ATOM     18  C   UNL     1       6.094 -36.988  21.276  1.00  0.00     0.000 C 
BRANCH  18  19
ATOM     19  C   UNL     1       5.800 -38.457  20.938  1.00  0.00     0.000 C 
BRANCH  19  20
ATOM     20  C   UNL     1       5.060 -39.148  22.094  1.00  0.00     0.000 C 
BRANCH  20  21
ATOM     21  C   UNL     1       6.016 -39.671  23.178  1.00  0.00     0.000 C 
BRANCH  21  22
ATOM     22  C   UNL     1       5.270 -40.228  24.403  1.00  0.00     0.000 C 
BRANCH  22  23
ATOM     23  C   UNL     1       4.708 -39.117  25.305  1.00  0.00     0.000 C 
BRANCH  23  24
ATOM     24  C   UNL     1       5.805 -38.369  26.082  1.00  0.00    -0.000 C 
BRANCH  24  25
ATOM     25  C   UNL     1       5.779 -36.848  25.845  1.00  0.00    -0.000 C 
BRANCH  25  26
ATOM     26  C   UNL     1       4.461 -36.149  26.226  1.00  0.00    -0.000 C 
BRANCH  26  27
ATOM     27  C   UNL     1       3.270 -37.118  26.312  1.00  0.00    -0.000 C 
BRANCH  27  28
ATOM     28  C   UNL     1       2.419 -36.911  27.579  1.00  0.00    -0.000 C 
BRANCH  28  29
ATOM     29  C   UNL     1       1.139 -36.077  27.386  1.00  0.00    -0.000 C 
BRANCH  29  30
ATOM     30  C   UNL     1       1.310 -34.607  27.808  1.00  0.00    -0.000 C 
BRANCH  30  31
ATOM     31  C   UNL     1       1.792 -34.464  29.260  1.00  0.00    -0.003 C 
ATOM     32  C   UNL     1       1.086 -33.332  30.009  1.00  0.00     0.004 C 
ENDBRANCH  30  31
ENDBRANCH  29  30
ENDBRANCH  28  29
ENDBRANCH  27  28
ENDBRANCH  26  27
ENDBRANCH  25  26
ENDBRANCH  24  25
ENDBRANCH  23  24
ENDBRANCH  22  23
ENDBRANCH  21  22
ENDBRANCH  20  21
ENDBRANCH  19  20
ENDBRANCH  18  19
ENDBRANCH   1  18
TORSDOF 28
ENDMDL
MODEL 3
REMARK VINA RESULT:     7.261      1.046      3.552
REMARK INTER + INTRA:          19.077
REMARK INTER:                  20.481
REMARK INTRA:                  -1.404
REMARK UNBOUND:                -0.069
REMARK SMILES CCCCCCCCCCCCCCCCCCCCCCCCCCCCCC(=O)[O-]
REMARK SMILES IDX 16 1 17 2 18 3 19 4 20 5 21 6 22 7 23 8 24 9 25 10 26 11
REMARK SMILES IDX 27 12 28 13 29 14 30 15 31 16 32 17 15 18 14 19 13 20 12 21
REMARK SMILES IDX 11 22 10 23 9 24 8 25 7 26 6 27 5 28 4 29 3 30 2 31 1 32
REMARK H PARENT
REMARK Flexibility Score: inf
ROOT
ATOM      1  C   UNL     1       6.124 -35.704  22.483  1.00  0.00     0.000 C 
ENDROOT
BRANCH   1   2
ATOM      2  C   UNL     1       5.137 -36.693  21.834  1.00  0.00     0.000 C 
BRANCH   2   3
ATOM      3  C   UNL     1       5.806 -37.608  20.795  1.00  0.00     0.000 C 
BRANCH   3   4
ATOM      4  C   UNL     1       5.963 -39.060  21.281  1.00  0.00     0.000 C 
BRANCH   4   5
ATOM      5  C   UNL     1       4.912 -39.529  22.306  1.00  0.00     0.000 C 
BRANCH   5   6
ATOM      6  C   UNL     1       5.500 -40.430  23.403  1.00  0.00     0.000 C 
BRANCH   6   7
ATOM      7  C   UNL     1       5.358 -39.778  24.787  1.00  0.00     0.000 C 
BRANCH   7   8
ATOM      8  C   UNL     1       5.368 -38.242  24.721  1.00  0.00     0.000 C 
BRANCH   8   9
ATOM      9  C   UNL     1       5.795 -37.595  26.052  1.00  0.00     0.000 C 
BRANCH   9  10
ATOM     10  C   UNL     1       4.749 -36.606  26.590  1.00  0.00     0.000 C 
BRANCH  10  11
ATOM     11  C   UNL     1       3.370 -36.783  25.939  1.00  0.00     0.000 C 
BRANCH  11  12
ATOM     12  C   UNL     1       2.357 -37.346  26.948  1.00  0.00     0.000 C 
BRANCH  12  13
ATOM     13  C   UNL     1       2.102 -36.397  28.132  1.00  0.00     0.006 C 
BRANCH  13  14
ATOM     14  C   UNL     1       1.727 -34.962  27.727  1.00  0.00     0.053 C 
BRANCH  14  15
ATOM     15  C   UNL     1       1.187 -34.175  28.881  1.00  0.00     0.041 C 
ATOM     16  O   UNL     1       1.852 -34.075  29.946  1.00  0.00    -0.550 OA
ATOM     17  O   UNL     1      -0.068 -33.586  28.796  1.00  0.00    -0.550 OA
ENDBRANCH  14  15
ENDBRANCH  13  14
ENDBRANCH  12  13
ENDBRANCH  11  12
ENDBRANCH  10  11
ENDBRANCH   9  10
ENDBRANCH   8   9
ENDBRANCH   7   8
ENDBRANCH   6   7
ENDBRANCH   5   6
ENDBRANCH   4   5
ENDBRANCH   3   4
ENDBRANCH   2   3
ENDBRANCH   1   2
BRANCH   1  18
ATOM     18  C   UNL     1       5.575 -34.934  23.697  1.00  0.00     0.000 C 
BRANCH  18  19
ATOM     19  C   UNL     1       4.844 -33.642  23.307  1.00  0.00     0.000 C 
BRANCH  19  20
ATOM     20  C   UNL     1       3.851 -33.897  22.161  1.00  0.00     0.000 C 
BRANCH  20  21
ATOM     21  C   UNL     1       4.387 -33.432  20.799  1.00  0.00     0.000 C 
BRANCH  21  22
ATOM     22  C   UNL     1       4.605 -34.598  19.821  1.00  0.00     0.000 C 
BRANCH  22  23
ATOM     23  C   UNL     1       5.826 -34.383  18.911  1.00  0.00     0.000 C 
BRANCH  23  24
ATOM     24  C   UNL     1       5.438 -34.143  17.441  1.00  0.00    -0.000 C 
BRANCH  24  25
ATOM     25  C   UNL     1       3.919 -34.215  17.201  1.00  0.00    -0.000 C 
BRANCH  25  26
ATOM     26  C   UNL     1       3.499 -34.514  15.751  1.00  0.00    -0.000 C 
BRANCH  26  27
ATOM     27  C   UNL     1       4.173 -35.771  15.177  1.00  0.00    -0.000 C 
BRANCH  27  28
ATOM     28  C   UNL     1       3.576 -37.078  15.730  1.00  0.00    -0.000 C 
BRANCH  28  29
ATOM     29  C   UNL     1       2.538 -36.906  16.855  1.00  0.00    -0.000 C 
BRANCH  29  30
ATOM     30  C   UNL     1       3.096 -37.254  18.246  1.00  0.00    -0.000 C 
BRANCH  30  31
ATOM     31  C   UNL     1       2.136 -36.863  19.381  1.00  0.00    -0.003 C 
ATOM     32  C   UNL     1       0.674 -37.168  19.052  1.00  0.00     0.004 C 
ENDBRANCH  30  31
ENDBRANCH  29  30
ENDBRANCH  28  29
ENDBRANCH  27  28
ENDBRANCH  26  27
ENDBRANCH  25  26
ENDBRANCH  24  25
ENDBRANCH  23  24
ENDBRANCH  22  23
ENDBRANCH  21  22
ENDBRANCH  20  21
ENDBRANCH  19  20
ENDBRANCH  18  19
ENDBRANCH   1  18
TORSDOF 28
ENDMDL
MODEL 4
REMARK VINA RESULT:     8.071      3.022      9.057
REMARK INTER + INTRA:          21.213
REMARK INTER:                  19.016
REMARK INTRA:                   2.197
REMARK UNBOUND:                -0.069
REMARK SMILES CCCCCCCCCCCCCCCCCCCCCCCCCCCCCC(=O)[O-]
REMARK SMILES IDX 16 1 17 2 18 3 19 4 20 5 21 6 22 7 23 8 24 9 25 10 26 11
REMARK SMILES IDX 27 12 28 13 29 14 30 15 31 16 32 17 15 18 14 19 13 20 12 21
REMARK SMILES IDX 11 22 10 23 9 24 8 25 7 26 6 27 5 28 4 29 3 30 2 31 1 32
REMARK H PARENT
REMARK Flexibility Score: inf
ROOT
ATOM      1  C   UNL     1       4.198 -37.867  21.845  1.00  0.00     0.000 C 
ENDROOT
BRANCH   1   2
ATOM      2  C   UNL     1       3.993 -37.503  20.362  1.00  0.00     0.000 C 
BRANCH   2   3
ATOM      3  C   UNL     1       5.294 -37.570  19.546  1.00  0.00     0.000 C 
BRANCH   3   4
ATOM      4  C   UNL     1       6.065 -36.238  19.526  1.00  0.00     0.000 C 
BRANCH   4   5
ATOM      5  C   UNL     1       5.190 -34.970  19.582  1.00  0.00     0.000 C 
BRANCH   5   6
ATOM      6  C   UNL     1       5.645 -33.879  18.601  1.00  0.00     0.000 C 
BRANCH   6   7
ATOM      7  C   UNL     1       4.551 -33.579  17.564  1.00  0.00     0.000 C 
BRANCH   7   8
ATOM      8  C   UNL     1       4.235 -34.788  16.669  1.00  0.00     0.000 C 
BRANCH   8   9
ATOM      9  C   UNL     1       3.112 -34.498  15.657  1.00  0.00     0.000 C 
BRANCH   9  10
ATOM     10  C   UNL     1       3.194 -35.394  14.411  1.00  0.00     0.000 C 
BRANCH  10  11
ATOM     11  C   UNL     1       4.013 -36.672  14.648  1.00  0.00     0.000 C 
BRANCH  11  12
ATOM     12  C   UNL     1       3.458 -37.464  15.841  1.00  0.00     0.000 C 
BRANCH  12  13
ATOM     13  C   UNL     1       2.096 -36.936  16.329  1.00  0.00     0.006 C 
BRANCH  13  14
ATOM     14  C   UNL     1       2.034 -36.638  17.836  1.00  0.00     0.053 C 
BRANCH  14  15
ATOM     15  C   UNL     1       0.870 -37.313  18.493  1.00  0.00     0.041 C 
ATOM     16  O   UNL     1      -0.070 -36.627  18.975  1.00  0.00    -0.550 OA
ATOM     17  O   UNL     1       0.841 -38.697  18.609  1.00  0.00    -0.550 OA
ENDBRANCH  14  15
ENDBRANCH  13  14
ENDBRANCH  12  13
ENDBRANCH  11  12
ENDBRANCH  10  11
ENDBRANCH   9  10
ENDBRANCH   8   9
ENDBRANCH   7   8
ENDBRANCH   6   7
ENDBRANCH   5   6
ENDBRANCH   4   5
ENDBRANCH   3   4
ENDBRANCH   2   3
ENDBRANCH   1   2
BRANCH   1  18
ATOM     18  C   UNL     1       5.666 -37.960  22.298  1.00  0.00     0.000 C 
BRANCH  18  19
ATOM     19  C   UNL     1       6.124 -36.733  23.100  1.00  0.00     0.000 C 
BRANCH  19  20
ATOM     20  C   UNL     1       5.872 -35.438  22.313  1.00  0.00     0.000 C 
BRANCH  20  21
ATOM     21  C   UNL     1       5.387 -34.287  23.208  1.00  0.00     0.000 C 
BRANCH  21  22
ATOM     22  C   UNL     1       6.096 -34.262  24.573  1.00  0.00     0.000 C 
BRANCH  22  23
ATOM     23  C   UNL     1       5.322 -35.037  25.652  1.00  0.00     0.000 C 
BRANCH  23  24
ATOM     24  C   UNL     1       6.078 -36.281  26.149  1.00  0.00    -0.000 C 
BRANCH  24  25
ATOM     25  C   UNL     1       5.316 -37.593  25.886  1.00  0.00    -0.000 C 
BRANCH  25  26
ATOM     26  C   UNL     1       4.190 -37.907  26.887  1.00  0.00    -0.000 C 
BRANCH  26  27
ATOM     27  C   UNL     1       2.838 -37.297  26.482  1.00  0.00    -0.000 C 
BRANCH  27  28
ATOM     28  C   UNL     1       2.021 -36.793  27.687  1.00  0.00    -0.000 C 
BRANCH  28  29
ATOM     29  C   UNL     1       1.692 -35.288  27.678  1.00  0.00    -0.000 C 
BRANCH  29  30
ATOM     30  C   UNL     1       1.905 -34.619  29.047  1.00  0.00    -0.000 C 
BRANCH  30  31
ATOM     31  C   UNL     1       1.179 -33.269  29.162  1.00  0.00    -0.003 C 
ATOM     32  C   UNL     1      -0.341 -33.404  29.071  1.00  0.00     0.004 C 
ENDBRANCH  30  31
ENDBRANCH  29  30
ENDBRANCH  28  29
ENDBRANCH  27  28
ENDBRANCH  26  27
ENDBRANCH  25  26
ENDBRANCH  24  25
ENDBRANCH  23  24
ENDBRANCH  22  23
ENDBRANCH  21  22
ENDBRANCH  20  21
ENDBRANCH  19  20
ENDBRANCH  18  19
ENDBRANCH   1  18
TORSDOF 28
ENDMDL
MODEL 5
REMARK VINA RESULT:     8.500      4.264     10.110
REMARK INTER + INTRA:          22.343
REMARK INTER:                  23.759
REMARK INTRA:                  -1.416
REMARK UNBOUND:                -0.069
REMARK SMILES CCCCCCCCCCCCCCCCCCCCCCCCCCCCCC(=O)[O-]
REMARK SMILES IDX 16 1 17 2 18 3 19 4 20 5 21 6 22 7 23 8 24 9 25 10 26 11
REMARK SMILES IDX 27 12 28 13 29 14 30 15 31 16 32 17 15 18 14 19 13 20 12 21
REMARK SMILES IDX 11 22 10 23 9 24 8 25 7 26 6 27 5 28 4 29 3 30 2 31 1 32
REMARK H PARENT
REMARK Flexibility Score: inf
ROOT
ATOM      1  C   UNL     1       5.607 -34.045  24.232  1.00  0.00     0.000 C 
ENDROOT
BRANCH   1   2
ATOM      2  C   UNL     1       4.883 -34.228  22.885  1.00  0.00     0.000 C 
BRANCH   2   3
ATOM      3  C   UNL     1       5.807 -34.763  21.778  1.00  0.00     0.000 C 
BRANCH   3   4
ATOM      4  C   UNL     1       5.992 -33.772  20.614  1.00  0.00     0.000 C 
BRANCH   4   5
ATOM      5  C   UNL     1       5.729 -34.349  19.210  1.00  0.00     0.000 C 
BRANCH   5   6
ATOM      6  C   UNL     1       6.018 -35.855  19.111  1.00  0.00     0.000 C 
BRANCH   6   7
ATOM      7  C   UNL     1       4.747 -36.638  18.748  1.00  0.00     0.000 C 
BRANCH   7   8
ATOM      8  C   UNL     1       4.267 -37.550  19.888  1.00  0.00     0.000 C 
BRANCH   8   9
ATOM      9  C   UNL     1       2.794 -37.305  20.263  1.00  0.00     0.000 C 
BRANCH   9  10
ATOM     10  C   UNL     1       2.060 -36.433  19.232  1.00  0.00     0.000 C 
BRANCH  10  11
ATOM     11  C   UNL     1       0.877 -37.158  18.572  1.00  0.00     0.000 C 
BRANCH  11  12
ATOM     12  C   UNL     1       0.837 -36.875  17.062  1.00  0.00     0.000 C 
BRANCH  12  13
ATOM     13  C   UNL     1       1.825 -35.776  16.633  1.00  0.00     0.006 C 
BRANCH  13  14
ATOM     14  C   UNL     1       2.171 -35.784  15.135  1.00  0.00     0.053 C 
BRANCH  14  15
ATOM     15  C   UNL     1       3.475 -36.469  14.864  1.00  0.00     0.041 C 
ATOM     16  O   UNL     1       4.177 -36.127  13.875  1.00  0.00    -0.550 OA
ATOM     17  O   UNL     1       3.898 -37.511  15.680  1.00  0.00    -0.550 OA
ENDBRANCH  14  15
ENDBRANCH  13  14
ENDBRANCH  12  13
ENDBRANCH  11  12
ENDBRANCH  10  11
ENDBRANCH   9  10
ENDBRANCH   8   9
ENDBRANCH   7   8
ENDBRANCH   6   7
ENDBRANCH   5   6
ENDBRANCH   4   5
ENDBRANCH   3   4
ENDBRANCH   2   3
ENDBRANCH   1   2
BRANCH   1  18
ATOM     18  C   UNL     1       5.892 -35.347  25.003  1.00  0.00     0.000 C 
BRANCH  18  19
ATOM     19  C   UNL     1       6.125 -36.551  24.079  1.00  0.00     0.000 C 
BRANCH  19  20
ATOM     20  C   UNL     1       4.965 -37.554  24.182  1.00  0.00     0.000 C 
BRANCH  20  21
ATOM     21  C   UNL     1       4.949 -38.305  25.523  1.00  0.00     0.000 C 
BRANCH  21  22
ATOM     22  C   UNL     1       4.425 -37.436  26.679  1.00  0.00     0.000 C 
BRANCH  22  23
ATOM     23  C   UNL     1       3.018 -36.880  26.405  1.00  0.00     0.000 C 
BRANCH  23  24
ATOM     24  C   UNL     1       2.163 -36.771  27.680  1.00  0.00    -0.000 C 
BRANCH  24  25
ATOM     25  C   UNL     1       1.480 -35.399  27.831  1.00  0.00    -0.000 C 
BRANCH  25  26
ATOM     26  C   UNL     1       2.003 -34.532  28.990  1.00  0.00    -0.000 C 
BRANCH  26  27
ATOM     27  C   UNL     1       0.894 -33.723  29.683  1.00  0.00    -0.000 C 
BRANCH  27  28
ATOM     28  C   UNL     1      -0.215 -33.272  28.715  1.00  0.00    -0.000 C 
BRANCH  28  29
ATOM     29  C   UNL     1      -1.587 -33.001  29.362  1.00  0.00    -0.000 C 
BRANCH  29  30
ATOM     30  C   UNL     1      -1.830 -31.510  29.653  1.00  0.00    -0.000 C 
BRANCH  30  31
ATOM     31  C   UNL     1      -3.214 -31.248  30.268  1.00  0.00    -0.003 C 
ATOM     32  C   UNL     1      -4.025 -32.529  30.469  1.00  0.00     0.004 C 
ENDBRANCH  30  31
ENDBRANCH  29  30
ENDBRANCH  28  29
ENDBRANCH  27  28
ENDBRANCH  26  27
ENDBRANCH  25  26
ENDBRANCH  24  25
ENDBRANCH  23  24
ENDBRANCH  22  23
ENDBRANCH  21  22
ENDBRANCH  20  21
ENDBRANCH  19  20
ENDBRANCH  18  19
ENDBRANCH   1  18
TORSDOF 28
ENDMDL
