MODEL 1
REMARK VINA RESULT:    -4.425      0.000      0.000
REMARK INTER + INTRA:          -4.350
REMARK INTER:                  -5.072
REMARK INTRA:                   0.722
REMARK UNBOUND:                 0.722
REMARK SMILES O=C([O-])C=Cc1ccc(O)cc1
REMARK SMILES IDX 6 1 7 2 12 3 8 4 11 5 9 6 5 7 4 8 2 9 1 10 3 11 10 12
REMARK H PARENT 10 13
REMARK Flexibility Score: inf
ROOT
ATOM      1  C   UNL     1      22.613  44.001  27.191  1.00  0.00    -0.025 A 
ATOM      2  C   UNL     1      22.403  44.526  28.475  1.00  0.00     0.012 A 
ATOM      3  C   UNL     1      22.950  44.872  26.140  1.00  0.00     0.012 A 
ATOM      4  C   UNL     1      22.578  45.892  28.717  1.00  0.00     0.047 A 
ATOM      5  C   UNL     1      23.125  46.237  26.383  1.00  0.00     0.047 A 
ATOM      6  C   UNL     1      22.944  46.751  27.672  1.00  0.00     0.115 A 
ENDROOT
BRANCH   1   7
ATOM      7  C   UNL     1      22.370  42.564  26.947  1.00  0.00     0.010 C 
ATOM      8  C   UNL     1      21.945  42.034  25.791  1.00  0.00     0.025 C 
BRANCH   8   9
ATOM      9  C   UNL     1      21.826  42.757  24.510  1.00  0.00     0.064 C 
ATOM     10  O   UNL     1      20.866  43.551  24.339  1.00  0.00    -0.545 OA
ATOM     11  O   UNL     1      22.709  42.525  23.461  1.00  0.00    -0.545 OA
ENDBRANCH   8   9
ENDBRANCH   1   7
BRANCH   6  12
ATOM     12  O   UNL     1      23.123  48.114  27.901  1.00  0.00    -0.508 OA
ATOM     13  H   UNL     1      22.341  48.758  27.891  1.00  0.00     0.293 HD
ENDBRANCH   6  12
TORSDOF 3
ENDMDL
MODEL 2
REMARK VINA RESULT:    -4.374      0.256      1.421
REMARK INTER + INTRA:          -4.291
REMARK INTER:                  -4.909
REMARK INTRA:                   0.618
REMARK UNBOUND:                 0.722
REMARK SMILES O=C([O-])C=Cc1ccc(O)cc1
REMARK SMILES IDX 6 1 7 2 12 3 8 4 11 5 9 6 5 7 4 8 2 9 1 10 3 11 10 12
REMARK H PARENT 10 13
REMARK Flexibility Score: inf
ROOT
ATOM      1  C   UNL     1      22.527  43.917  27.407  1.00  0.00    -0.025 A 
ATOM      2  C   UNL     1      22.929  44.727  26.335  1.00  0.00     0.012 A 
ATOM      3  C   UNL     1      22.372  44.492  28.682  1.00  0.00     0.012 A 
ATOM      4  C   UNL     1      23.122  46.099  26.519  1.00  0.00     0.047 A 
ATOM      5  C   UNL     1      22.566  45.864  28.864  1.00  0.00     0.047 A 
ATOM      6  C   UNL     1      22.937  46.672  27.785  1.00  0.00     0.115 A 
ENDROOT
BRANCH   1   7
ATOM      7  C   UNL     1      22.381  42.461  27.201  1.00  0.00     0.010 C 
ATOM      8  C   UNL     1      21.995  41.873  26.059  1.00  0.00     0.025 C 
BRANCH   8   9
ATOM      9  C   UNL     1      21.830  42.552  24.760  1.00  0.00     0.064 C 
ATOM     10  O   UNL     1      20.792  43.229  24.547  1.00  0.00    -0.545 OA
ATOM     11  O   UNL     1      22.762  42.402  23.739  1.00  0.00    -0.545 OA
ENDBRANCH   8   9
ENDBRANCH   1   7
BRANCH   6  12
ATOM     12  O   UNL     1      23.125  48.039  27.981  1.00  0.00    -0.508 OA
ATOM     13  H   UNL     1      23.794  48.388  28.656  1.00  0.00     0.293 HD
ENDBRANCH   6  12
TORSDOF 3
ENDMDL
MODEL 3
REMARK VINA RESULT:    -4.072      2.509      4.185
REMARK INTER + INTRA:          -3.945
REMARK INTER:                  -4.446
REMARK INTRA:                   0.502
REMARK UNBOUND:                 0.722
REMARK SMILES O=C([O-])C=Cc1ccc(O)cc1
REMARK SMILES IDX 6 1 7 2 12 3 8 4 11 5 9 6 5 7 4 8 2 9 1 10 3 11 10 12
REMARK H PARENT 10 13
REMARK Flexibility Score: inf
ROOT
ATOM      1  C   UNL     1      22.055  42.756  27.514  1.00  0.00    -0.025 A 
ATOM      2  C   UNL     1      21.751  42.886  28.878  1.00  0.00     0.012 A 
ATOM      3  C   UNL     1      21.779  41.541  26.861  1.00  0.00     0.012 A 
ATOM      4  C   UNL     1      21.132  41.838  29.566  1.00  0.00     0.047 A 
ATOM      5  C   UNL     1      21.161  40.495  27.551  1.00  0.00     0.047 A 
ATOM      6  C   UNL     1      20.832  40.640  28.903  1.00  0.00     0.115 A 
ENDROOT
BRANCH   1   7
ATOM      7  C   UNL     1      22.757  43.856  26.820  1.00  0.00     0.010 C 
ATOM      8  C   UNL     1      22.781  44.047  25.493  1.00  0.00     0.025 C 
BRANCH   8   9
ATOM      9  C   UNL     1      21.963  43.314  24.508  1.00  0.00     0.064 C 
ATOM     10  O   UNL     1      20.757  43.636  24.347  1.00  0.00    -0.545 OA
ATOM     11  O   UNL     1      22.472  42.226  23.807  1.00  0.00    -0.545 OA
ENDBRANCH   8   9
ENDBRANCH   1   7
BRANCH   6  12
ATOM     12  O   UNL     1      20.214  39.589  29.578  1.00  0.00    -0.508 OA
ATOM     13  H   UNL     1      19.326  39.714  30.050  1.00  0.00     0.293 HD
ENDBRANCH   6  12
TORSDOF 3
ENDMDL
MODEL 4
REMARK VINA RESULT:    -3.404      1.703      2.411
REMARK INTER + INTRA:          -3.180
REMARK INTER:                  -3.689
REMARK INTRA:                   0.509
REMARK UNBOUND:                 0.722
REMARK SMILES O=C([O-])C=Cc1ccc(O)cc1
REMARK SMILES IDX 6 1 7 2 12 3 8 4 11 5 9 6 5 7 4 8 2 9 1 10 3 11 10 12
REMARK H PARENT 10 13
REMARK Flexibility Score: inf
ROOT
ATOM      1  C   UNL     1      22.383  43.220  27.628  1.00  0.00    -0.025 A 
ATOM      2  C   UNL     1      22.826  44.548  27.535  1.00  0.00     0.012 A 
ATOM      3  C   UNL     1      21.810  42.769  28.831  1.00  0.00     0.012 A 
ATOM      4  C   UNL     1      22.652  45.427  28.609  1.00  0.00     0.047 A 
ATOM      5  C   UNL     1      21.637  43.649  29.902  1.00  0.00     0.047 A 
ATOM      6  C   UNL     1      22.053  44.980  29.794  1.00  0.00     0.115 A 
ENDROOT
BRANCH   1   7
ATOM      7  C   UNL     1      22.626  42.295  26.501  1.00  0.00     0.010 C 
ATOM      8  C   UNL     1      22.291  42.523  25.223  1.00  0.00     0.025 C 
BRANCH   8   9
ATOM      9  C   UNL     1      21.798  43.805  24.683  1.00  0.00     0.064 C 
ATOM     10  O   UNL     1      20.632  43.866  24.213  1.00  0.00    -0.545 OA
ATOM     11  O   UNL     1      22.616  44.927  24.614  1.00  0.00    -0.545 OA
ENDBRANCH   8   9
ENDBRANCH   1   7
BRANCH   6  12
ATOM     12  O   UNL     1      21.873  45.848  30.870  1.00  0.00    -0.508 OA
ATOM     13  H   UNL     1      21.193  45.655  31.595  1.00  0.00     0.293 HD
ENDBRANCH   6  12
TORSDOF 3
ENDMDL
MODEL 5
REMARK VINA RESULT:    -3.361     16.435     17.509
REMARK INTER + INTRA:          -3.130
REMARK INTER:                  -2.990
REMARK INTRA:                  -0.140
REMARK UNBOUND:                 0.722
REMARK SMILES O=C([O-])C=Cc1ccc(O)cc1
REMARK SMILES IDX 6 1 7 2 12 3 8 4 11 5 9 6 5 7 4 8 2 9 1 10 3 11 10 12
REMARK H PARENT 10 13
REMARK Flexibility Score: inf
ROOT
ATOM      1  C   UNL     1      14.835  29.002  21.937  1.00  0.00    -0.025 A 
ATOM      2  C   UNL     1      15.415  27.875  22.540  1.00  0.00     0.012 A 
ATOM      3  C   UNL     1      14.496  30.109  22.735  1.00  0.00     0.012 A 
ATOM      4  C   UNL     1      15.701  27.875  23.908  1.00  0.00     0.047 A 
ATOM      5  C   UNL     1      14.783  30.107  24.102  1.00  0.00     0.047 A 
ATOM      6  C   UNL     1      15.389  28.993  24.692  1.00  0.00     0.115 A 
ENDROOT
BRANCH   1   7
ATOM      7  C   UNL     1      14.493  28.959  20.500  1.00  0.00     0.010 C 
ATOM      8  C   UNL     1      15.265  29.418  19.504  1.00  0.00     0.025 C 
BRANCH   8   9
ATOM      9  C   UNL     1      16.663  29.870  19.643  1.00  0.00     0.064 C 
ATOM     10  O   UNL     1      17.572  29.257  19.026  1.00  0.00    -0.545 OA
ATOM     11  O   UNL     1      17.008  30.910  20.498  1.00  0.00    -0.545 OA
ENDBRANCH   8   9
ENDBRANCH   1   7
BRANCH   6  12
ATOM     12  O   UNL     1      15.671  29.005  26.057  1.00  0.00    -0.508 OA
ATOM     13  H   UNL     1      15.939  28.161  26.549  1.00  0.00     0.293 HD
ENDBRANCH   6  12
TORSDOF 3
ENDMDL
MODEL 6
REMARK VINA RESULT:    -3.331      2.433      3.521
REMARK INTER + INTRA:          -3.095
REMARK INTER:                  -3.489
REMARK INTRA:                   0.394
REMARK UNBOUND:                 0.722
REMARK SMILES O=C([O-])C=Cc1ccc(O)cc1
REMARK SMILES IDX 6 1 7 2 12 3 8 4 11 5 9 6 5 7 4 8 2 9 1 10 3 11 10 12
REMARK H PARENT 10 13
REMARK Flexibility Score: inf
ROOT
ATOM      1  C   UNL     1      22.034  41.841  26.736  1.00  0.00    -0.025 A 
ATOM      2  C   UNL     1      21.248  40.929  27.456  1.00  0.00     0.012 A 
ATOM      3  C   UNL     1      22.454  43.029  27.361  1.00  0.00     0.012 A 
ATOM      4  C   UNL     1      20.931  41.174  28.796  1.00  0.00     0.047 A 
ATOM      5  C   UNL     1      22.136  43.272  28.700  1.00  0.00     0.047 A 
ATOM      6  C   UNL     1      21.378  42.345  29.422  1.00  0.00     0.115 A 
ENDROOT
BRANCH   1   7
ATOM      7  C   UNL     1      22.312  41.589  25.307  1.00  0.00     0.010 C 
ATOM      8  C   UNL     1      22.098  42.458  24.308  1.00  0.00     0.025 C 
BRANCH   8   9
ATOM      9  C   UNL     1      21.730  43.878  24.474  1.00  0.00     0.064 C 
ATOM     10  O   UNL     1      20.566  44.250  24.175  1.00  0.00    -0.545 OA
ATOM     11  O   UNL     1      22.661  44.827  24.882  1.00  0.00    -0.545 OA
ENDBRANCH   8   9
ENDBRANCH   1   7
BRANCH   6  12
ATOM     12  O   UNL     1      21.069  42.599  30.757  1.00  0.00    -0.508 OA
ATOM     13  H   UNL     1      20.268  43.162  31.017  1.00  0.00     0.293 HD
ENDBRANCH   6  12
TORSDOF 3
ENDMDL
MODEL 7
REMARK VINA RESULT:    -3.243      3.094      4.469
REMARK INTER + INTRA:          -2.995
REMARK INTER:                  -4.832
REMARK INTRA:                   1.838
REMARK UNBOUND:                 0.722
REMARK SMILES O=C([O-])C=Cc1ccc(O)cc1
REMARK SMILES IDX 6 1 7 2 12 3 8 4 11 5 9 6 5 7 4 8 2 9 1 10 3 11 10 12
REMARK H PARENT 10 13
REMARK Flexibility Score: inf
ROOT
ATOM      1  C   UNL     1      21.551  41.547  26.667  1.00  0.00    -0.025 A 
ATOM      2  C   UNL     1      20.954  41.810  25.425  1.00  0.00     0.012 A 
ATOM      3  C   UNL     1      22.492  42.456  27.183  1.00  0.00     0.012 A 
ATOM      4  C   UNL     1      21.253  42.988  24.733  1.00  0.00     0.047 A 
ATOM      5  C   UNL     1      22.790  43.632  26.490  1.00  0.00     0.047 A 
ATOM      6  C   UNL     1      22.169  43.904  25.266  1.00  0.00     0.115 A 
ENDROOT
BRANCH   1   7
ATOM      7  C   UNL     1      21.261  40.272  27.355  1.00  0.00     0.010 C 
ATOM      8  C   UNL     1      21.081  40.125  28.676  1.00  0.00     0.025 C 
BRANCH   8   9
ATOM      9  C   UNL     1      20.953  41.227  29.650  1.00  0.00     0.064 C 
ATOM     10  O   UNL     1      21.265  42.395  29.303  1.00  0.00    -0.545 OA
ATOM     11  O   UNL     1      20.565  40.992  30.965  1.00  0.00    -0.545 OA
ENDBRANCH   8   9
ENDBRANCH   1   7
BRANCH   6  12
ATOM     12  O   UNL     1      22.475  45.082  24.587  1.00  0.00    -0.508 OA
ATOM     13  H   UNL     1      23.407  45.477  24.607  1.00  0.00     0.293 HD
ENDBRANCH   6  12
TORSDOF 3
ENDMDL
MODEL 8
REMARK VINA RESULT:    -3.124     16.588     18.269
REMARK INTER + INTRA:          -2.858
REMARK INTER:                  -2.774
REMARK INTRA:                  -0.084
REMARK UNBOUND:                 0.722
REMARK SMILES O=C([O-])C=Cc1ccc(O)cc1
REMARK SMILES IDX 6 1 7 2 12 3 8 4 11 5 9 6 5 7 4 8 2 9 1 10 3 11 10 12
REMARK H PARENT 10 13
REMARK Flexibility Score: inf
ROOT
ATOM      1  C   UNL     1      15.516  28.786  20.263  1.00  0.00    -0.025 A 
ATOM      2  C   UNL     1      16.012  29.991  20.782  1.00  0.00     0.012 A 
ATOM      3  C   UNL     1      14.872  27.879  21.125  1.00  0.00     0.012 A 
ATOM      4  C   UNL     1      15.823  30.310  22.130  1.00  0.00     0.047 A 
ATOM      5  C   UNL     1      14.684  28.200  22.472  1.00  0.00     0.047 A 
ATOM      6  C   UNL     1      15.155  29.417  22.978  1.00  0.00     0.115 A 
ENDROOT
BRANCH   1   7
ATOM      7  C   UNL     1      15.774  28.445  18.848  1.00  0.00     0.010 C 
ATOM      8  C   UNL     1      14.968  28.742  17.818  1.00  0.00     0.025 C 
BRANCH   8   9
ATOM      9  C   UNL     1      13.783  29.618  17.884  1.00  0.00     0.064 C 
ATOM     10  O   UNL     1      12.842  29.323  18.665  1.00  0.00    -0.545 OA
ATOM     11  O   UNL     1      13.649  30.722  17.049  1.00  0.00    -0.545 OA
ENDBRANCH   8   9
ENDBRANCH   1   7
BRANCH   6  12
ATOM     12  O   UNL     1      14.959  29.724  24.323  1.00  0.00    -0.508 OA
ATOM     13  H   UNL     1      14.143  29.397  24.826  1.00  0.00     0.293 HD
ENDBRANCH   6  12
TORSDOF 3
ENDMDL
MODEL 9
REMARK VINA RESULT:    -3.019     16.780     18.268
REMARK INTER + INTRA:          -2.738
REMARK INTER:                  -3.014
REMARK INTRA:                   0.276
REMARK UNBOUND:                 0.722
REMARK SMILES O=C([O-])C=Cc1ccc(O)cc1
REMARK SMILES IDX 6 1 7 2 12 3 8 4 11 5 9 6 5 7 4 8 2 9 1 10 3 11 10 12
REMARK H PARENT 10 13
REMARK Flexibility Score: inf
ROOT
ATOM      1  C   UNL     1      15.622  28.452  21.039  1.00  0.00    -0.025 A 
ATOM      2  C   UNL     1      14.522  27.899  20.365  1.00  0.00     0.012 A 
ATOM      3  C   UNL     1      16.361  29.476  20.420  1.00  0.00     0.012 A 
ATOM      4  C   UNL     1      14.134  28.397  19.118  1.00  0.00     0.047 A 
ATOM      5  C   UNL     1      15.973  29.972  19.173  1.00  0.00     0.047 A 
ATOM      6  C   UNL     1      14.857  29.438  18.520  1.00  0.00     0.115 A 
ENDROOT
BRANCH   1   7
ATOM      7  C   UNL     1      16.045  27.875  22.331  1.00  0.00     0.010 C 
ATOM      8  C   UNL     1      15.889  28.456  23.530  1.00  0.00     0.025 C 
BRANCH   8   9
ATOM      9  C   UNL     1      15.104  29.678  23.793  1.00  0.00     0.064 C 
ATOM     10  O   UNL     1      15.230  30.264  24.899  1.00  0.00    -0.545 OA
ATOM     11  O   UNL     1      14.175  30.156  22.876  1.00  0.00    -0.545 OA
ENDBRANCH   8   9
ENDBRANCH   1   7
BRANCH   6  12
ATOM     12  O   UNL     1      14.479  29.943  17.277  1.00  0.00    -0.508 OA
ATOM     13  H   UNL     1      14.838  29.549  16.415  1.00  0.00     0.293 HD
ENDBRANCH   6  12
TORSDOF 3
ENDMDL
