MODEL 1
REMARK VINA RESULT:    -6.111      0.000      0.000
REMARK INTER + INTRA:          -7.903
REMARK INTER:                  -7.540
REMARK INTRA:                  -0.363
REMARK UNBOUND:                -0.363
REMARK SMILES Oc1cc(O)c2cc(O)c(-c3cc(O)c(O)c(O)c3)[o+]c2c1
REMARK SMILES IDX 10 1 20 2 21 3 22 4 2 5 3 6 4 7 6 8 7 9 8 10 11 11 12 12
REMARK SMILES IDX 13 13 19 14 15 15 17 16 14 17 16 19 18 21 9 23 1 25 5 27
REMARK H PARENT 14 18 16 20 18 22 9 24 1 26 5 28
REMARK Flexibility Score: inf
ROOT
ATOM      1  C   UNL     1     -63.282 -56.234  33.322  1.00  0.00     0.402 A 
ATOM      2  O   UNL     1     -62.171 -56.330  34.049  1.00  0.00    -0.202 OA
ATOM      3  C   UNL     1     -62.127 -56.075  35.353  1.00  0.00     0.368 A 
ATOM      4  C   UNL     1     -60.912 -56.202  36.029  1.00  0.00     0.162 A 
ATOM      5  C   UNL     1     -60.838 -55.937  37.400  1.00  0.00     0.128 A 
ATOM      6  C   UNL     1     -61.982 -55.542  38.096  1.00  0.00     0.093 A 
ATOM      7  C   UNL     1     -63.212 -55.408  37.440  1.00  0.00     0.136 A 
ATOM      8  C   UNL     1     -63.294 -55.679  36.049  1.00  0.00     0.125 A 
ATOM      9  C   UNL     1     -64.487 -55.583  35.313  1.00  0.00     0.078 A 
ATOM     10  C   UNL     1     -64.489 -55.870  33.945  1.00  0.00     0.223 A 
ENDROOT
BRANCH   1  11
ATOM     11  C   UNL     1     -63.199 -56.536  31.875  1.00  0.00     0.091 A 
ATOM     12  C   UNL     1     -63.107 -55.482  30.954  1.00  0.00     0.068 A 
ATOM     13  C   UNL     1     -63.048 -55.739  29.577  1.00  0.00     0.162 A 
ATOM     14  C   UNL     1     -63.268 -57.857  31.398  1.00  0.00     0.068 A 
ATOM     15  C   UNL     1     -63.096 -57.063  29.110  1.00  0.00     0.200 A 
ATOM     16  C   UNL     1     -63.211 -58.120  30.023  1.00  0.00     0.162 A 
BRANCH  13  17
ATOM     17  O   UNL     1     -62.941 -54.684  28.672  1.00  0.00    -0.504 OA
ATOM     18  H   UNL     1     -63.761 -54.214  28.305  1.00  0.00     0.293 HD
ENDBRANCH  13  17
BRANCH  15  19
ATOM     19  O   UNL     1     -63.036 -57.345  27.745  1.00  0.00    -0.502 OA
ATOM     20  H   UNL     1     -62.239 -57.086  27.176  1.00  0.00     0.293 HD
ENDBRANCH  15  19
BRANCH  16  21
ATOM     21  O   UNL     1     -63.272 -59.432  29.554  1.00  0.00    -0.504 OA
ATOM     22  H   UNL     1     -64.151 -59.858  29.285  1.00  0.00     0.293 HD
ENDBRANCH  16  21
ENDBRANCH   1  11
BRANCH  10  23
ATOM     23  O   UNL     1     -65.683 -55.825  33.223  1.00  0.00    -0.500 OA
ATOM     24  H   UNL     1     -66.297 -56.627  33.158  1.00  0.00     0.294 HD
ENDBRANCH  10  23
BRANCH   5  25
ATOM     25  O   UNL     1     -59.629 -56.061  38.082  1.00  0.00    -0.507 OA
ATOM     26  H   UNL     1     -58.883 -56.653  37.735  1.00  0.00     0.293 HD
ENDBRANCH   5  25
BRANCH   7  27
ATOM     27  O   UNL     1     -64.310 -55.006  38.206  1.00  0.00    -0.507 OA
ATOM     28  H   UNL     1     -64.444 -54.072  38.565  1.00  0.00     0.293 HD
ENDBRANCH   7  27
TORSDOF 7
ENDMDL
MODEL 2
REMARK VINA RESULT:    -6.098      0.130      1.793
REMARK INTER + INTRA:          -7.888
REMARK INTER:                  -7.515
REMARK INTRA:                  -0.373
REMARK UNBOUND:                -0.363
REMARK SMILES Oc1cc(O)c2cc(O)c(-c3cc(O)c(O)c(O)c3)[o+]c2c1
REMARK SMILES IDX 10 1 20 2 21 3 22 4 2 5 3 6 4 7 6 8 7 9 8 10 11 11 12 12
REMARK SMILES IDX 13 13 19 14 15 15 17 16 14 17 16 19 18 21 9 23 1 25 5 27
REMARK H PARENT 14 18 16 20 18 22 9 24 1 26 5 28
REMARK Flexibility Score: inf
ROOT
ATOM      1  C   UNL     1     -63.297 -56.116  33.326  1.00  0.00     0.402 A 
ATOM      2  O   UNL     1     -62.178 -56.277  34.028  1.00  0.00    -0.202 OA
ATOM      3  C   UNL     1     -62.093 -56.038  35.332  1.00  0.00     0.368 A 
ATOM      4  C   UNL     1     -60.872 -56.236  35.981  1.00  0.00     0.162 A 
ATOM      5  C   UNL     1     -60.755 -55.989  37.353  1.00  0.00     0.128 A 
ATOM      6  C   UNL     1     -61.862 -55.543  38.077  1.00  0.00     0.093 A 
ATOM      7  C   UNL     1     -63.097 -55.338  37.449  1.00  0.00     0.136 A 
ATOM      8  C   UNL     1     -63.222 -55.589  36.058  1.00  0.00     0.125 A 
ATOM      9  C   UNL     1     -64.424 -55.424  35.349  1.00  0.00     0.078 A 
ATOM     10  C   UNL     1     -64.471 -55.696  33.978  1.00  0.00     0.223 A 
ENDROOT
BRANCH   1  11
ATOM     11  C   UNL     1     -63.262 -56.406  31.875  1.00  0.00     0.091 A 
ATOM     12  C   UNL     1     -63.304 -57.738  31.436  1.00  0.00     0.068 A 
ATOM     13  C   UNL     1     -63.251 -58.041  30.068  1.00  0.00     0.162 A 
ATOM     14  C   UNL     1     -63.131 -55.377  30.926  1.00  0.00     0.068 A 
ATOM     15  C   UNL     1     -63.141 -57.006  29.125  1.00  0.00     0.200 A 
ATOM     16  C   UNL     1     -63.076 -55.674  29.558  1.00  0.00     0.162 A 
BRANCH  13  17
ATOM     17  O   UNL     1     -63.308 -59.368  29.643  1.00  0.00    -0.504 OA
ATOM     18  H   UNL     1     -64.140 -59.932  29.773  1.00  0.00     0.293 HD
ENDBRANCH  13  17
BRANCH  15  19
ATOM     19  O   UNL     1     -63.090 -57.281  27.759  1.00  0.00    -0.502 OA
ATOM     20  H   UNL     1     -63.429 -56.627  27.064  1.00  0.00     0.293 HD
ENDBRANCH  15  19
BRANCH  16  21
ATOM     21  O   UNL     1     -62.952 -54.650  28.619  1.00  0.00    -0.504 OA
ATOM     22  H   UNL     1     -62.057 -54.410  28.211  1.00  0.00     0.293 HD
ENDBRANCH  16  21
ENDBRANCH   1  11
BRANCH  10  23
ATOM     23  O   UNL     1     -65.676 -55.581  33.284  1.00  0.00    -0.500 OA
ATOM     24  H   UNL     1     -66.489 -55.141  33.697  1.00  0.00     0.294 HD
ENDBRANCH  10  23
BRANCH   5  25
ATOM     25  O   UNL     1     -59.540 -56.183  38.006  1.00  0.00    -0.507 OA
ATOM     26  H   UNL     1     -58.997 -55.403  38.358  1.00  0.00     0.293 HD
ENDBRANCH   5  25
BRANCH   7  27
ATOM     27  O   UNL     1     -64.156 -54.888  38.243  1.00  0.00    -0.507 OA
ATOM     28  H   UNL     1     -64.881 -54.261  37.926  1.00  0.00     0.293 HD
ENDBRANCH   7  27
TORSDOF 7
ENDMDL
MODEL 3
REMARK VINA RESULT:    -5.813      5.285     10.414
REMARK INTER + INTRA:          -7.536
REMARK INTER:                  -7.525
REMARK INTRA:                  -0.011
REMARK UNBOUND:                -0.363
REMARK SMILES Oc1cc(O)c2cc(O)c(-c3cc(O)c(O)c(O)c3)[o+]c2c1
REMARK SMILES IDX 10 1 20 2 21 3 22 4 2 5 3 6 4 7 6 8 7 9 8 10 11 11 12 12
REMARK SMILES IDX 13 13 19 14 15 15 17 16 14 17 16 19 18 21 9 23 1 25 5 27
REMARK H PARENT 14 18 16 20 18 22 9 24 1 26 5 28
REMARK Flexibility Score: inf
ROOT
ATOM      1  C   UNL     1     -58.779 -52.484  39.056  1.00  0.00     0.402 A 
ATOM      2  O   UNL     1     -59.387 -53.664  39.146  1.00  0.00    -0.202 OA
ATOM      3  C   UNL     1     -60.058 -54.219  38.142  1.00  0.00     0.368 A 
ATOM      4  C   UNL     1     -60.665 -55.462  38.335  1.00  0.00     0.162 A 
ATOM      5  C   UNL     1     -61.380 -56.067  37.296  1.00  0.00     0.128 A 
ATOM      6  C   UNL     1     -61.489 -55.424  36.062  1.00  0.00     0.093 A 
ATOM      7  C   UNL     1     -60.890 -54.177  35.843  1.00  0.00     0.136 A 
ATOM      8  C   UNL     1     -60.161 -53.561  36.893  1.00  0.00     0.125 A 
ATOM      9  C   UNL     1     -59.517 -52.319  36.760  1.00  0.00     0.078 A 
ATOM     10  C   UNL     1     -58.813 -51.777  37.840  1.00  0.00     0.223 A 
ENDROOT
BRANCH   1  11
ATOM     11  C   UNL     1     -58.071 -51.968  40.249  1.00  0.00     0.091 A 
ATOM     12  C   UNL     1     -56.747 -51.520  40.126  1.00  0.00     0.068 A 
ATOM     13  C   UNL     1     -56.047 -51.045  41.244  1.00  0.00     0.162 A 
ATOM     14  C   UNL     1     -58.679 -51.968  41.517  1.00  0.00     0.068 A 
ATOM     15  C   UNL     1     -56.668 -51.030  42.504  1.00  0.00     0.200 A 
ATOM     16  C   UNL     1     -57.983 -51.496  42.638  1.00  0.00     0.162 A 
BRANCH  13  17
ATOM     17  O   UNL     1     -54.736 -50.590  41.107  1.00  0.00    -0.504 OA
ATOM     18  H   UNL     1     -54.048 -51.104  40.570  1.00  0.00     0.293 HD
ENDBRANCH  13  17
BRANCH  15  19
ATOM     19  O   UNL     1     -55.994 -50.559  43.631  1.00  0.00    -0.502 OA
ATOM     20  H   UNL     1     -56.205 -49.662  44.050  1.00  0.00     0.293 HD
ENDBRANCH  15  19
BRANCH  16  21
ATOM     21  O   UNL     1     -58.590 -51.492  43.893  1.00  0.00    -0.504 OA
ATOM     22  H   UNL     1     -58.503 -50.702  44.522  1.00  0.00     0.293 HD
ENDBRANCH  16  21
ENDBRANCH   1  11
BRANCH  10  23
ATOM     23  O   UNL     1     -58.131 -50.569  37.693  1.00  0.00    -0.500 OA
ATOM     24  H   UNL     1     -57.800 -50.249  36.791  1.00  0.00     0.294 HD
ENDBRANCH  10  23
BRANCH   5  25
ATOM     25  O   UNL     1     -61.987 -57.306  37.482  1.00  0.00    -0.507 OA
ATOM     26  H   UNL     1     -61.677 -58.130  36.979  1.00  0.00     0.293 HD
ENDBRANCH   5  25
BRANCH   7  27
ATOM     27  O   UNL     1     -61.048 -53.600  34.580  1.00  0.00    -0.507 OA
ATOM     28  H   UNL     1     -61.872 -53.098  34.281  1.00  0.00     0.293 HD
ENDBRANCH   7  27
TORSDOF 7
ENDMDL
MODEL 4
REMARK VINA RESULT:    -5.792      5.300     10.481
REMARK INTER + INTRA:          -7.510
REMARK INTER:                  -7.513
REMARK INTRA:                   0.003
REMARK UNBOUND:                -0.363
REMARK SMILES Oc1cc(O)c2cc(O)c(-c3cc(O)c(O)c(O)c3)[o+]c2c1
REMARK SMILES IDX 10 1 20 2 21 3 22 4 2 5 3 6 4 7 6 8 7 9 8 10 11 11 12 12
REMARK SMILES IDX 13 13 19 14 15 15 17 16 14 17 16 19 18 21 9 23 1 25 5 27
REMARK H PARENT 14 18 16 20 18 22 9 24 1 26 5 28
REMARK Flexibility Score: inf
ROOT
ATOM      1  C   UNL     1     -58.717 -52.504  39.041  1.00  0.00     0.402 A 
ATOM      2  O   UNL     1     -59.347 -53.673  39.131  1.00  0.00    -0.202 OA
ATOM      3  C   UNL     1     -60.033 -54.212  38.130  1.00  0.00     0.368 A 
ATOM      4  C   UNL     1     -60.663 -55.444  38.324  1.00  0.00     0.162 A 
ATOM      5  C   UNL     1     -61.394 -56.033  37.287  1.00  0.00     0.128 A 
ATOM      6  C   UNL     1     -61.497 -55.386  36.054  1.00  0.00     0.093 A 
ATOM      7  C   UNL     1     -60.875 -54.151  35.835  1.00  0.00     0.136 A 
ATOM      8  C   UNL     1     -60.129 -53.550  36.883  1.00  0.00     0.125 A 
ATOM      9  C   UNL     1     -59.462 -52.321  36.749  1.00  0.00     0.078 A 
ATOM     10  C   UNL     1     -58.742 -51.795  37.826  1.00  0.00     0.223 A 
ENDROOT
BRANCH   1  11
ATOM     11  C   UNL     1     -57.993 -52.004  40.231  1.00  0.00     0.091 A 
ATOM     12  C   UNL     1     -58.640 -51.986  41.475  1.00  0.00     0.068 A 
ATOM     13  C   UNL     1     -57.984 -51.499  42.615  1.00  0.00     0.162 A 
ATOM     14  C   UNL     1     -56.687 -51.494  40.132  1.00  0.00     0.068 A 
ATOM     15  C   UNL     1     -56.672 -51.010  42.512  1.00  0.00     0.200 A 
ATOM     16  C   UNL     1     -56.027 -51.004  41.267  1.00  0.00     0.162 A 
BRANCH  13  17
ATOM     17  O   UNL     1     -58.633 -51.500  43.850  1.00  0.00    -0.504 OA
ATOM     18  H   UNL     1     -59.196 -52.286  44.154  1.00  0.00     0.293 HD
ENDBRANCH  13  17
BRANCH  15  19
ATOM     19  O   UNL     1     -55.997 -50.523  43.631  1.00  0.00    -0.502 OA
ATOM     20  H   UNL     1     -55.499 -51.134  44.268  1.00  0.00     0.293 HD
ENDBRANCH  15  19
BRANCH  16  21
ATOM     21  O   UNL     1     -54.729 -50.505  41.166  1.00  0.00    -0.504 OA
ATOM     22  H   UNL     1     -53.920 -51.093  41.329  1.00  0.00     0.293 HD
ENDBRANCH  16  21
ENDBRANCH   1  11
BRANCH  10  23
ATOM     23  O   UNL     1     -58.038 -50.599  37.678  1.00  0.00    -0.500 OA
ATOM     24  H   UNL     1     -58.038 -50.085  36.806  1.00  0.00     0.294 HD
ENDBRANCH  10  23
BRANCH   5  25
ATOM     25  O   UNL     1     -62.025 -57.261  37.473  1.00  0.00    -0.507 OA
ATOM     26  H   UNL     1     -61.525 -58.064  37.837  1.00  0.00     0.293 HD
ENDBRANCH   5  25
BRANCH   7  27
ATOM     27  O   UNL     1     -61.028 -53.568  34.574  1.00  0.00    -0.507 OA
ATOM     28  H   UNL     1     -61.414 -54.041  33.770  1.00  0.00     0.293 HD
ENDBRANCH   7  27
TORSDOF 7
ENDMDL
MODEL 5
REMARK VINA RESULT:    -5.661      5.508     10.593
REMARK INTER + INTRA:          -7.348
REMARK INTER:                  -7.227
REMARK INTRA:                  -0.121
REMARK UNBOUND:                -0.363
REMARK SMILES Oc1cc(O)c2cc(O)c(-c3cc(O)c(O)c(O)c3)[o+]c2c1
REMARK SMILES IDX 10 1 20 2 21 3 22 4 2 5 3 6 4 7 6 8 7 9 8 10 11 11 12 12
REMARK SMILES IDX 13 13 19 14 15 15 17 16 14 17 16 19 18 21 9 23 1 25 5 27
REMARK H PARENT 14 18 16 20 18 22 9 24 1 26 5 28
REMARK Flexibility Score: inf
ROOT
ATOM      1  C   UNL     1     -58.811 -52.578  39.123  1.00  0.00     0.402 A 
ATOM      2  O   UNL     1     -58.976 -51.794  38.060  1.00  0.00    -0.202 OA
ATOM      3  C   UNL     1     -59.587 -52.188  36.948  1.00  0.00     0.368 A 
ATOM      4  C   UNL     1     -59.709 -51.291  35.885  1.00  0.00     0.162 A 
ATOM      5  C   UNL     1     -60.346 -51.681  34.702  1.00  0.00     0.128 A 
ATOM      6  C   UNL     1     -60.861 -52.973  34.584  1.00  0.00     0.093 A 
ATOM      7  C   UNL     1     -60.753 -53.891  35.636  1.00  0.00     0.136 A 
ATOM      8  C   UNL     1     -60.110 -53.499  36.839  1.00  0.00     0.125 A 
ATOM      9  C   UNL     1     -59.967 -54.348  37.950  1.00  0.00     0.078 A 
ATOM     10  C   UNL     1     -59.324 -53.888  39.104  1.00  0.00     0.223 A 
ENDROOT
BRANCH   1  11
ATOM     11  C   UNL     1     -58.103 -52.025  40.299  1.00  0.00     0.091 A 
ATOM     12  C   UNL     1     -56.790 -51.552  40.155  1.00  0.00     0.068 A 
ATOM     13  C   UNL     1     -56.090 -51.041  41.257  1.00  0.00     0.162 A 
ATOM     14  C   UNL     1     -58.699 -52.013  41.572  1.00  0.00     0.068 A 
ATOM     15  C   UNL     1     -56.700 -51.014  42.522  1.00  0.00     0.200 A 
ATOM     16  C   UNL     1     -58.003 -51.505  42.678  1.00  0.00     0.162 A 
BRANCH  13  17
ATOM     17  O   UNL     1     -54.790 -50.561  41.099  1.00  0.00    -0.504 OA
ATOM     18  H   UNL     1     -54.238 -50.785  40.279  1.00  0.00     0.293 HD
ENDBRANCH  13  17
BRANCH  15  19
ATOM     19  O   UNL     1     -56.025 -50.509  43.633  1.00  0.00    -0.502 OA
ATOM     20  H   UNL     1     -55.771 -49.531  43.711  1.00  0.00     0.293 HD
ENDBRANCH  15  19
BRANCH  16  21
ATOM     21  O   UNL     1     -58.600 -51.489  43.938  1.00  0.00    -0.504 OA
ATOM     22  H   UNL     1     -59.579 -51.714  44.065  1.00  0.00     0.293 HD
ENDBRANCH  16  21
ENDBRANCH   1  11
BRANCH  10  23
ATOM     23  O   UNL     1     -59.226 -54.713  40.225  1.00  0.00    -0.500 OA
ATOM     24  H   UNL     1     -58.479 -55.389  40.325  1.00  0.00     0.294 HD
ENDBRANCH  10  23
BRANCH   5  25
ATOM     25  O   UNL     1     -60.470 -50.792  33.637  1.00  0.00    -0.507 OA
ATOM     26  H   UNL     1     -60.544 -51.118  32.680  1.00  0.00     0.293 HD
ENDBRANCH   5  25
BRANCH   7  27
ATOM     27  O   UNL     1     -61.292 -55.165  35.438  1.00  0.00    -0.507 OA
ATOM     28  H   UNL     1     -61.349 -55.878  36.150  1.00  0.00     0.293 HD
ENDBRANCH   7  27
TORSDOF 7
ENDMDL
MODEL 6
REMARK VINA RESULT:    -5.620      5.549     10.674
REMARK INTER + INTRA:          -7.297
REMARK INTER:                  -7.180
REMARK INTRA:                  -0.117
REMARK UNBOUND:                -0.363
REMARK SMILES Oc1cc(O)c2cc(O)c(-c3cc(O)c(O)c(O)c3)[o+]c2c1
REMARK SMILES IDX 10 1 20 2 21 3 22 4 2 5 3 6 4 7 6 8 7 9 8 10 11 11 12 12
REMARK SMILES IDX 13 13 19 14 15 15 17 16 14 17 16 19 18 21 9 23 1 25 5 27
REMARK H PARENT 14 18 16 20 18 22 9 24 1 26 5 28
REMARK Flexibility Score: inf
ROOT
ATOM      1  C   UNL     1     -58.746 -52.577  39.139  1.00  0.00     0.402 A 
ATOM      2  O   UNL     1     -58.890 -51.795  38.072  1.00  0.00    -0.202 OA
ATOM      3  C   UNL     1     -59.526 -52.174  36.968  1.00  0.00     0.368 A 
ATOM      4  C   UNL     1     -59.622 -51.281  35.898  1.00  0.00     0.162 A 
ATOM      5  C   UNL     1     -60.283 -51.655  34.725  1.00  0.00     0.128 A 
ATOM      6  C   UNL     1     -60.849 -52.928  34.620  1.00  0.00     0.093 A 
ATOM      7  C   UNL     1     -60.766 -53.841  35.679  1.00  0.00     0.136 A 
ATOM      8  C   UNL     1     -60.098 -53.465  36.873  1.00  0.00     0.125 A 
ATOM      9  C   UNL     1     -59.978 -54.310  37.989  1.00  0.00     0.078 A 
ATOM     10  C   UNL     1     -59.309 -53.867  39.134  1.00  0.00     0.223 A 
ENDROOT
BRANCH   1  11
ATOM     11  C   UNL     1     -58.007 -52.043  40.304  1.00  0.00     0.091 A 
ATOM     12  C   UNL     1     -58.645 -51.969  41.551  1.00  0.00     0.068 A 
ATOM     13  C   UNL     1     -57.975 -51.448  42.668  1.00  0.00     0.162 A 
ATOM     14  C   UNL     1     -56.695 -51.554  40.177  1.00  0.00     0.068 A 
ATOM     15  C   UNL     1     -56.657 -50.981  42.537  1.00  0.00     0.200 A 
ATOM     16  C   UNL     1     -56.021 -51.031  41.289  1.00  0.00     0.162 A 
BRANCH  13  17
ATOM     17  O   UNL     1     -58.615 -51.394  43.905  1.00  0.00    -0.504 OA
ATOM     18  H   UNL     1     -59.593 -51.638  44.009  1.00  0.00     0.293 HD
ENDBRANCH  13  17
BRANCH  15  19
ATOM     19  O   UNL     1     -55.967 -50.462  43.632  1.00  0.00    -0.502 OA
ATOM     20  H   UNL     1     -55.401 -49.624  43.565  1.00  0.00     0.293 HD
ENDBRANCH  15  19
BRANCH  16  21
ATOM     21  O   UNL     1     -54.717 -50.553  41.161  1.00  0.00    -0.504 OA
ATOM     22  H   UNL     1     -54.360 -50.217  40.274  1.00  0.00     0.293 HD
ENDBRANCH  16  21
ENDBRANCH   1  11
BRANCH  10  23
ATOM     23  O   UNL     1     -59.233 -54.686  40.261  1.00  0.00    -0.500 OA
ATOM     24  H   UNL     1     -59.944 -55.378  40.466  1.00  0.00     0.294 HD
ENDBRANCH  10  23
BRANCH   5  25
ATOM     25  O   UNL     1     -60.383 -50.770  33.654  1.00  0.00    -0.507 OA
ATOM     26  H   UNL     1     -59.567 -50.482  33.127  1.00  0.00     0.293 HD
ENDBRANCH   5  25
BRANCH   7  27
ATOM     27  O   UNL     1     -61.356 -55.095  35.495  1.00  0.00    -0.507 OA
ATOM     28  H   UNL     1     -62.330 -55.240  35.274  1.00  0.00     0.293 HD
ENDBRANCH   7  27
TORSDOF 7
ENDMDL
MODEL 7
REMARK VINA RESULT:    -5.376      7.078     11.292
REMARK INTER + INTRA:          -6.996
REMARK INTER:                  -6.616
REMARK INTRA:                  -0.380
REMARK UNBOUND:                -0.363
REMARK SMILES Oc1cc(O)c2cc(O)c(-c3cc(O)c(O)c(O)c3)[o+]c2c1
REMARK SMILES IDX 10 1 20 2 21 3 22 4 2 5 3 6 4 7 6 8 7 9 8 10 11 11 12 12
REMARK SMILES IDX 13 13 19 14 15 15 17 16 14 17 16 19 18 21 9 23 1 25 5 27
REMARK H PARENT 14 18 16 20 18 22 9 24 1 26 5 28
REMARK Flexibility Score: inf
ROOT
ATOM      1  C   UNL     1     -58.462 -51.778  41.312  1.00  0.00     0.402 A 
ATOM      2  O   UNL     1     -58.645 -52.741  40.412  1.00  0.00    -0.202 OA
ATOM      3  C   UNL     1     -59.709 -53.537  40.399  1.00  0.00     0.368 A 
ATOM      4  C   UNL     1     -59.809 -54.522  39.414  1.00  0.00     0.162 A 
ATOM      5  C   UNL     1     -60.917 -55.374  39.379  1.00  0.00     0.128 A 
ATOM      6  C   UNL     1     -61.927 -55.241  40.333  1.00  0.00     0.093 A 
ATOM      7  C   UNL     1     -61.851 -54.261  41.330  1.00  0.00     0.136 A 
ATOM      8  C   UNL     1     -60.729 -53.392  41.369  1.00  0.00     0.125 A 
ATOM      9  C   UNL     1     -60.575 -52.373  42.324  1.00  0.00     0.078 A 
ATOM     10  C   UNL     1     -59.443 -51.552  42.295  1.00  0.00     0.223 A 
ENDROOT
BRANCH   1  11
ATOM     11  C   UNL     1     -57.229 -50.964  41.227  1.00  0.00     0.091 A 
ATOM     12  C   UNL     1     -57.158 -49.912  40.303  1.00  0.00     0.068 A 
ATOM     13  C   UNL     1     -55.994 -49.138  40.188  1.00  0.00     0.162 A 
ATOM     14  C   UNL     1     -56.103 -51.259  42.016  1.00  0.00     0.068 A 
ATOM     15  C   UNL     1     -54.881 -49.426  40.994  1.00  0.00     0.200 A 
ATOM     16  C   UNL     1     -54.936 -50.490  41.904  1.00  0.00     0.162 A 
BRANCH  13  17
ATOM     17  O   UNL     1     -55.941 -48.085  39.275  1.00  0.00    -0.504 OA
ATOM     18  H   UNL     1     -55.059 -47.689  38.971  1.00  0.00     0.293 HD
ENDBRANCH  13  17
BRANCH  15  19
ATOM     19  O   UNL     1     -53.713 -48.669  40.901  1.00  0.00    -0.502 OA
ATOM     20  H   UNL     1     -53.334 -48.163  41.692  1.00  0.00     0.293 HD
ENDBRANCH  15  19
BRANCH  16  21
ATOM     21  O   UNL     1     -53.823 -50.781  42.692  1.00  0.00    -0.504 OA
ATOM     22  H   UNL     1     -53.915 -51.239  43.591  1.00  0.00     0.293 HD
ENDBRANCH  16  21
ENDBRANCH   1  11
BRANCH  10  23
ATOM     23  O   UNL     1     -59.313 -50.508  43.211  1.00  0.00    -0.500 OA
ATOM     24  H   UNL     1     -58.712 -50.583  44.023  1.00  0.00     0.294 HD
ENDBRANCH  10  23
BRANCH   5  25
ATOM     25  O   UNL     1     -61.023 -56.359  38.399  1.00  0.00    -0.507 OA
ATOM     26  H   UNL     1     -61.431 -56.164  37.493  1.00  0.00     0.293 HD
ENDBRANCH   5  25
BRANCH   7  27
ATOM     27  O   UNL     1     -62.902 -54.194  42.249  1.00  0.00    -0.507 OA
ATOM     28  H   UNL     1     -62.982 -54.780  43.068  1.00  0.00     0.293 HD
ENDBRANCH   7  27
TORSDOF 7
ENDMDL
MODEL 8
REMARK VINA RESULT:    -5.351      7.013     11.703
REMARK INTER + INTRA:          -6.965
REMARK INTER:                  -7.019
REMARK INTRA:                   0.053
REMARK UNBOUND:                -0.363
REMARK SMILES Oc1cc(O)c2cc(O)c(-c3cc(O)c(O)c(O)c3)[o+]c2c1
REMARK SMILES IDX 10 1 20 2 21 3 22 4 2 5 3 6 4 7 6 8 7 9 8 10 11 11 12 12
REMARK SMILES IDX 13 13 19 14 15 15 17 16 14 17 16 19 18 21 9 23 1 25 5 27
REMARK H PARENT 14 18 16 20 18 22 9 24 1 26 5 28
REMARK Flexibility Score: inf
ROOT
ATOM      1  C   UNL     1     -57.452 -50.480  38.817  1.00  0.00     0.402 A 
ATOM      2  O   UNL     1     -58.201 -51.503  38.413  1.00  0.00    -0.202 OA
ATOM      3  C   UNL     1     -58.729 -51.586  37.196  1.00  0.00     0.368 A 
ATOM      4  C   UNL     1     -59.505 -52.700  36.867  1.00  0.00     0.162 A 
ATOM      5  C   UNL     1     -60.075 -52.811  35.594  1.00  0.00     0.128 A 
ATOM      6  C   UNL     1     -59.868 -51.804  34.649  1.00  0.00     0.093 A 
ATOM      7  C   UNL     1     -59.093 -50.678  34.955  1.00  0.00     0.136 A 
ATOM      8  C   UNL     1     -58.511 -50.562  36.244  1.00  0.00     0.125 A 
ATOM      9  C   UNL     1     -57.710 -49.475  36.634  1.00  0.00     0.078 A 
ATOM     10  C   UNL     1     -57.166 -49.433  37.922  1.00  0.00     0.223 A 
ENDROOT
BRANCH   1  11
ATOM     11  C   UNL     1     -56.929 -50.499  40.201  1.00  0.00     0.091 A 
ATOM     12  C   UNL     1     -55.583 -50.183  40.436  1.00  0.00     0.068 A 
ATOM     13  C   UNL     1     -55.057 -50.213  41.735  1.00  0.00     0.162 A 
ATOM     14  C   UNL     1     -57.740 -50.881  41.284  1.00  0.00     0.068 A 
ATOM     15  C   UNL     1     -55.880 -50.576  42.814  1.00  0.00     0.200 A 
ATOM     16  C   UNL     1     -57.220 -50.914  42.585  1.00  0.00     0.162 A 
BRANCH  13  17
ATOM     17  O   UNL     1     -53.721 -49.882  41.957  1.00  0.00    -0.504 OA
ATOM     18  H   UNL     1     -53.002 -50.087  41.272  1.00  0.00     0.293 HD
ENDBRANCH  13  17
BRANCH  15  19
ATOM     19  O   UNL     1     -55.382 -50.610  44.117  1.00  0.00    -0.502 OA
ATOM     20  H   UNL     1     -54.828 -49.854  44.502  1.00  0.00     0.293 HD
ENDBRANCH  15  19
BRANCH  16  21
ATOM     21  O   UNL     1     -58.029 -51.288  43.658  1.00  0.00    -0.504 OA
ATOM     22  H   UNL     1     -57.688 -51.894  44.394  1.00  0.00     0.293 HD
ENDBRANCH  16  21
ENDBRANCH   1  11
BRANCH  10  23
ATOM     23  O   UNL     1     -56.330 -48.380  38.293  1.00  0.00    -0.500 OA
ATOM     24  H   UNL     1     -55.570 -48.509  38.950  1.00  0.00     0.294 HD
ENDBRANCH  10  23
BRANCH   5  25
ATOM     25  O   UNL     1     -60.850 -53.918  35.259  1.00  0.00    -0.507 OA
ATOM     26  H   UNL     1     -60.428 -54.794  34.972  1.00  0.00     0.293 HD
ENDBRANCH   5  25
BRANCH   7  27
ATOM     27  O   UNL     1     -58.936 -49.714  33.955  1.00  0.00    -0.507 OA
ATOM     28  H   UNL     1     -58.619 -48.769  34.118  1.00  0.00     0.293 HD
ENDBRANCH   7  27
TORSDOF 7
ENDMDL
MODEL 9
REMARK VINA RESULT:    -5.282      6.657      9.701
REMARK INTER + INTRA:          -6.880
REMARK INTER:                  -6.579
REMARK INTRA:                  -0.301
REMARK UNBOUND:                -0.363
REMARK SMILES Oc1cc(O)c2cc(O)c(-c3cc(O)c(O)c(O)c3)[o+]c2c1
REMARK SMILES IDX 10 1 20 2 21 3 22 4 2 5 3 6 4 7 6 8 7 9 8 10 11 11 12 12
REMARK SMILES IDX 13 13 19 14 15 15 17 16 14 17 16 19 18 21 9 23 1 25 5 27
REMARK H PARENT 14 18 16 20 18 22 9 24 1 26 5 28
REMARK Flexibility Score: inf
ROOT
ATOM      1  C   UNL     1     -59.012 -52.478  39.921  1.00  0.00     0.402 A 
ATOM      2  O   UNL     1     -58.363 -52.376  41.079  1.00  0.00    -0.202 OA
ATOM      3  C   UNL     1     -57.473 -51.423  41.336  1.00  0.00     0.368 A 
ATOM      4  C   UNL     1     -56.842 -51.400  42.582  1.00  0.00     0.162 A 
ATOM      5  C   UNL     1     -55.899 -50.410  42.877  1.00  0.00     0.128 A 
ATOM      6  C   UNL     1     -55.587 -49.440  41.922  1.00  0.00     0.093 A 
ATOM      7  C   UNL     1     -56.207 -49.441  40.666  1.00  0.00     0.136 A 
ATOM      8  C   UNL     1     -57.166 -50.442  40.363  1.00  0.00     0.125 A 
ATOM      9  C   UNL     1     -57.846 -50.512  39.135  1.00  0.00     0.078 A 
ATOM     10  C   UNL     1     -58.782 -51.527  38.911  1.00  0.00     0.223 A 
ENDROOT
BRANCH   1  11
ATOM     11  C   UNL     1     -59.972 -53.591  39.753  1.00  0.00     0.091 A 
ATOM     12  C   UNL     1     -61.140 -53.619  40.530  1.00  0.00     0.068 A 
ATOM     13  C   UNL     1     -62.057 -54.672  40.404  1.00  0.00     0.162 A 
ATOM     14  C   UNL     1     -59.713 -54.654  38.870  1.00  0.00     0.068 A 
ATOM     15  C   UNL     1     -61.801 -55.720  39.505  1.00  0.00     0.200 A 
ATOM     16  C   UNL     1     -60.625 -55.711  38.742  1.00  0.00     0.162 A 
BRANCH  13  17
ATOM     17  O   UNL     1     -63.222 -54.681  41.171  1.00  0.00    -0.504 OA
ATOM     18  H   UNL     1     -63.637 -55.546  41.498  1.00  0.00     0.293 HD
ENDBRANCH  13  17
BRANCH  15  19
ATOM     19  O   UNL     1     -62.698 -56.777  39.360  1.00  0.00    -0.502 OA
ATOM     20  H   UNL     1     -63.159 -56.976  38.480  1.00  0.00     0.293 HD
ENDBRANCH  15  19
BRANCH  16  21
ATOM     21  O   UNL     1     -60.367 -56.760  37.861  1.00  0.00    -0.504 OA
ATOM     22  H   UNL     1     -59.689 -57.481  38.077  1.00  0.00     0.293 HD
ENDBRANCH  16  21
ENDBRANCH   1  11
BRANCH  10  23
ATOM     23  O   UNL     1     -59.494 -51.568  37.712  1.00  0.00    -0.500 OA
ATOM     24  H   UNL     1     -60.505 -51.633  37.694  1.00  0.00     0.294 HD
ENDBRANCH  10  23
BRANCH   5  25
ATOM     25  O   UNL     1     -55.265 -50.382  44.117  1.00  0.00    -0.507 OA
ATOM     26  H   UNL     1     -55.714 -50.746  44.950  1.00  0.00     0.293 HD
ENDBRANCH   5  25
BRANCH   7  27
ATOM     27  O   UNL     1     -55.838 -48.437  39.766  1.00  0.00    -0.507 OA
ATOM     28  H   UNL     1     -55.497 -47.526  40.036  1.00  0.00     0.293 HD
ENDBRANCH   7  27
TORSDOF 7
ENDMDL
