MODEL 1
REMARK VINA RESULT:    -3.662      0.000      0.000
REMARK INTER + INTRA:          -9.156
REMARK INTER:                  -6.873
REMARK INTRA:                  -2.282
REMARK UNBOUND:                -2.282
REMARK SMILES CCCCCCCCC=CCCCCCCCC(=O)[O-]
REMARK SMILES IDX 10 1 9 2 11 3 12 4 13 5 14 6 15 7 16 8 17 9 18 10 19 11
REMARK SMILES IDX 20 12 8 13 7 14 6 15 5 16 4 17 3 18 2 19 1 20
REMARK H PARENT
REMARK Flexibility Score: inf
ROOT
ATOM      1  C   UNL     1      57.613  29.261  52.014  1.00  0.00    -0.031 C 
ATOM      2  C   UNL     1      56.544  29.270  51.204  1.00  0.00    -0.031 C 
ENDROOT
BRANCH   1   3
ATOM      3  C   UNL     1      59.014  29.313  51.470  1.00  0.00     0.027 C 
BRANCH   3   4
ATOM      4  C   UNL     1      59.031  29.092  49.952  1.00  0.00     0.004 C 
BRANCH   4   5
ATOM      5  C   UNL     1      59.845  27.844  49.587  1.00  0.00     0.000 C 
BRANCH   5   6
ATOM      6  C   UNL     1      60.223  26.993  50.814  1.00  0.00     0.000 C 
BRANCH   6   7
ATOM      7  C   UNL     1      61.427  26.055  50.612  1.00  0.00     0.000 C 
BRANCH   7   8
ATOM      8  C   UNL     1      61.298  24.738  51.396  1.00  0.00     0.006 C 
BRANCH   8   9
ATOM      9  C   UNL     1      60.482  23.687  50.633  1.00  0.00     0.053 C 
BRANCH   9  10
ATOM     10  C   UNL     1      61.344  22.576  50.116  1.00  0.00     0.041 C 
ATOM     11  O   UNL     1      61.032  21.973  49.055  1.00  0.00    -0.550 OA
ATOM     12  O   UNL     1      62.475  22.187  50.822  1.00  0.00    -0.550 OA
ENDBRANCH   9  10
ENDBRANCH   8   9
ENDBRANCH   7   8
ENDBRANCH   6   7
ENDBRANCH   5   6
ENDBRANCH   4   5
ENDBRANCH   3   4
ENDBRANCH   1   3
BRANCH   2  13
ATOM     13  C   UNL     1      55.151  29.232  51.770  1.00  0.00     0.027 C 
BRANCH  13  14
ATOM     14  C   UNL     1      54.099  29.367  50.660  1.00  0.00     0.004 C 
BRANCH  14  15
ATOM     15  C   UNL     1      53.449  28.024  50.280  1.00  0.00     0.000 C 
BRANCH  15  16
ATOM     16  C   UNL     1      53.476  26.946  51.379  1.00  0.00     0.000 C 
BRANCH  16  17
ATOM     17  C   UNL     1      54.216  25.668  50.948  1.00  0.00    -0.000 C 
BRANCH  17  18
ATOM     18  C   UNL     1      55.260  25.924  49.847  1.00  0.00    -0.000 C 
BRANCH  18  19
ATOM     19  C   UNL     1      56.719  25.998  50.335  1.00  0.00    -0.003 C 
ATOM     20  C   UNL     1      56.880  25.616  51.805  1.00  0.00     0.004 C 
ENDBRANCH  18  19
ENDBRANCH  17  18
ENDBRANCH  16  17
ENDBRANCH  15  16
ENDBRANCH  14  15
ENDBRANCH  13  14
ENDBRANCH   2  13
TORSDOF 15
ENDMDL
MODEL 2
REMARK VINA RESULT:    -3.474     11.252     13.580
REMARK INTER + INTRA:          -8.803
REMARK INTER:                  -6.623
REMARK INTRA:                  -2.180
REMARK UNBOUND:                -2.282
REMARK SMILES CCCCCCCCC=CCCCCCCCC(=O)[O-]
REMARK SMILES IDX 10 1 9 2 11 3 12 4 13 5 14 6 15 7 16 8 17 9 18 10 19 11
REMARK SMILES IDX 20 12 8 13 7 14 6 15 5 16 4 17 3 18 2 19 1 20
REMARK H PARENT
REMARK Flexibility Score: inf
ROOT
ATOM      1  C   UNL     1      61.175  29.604  61.025  1.00  0.00    -0.031 C 
ATOM      2  C   UNL     1      60.509  28.609  60.421  1.00  0.00    -0.031 C 
ENDROOT
BRANCH   1   3
ATOM      3  C   UNL     1      60.797  31.045  60.817  1.00  0.00     0.027 C 
BRANCH   3   4
ATOM      4  C   UNL     1      60.968  31.460  59.351  1.00  0.00     0.004 C 
BRANCH   4   5
ATOM      5  C   UNL     1      61.046  32.987  59.216  1.00  0.00     0.000 C 
BRANCH   5   6
ATOM      6  C   UNL     1      61.696  33.665  60.437  1.00  0.00     0.000 C 
BRANCH   6   7
ATOM      7  C   UNL     1      61.481  35.186  60.529  1.00  0.00     0.000 C 
BRANCH   7   8
ATOM      8  C   UNL     1      62.696  35.928  61.111  1.00  0.00     0.006 C 
BRANCH   8   9
ATOM      9  C   UNL     1      63.922  35.016  61.247  1.00  0.00     0.053 C 
BRANCH   9  10
ATOM     10  C   UNL     1      65.111  35.564  60.518  1.00  0.00     0.041 C 
ATOM     11  O   UNL     1      65.126  35.590  59.260  1.00  0.00    -0.550 OA
ATOM     12  O   UNL     1      66.215  36.016  61.230  1.00  0.00    -0.550 OA
ENDBRANCH   9  10
ENDBRANCH   8   9
ENDBRANCH   7   8
ENDBRANCH   6   7
ENDBRANCH   5   6
ENDBRANCH   4   5
ENDBRANCH   3   4
ENDBRANCH   1   3
BRANCH   2  13
ATOM     13  C   UNL     1      60.896  27.174  60.654  1.00  0.00     0.027 C 
BRANCH  13  14
ATOM     14  C   UNL     1      62.267  27.075  61.337  1.00  0.00     0.004 C 
BRANCH  14  15
ATOM     15  C   UNL     1      63.343  26.441  60.438  1.00  0.00     0.000 C 
BRANCH  15  16
ATOM     16  C   UNL     1      64.438  27.404  59.944  1.00  0.00     0.000 C 
BRANCH  16  17
ATOM     17  C   UNL     1      64.578  28.657  60.826  1.00  0.00    -0.000 C 
BRANCH  17  18
ATOM     18  C   UNL     1      65.261  29.829  60.098  1.00  0.00    -0.000 C 
BRANCH  18  19
ATOM     19  C   UNL     1      64.548  31.186  60.234  1.00  0.00    -0.003 C 
ATOM     20  C   UNL     1      64.713  32.077  59.004  1.00  0.00     0.004 C 
ENDBRANCH  18  19
ENDBRANCH  17  18
ENDBRANCH  16  17
ENDBRANCH  15  16
ENDBRANCH  14  15
ENDBRANCH  13  14
ENDBRANCH   2  13
TORSDOF 15
ENDMDL
MODEL 3
REMARK VINA RESULT:    -3.447      1.616      3.273
REMARK INTER + INTRA:          -8.752
REMARK INTER:                  -6.538
REMARK INTRA:                  -2.215
REMARK UNBOUND:                -2.282
REMARK SMILES CCCCCCCCC=CCCCCCCCC(=O)[O-]
REMARK SMILES IDX 10 1 9 2 11 3 12 4 13 5 14 6 15 7 16 8 17 9 18 10 19 11
REMARK SMILES IDX 20 12 8 13 7 14 6 15 5 16 4 17 3 18 2 19 1 20
REMARK H PARENT
REMARK Flexibility Score: inf
ROOT
ATOM      1  C   UNL     1      60.643  28.209  50.433  1.00  0.00    -0.031 C 
ATOM      2  C   UNL     1      59.608  28.466  49.620  1.00  0.00    -0.031 C 
ENDROOT
BRANCH   1   3
ATOM      3  C   UNL     1      61.752  27.278  50.027  1.00  0.00     0.027 C 
BRANCH   3   4
ATOM      4  C   UNL     1      62.182  26.382  51.195  1.00  0.00     0.004 C 
BRANCH   4   5
ATOM      5  C   UNL     1      62.149  24.901  50.794  1.00  0.00     0.000 C 
BRANCH   5   6
ATOM      6  C   UNL     1      62.116  23.951  52.006  1.00  0.00     0.000 C 
BRANCH   6   7
ATOM      7  C   UNL     1      61.401  22.610  51.764  1.00  0.00     0.000 C 
BRANCH   7   8
ATOM      8  C   UNL     1      60.733  22.528  50.381  1.00  0.00     0.006 C 
BRANCH   8   9
ATOM      9  C   UNL     1      61.238  21.332  49.563  1.00  0.00     0.053 C 
BRANCH   9  10
ATOM     10  C   UNL     1      60.788  20.026  50.145  1.00  0.00     0.041 C 
ATOM     11  O   UNL     1      61.611  19.279  50.737  1.00  0.00    -0.550 OA
ATOM     12  O   UNL     1      59.466  19.622  50.007  1.00  0.00    -0.550 OA
ENDBRANCH   9  10
ENDBRANCH   8   9
ENDBRANCH   7   8
ENDBRANCH   6   7
ENDBRANCH   5   6
ENDBRANCH   4   5
ENDBRANCH   3   4
ENDBRANCH   1   3
BRANCH   2  13
ATOM     13  C   UNL     1      58.516  29.412  50.041  1.00  0.00     0.027 C 
BRANCH  13  14
ATOM     14  C   UNL     1      57.681  28.818  51.184  1.00  0.00     0.004 C 
BRANCH  14  15
ATOM     15  C   UNL     1      56.176  28.765  50.865  1.00  0.00     0.000 C 
BRANCH  15  16
ATOM     16  C   UNL     1      55.560  27.354  50.826  1.00  0.00     0.000 C 
BRANCH  16  17
ATOM     17  C   UNL     1      56.581  26.264  50.453  1.00  0.00    -0.000 C 
BRANCH  17  18
ATOM     18  C   UNL     1      57.027  25.423  51.662  1.00  0.00    -0.000 C 
BRANCH  18  19
ATOM     19  C   UNL     1      58.548  25.235  51.801  1.00  0.00    -0.003 C 
ATOM     20  C   UNL     1      59.120  25.879  53.062  1.00  0.00     0.004 C 
ENDBRANCH  18  19
ENDBRANCH  17  18
ENDBRANCH  16  17
ENDBRANCH  15  16
ENDBRANCH  14  15
ENDBRANCH  13  14
ENDBRANCH   2  13
TORSDOF 15
ENDMDL
MODEL 4
REMARK VINA RESULT:    -3.442      2.277      4.644
REMARK INTER + INTRA:          -8.744
REMARK INTER:                  -7.038
REMARK INTRA:                  -1.706
REMARK UNBOUND:                -2.282
REMARK SMILES CCCCCCCCC=CCCCCCCCC(=O)[O-]
REMARK SMILES IDX 10 1 9 2 11 3 12 4 13 5 14 6 15 7 16 8 17 9 18 10 19 11
REMARK SMILES IDX 20 12 8 13 7 14 6 15 5 16 4 17 3 18 2 19 1 20
REMARK H PARENT
REMARK Flexibility Score: inf
ROOT
ATOM      1  C   UNL     1      60.673  26.391  51.644  1.00  0.00    -0.031 C 
ATOM      2  C   UNL     1      60.218  26.538  50.391  1.00  0.00    -0.031 C 
ENDROOT
BRANCH   1   3
ATOM      3  C   UNL     1      60.441  25.126  52.424  1.00  0.00     0.027 C 
BRANCH   3   4
ATOM      4  C   UNL     1      59.456  24.200  51.700  1.00  0.00     0.004 C 
BRANCH   4   5
ATOM      5  C   UNL     1      60.102  22.841  51.396  1.00  0.00     0.000 C 
BRANCH   5   6
ATOM      6  C   UNL     1      60.996  22.868  50.142  1.00  0.00     0.000 C 
BRANCH   6   7
ATOM      7  C   UNL     1      61.054  21.547  49.354  1.00  0.00     0.000 C 
BRANCH   7   8
ATOM      8  C   UNL     1      60.922  20.307  50.253  1.00  0.00     0.006 C 
BRANCH   8   9
ATOM      9  C   UNL     1      59.634  19.521  49.973  1.00  0.00     0.053 C 
BRANCH   9  10
ATOM     10  C   UNL     1      59.852  18.041  50.050  1.00  0.00     0.041 C 
ATOM     11  O   UNL     1      60.424  17.536  51.053  1.00  0.00    -0.550 OA
ATOM     12  O   UNL     1      59.452  17.223  49.001  1.00  0.00    -0.550 OA
ENDBRANCH   9  10
ENDBRANCH   8   9
ENDBRANCH   7   8
ENDBRANCH   6   7
ENDBRANCH   5   6
ENDBRANCH   4   5
ENDBRANCH   3   4
ENDBRANCH   1   3
BRANCH   2  13
ATOM     13  C   UNL     1      60.474  27.806  49.624  1.00  0.00     0.027 C 
BRANCH  13  14
ATOM     14  C   UNL     1      59.235  28.713  49.626  1.00  0.00     0.004 C 
BRANCH  14  15
ATOM     15  C   UNL     1      59.129  29.584  50.891  1.00  0.00     0.000 C 
BRANCH  15  16
ATOM     16  C   UNL     1      57.960  29.237  51.832  1.00  0.00     0.000 C 
BRANCH  16  17
ATOM     17  C   UNL     1      56.747  28.651  51.090  1.00  0.00    -0.000 C 
BRANCH  17  18
ATOM     18  C   UNL     1      56.458  27.189  51.476  1.00  0.00    -0.000 C 
BRANCH  18  19
ATOM     19  C   UNL     1      56.362  26.209  50.293  1.00  0.00    -0.003 C 
ATOM     20  C   UNL     1      54.922  25.911  49.876  1.00  0.00     0.004 C 
ENDBRANCH  18  19
ENDBRANCH  17  18
ENDBRANCH  16  17
ENDBRANCH  15  16
ENDBRANCH  14  15
ENDBRANCH  13  14
ENDBRANCH   2  13
TORSDOF 15
ENDMDL
MODEL 5
REMARK VINA RESULT:    -3.441     10.942     13.268
REMARK INTER + INTRA:          -8.740
REMARK INTER:                  -6.035
REMARK INTRA:                  -2.705
REMARK UNBOUND:                -2.282
REMARK SMILES CCCCCCCCC=CCCCCCCCC(=O)[O-]
REMARK SMILES IDX 10 1 9 2 11 3 12 4 13 5 14 6 15 7 16 8 17 9 18 10 19 11
REMARK SMILES IDX 20 12 8 13 7 14 6 15 5 16 4 17 3 18 2 19 1 20
REMARK H PARENT
REMARK Flexibility Score: inf
ROOT
ATOM      1  C   UNL     1      64.209  34.436  59.943  1.00  0.00    -0.031 C 
ATOM      2  C   UNL     1      63.540  33.284  60.094  1.00  0.00    -0.031 C 
ENDROOT
BRANCH   1   3
ATOM      3  C   UNL     1      64.874  35.120  61.105  1.00  0.00     0.027 C 
BRANCH   3   4
ATOM      4  C   UNL     1      63.959  36.185  61.722  1.00  0.00     0.004 C 
BRANCH   4   5
ATOM      5  C   UNL     1      63.025  36.787  60.663  1.00  0.00     0.000 C 
BRANCH   5   6
ATOM      6  C   UNL     1      61.541  36.743  61.075  1.00  0.00     0.000 C 
BRANCH   6   7
ATOM      7  C   UNL     1      60.695  35.678  60.356  1.00  0.00     0.000 C 
BRANCH   7   8
ATOM      8  C   UNL     1      60.145  36.162  59.004  1.00  0.00     0.006 C 
BRANCH   8   9
ATOM      9  C   UNL     1      60.816  35.456  57.818  1.00  0.00     0.053 C 
BRANCH   9  10
ATOM     10  C   UNL     1      59.824  34.713  56.976  1.00  0.00     0.041 C 
ATOM     11  O   UNL     1      59.795  34.888  55.729  1.00  0.00    -0.550 OA
ATOM     12  O   UNL     1      58.913  33.851  57.572  1.00  0.00    -0.550 OA
ENDBRANCH   9  10
ENDBRANCH   8   9
ENDBRANCH   7   8
ENDBRANCH   6   7
ENDBRANCH   5   6
ENDBRANCH   4   5
ENDBRANCH   3   4
ENDBRANCH   1   3
BRANCH   2  13
ATOM     13  C   UNL     1      62.895  32.610  58.914  1.00  0.00     0.027 C 
BRANCH  13  14
ATOM     14  C   UNL     1      61.501  32.077  59.276  1.00  0.00     0.004 C 
BRANCH  14  15
ATOM     15  C   UNL     1      61.231  32.077  60.791  1.00  0.00     0.000 C 
BRANCH  15  16
ATOM     16  C   UNL     1      60.715  30.745  61.367  1.00  0.00     0.000 C 
BRANCH  16  17
ATOM     17  C   UNL     1      61.674  29.569  61.113  1.00  0.00    -0.000 C 
BRANCH  17  18
ATOM     18  C   UNL     1      63.125  29.882  61.518  1.00  0.00    -0.000 C 
BRANCH  18  19
ATOM     19  C   UNL     1      64.198  29.407  60.521  1.00  0.00    -0.003 C 
ATOM     20  C   UNL     1      63.616  28.954  59.183  1.00  0.00     0.004 C 
ENDBRANCH  18  19
ENDBRANCH  17  18
ENDBRANCH  16  17
ENDBRANCH  15  16
ENDBRANCH  14  15
ENDBRANCH  13  14
ENDBRANCH   2  13
TORSDOF 15
ENDMDL
MODEL 6
REMARK VINA RESULT:    -3.397      2.986      5.800
REMARK INTER + INTRA:          -8.658
REMARK INTER:                  -7.118
REMARK INTRA:                  -1.540
REMARK UNBOUND:                -2.282
REMARK SMILES CCCCCCCCC=CCCCCCCCC(=O)[O-]
REMARK SMILES IDX 10 1 9 2 11 3 12 4 13 5 14 6 15 7 16 8 17 9 18 10 19 11
REMARK SMILES IDX 20 12 8 13 7 14 6 15 5 16 4 17 3 18 2 19 1 20
REMARK H PARENT
REMARK Flexibility Score: inf
ROOT
ATOM      1  C   UNL     1      62.171  25.103  51.100  1.00  0.00    -0.031 C 
ATOM      2  C   UNL     1      61.389  25.896  50.353  1.00  0.00    -0.031 C 
ENDROOT
BRANCH   1   3
ATOM      3  C   UNL     1      61.898  23.631  51.238  1.00  0.00     0.027 C 
BRANCH   3   4
ATOM      4  C   UNL     1      61.039  23.113  50.078  1.00  0.00     0.004 C 
BRANCH   4   5
ATOM      5  C   UNL     1      61.451  21.689  49.681  1.00  0.00     0.000 C 
BRANCH   5   6
ATOM      6  C   UNL     1      60.306  20.669  49.828  1.00  0.00     0.000 C 
BRANCH   6   7
ATOM      7  C   UNL     1      60.718  19.306  50.411  1.00  0.00     0.000 C 
BRANCH   7   8
ATOM      8  C   UNL     1      59.773  18.166  49.993  1.00  0.00     0.006 C 
BRANCH   8   9
ATOM      9  C   UNL     1      58.888  17.692  51.152  1.00  0.00     0.053 C 
BRANCH   9  10
ATOM     10  C   UNL     1      57.653  18.529  51.293  1.00  0.00     0.041 C 
ATOM     11  O   UNL     1      56.657  18.318  50.552  1.00  0.00    -0.550 OA
ATOM     12  O   UNL     1      57.615  19.562  52.222  1.00  0.00    -0.550 OA
ENDBRANCH   9  10
ENDBRANCH   8   9
ENDBRANCH   7   8
ENDBRANCH   6   7
ENDBRANCH   5   6
ENDBRANCH   4   5
ENDBRANCH   3   4
ENDBRANCH   1   3
BRANCH   2  13
ATOM     13  C   UNL     1      61.689  27.364  50.218  1.00  0.00     0.027 C 
BRANCH  13  14
ATOM     14  C   UNL     1      60.897  28.187  51.244  1.00  0.00     0.004 C 
BRANCH  14  15
ATOM     15  C   UNL     1      60.099  29.338  50.607  1.00  0.00     0.000 C 
BRANCH  15  16
ATOM     16  C   UNL     1      58.774  28.928  49.937  1.00  0.00     0.000 C 
BRANCH  16  17
ATOM     17  C   UNL     1      57.632  28.715  50.946  1.00  0.00    -0.000 C 
BRANCH  17  18
ATOM     18  C   UNL     1      56.818  27.440  50.668  1.00  0.00    -0.000 C 
BRANCH  18  19
ATOM     19  C   UNL     1      57.651  26.154  50.514  1.00  0.00    -0.003 C 
ATOM     20  C   UNL     1      58.072  25.548  51.852  1.00  0.00     0.004 C 
ENDBRANCH  18  19
ENDBRANCH  17  18
ENDBRANCH  16  17
ENDBRANCH  15  16
ENDBRANCH  14  15
ENDBRANCH  13  14
ENDBRANCH   2  13
TORSDOF 15
ENDMDL
MODEL 7
REMARK VINA RESULT:    -3.387      2.376      2.835
REMARK INTER + INTRA:          -8.639
REMARK INTER:                  -6.369
REMARK INTRA:                  -2.269
REMARK UNBOUND:                -2.282
REMARK SMILES CCCCCCCCC=CCCCCCCCC(=O)[O-]
REMARK SMILES IDX 10 1 9 2 11 3 12 4 13 5 14 6 15 7 16 8 17 9 18 10 19 11
REMARK SMILES IDX 20 12 8 13 7 14 6 15 5 16 4 17 3 18 2 19 1 20
REMARK H PARENT
REMARK Flexibility Score: inf
ROOT
ATOM      1  C   UNL     1      57.663  29.146  52.024  1.00  0.00    -0.031 C 
ATOM      2  C   UNL     1      56.603  29.323  51.222  1.00  0.00    -0.031 C 
ENDROOT
BRANCH   1   3
ATOM      3  C   UNL     1      59.069  29.208  51.496  1.00  0.00     0.027 C 
BRANCH   3   4
ATOM      4  C   UNL     1      59.100  29.038  49.972  1.00  0.00     0.004 C 
BRANCH   4   5
ATOM      5  C   UNL     1      59.741  27.699  49.581  1.00  0.00     0.000 C 
BRANCH   5   6
ATOM      6  C   UNL     1      59.967  26.767  50.785  1.00  0.00     0.000 C 
BRANCH   6   7
ATOM      7  C   UNL     1      61.269  25.947  50.740  1.00  0.00     0.000 C 
BRANCH   7   8
ATOM      8  C   UNL     1      62.455  26.669  51.400  1.00  0.00     0.006 C 
BRANCH   8   9
ATOM      9  C   UNL     1      63.625  26.872  50.428  1.00  0.00     0.053 C 
BRANCH   9  10
ATOM     10  C   UNL     1      63.497  28.151  49.658  1.00  0.00     0.041 C 
ATOM     11  O   UNL     1      63.974  28.241  48.496  1.00  0.00    -0.550 OA
ATOM     12  O   UNL     1      62.879  29.253  50.236  1.00  0.00    -0.550 OA
ENDBRANCH   9  10
ENDBRANCH   8   9
ENDBRANCH   7   8
ENDBRANCH   6   7
ENDBRANCH   5   6
ENDBRANCH   4   5
ENDBRANCH   3   4
ENDBRANCH   1   3
BRANCH   2  13
ATOM     13  C   UNL     1      55.204  29.271  51.774  1.00  0.00     0.027 C 
BRANCH  13  14
ATOM     14  C   UNL     1      54.165  29.527  50.673  1.00  0.00     0.004 C 
BRANCH  14  15
ATOM     15  C   UNL     1      53.377  28.263  50.283  1.00  0.00     0.000 C 
BRANCH  15  16
ATOM     16  C   UNL     1      53.342  27.154  51.352  1.00  0.00     0.000 C 
BRANCH  16  17
ATOM     17  C   UNL     1      53.867  25.804  50.832  1.00  0.00    -0.000 C 
BRANCH  17  18
ATOM     18  C   UNL     1      55.017  25.959  49.822  1.00  0.00    -0.000 C 
BRANCH  18  19
ATOM     19  C   UNL     1      56.429  25.978  50.436  1.00  0.00    -0.003 C 
ATOM     20  C   UNL     1      56.436  25.663  51.931  1.00  0.00     0.004 C 
ENDBRANCH  18  19
ENDBRANCH  17  18
ENDBRANCH  16  17
ENDBRANCH  15  16
ENDBRANCH  14  15
ENDBRANCH  13  14
ENDBRANCH   2  13
TORSDOF 15
ENDMDL
MODEL 8
REMARK VINA RESULT:    -3.319     10.092     12.080
REMARK INTER + INTRA:          -8.512
REMARK INTER:                  -5.657
REMARK INTRA:                  -2.855
REMARK UNBOUND:                -2.282
REMARK SMILES CCCCCCCCC=CCCCCCCCC(=O)[O-]
REMARK SMILES IDX 10 1 9 2 11 3 12 4 13 5 14 6 15 7 16 8 17 9 18 10 19 11
REMARK SMILES IDX 20 12 8 13 7 14 6 15 5 16 4 17 3 18 2 19 1 20
REMARK H PARENT
REMARK Flexibility Score: inf
ROOT
ATOM      1  C   UNL     1      63.862  28.308  60.510  1.00  0.00    -0.031 C 
ATOM      2  C   UNL     1      64.097  29.002  59.387  1.00  0.00    -0.031 C 
ENDROOT
BRANCH   1   3
ATOM      3  C   UNL     1      63.745  26.809  60.501  1.00  0.00     0.027 C 
BRANCH   3   4
ATOM      4  C   UNL     1      62.277  26.365  60.481  1.00  0.00     0.004 C 
BRANCH   4   5
ATOM      5  C   UNL     1      61.737  26.186  61.906  1.00  0.00     0.000 C 
BRANCH   5   6
ATOM      6  C   UNL     1      60.252  25.781  61.940  1.00  0.00     0.000 C 
BRANCH   6   7
ATOM      7  C   UNL     1      59.596  25.592  60.560  1.00  0.00     0.000 C 
BRANCH   7   8
ATOM      8  C   UNL     1      58.071  25.782  60.591  1.00  0.00     0.006 C 
BRANCH   8   9
ATOM      9  C   UNL     1      57.664  27.103  61.259  1.00  0.00     0.053 C 
BRANCH   9  10
ATOM     10  C   UNL     1      56.244  27.075  61.736  1.00  0.00     0.041 C 
ATOM     11  O   UNL     1      55.787  28.029  62.419  1.00  0.00    -0.550 OA
ATOM     12  O   UNL     1      55.436  25.981  61.452  1.00  0.00    -0.550 OA
ENDBRANCH   9  10
ENDBRANCH   8   9
ENDBRANCH   7   8
ENDBRANCH   6   7
ENDBRANCH   5   6
ENDBRANCH   4   5
ENDBRANCH   3   4
ENDBRANCH   1   3
BRANCH   2  13
ATOM     13  C   UNL     1      64.224  30.500  59.421  1.00  0.00     0.027 C 
BRANCH  13  14
ATOM     14  C   UNL     1      63.709  31.068  60.751  1.00  0.00     0.004 C 
BRANCH  14  15
ATOM     15  C   UNL     1      62.753  32.261  60.566  1.00  0.00     0.000 C 
BRANCH  15  16
ATOM     16  C   UNL     1      61.254  31.927  60.683  1.00  0.00     0.000 C 
BRANCH  16  17
ATOM     17  C   UNL     1      60.985  30.657  61.509  1.00  0.00    -0.000 C 
BRANCH  17  18
ATOM     18  C   UNL     1      60.365  29.521  60.675  1.00  0.00    -0.000 C 
BRANCH  18  19
ATOM     19  C   UNL     1      60.315  29.778  59.158  1.00  0.00    -0.003 C 
ATOM     20  C   UNL     1      60.305  28.494  58.332  1.00  0.00     0.004 C 
ENDBRANCH  18  19
ENDBRANCH  17  18
ENDBRANCH  16  17
ENDBRANCH  15  16
ENDBRANCH  14  15
ENDBRANCH  13  14
ENDBRANCH   2  13
TORSDOF 15
ENDMDL
MODEL 9
REMARK VINA RESULT:    -3.314      2.400      3.539
REMARK INTER + INTRA:          -8.502
REMARK INTER:                  -5.767
REMARK INTRA:                  -2.735
REMARK UNBOUND:                -2.282
REMARK SMILES CCCCCCCCC=CCCCCCCCC(=O)[O-]
REMARK SMILES IDX 10 1 9 2 11 3 12 4 13 5 14 6 15 7 16 8 17 9 18 10 19 11
REMARK SMILES IDX 20 12 8 13 7 14 6 15 5 16 4 17 3 18 2 19 1 20
REMARK H PARENT
REMARK Flexibility Score: inf
ROOT
ATOM      1  C   UNL     1      54.722  29.692  52.569  1.00  0.00    -0.031 C 
ATOM      2  C   UNL     1      54.497  29.646  51.248  1.00  0.00    -0.031 C 
ENDROOT
BRANCH   1   3
ATOM      3  C   UNL     1      56.021  30.204  53.130  1.00  0.00     0.027 C 
BRANCH   3   4
ATOM      4  C   UNL     1      57.122  29.140  53.044  1.00  0.00     0.004 C 
BRANCH   4   5
ATOM      5  C   UNL     1      58.240  29.582  52.089  1.00  0.00     0.000 C 
BRANCH   5   6
ATOM      6  C   UNL     1      58.022  29.097  50.644  1.00  0.00     0.000 C 
BRANCH   6   7
ATOM      7  C   UNL     1      59.299  28.994  49.791  1.00  0.00     0.000 C 
BRANCH   7   8
ATOM      8  C   UNL     1      59.806  27.549  49.644  1.00  0.00     0.006 C 
BRANCH   8   9
ATOM      9  C   UNL     1      61.178  27.346  50.299  1.00  0.00     0.053 C 
BRANCH   9  10
ATOM     10  C   UNL     1      61.068  27.142  51.779  1.00  0.00     0.041 C 
ATOM     11  O   UNL     1      61.982  27.547  52.544  1.00  0.00    -0.550 OA
ATOM     12  O   UNL     1      59.970  26.475  52.309  1.00  0.00    -0.550 OA
ENDBRANCH   9  10
ENDBRANCH   8   9
ENDBRANCH   7   8
ENDBRANCH   6   7
ENDBRANCH   5   6
ENDBRANCH   4   5
ENDBRANCH   3   4
ENDBRANCH   1   3
BRANCH   2  13
ATOM     13  C   UNL     1      53.185  29.143  50.710  1.00  0.00     0.027 C 
BRANCH  13  14
ATOM     14  C   UNL     1      53.311  27.697  50.210  1.00  0.00     0.004 C 
BRANCH  14  15
ATOM     15  C   UNL     1      54.769  27.268  49.969  1.00  0.00     0.000 C 
BRANCH  15  16
ATOM     16  C   UNL     1      55.155  25.894  50.550  1.00  0.00     0.000 C 
BRANCH  16  17
ATOM     17  C   UNL     1      56.533  25.899  51.235  1.00  0.00    -0.000 C 
BRANCH  17  18
ATOM     18  C   UNL     1      56.465  25.501  52.720  1.00  0.00    -0.000 C 
BRANCH  18  19
ATOM     19  C   UNL     1      55.043  25.351  53.291  1.00  0.00    -0.003 C 
ATOM     20  C   UNL     1      54.662  26.474  54.255  1.00  0.00     0.004 C 
ENDBRANCH  18  19
ENDBRANCH  17  18
ENDBRANCH  16  17
ENDBRANCH  15  16
ENDBRANCH  14  15
ENDBRANCH  13  14
ENDBRANCH   2  13
TORSDOF 15
ENDMDL
