MODEL 1
REMARK VINA RESULT:    -6.393      0.000      0.000
REMARK INTER + INTRA:         -10.460
REMARK INTER:                  -8.448
REMARK INTRA:                  -2.011
REMARK UNBOUND:                -2.011
REMARK SMILES CC[C@H](C=C[C@@H](C)[C@@H]1CC[C@@H]2C3=CC[C@H]4C[C@@H](O)CC[C@@]4(C)[C@H]3CC[C@]21C)C(C)C
REMARK SMILES IDX 6 1 7 2 5 3 4 4 3 5 2 6 1 7 28 8 29 9 30 10 8 11 9 12 26 13
REMARK SMILES IDX 10 14 11 15 25 16 27 17 12 18 24 19 23 20 13 21 21 22 14 23
REMARK SMILES IDX 15 24 20 25 22 26 16 27 19 28 17 29 18 30
REMARK H PARENT 18 31
REMARK Flexibility Score: inf
ROOT
ATOM      1  C   UNL     1      13.653 -14.432  28.396  1.00  0.00     0.012 C 
ATOM      2  C   UNL     1      12.259 -15.020  28.672  1.00  0.00     0.012 C 
ENDROOT
BRANCH   1   3
ATOM      3  C   UNL     1      13.522 -12.919  28.359  1.00  0.00    -0.028 C 
ATOM      4  C   UNL     1      13.158 -12.175  27.297  1.00  0.00    -0.027 C 
BRANCH   4   5
ATOM      5  C   UNL     1      12.885 -12.713  25.902  1.00  0.00     0.014 C 
BRANCH   5   6
ATOM      6  C   UNL     1      11.375 -12.498  25.591  1.00  0.00     0.004 C 
ATOM      7  C   UNL     1      11.098 -11.454  24.511  1.00  0.00     0.004 C 
ENDBRANCH   5   6
BRANCH   5   8
ATOM      8  C   UNL     1      13.883 -12.053  24.890  1.00  0.00    -0.011 C 
ATOM      9  C   UNL     1      14.558 -13.070  23.951  1.00  0.00     0.008 C 
ATOM     10  C   UNL     1      14.924 -11.134  25.559  1.00  0.00     0.008 C 
ENDBRANCH   5   8
ENDBRANCH   4   5
ENDBRANCH   1   3
BRANCH   1  11
ATOM     11  C   UNL     1      14.264 -15.065  27.086  1.00  0.00     0.002 C 
ATOM     12  C   UNL     1      13.572 -16.367  26.615  1.00  0.00     0.005 C 
ATOM     13  C   UNL     1      15.786 -15.408  26.991  1.00  0.00    -0.023 C 
ATOM     14  C   UNL     1      14.607 -17.120  25.751  1.00  0.00     0.009 C 
ATOM     15  C   UNL     1      15.795 -16.153  25.635  1.00  0.00     0.021 C 
ATOM     16  C   UNL     1      16.717 -14.159  26.904  1.00  0.00     0.008 C 
ATOM     17  C   UNL     1      16.245 -16.373  28.152  1.00  0.00     0.012 C 
ATOM     18  C   UNL     1      17.180 -16.683  25.309  1.00  0.00    -0.067 C 
ATOM     19  C   UNL     1      17.910 -14.331  25.927  1.00  0.00     0.009 C 
ATOM     20  C   UNL     1      18.374 -15.817  25.735  1.00  0.00     0.021 C 
ATOM     21  C   UNL     1      17.365 -17.852  24.680  1.00  0.00    -0.027 C 
ATOM     22  C   UNL     1      19.712 -16.006  24.866  1.00  0.00    -0.023 C 
ATOM     23  C   UNL     1      18.748 -18.375  24.473  1.00  0.00     0.031 C 
ATOM     24  C   UNL     1      19.656 -17.270  23.915  1.00  0.00     0.002 C 
ATOM     25  C   UNL     1      20.074 -14.726  24.009  1.00  0.00     0.010 C 
ATOM     26  C   UNL     1      20.879 -16.206  25.879  1.00  0.00     0.012 C 
ATOM     27  C   UNL     1      19.251 -16.898  22.468  1.00  0.00     0.036 C 
ATOM     28  C   UNL     1      21.002 -15.033  22.828  1.00  0.00     0.032 C 
ATOM     29  C   UNL     1      20.305 -15.968  21.811  1.00  0.00     0.114 C 
BRANCH  29  30
ATOM     30  O   UNL     1      19.733 -15.232  20.761  1.00  0.00    -0.393 OA
ATOM     31  H   UNL     1      18.746 -15.361  20.778  1.00  0.00     0.210 HD
ENDBRANCH  29  30
ENDBRANCH   1  11
TORSDOF 6
ENDMDL
MODEL 2
REMARK VINA RESULT:    -6.000      3.094      7.947
REMARK INTER + INTRA:          -9.941
REMARK INTER:                  -8.429
REMARK INTRA:                  -1.512
REMARK UNBOUND:                -2.011
REMARK SMILES CC[C@H](C=C[C@@H](C)[C@@H]1CC[C@@H]2C3=CC[C@H]4C[C@@H](O)CC[C@@]4(C)[C@H]3CC[C@]21C)C(C)C
REMARK SMILES IDX 6 1 7 2 5 3 4 4 3 5 2 6 1 7 28 8 29 9 30 10 8 11 9 12 26 13
REMARK SMILES IDX 10 14 11 15 25 16 27 17 12 18 24 19 23 20 13 21 21 22 14 23
REMARK SMILES IDX 15 24 20 25 22 26 16 27 19 28 17 29 18 30
REMARK H PARENT 18 31
REMARK Flexibility Score: inf
ROOT
ATOM      1  C   UNL     1      17.795 -19.241  24.601  1.00  0.00     0.012 C 
ATOM      2  C   UNL     1      19.308 -19.350  24.857  1.00  0.00     0.012 C 
ENDROOT
BRANCH   1   3
ATOM      3  C   UNL     1      17.470 -20.065  23.367  1.00  0.00    -0.028 C 
ATOM      4  C   UNL     1      16.680 -21.154  23.322  1.00  0.00    -0.027 C 
BRANCH   4   5
ATOM      5  C   UNL     1      16.024 -21.813  24.524  1.00  0.00     0.014 C 
BRANCH   5   6
ATOM      6  C   UNL     1      14.485 -21.822  24.287  1.00  0.00     0.004 C 
ATOM      7  C   UNL     1      13.684 -21.041  25.327  1.00  0.00     0.004 C 
ENDBRANCH   5   6
BRANCH   5   8
ATOM      8  C   UNL     1      16.677 -23.217  24.764  1.00  0.00    -0.011 C 
ATOM      9  C   UNL     1      15.821 -24.145  25.645  1.00  0.00     0.008 C 
ATOM     10  C   UNL     1      18.129 -23.142  25.279  1.00  0.00     0.008 C 
ENDBRANCH   5   8
ENDBRANCH   4   5
ENDBRANCH   1   3
BRANCH   1  11
ATOM     11  C   UNL     1      17.365 -17.726  24.505  1.00  0.00     0.002 C 
ATOM     12  C   UNL     1      18.539 -16.717  24.545  1.00  0.00     0.005 C 
ATOM     13  C   UNL     1      16.330 -17.117  25.506  1.00  0.00    -0.023 C 
ATOM     14  C   UNL     1      17.942 -15.377  25.027  1.00  0.00     0.009 C 
ATOM     15  C   UNL     1      16.429 -15.627  25.100  1.00  0.00     0.021 C 
ATOM     16  C   UNL     1      14.867 -17.617  25.293  1.00  0.00     0.008 C 
ATOM     17  C   UNL     1      16.778 -17.309  27.006  1.00  0.00     0.012 C 
ATOM     18  C   UNL     1      15.554 -14.758  25.985  1.00  0.00    -0.067 C 
ATOM     19  C   UNL     1      13.792 -16.513  25.475  1.00  0.00     0.009 C 
ATOM     20  C   UNL     1      14.218 -15.357  26.446  1.00  0.00     0.021 C 
ATOM     21  C   UNL     1      15.921 -13.523  26.356  1.00  0.00    -0.027 C 
ATOM     22  C   UNL     1      13.062 -14.294  26.786  1.00  0.00    -0.023 C 
ATOM     23  C   UNL     1      15.072 -12.749  27.308  1.00  0.00     0.031 C 
ATOM     24  C   UNL     1      13.600 -12.808  26.876  1.00  0.00     0.002 C 
ATOM     25  C   UNL     1      11.855 -14.349  25.764  1.00  0.00     0.010 C 
ATOM     26  C   UNL     1      12.484 -14.691  28.177  1.00  0.00     0.012 C 
ATOM     27  C   UNL     1      13.376 -12.022  25.561  1.00  0.00     0.036 C 
ATOM     28  C   UNL     1      11.020 -13.064  25.746  1.00  0.00     0.032 C 
ATOM     29  C   UNL     1      11.864 -11.867  25.249  1.00  0.00     0.114 C 
BRANCH  29  30
ATOM     30  O   UNL     1      11.660 -11.643  23.878  1.00  0.00    -0.393 OA
ATOM     31  H   UNL     1      11.505 -10.671  23.730  1.00  0.00     0.210 HD
ENDBRANCH  29  30
ENDBRANCH   1  11
TORSDOF 6
ENDMDL
MODEL 3
REMARK VINA RESULT:    -5.844     10.831     13.718
REMARK INTER + INTRA:          -9.734
REMARK INTER:                  -8.347
REMARK INTRA:                  -1.388
REMARK UNBOUND:                -2.011
REMARK SMILES CC[C@H](C=C[C@@H](C)[C@@H]1CC[C@@H]2C3=CC[C@H]4C[C@@H](O)CC[C@@]4(C)[C@H]3CC[C@]21C)C(C)C
REMARK SMILES IDX 6 1 7 2 5 3 4 4 3 5 2 6 1 7 28 8 29 9 30 10 8 11 9 12 26 13
REMARK SMILES IDX 10 14 11 15 25 16 27 17 12 18 24 19 23 20 13 21 21 22 14 23
REMARK SMILES IDX 15 24 20 25 22 26 16 27 19 28 17 29 18 30
REMARK H PARENT 18 31
REMARK Flexibility Score: inf
ROOT
ATOM      1  C   UNL     1       2.490 -20.013  28.255  1.00  0.00     0.012 C 
ATOM      2  C   UNL     1       1.023 -20.471  28.290  1.00  0.00     0.012 C 
ENDROOT
BRANCH   1   3
ATOM      3  C   UNL     1       2.929 -19.742  29.684  1.00  0.00    -0.028 C 
ATOM      4  C   UNL     1       4.146 -19.988  30.204  1.00  0.00    -0.027 C 
BRANCH   4   5
ATOM      5  C   UNL     1       5.294 -20.661  29.471  1.00  0.00     0.014 C 
BRANCH   5   6
ATOM      6  C   UNL     1       6.082 -19.563  28.698  1.00  0.00     0.004 C 
ATOM      7  C   UNL     1       7.245 -20.094  27.862  1.00  0.00     0.004 C 
ENDBRANCH   5   6
BRANCH   5   8
ATOM      8  C   UNL     1       6.137 -21.502  30.491  1.00  0.00    -0.011 C 
ATOM      9  C   UNL     1       5.395 -22.746  31.013  1.00  0.00     0.008 C 
ATOM     10  C   UNL     1       6.712 -20.667  31.653  1.00  0.00     0.008 C 
ENDBRANCH   5   8
ENDBRANCH   4   5
ENDBRANCH   1   3
BRANCH   1  11
ATOM     11  C   UNL     1       2.658 -18.785  27.278  1.00  0.00     0.002 C 
ATOM     12  C   UNL     1       1.442 -17.827  27.233  1.00  0.00     0.005 C 
ATOM     13  C   UNL     1       3.009 -18.997  25.770  1.00  0.00    -0.023 C 
ATOM     14  C   UNL     1       1.522 -17.090  25.878  1.00  0.00     0.009 C 
ATOM     15  C   UNL     1       2.857 -17.542  25.267  1.00  0.00     0.021 C 
ATOM     16  C   UNL     1       4.470 -19.483  25.518  1.00  0.00     0.008 C 
ATOM     17  C   UNL     1       1.970 -19.940  25.050  1.00  0.00     0.012 C 
ATOM     18  C   UNL     1       3.077 -17.455  23.767  1.00  0.00    -0.067 C 
ATOM     19  C   UNL     1       5.144 -18.835  24.281  1.00  0.00     0.009 C 
ATOM     20  C   UNL     1       4.138 -18.384  23.164  1.00  0.00     0.021 C 
ATOM     21  C   UNL     1       2.381 -16.609  22.994  1.00  0.00    -0.027 C 
ATOM     22  C   UNL     1       4.819 -17.869  21.803  1.00  0.00    -0.023 C 
ATOM     23  C   UNL     1       2.564 -16.634  21.512  1.00  0.00     0.031 C 
ATOM     24  C   UNL     1       4.058 -16.638  21.162  1.00  0.00     0.002 C 
ATOM     25  C   UNL     1       6.348 -17.502  21.979  1.00  0.00     0.010 C 
ATOM     26  C   UNL     1       4.762 -19.058  20.797  1.00  0.00     0.012 C 
ATOM     27  C   UNL     1       4.718 -15.286  21.528  1.00  0.00     0.036 C 
ATOM     28  C   UNL     1       6.872 -16.560  20.890  1.00  0.00     0.032 C 
ATOM     29  C   UNL     1       6.157 -15.190  20.957  1.00  0.00     0.114 C 
BRANCH  29  30
ATOM     30  O   UNL     1       6.919 -14.261  21.683  1.00  0.00    -0.393 OA
ATOM     31  H   UNL     1       7.759 -14.072  21.183  1.00  0.00     0.210 HD
ENDBRANCH  29  30
ENDBRANCH   1  11
TORSDOF 6
ENDMDL
MODEL 4
REMARK VINA RESULT:    -5.830      2.869      5.080
REMARK INTER + INTRA:          -9.716
REMARK INTER:                  -8.243
REMARK INTRA:                  -1.473
REMARK UNBOUND:                -2.011
REMARK SMILES CC[C@H](C=C[C@@H](C)[C@@H]1CC[C@@H]2C3=CC[C@H]4C[C@@H](O)CC[C@@]4(C)[C@H]3CC[C@]21C)C(C)C
REMARK SMILES IDX 6 1 7 2 5 3 4 4 3 5 2 6 1 7 28 8 29 9 30 10 8 11 9 12 26 13
REMARK SMILES IDX 10 14 11 15 25 16 27 17 12 18 24 19 23 20 13 21 21 22 14 23
REMARK SMILES IDX 15 24 20 25 22 26 16 27 19 28 17 29 18 30
REMARK H PARENT 18 31
REMARK Flexibility Score: inf
ROOT
ATOM      1  C   UNL     1      12.472 -14.384  27.107  1.00  0.00     0.012 C 
ATOM      2  C   UNL     1      11.398 -14.871  26.119  1.00  0.00     0.012 C 
ENDROOT
BRANCH   1   3
ATOM      3  C   UNL     1      11.763 -13.722  28.276  1.00  0.00    -0.028 C 
ATOM      4  C   UNL     1      11.724 -14.174  29.544  1.00  0.00    -0.027 C 
BRANCH   4   5
ATOM      5  C   UNL     1      12.321 -15.485  30.027  1.00  0.00     0.014 C 
BRANCH   5   6
ATOM      6  C   UNL     1      13.852 -15.275  30.217  1.00  0.00     0.004 C 
ATOM      7  C   UNL     1      14.715 -16.414  29.675  1.00  0.00     0.004 C 
ENDBRANCH   5   6
BRANCH   5   8
ATOM      8  C   UNL     1      11.544 -15.969  31.299  1.00  0.00    -0.011 C 
ATOM      9  C   UNL     1      11.447 -17.502  31.407  1.00  0.00     0.008 C 
ATOM     10  C   UNL     1      10.160 -15.309  31.466  1.00  0.00     0.008 C 
ENDBRANCH   5   8
ENDBRANCH   4   5
ENDBRANCH   1   3
BRANCH   1  11
ATOM     11  C   UNL     1      13.516 -13.459  26.369  1.00  0.00     0.002 C 
ATOM     12  C   UNL     1      13.191 -13.177  24.882  1.00  0.00     0.005 C 
ATOM     13  C   UNL     1      15.037 -13.821  26.345  1.00  0.00    -0.023 C 
ATOM     14  C   UNL     1      14.529 -12.802  24.210  1.00  0.00     0.009 C 
ATOM     15  C   UNL     1      15.540 -12.736  25.364  1.00  0.00     0.021 C 
ATOM     16  C   UNL     1      15.754 -13.650  27.721  1.00  0.00     0.008 C 
ATOM     17  C   UNL     1      15.290 -15.260  25.753  1.00  0.00     0.012 C 
ATOM     18  C   UNL     1      17.025 -12.894  25.087  1.00  0.00    -0.067 C 
ATOM     19  C   UNL     1      17.185 -13.061  27.614  1.00  0.00     0.009 C 
ATOM     20  C   UNL     1      17.904 -13.363  26.253  1.00  0.00     0.021 C 
ATOM     21  C   UNL     1      17.554 -12.640  23.882  1.00  0.00    -0.027 C 
ATOM     22  C   UNL     1      19.446 -12.915  26.184  1.00  0.00    -0.023 C 
ATOM     23  C   UNL     1      19.002 -12.907  23.634  1.00  0.00     0.031 C 
ATOM     24  C   UNL     1      19.852 -12.325  24.772  1.00  0.00     0.002 C 
ATOM     25  C   UNL     1      19.836 -11.878  27.313  1.00  0.00     0.010 C 
ATOM     26  C   UNL     1      20.295 -14.195  26.443  1.00  0.00     0.012 C 
ATOM     27  C   UNL     1      19.820 -10.777  24.752  1.00  0.00     0.036 C 
ATOM     28  C   UNL     1      21.094 -11.068  26.980  1.00  0.00     0.032 C 
ATOM     29  C   UNL     1      20.863 -10.181  25.734  1.00  0.00     0.114 C 
BRANCH  29  30
ATOM     30  O   UNL     1      20.505  -8.875  26.106  1.00  0.00    -0.393 OA
ATOM     31  H   UNL     1      20.836  -8.241  25.414  1.00  0.00     0.210 HD
ENDBRANCH  29  30
ENDBRANCH   1  11
TORSDOF 6
ENDMDL
MODEL 5
REMARK VINA RESULT:    -5.777      3.906      7.398
REMARK INTER + INTRA:          -9.646
REMARK INTER:                  -8.965
REMARK INTRA:                  -0.681
REMARK UNBOUND:                -2.011
REMARK SMILES CC[C@H](C=C[C@@H](C)[C@@H]1CC[C@@H]2C3=CC[C@H]4C[C@@H](O)CC[C@@]4(C)[C@H]3CC[C@]21C)C(C)C
REMARK SMILES IDX 6 1 7 2 5 3 4 4 3 5 2 6 1 7 28 8 29 9 30 10 8 11 9 12 26 13
REMARK SMILES IDX 10 14 11 15 25 16 27 17 12 18 24 19 23 20 13 21 21 22 14 23
REMARK SMILES IDX 15 24 20 25 22 26 16 27 19 28 17 29 18 30
REMARK H PARENT 18 31
REMARK Flexibility Score: inf
ROOT
ATOM      1  C   UNL     1      11.363 -17.148  31.123  1.00  0.00     0.012 C 
ATOM      2  C   UNL     1      10.602 -16.145  32.006  1.00  0.00     0.012 C 
ENDROOT
BRANCH   1   3
ATOM      3  C   UNL     1      11.622 -18.395  31.952  1.00  0.00    -0.028 C 
ATOM      4  C   UNL     1      10.832 -19.483  32.024  1.00  0.00    -0.027 C 
BRANCH   4   5
ATOM      5  C   UNL     1       9.480 -19.632  31.346  1.00  0.00     0.014 C 
BRANCH   5   6
ATOM      6  C   UNL     1       9.498 -20.952  30.522  1.00  0.00     0.004 C 
ATOM      7  C   UNL     1       9.030 -20.799  29.076  1.00  0.00     0.004 C 
ENDBRANCH   5   6
BRANCH   5   8
ATOM      8  C   UNL     1       8.346 -19.525  32.423  1.00  0.00    -0.011 C 
ATOM      9  C   UNL     1       8.539 -20.490  33.607  1.00  0.00     0.008 C 
ATOM     10  C   UNL     1       6.925 -19.637  31.836  1.00  0.00     0.008 C 
ENDBRANCH   5   8
ENDBRANCH   4   5
ENDBRANCH   1   3
BRANCH   1  11
ATOM     11  C   UNL     1      12.662 -16.479  30.529  1.00  0.00     0.002 C 
ATOM     12  C   UNL     1      13.595 -15.832  31.583  1.00  0.00     0.005 C 
ATOM     13  C   UNL     1      12.569 -15.390  29.412  1.00  0.00    -0.023 C 
ATOM     14  C   UNL     1      14.430 -14.773  30.831  1.00  0.00     0.009 C 
ATOM     15  C   UNL     1      14.053 -14.957  29.354  1.00  0.00     0.021 C 
ATOM     16  C   UNL     1      12.134 -15.942  28.019  1.00  0.00     0.008 C 
ATOM     17  C   UNL     1      11.658 -14.177  29.847  1.00  0.00     0.012 C 
ATOM     18  C   UNL     1      14.254 -13.819  28.369  1.00  0.00    -0.067 C 
ATOM     19  C   UNL     1      12.885 -15.297  26.824  1.00  0.00     0.009 C 
ATOM     20  C   UNL     1      13.394 -13.839  27.098  1.00  0.00     0.021 C 
ATOM     21  C   UNL     1      15.138 -12.836  28.588  1.00  0.00    -0.027 C 
ATOM     22  C   UNL     1      14.021 -13.087  25.824  1.00  0.00    -0.023 C 
ATOM     23  C   UNL     1      15.226 -11.688  27.638  1.00  0.00     0.031 C 
ATOM     24  C   UNL     1      15.280 -12.199  26.191  1.00  0.00     0.002 C 
ATOM     25  C   UNL     1      14.408 -14.078  24.653  1.00  0.00     0.010 C 
ATOM     26  C   UNL     1      12.908 -12.152  25.264  1.00  0.00     0.012 C 
ATOM     27  C   UNL     1      16.616 -12.930  25.911  1.00  0.00     0.036 C 
ATOM     28  C   UNL     1      15.438 -13.492  23.681  1.00  0.00     0.032 C 
ATOM     29  C   UNL     1      16.784 -13.230  24.398  1.00  0.00     0.114 C 
BRANCH  29  30
ATOM     30  O   UNL     1      17.674 -14.298  24.200  1.00  0.00    -0.393 OA
ATOM     31  H   UNL     1      17.312 -15.107  24.653  1.00  0.00     0.210 HD
ENDBRANCH  29  30
ENDBRANCH   1  11
TORSDOF 6
ENDMDL
MODEL 6
REMARK VINA RESULT:    -5.768     11.157     13.675
REMARK INTER + INTRA:          -9.634
REMARK INTER:                  -8.079
REMARK INTRA:                  -1.555
REMARK UNBOUND:                -2.011
REMARK SMILES CC[C@H](C=C[C@@H](C)[C@@H]1CC[C@@H]2C3=CC[C@H]4C[C@@H](O)CC[C@@]4(C)[C@H]3CC[C@]21C)C(C)C
REMARK SMILES IDX 6 1 7 2 5 3 4 4 3 5 2 6 1 7 28 8 29 9 30 10 8 11 9 12 26 13
REMARK SMILES IDX 10 14 11 15 25 16 27 17 12 18 24 19 23 20 13 21 21 22 14 23
REMARK SMILES IDX 15 24 20 25 22 26 16 27 19 28 17 29 18 30
REMARK H PARENT 18 31
REMARK Flexibility Score: inf
ROOT
ATOM      1  C   UNL     1       2.346 -19.353  28.275  1.00  0.00     0.012 C 
ATOM      2  C   UNL     1       0.983 -19.081  28.934  1.00  0.00     0.012 C 
ENDROOT
BRANCH   1   3
ATOM      3  C   UNL     1       2.111 -19.574  26.791  1.00  0.00    -0.028 C 
ATOM      4  C   UNL     1       2.953 -19.246  25.793  1.00  0.00    -0.027 C 
BRANCH   4   5
ATOM      5  C   UNL     1       4.273 -18.514  25.964  1.00  0.00     0.014 C 
BRANCH   5   6
ATOM      6  C   UNL     1       5.424 -19.521  25.674  1.00  0.00     0.004 C 
ATOM      7  C   UNL     1       6.815 -19.013  26.047  1.00  0.00     0.004 C 
ENDBRANCH   5   6
BRANCH   5   8
ATOM      8  C   UNL     1       4.267 -17.223  25.075  1.00  0.00    -0.011 C 
ATOM      9  C   UNL     1       2.997 -16.370  25.248  1.00  0.00     0.008 C 
ATOM     10  C   UNL     1       4.556 -17.498  23.585  1.00  0.00     0.008 C 
ENDBRANCH   5   8
ENDBRANCH   4   5
ENDBRANCH   1   3
BRANCH   1  11
ATOM     11  C   UNL     1       3.078 -20.546  29.004  1.00  0.00     0.002 C 
ATOM     12  C   UNL     1       2.136 -21.522  29.750  1.00  0.00     0.005 C 
ATOM     13  C   UNL     1       4.218 -20.280  30.040  1.00  0.00    -0.023 C 
ATOM     14  C   UNL     1       2.995 -22.213  30.831  1.00  0.00     0.009 C 
ATOM     15  C   UNL     1       4.425 -21.720  30.565  1.00  0.00     0.021 C 
ATOM     16  C   UNL     1       5.546 -19.761  29.406  1.00  0.00     0.008 C 
ATOM     17  C   UNL     1       3.743 -19.331  31.207  1.00  0.00     0.012 C 
ATOM     18  C   UNL     1       5.462 -21.755  31.674  1.00  0.00    -0.067 C 
ATOM     19  C   UNL     1       6.825 -20.358  30.051  1.00  0.00     0.009 C 
ATOM     20  C   UNL     1       6.647 -20.789  31.549  1.00  0.00     0.021 C 
ATOM     21  C   UNL     1       5.357 -22.586  32.721  1.00  0.00    -0.027 C 
ATOM     22  C   UNL     1       7.998 -21.248  32.289  1.00  0.00    -0.023 C 
ATOM     23  C   UNL     1       6.349 -22.511  33.834  1.00  0.00     0.031 C 
ATOM     24  C   UNL     1       7.777 -22.470  33.271  1.00  0.00     0.002 C 
ATOM     25  C   UNL     1       9.165 -21.596  31.280  1.00  0.00     0.010 C 
ATOM     26  C   UNL     1       8.485 -20.028  33.128  1.00  0.00     0.012 C 
ATOM     27  C   UNL     1       8.153 -23.823  32.618  1.00  0.00     0.036 C 
ATOM     28  C   UNL     1      10.246 -22.493  31.893  1.00  0.00     0.032 C 
ATOM     29  C   UNL     1       9.664 -23.876  32.269  1.00  0.00     0.114 C 
BRANCH  29  30
ATOM     30  O   UNL     1       9.907 -24.816  31.254  1.00  0.00    -0.393 OA
ATOM     31  H   UNL     1       9.054 -25.278  31.033  1.00  0.00     0.210 HD
ENDBRANCH  29  30
ENDBRANCH   1  11
TORSDOF 6
ENDMDL
MODEL 7
REMARK VINA RESULT:    -5.728      5.674      8.406
REMARK INTER + INTRA:          -9.582
REMARK INTER:                  -8.228
REMARK INTRA:                  -1.354
REMARK UNBOUND:                -2.011
REMARK SMILES CC[C@H](C=C[C@@H](C)[C@@H]1CC[C@@H]2C3=CC[C@H]4C[C@@H](O)CC[C@@]4(C)[C@H]3CC[C@]21C)C(C)C
REMARK SMILES IDX 6 1 7 2 5 3 4 4 3 5 2 6 1 7 28 8 29 9 30 10 8 11 9 12 26 13
REMARK SMILES IDX 10 14 11 15 25 16 27 17 12 18 24 19 23 20 13 21 21 22 14 23
REMARK SMILES IDX 15 24 20 25 22 26 16 27 19 28 17 29 18 30
REMARK H PARENT 18 31
REMARK Flexibility Score: inf
ROOT
ATOM      1  C   UNL     1      17.754 -18.309  24.170  1.00  0.00     0.012 C 
ATOM      2  C   UNL     1      18.855 -18.095  23.118  1.00  0.00     0.012 C 
ENDROOT
BRANCH   1   3
ATOM      3  C   UNL     1      18.044 -17.388  25.343  1.00  0.00    -0.028 C 
ATOM      4  C   UNL     1      17.228 -16.432  25.826  1.00  0.00    -0.027 C 
BRANCH   4   5
ATOM      5  C   UNL     1      15.885 -16.042  25.232  1.00  0.00     0.014 C 
BRANCH   5   6
ATOM      6  C   UNL     1      14.773 -16.461  26.237  1.00  0.00     0.004 C 
ATOM      7  C   UNL     1      13.574 -17.158  25.596  1.00  0.00     0.004 C 
ENDBRANCH   5   6
BRANCH   5   8
ATOM      8  C   UNL     1      15.911 -14.522  24.851  1.00  0.00    -0.011 C 
ATOM      9  C   UNL     1      14.513 -13.942  24.565  1.00  0.00     0.008 C 
ATOM     10  C   UNL     1      16.897 -14.187  23.713  1.00  0.00     0.008 C 
ENDBRANCH   5   8
ENDBRANCH   4   5
ENDBRANCH   1   3
BRANCH   1  11
ATOM     11  C   UNL     1      17.651 -19.837  24.552  1.00  0.00     0.002 C 
ATOM     12  C   UNL     1      18.907 -20.674  24.205  1.00  0.00     0.005 C 
ATOM     13  C   UNL     1      16.472 -20.720  24.030  1.00  0.00    -0.023 C 
ATOM     14  C   UNL     1      18.432 -22.139  24.087  1.00  0.00     0.009 C 
ATOM     15  C   UNL     1      16.958 -22.106  24.517  1.00  0.00     0.021 C 
ATOM     16  C   UNL     1      15.093 -20.394  24.685  1.00  0.00     0.008 C 
ATOM     17  C   UNL     1      16.368 -20.695  22.457  1.00  0.00     0.012 C 
ATOM     18  C   UNL     1      16.010 -23.207  24.073  1.00  0.00    -0.067 C 
ATOM     19  C   UNL     1      14.230 -21.646  24.990  1.00  0.00     0.009 C 
ATOM     20  C   UNL     1      14.514 -22.867  24.046  1.00  0.00     0.021 C 
ATOM     21  C   UNL     1      16.448 -24.422  23.717  1.00  0.00    -0.027 C 
ATOM     22  C   UNL     1      13.516 -24.114  24.227  1.00  0.00    -0.023 C 
ATOM     23  C   UNL     1      15.486 -25.436  23.193  1.00  0.00     0.031 C 
ATOM     24  C   UNL     1      14.248 -25.511  24.098  1.00  0.00     0.002 C 
ATOM     25  C   UNL     1      12.717 -24.069  25.591  1.00  0.00     0.010 C 
ATOM     26  C   UNL     1      12.458 -24.008  23.088  1.00  0.00     0.012 C 
ATOM     27  C   UNL     1      14.606 -26.116  25.478  1.00  0.00     0.036 C 
ATOM     28  C   UNL     1      12.173 -25.437  26.017  1.00  0.00     0.032 C 
ATOM     29  C   UNL     1      13.329 -26.423  26.304  1.00  0.00     0.114 C 
BRANCH  29  30
ATOM     30  O   UNL     1      13.624 -26.466  27.676  1.00  0.00    -0.393 OA
ATOM     31  H   UNL     1      14.394 -25.864  27.859  1.00  0.00     0.210 HD
ENDBRANCH  29  30
ENDBRANCH   1  11
TORSDOF 6
ENDMDL
MODEL 8
REMARK VINA RESULT:    -5.643      2.884      4.745
REMARK INTER + INTRA:          -9.469
REMARK INTER:                  -7.940
REMARK INTRA:                  -1.529
REMARK UNBOUND:                -2.011
REMARK SMILES CC[C@H](C=C[C@@H](C)[C@@H]1CC[C@@H]2C3=CC[C@H]4C[C@@H](O)CC[C@@]4(C)[C@H]3CC[C@]21C)C(C)C
REMARK SMILES IDX 6 1 7 2 5 3 4 4 3 5 2 6 1 7 28 8 29 9 30 10 8 11 9 12 26 13
REMARK SMILES IDX 10 14 11 15 25 16 27 17 12 18 24 19 23 20 13 21 21 22 14 23
REMARK SMILES IDX 15 24 20 25 22 26 16 27 19 28 17 29 18 30
REMARK H PARENT 18 31
REMARK Flexibility Score: inf
ROOT
ATOM      1  C   UNL     1      15.975 -14.228  27.085  1.00  0.00     0.012 C 
ATOM      2  C   UNL     1      16.878 -13.033  27.434  1.00  0.00     0.012 C 
ENDROOT
BRANCH   1   3
ATOM      3  C   UNL     1      14.794 -14.215  28.040  1.00  0.00    -0.028 C 
ATOM      4  C   UNL     1      13.495 -14.114  27.701  1.00  0.00    -0.027 C 
BRANCH   4   5
ATOM      5  C   UNL     1      12.970 -13.913  26.289  1.00  0.00     0.014 C 
BRANCH   5   6
ATOM      6  C   UNL     1      11.763 -14.873  26.082  1.00  0.00     0.004 C 
ATOM      7  C   UNL     1      12.143 -16.350  25.987  1.00  0.00     0.004 C 
ENDBRANCH   5   6
BRANCH   5   8
ATOM      8  C   UNL     1      12.667 -12.391  26.062  1.00  0.00    -0.011 C 
ATOM      9  C   UNL     1      11.377 -12.141  25.261  1.00  0.00     0.008 C 
ATOM     10  C   UNL     1      13.855 -11.608  25.467  1.00  0.00     0.008 C 
ENDBRANCH   5   8
ENDBRANCH   4   5
ENDBRANCH   1   3
BRANCH   1  11
ATOM     11  C   UNL     1      16.809 -15.567  27.098  1.00  0.00     0.002 C 
ATOM     12  C   UNL     1      18.300 -15.395  27.478  1.00  0.00     0.005 C 
ATOM     13  C   UNL     1      16.861 -16.496  25.842  1.00  0.00    -0.023 C 
ATOM     14  C   UNL     1      19.042 -16.612  26.884  1.00  0.00     0.009 C 
ATOM     15  C   UNL     1      17.931 -17.508  26.318  1.00  0.00     0.021 C 
ATOM     16  C   UNL     1      15.526 -17.251  25.552  1.00  0.00     0.008 C 
ATOM     17  C   UNL     1      17.363 -15.727  24.560  1.00  0.00     0.012 C 
ATOM     18  C   UNL     1      18.247 -18.522  25.233  1.00  0.00    -0.067 C 
ATOM     19  C   UNL     1      15.721 -18.715  25.078  1.00  0.00     0.009 C 
ATOM     20  C   UNL     1      17.082 -18.975  24.344  1.00  0.00     0.021 C 
ATOM     21  C   UNL     1      19.484 -19.006  25.051  1.00  0.00    -0.027 C 
ATOM     22  C   UNL     1      17.235 -20.437  23.692  1.00  0.00    -0.023 C 
ATOM     23  C   UNL     1      19.763 -19.924  23.907  1.00  0.00     0.031 C 
ATOM     24  C   UNL     1      18.697 -21.026  23.839  1.00  0.00     0.002 C 
ATOM     25  C   UNL     1      16.193 -21.479  24.267  1.00  0.00     0.010 C 
ATOM     26  C   UNL     1      16.919 -20.285  22.174  1.00  0.00     0.012 C 
ATOM     27  C   UNL     1      18.821 -21.992  25.043  1.00  0.00     0.036 C 
ATOM     28  C   UNL     1      16.623 -22.936  24.067  1.00  0.00     0.032 C 
ATOM     29  C   UNL     1      17.918 -23.240  24.857  1.00  0.00     0.114 C 
BRANCH  29  30
ATOM     30  O   UNL     1      17.623 -23.830  26.097  1.00  0.00    -0.393 OA
ATOM     31  H   UNL     1      16.643 -23.995  26.150  1.00  0.00     0.210 HD
ENDBRANCH  29  30
ENDBRANCH   1  11
TORSDOF 6
ENDMDL
