MODEL 1
REMARK VINA RESULT:    -3.971      0.000      0.000
REMARK INTER + INTRA:          -4.685
REMARK INTER:                  -4.551
REMARK INTRA:                  -0.134
REMARK UNBOUND:                -0.134
REMARK SMILES O=C([O-])C=Cc1ccc(O)cc1
REMARK SMILES IDX 6 1 7 2 12 3 8 4 11 5 9 6 5 7 4 8 2 9 1 10 3 11 10 12
REMARK H PARENT 10 13
REMARK Flexibility Score: inf
ROOT
ATOM      1  C   UNL     1      71.907  40.151  21.608  1.00  0.00    -0.025 A 
ATOM      2  C   UNL     1      70.992  40.290  22.672  1.00  0.00     0.012 A 
ATOM      3  C   UNL     1      71.431  40.255  20.289  1.00  0.00     0.012 A 
ATOM      4  C   UNL     1      69.642  40.552  22.414  1.00  0.00     0.047 A 
ATOM      5  C   UNL     1      70.082  40.517  20.037  1.00  0.00     0.047 A 
ATOM      6  C   UNL     1      69.184  40.668  21.096  1.00  0.00     0.115 A 
ENDROOT
BRANCH   1   7
ATOM      7  C   UNL     1      73.346  39.862  21.824  1.00  0.00     0.010 C 
ATOM      8  C   UNL     1      74.199  40.719  22.402  1.00  0.00     0.025 C 
BRANCH   8   9
ATOM      9  C   UNL     1      75.622  40.393  22.585  1.00  0.00     0.064 C 
ATOM     10  O   UNL     1      76.332  40.122  21.582  1.00  0.00    -0.545 OA
ATOM     11  O   UNL     1      76.199  40.380  23.850  1.00  0.00    -0.545 OA
ENDBRANCH   8   9
ENDBRANCH   1   7
BRANCH   6  12
ATOM     12  O   UNL     1      67.843  40.930  20.830  1.00  0.00    -0.508 OA
ATOM     13  H   UNL     1      67.542  41.818  20.445  1.00  0.00     0.293 HD
ENDBRANCH   6  12
TORSDOF 3
ENDMDL
MODEL 2
REMARK VINA RESULT:    -3.905      0.083      1.400
REMARK INTER + INTRA:          -4.610
REMARK INTER:                  -4.473
REMARK INTRA:                  -0.137
REMARK UNBOUND:                -0.134
REMARK SMILES O=C([O-])C=Cc1ccc(O)cc1
REMARK SMILES IDX 6 1 7 2 12 3 8 4 11 5 9 6 5 7 4 8 2 9 1 10 3 11 10 12
REMARK H PARENT 10 13
REMARK Flexibility Score: inf
ROOT
ATOM      1  C   UNL     1      71.929  40.052  21.586  1.00  0.00    -0.025 A 
ATOM      2  C   UNL     1      71.433  40.152  20.269  1.00  0.00     0.012 A 
ATOM      3  C   UNL     1      71.046  40.263  22.660  1.00  0.00     0.012 A 
ATOM      4  C   UNL     1      70.081  40.431  20.042  1.00  0.00     0.047 A 
ATOM      5  C   UNL     1      69.696  40.540  22.428  1.00  0.00     0.047 A 
ATOM      6  C   UNL     1      69.209  40.624  21.121  1.00  0.00     0.115 A 
ENDROOT
BRANCH   1   7
ATOM      7  C   UNL     1      73.355  39.770  21.883  1.00  0.00     0.010 C 
ATOM      8  C   UNL     1      74.228  40.701  22.292  1.00  0.00     0.025 C 
BRANCH   8   9
ATOM      9  C   UNL     1      75.638  40.377  22.565  1.00  0.00     0.064 C 
ATOM     10  O   UNL     1      76.404  40.086  21.610  1.00  0.00    -0.545 OA
ATOM     11  O   UNL     1      76.139  40.388  23.861  1.00  0.00    -0.545 OA
ENDBRANCH   8   9
ENDBRANCH   1   7
BRANCH   6  12
ATOM     12  O   UNL     1      67.862  40.900  20.905  1.00  0.00    -0.508 OA
ATOM     13  H   UNL     1      67.507  41.849  20.916  1.00  0.00     0.293 HD
ENDBRANCH   6  12
TORSDOF 3
ENDMDL
MODEL 3
REMARK VINA RESULT:    -3.549      2.746      5.801
REMARK INTER + INTRA:          -4.203
REMARK INTER:                  -4.066
REMARK INTRA:                  -0.137
REMARK UNBOUND:                -0.134
REMARK SMILES O=C([O-])C=Cc1ccc(O)cc1
REMARK SMILES IDX 6 1 7 2 12 3 8 4 11 5 9 6 5 7 4 8 2 9 1 10 3 11 10 12
REMARK H PARENT 10 13
REMARK Flexibility Score: inf
ROOT
ATOM      1  C   UNL     1      73.314  38.947  20.368  1.00  0.00    -0.025 A 
ATOM      2  C   UNL     1      73.146  38.085  19.265  1.00  0.00     0.012 A 
ATOM      3  C   UNL     1      74.593  39.467  20.632  1.00  0.00     0.012 A 
ATOM      4  C   UNL     1      74.231  37.776  18.437  1.00  0.00     0.047 A 
ATOM      5  C   UNL     1      75.673  39.157  19.801  1.00  0.00     0.047 A 
ATOM      6  C   UNL     1      75.496  38.314  18.702  1.00  0.00     0.115 A 
ENDROOT
BRANCH   1   7
ATOM      7  C   UNL     1      72.201  39.297  21.285  1.00  0.00     0.010 C 
ATOM      8  C   UNL     1      71.147  40.044  20.926  1.00  0.00     0.025 C 
BRANCH   8   9
ATOM      9  C   UNL     1      70.072  40.376  21.874  1.00  0.00     0.064 C 
ATOM     10  O   UNL     1      70.298  40.333  23.111  1.00  0.00    -0.545 OA
ATOM     11  O   UNL     1      68.806  40.737  21.426  1.00  0.00    -0.545 OA
ENDBRANCH   8   9
ENDBRANCH   1   7
BRANCH   6  12
ATOM     12  O   UNL     1      76.581  38.014  17.882  1.00  0.00    -0.508 OA
ATOM     13  H   UNL     1      77.498  37.818  18.267  1.00  0.00     0.293 HD
ENDBRANCH   6  12
TORSDOF 3
ENDMDL
MODEL 4
REMARK VINA RESULT:    -3.547      3.590      5.875
REMARK INTER + INTRA:          -4.200
REMARK INTER:                  -4.058
REMARK INTRA:                  -0.141
REMARK UNBOUND:                -0.134
REMARK SMILES O=C([O-])C=Cc1ccc(O)cc1
REMARK SMILES IDX 6 1 7 2 12 3 8 4 11 5 9 6 5 7 4 8 2 9 1 10 3 11 10 12
REMARK H PARENT 10 13
REMARK Flexibility Score: inf
ROOT
ATOM      1  C   UNL     1      74.193  38.664  20.522  1.00  0.00    -0.025 A 
ATOM      2  C   UNL     1      75.556  39.002  20.652  1.00  0.00     0.012 A 
ATOM      3  C   UNL     1      73.282  39.144  21.479  1.00  0.00     0.012 A 
ATOM      4  C   UNL     1      75.984  39.822  21.702  1.00  0.00     0.047 A 
ATOM      5  C   UNL     1      73.715  39.964  22.525  1.00  0.00     0.047 A 
ATOM      6  C   UNL     1      75.064  40.307  22.640  1.00  0.00     0.115 A 
ENDROOT
BRANCH   1   7
ATOM      7  C   UNL     1      73.687  37.789  19.436  1.00  0.00     0.010 C 
ATOM      8  C   UNL     1      72.991  36.663  19.650  1.00  0.00     0.025 C 
BRANCH   8   9
ATOM      9  C   UNL     1      72.518  35.820  18.540  1.00  0.00     0.064 C 
ATOM     10  O   UNL     1      73.347  35.146  17.875  1.00  0.00    -0.545 OA
ATOM     11  O   UNL     1      71.169  35.754  18.214  1.00  0.00    -0.545 OA
ENDBRANCH   8   9
ENDBRANCH   1   7
BRANCH   6  12
ATOM     12  O   UNL     1      75.481  41.125  23.686  1.00  0.00    -0.508 OA
ATOM     13  H   UNL     1      75.301  42.122  23.684  1.00  0.00     0.293 HD
ENDBRANCH   6  12
TORSDOF 3
ENDMDL
MODEL 5
REMARK VINA RESULT:    -3.526      1.857      5.888
REMARK INTER + INTRA:          -4.176
REMARK INTER:                  -4.037
REMARK INTRA:                  -0.139
REMARK UNBOUND:                -0.134
REMARK SMILES O=C([O-])C=Cc1ccc(O)cc1
REMARK SMILES IDX 6 1 7 2 12 3 8 4 11 5 9 6 5 7 4 8 2 9 1 10 3 11 10 12
REMARK H PARENT 10 13
REMARK Flexibility Score: inf
ROOT
ATOM      1  C   UNL     1      73.579  40.321  21.043  1.00  0.00    -0.025 A 
ATOM      2  C   UNL     1      73.827  40.455  19.662  1.00  0.00     0.012 A 
ATOM      3  C   UNL     1      74.671  40.303  21.929  1.00  0.00     0.012 A 
ATOM      4  C   UNL     1      75.136  40.593  19.188  1.00  0.00     0.047 A 
ATOM      5  C   UNL     1      75.977  40.442  21.451  1.00  0.00     0.047 A 
ATOM      6  C   UNL     1      76.214  40.590  20.082  1.00  0.00     0.115 A 
ENDROOT
BRANCH   1   7
ATOM      7  C   UNL     1      72.212  40.159  21.598  1.00  0.00     0.010 C 
ATOM      8  C   UNL     1      71.116  40.697  21.046  1.00  0.00     0.025 C 
BRANCH   8   9
ATOM      9  C   UNL     1      69.781  40.519  21.638  1.00  0.00     0.064 C 
ATOM     10  O   UNL     1      69.675  40.062  22.805  1.00  0.00    -0.545 OA
ATOM     11  O   UNL     1      68.631  40.848  20.929  1.00  0.00    -0.545 OA
ENDBRANCH   8   9
ENDBRANCH   1   7
BRANCH   6  12
ATOM     12  O   UNL     1      77.520  40.728  19.621  1.00  0.00    -0.508 OA
ATOM     13  H   UNL     1      77.811  40.343  18.730  1.00  0.00     0.293 HD
ENDBRANCH   6  12
TORSDOF 3
ENDMDL
MODEL 6
REMARK VINA RESULT:    -3.462      1.440      1.987
REMARK INTER + INTRA:          -4.103
REMARK INTER:                  -3.957
REMARK INTRA:                  -0.146
REMARK UNBOUND:                -0.134
REMARK SMILES O=C([O-])C=Cc1ccc(O)cc1
REMARK SMILES IDX 6 1 7 2 12 3 8 4 11 5 9 6 5 7 4 8 2 9 1 10 3 11 10 12
REMARK H PARENT 10 13
REMARK Flexibility Score: inf
ROOT
ATOM      1  C   UNL     1      71.796  40.364  20.880  1.00  0.00    -0.025 A 
ATOM      2  C   UNL     1      71.027  40.342  22.062  1.00  0.00     0.012 A 
ATOM      3  C   UNL     1      71.146  40.586  19.654  1.00  0.00     0.012 A 
ATOM      4  C   UNL     1      69.647  40.564  22.012  1.00  0.00     0.047 A 
ATOM      5  C   UNL     1      69.767  40.807  19.609  1.00  0.00     0.047 A 
ATOM      6  C   UNL     1      69.014  40.799  20.785  1.00  0.00     0.115 A 
ENDROOT
BRANCH   1   7
ATOM      7  C   UNL     1      73.260  40.124  20.875  1.00  0.00     0.010 C 
ATOM      8  C   UNL     1      73.873  39.275  20.039  1.00  0.00     0.025 C 
BRANCH   8   9
ATOM      9  C   UNL     1      75.328  39.061  20.077  1.00  0.00     0.064 C 
ATOM     10  O   UNL     1      75.940  39.149  21.173  1.00  0.00    -0.545 OA
ATOM     11  O   UNL     1      76.041  38.761  18.922  1.00  0.00    -0.545 OA
ENDBRANCH   8   9
ENDBRANCH   1   7
BRANCH   6  12
ATOM     12  O   UNL     1      67.641  41.021  20.726  1.00  0.00    -0.508 OA
ATOM     13  H   UNL     1      67.001  40.306  20.399  1.00  0.00     0.293 HD
ENDBRANCH   6  12
TORSDOF 3
ENDMDL
MODEL 7
REMARK VINA RESULT:    -3.349      3.770      4.286
REMARK INTER + INTRA:          -3.973
REMARK INTER:                  -3.835
REMARK INTRA:                  -0.138
REMARK UNBOUND:                -0.134
REMARK SMILES O=C([O-])C=Cc1ccc(O)cc1
REMARK SMILES IDX 6 1 7 2 12 3 8 4 11 5 9 6 5 7 4 8 2 9 1 10 3 11 10 12
REMARK H PARENT 10 13
REMARK Flexibility Score: inf
ROOT
ATOM      1  C   UNL     1      73.763  38.095  19.788  1.00  0.00    -0.025 A 
ATOM      2  C   UNL     1      72.742  37.372  20.438  1.00  0.00     0.012 A 
ATOM      3  C   UNL     1      74.171  37.688  18.506  1.00  0.00     0.012 A 
ATOM      4  C   UNL     1      72.131  36.286  19.802  1.00  0.00     0.047 A 
ATOM      5  C   UNL     1      73.557  36.603  17.875  1.00  0.00     0.047 A 
ATOM      6  C   UNL     1      72.536  35.900  18.518  1.00  0.00     0.115 A 
ENDROOT
BRANCH   1   7
ATOM      7  C   UNL     1      74.453  39.247  20.421  1.00  0.00     0.010 C 
ATOM      8  C   UNL     1      75.080  39.183  21.603  1.00  0.00     0.025 C 
BRANCH   8   9
ATOM      9  C   UNL     1      75.741  40.355  22.197  1.00  0.00     0.064 C 
ATOM     10  O   UNL     1      76.420  41.122  21.466  1.00  0.00    -0.545 OA
ATOM     11  O   UNL     1      75.630  40.631  23.555  1.00  0.00    -0.545 OA
ENDBRANCH   8   9
ENDBRANCH   1   7
BRANCH   6  12
ATOM     12  O   UNL     1      71.932  34.821  17.878  1.00  0.00    -0.508 OA
ATOM     13  H   UNL     1      71.012  34.900  17.460  1.00  0.00     0.293 HD
ENDBRANCH   6  12
TORSDOF 3
ENDMDL
MODEL 8
REMARK VINA RESULT:    -3.025      2.591      3.181
REMARK INTER + INTRA:          -3.602
REMARK INTER:                  -3.451
REMARK INTRA:                  -0.151
REMARK UNBOUND:                -0.134
REMARK SMILES O=C([O-])C=Cc1ccc(O)cc1
REMARK SMILES IDX 6 1 7 2 12 3 8 4 11 5 9 6 5 7 4 8 2 9 1 10 3 11 10 12
REMARK H PARENT 10 13
REMARK Flexibility Score: inf
ROOT
ATOM      1  C   UNL     1      73.156  39.846  20.784  1.00  0.00    -0.025 A 
ATOM      2  C   UNL     1      73.065  40.562  21.995  1.00  0.00     0.012 A 
ATOM      3  C   UNL     1      71.988  39.282  20.241  1.00  0.00     0.012 A 
ATOM      4  C   UNL     1      71.829  40.727  22.628  1.00  0.00     0.047 A 
ATOM      5  C   UNL     1      70.755  39.450  20.877  1.00  0.00     0.047 A 
ATOM      6  C   UNL     1      70.670  40.173  22.069  1.00  0.00     0.115 A 
ENDROOT
BRANCH   1   7
ATOM      7  C   UNL     1      74.443  39.631  20.077  1.00  0.00     0.010 C 
ATOM      8  C   UNL     1      74.544  39.057  18.870  1.00  0.00     0.025 C 
BRANCH   8   9
ATOM      9  C   UNL     1      75.844  38.854  18.212  1.00  0.00     0.064 C 
ATOM     10  O   UNL     1      76.195  37.694  17.876  1.00  0.00    -0.545 OA
ATOM     11  O   UNL     1      76.692  39.924  17.953  1.00  0.00    -0.545 OA
ENDBRANCH   8   9
ENDBRANCH   1   7
BRANCH   6  12
ATOM     12  O   UNL     1      69.435  40.333  22.691  1.00  0.00    -0.508 OA
ATOM     13  H   UNL     1      68.695  40.880  22.266  1.00  0.00     0.293 HD
ENDBRANCH   6  12
TORSDOF 3
ENDMDL
MODEL 9
REMARK VINA RESULT:    -2.888      1.435      5.816
REMARK INTER + INTRA:          -3.445
REMARK INTER:                  -3.310
REMARK INTRA:                  -0.135
REMARK UNBOUND:                -0.134
REMARK SMILES O=C([O-])C=Cc1ccc(O)cc1
REMARK SMILES IDX 6 1 7 2 12 3 8 4 11 5 9 6 5 7 4 8 2 9 1 10 3 11 10 12
REMARK H PARENT 10 13
REMARK Flexibility Score: inf
ROOT
ATOM      1  C   UNL     1      72.763  40.707  20.761  1.00  0.00    -0.025 A 
ATOM      2  C   UNL     1      72.920  40.883  22.152  1.00  0.00     0.012 A 
ATOM      3  C   UNL     1      73.839  40.187  20.020  1.00  0.00     0.012 A 
ATOM      4  C   UNL     1      74.116  40.522  22.780  1.00  0.00     0.047 A 
ATOM      5  C   UNL     1      75.032  39.828  20.653  1.00  0.00     0.047 A 
ATOM      6  C   UNL     1      75.174  39.992  22.033  1.00  0.00     0.115 A 
ENDROOT
BRANCH   1   7
ATOM      7  C   UNL     1      71.521  41.083  20.043  1.00  0.00     0.010 C 
ATOM      8  C   UNL     1      70.321  40.544  20.297  1.00  0.00     0.025 C 
BRANCH   8   9
ATOM      9  C   UNL     1      69.117  40.941  19.550  1.00  0.00     0.064 C 
ATOM     10  O   UNL     1      68.035  41.122  20.167  1.00  0.00    -0.545 OA
ATOM     11  O   UNL     1      69.152  41.119  18.172  1.00  0.00    -0.545 OA
ENDBRANCH   8   9
ENDBRANCH   1   7
BRANCH   6  12
ATOM     12  O   UNL     1      76.368  39.628  22.650  1.00  0.00    -0.508 OA
ATOM     13  H   UNL     1      76.619  38.656  22.789  1.00  0.00     0.293 HD
ENDBRANCH   6  12
TORSDOF 3
ENDMDL
