MODEL 1
REMARK VINA RESULT:    -5.077      0.000      0.000
REMARK INTER + INTRA:          -6.284
REMARK INTER:                  -5.968
REMARK INTRA:                  -0.316
REMARK UNBOUND:                -0.316
REMARK SMILES O=c1cc(-c2ccc(O)c(O)c2)oc2cc(O)cc(O)c12
REMARK SMILES IDX 4 1 3 2 2 3 1 4 21 5 19 6 18 7 16 8 15 9 14 10 13 11 5 12
REMARK SMILES IDX 6 13 7 14 8 15 12 16 10 17 9 18 11 20 20 22 17 24
REMARK H PARENT 9 19 11 21 20 23 17 25
REMARK Flexibility Score: inf
ROOT
ATOM      1  C   UNL     1     216.841 220.698 224.776  1.00  0.00     0.138 A 
ATOM      2  C   UNL     1     217.255 219.361 224.700  1.00  0.00     0.100 A 
ATOM      3  C   UNL     1     218.617 219.063 224.636  1.00  0.00     0.197 A 
ATOM      4  O   UNL     1     218.959 217.852 224.631  1.00  0.00    -0.289 OA
ATOM      5  C   UNL     1     219.567 220.112 224.617  1.00  0.00     0.107 A 
ATOM      6  C   UNL     1     220.978 219.928 224.513  1.00  0.00     0.134 A 
ATOM      7  C   UNL     1     221.828 221.035 224.622  1.00  0.00     0.093 A 
ATOM      8  C   UNL     1     221.315 222.326 224.770  1.00  0.00     0.123 A 
ATOM      9  C   UNL     1     219.937 222.522 224.818  1.00  0.00     0.094 A 
ATOM     10  C   UNL     1     219.063 221.433 224.748  1.00  0.00     0.146 A 
ATOM     11  O   UNL     1     217.756 221.663 224.812  1.00  0.00    -0.456 OA
ENDROOT
BRANCH   1  12
ATOM     12  C   UNL     1     215.406 221.073 224.845  1.00  0.00     0.021 A 
ATOM     13  C   UNL     1     214.386 220.145 224.561  1.00  0.00     0.016 A 
ATOM     14  C   UNL     1     213.043 220.528 224.623  1.00  0.00     0.051 A 
ATOM     15  C   UNL     1     212.696 221.841 224.962  1.00  0.00     0.157 A 
ATOM     16  C   UNL     1     215.049 222.393 225.171  1.00  0.00     0.062 A 
ATOM     17  C   UNL     1     213.706 222.779 225.235  1.00  0.00     0.158 A 
BRANCH  15  18
ATOM     18  O   UNL     1     211.355 222.219 225.024  1.00  0.00    -0.504 OA
ATOM     19  H   UNL     1     210.866 222.576 224.212  1.00  0.00     0.293 HD
ENDBRANCH  15  18
BRANCH  17  20
ATOM     20  O   UNL     1     213.394 224.096 225.571  1.00  0.00    -0.504 OA
ATOM     21  H   UNL     1     213.999 224.871 225.327  1.00  0.00     0.293 HD
ENDBRANCH  17  20
ENDBRANCH   1  12
BRANCH   6  22
ATOM     22  O   UNL     1     221.590 218.692 224.280  1.00  0.00    -0.507 OA
ATOM     23  H   UNL     1     221.292 217.817 224.682  1.00  0.00     0.293 HD
ENDBRANCH   6  22
BRANCH   8  24
ATOM     24  O   UNL     1     222.168 223.424 224.862  1.00  0.00    -0.508 OA
ATOM     25  H   UNL     1     222.757 223.702 224.086  1.00  0.00     0.293 HD
ENDBRANCH   8  24
TORSDOF 5
ENDMDL
MODEL 2
REMARK VINA RESULT:    -5.075      7.351      8.986
REMARK INTER + INTRA:          -6.281
REMARK INTER:                  -6.016
REMARK INTRA:                  -0.265
REMARK UNBOUND:                -0.316
REMARK SMILES O=c1cc(-c2ccc(O)c(O)c2)oc2cc(O)cc(O)c12
REMARK SMILES IDX 4 1 3 2 2 3 1 4 21 5 19 6 18 7 16 8 15 9 14 10 13 11 5 12
REMARK SMILES IDX 6 13 7 14 8 15 12 16 10 17 9 18 11 20 20 22 17 24
REMARK H PARENT 9 19 11 21 20 23 17 25
REMARK Flexibility Score: inf
ROOT
ATOM      1  C   UNL     1     217.462 211.917 224.836  1.00  0.00     0.138 A 
ATOM      2  C   UNL     1     218.365 210.890 225.145  1.00  0.00     0.100 A 
ATOM      3  C   UNL     1     219.733 211.165 225.188  1.00  0.00     0.197 A 
ATOM      4  O   UNL     1     220.513 210.238 225.529  1.00  0.00    -0.289 OA
ATOM      5  C   UNL     1     220.199 212.467 224.889  1.00  0.00     0.107 A 
ATOM      6  C   UNL     1     221.573 212.852 224.862  1.00  0.00     0.134 A 
ATOM      7  C   UNL     1     221.909 214.198 224.667  1.00  0.00     0.093 A 
ATOM      8  C   UNL     1     220.924 215.161 224.439  1.00  0.00     0.123 A 
ATOM      9  C   UNL     1     219.583 214.786 224.409  1.00  0.00     0.094 A 
ATOM     10  C   UNL     1     219.213 213.457 224.635  1.00  0.00     0.146 A 
ATOM     11  O   UNL     1     217.922 213.144 224.613  1.00  0.00    -0.456 OA
ENDROOT
BRANCH   1  12
ATOM     12  C   UNL     1     215.997 211.681 224.775  1.00  0.00     0.021 A 
ATOM     13  C   UNL     1     215.272 211.839 223.579  1.00  0.00     0.016 A 
ATOM     14  C   UNL     1     213.892 211.622 223.554  1.00  0.00     0.051 A 
ATOM     15  C   UNL     1     213.212 211.250 224.720  1.00  0.00     0.157 A 
ATOM     16  C   UNL     1     215.305 211.321 225.945  1.00  0.00     0.062 A 
ATOM     17  C   UNL     1     213.923 211.101 225.922  1.00  0.00     0.158 A 
BRANCH  15  18
ATOM     18  O   UNL     1     211.835 211.031 224.690  1.00  0.00    -0.504 OA
ATOM     19  H   UNL     1     211.337 210.904 223.817  1.00  0.00     0.293 HD
ENDBRANCH  15  18
BRANCH  17  20
ATOM     20  O   UNL     1     213.275 210.736 227.102  1.00  0.00    -0.504 OA
ATOM     21  H   UNL     1     213.785 210.439 227.926  1.00  0.00     0.293 HD
ENDBRANCH  17  20
ENDBRANCH   1  12
BRANCH   6  22
ATOM     22  O   UNL     1     222.638 211.955 224.995  1.00  0.00    -0.507 OA
ATOM     23  H   UNL     1     223.462 212.119 225.552  1.00  0.00     0.293 HD
ENDBRANCH   6  22
BRANCH   8  24
ATOM     24  O   UNL     1     221.268 216.495 224.231  1.00  0.00    -0.508 OA
ATOM     25  H   UNL     1     220.883 217.026 223.459  1.00  0.00     0.293 HD
ENDBRANCH   8  24
TORSDOF 5
ENDMDL
MODEL 3
REMARK VINA RESULT:    -5.054      2.094      7.193
REMARK INTER + INTRA:          -6.257
REMARK INTER:                  -5.991
REMARK INTRA:                  -0.266
REMARK UNBOUND:                -0.316
REMARK SMILES O=c1cc(-c2ccc(O)c(O)c2)oc2cc(O)cc(O)c12
REMARK SMILES IDX 4 1 3 2 2 3 1 4 21 5 19 6 18 7 16 8 15 9 14 10 13 11 5 12
REMARK SMILES IDX 6 13 7 14 8 15 12 16 10 17 9 18 11 20 20 22 17 24
REMARK H PARENT 9 19 11 21 20 23 17 25
REMARK Flexibility Score: inf
ROOT
ATOM      1  C   UNL     1     216.958 222.445 224.850  1.00  0.00     0.138 A 
ATOM      2  C   UNL     1     216.058 223.476 225.155  1.00  0.00     0.100 A 
ATOM      3  C   UNL     1     214.689 223.208 225.193  1.00  0.00     0.197 A 
ATOM      4  O   UNL     1     213.912 224.138 225.531  1.00  0.00    -0.289 OA
ATOM      5  C   UNL     1     214.218 221.907 224.894  1.00  0.00     0.107 A 
ATOM      6  C   UNL     1     212.843 221.529 224.862  1.00  0.00     0.134 A 
ATOM      7  C   UNL     1     212.501 220.184 224.668  1.00  0.00     0.093 A 
ATOM      8  C   UNL     1     213.483 219.216 224.444  1.00  0.00     0.123 A 
ATOM      9  C   UNL     1     214.826 219.586 224.419  1.00  0.00     0.094 A 
ATOM     10  C   UNL     1     215.200 220.913 224.644  1.00  0.00     0.146 A 
ATOM     11  O   UNL     1     216.494 221.219 224.627  1.00  0.00    -0.456 OA
ENDROOT
BRANCH   1  12
ATOM     12  C   UNL     1     218.424 222.674 224.795  1.00  0.00     0.021 A 
ATOM     13  C   UNL     1     219.157 222.485 223.608  1.00  0.00     0.016 A 
ATOM     14  C   UNL     1     220.539 222.697 223.587  1.00  0.00     0.051 A 
ATOM     15  C   UNL     1     221.211 223.094 224.750  1.00  0.00     0.157 A 
ATOM     16  C   UNL     1     219.110 223.060 225.961  1.00  0.00     0.062 A 
ATOM     17  C   UNL     1     220.492 223.274 225.942  1.00  0.00     0.158 A 
BRANCH  15  18
ATOM     18  O   UNL     1     222.589 223.307 224.724  1.00  0.00    -0.504 OA
ATOM     19  H   UNL     1     222.989 224.217 224.920  1.00  0.00     0.293 HD
ENDBRANCH  15  18
BRANCH  17  20
ATOM     20  O   UNL     1     221.133 223.665 227.118  1.00  0.00    -0.504 OA
ATOM     21  H   UNL     1     222.133 223.820 227.159  1.00  0.00     0.293 HD
ENDBRANCH  17  20
ENDBRANCH   1  12
BRANCH   6  22
ATOM     22  O   UNL     1     211.781 222.430 224.991  1.00  0.00    -0.507 OA
ATOM     23  H   UNL     1     211.847 223.424 224.834  1.00  0.00     0.293 HD
ENDBRANCH   6  22
BRANCH   8  24
ATOM     24  O   UNL     1     213.133 217.884 224.236  1.00  0.00    -0.508 OA
ATOM     25  H   UNL     1     212.814 217.556 223.332  1.00  0.00     0.293 HD
ENDBRANCH   8  24
TORSDOF 5
ENDMDL
MODEL 4
REMARK VINA RESULT:    -5.044      3.993      8.416
REMARK INTER + INTRA:          -6.245
REMARK INTER:                  -5.980
REMARK INTRA:                  -0.266
REMARK UNBOUND:                -0.316
REMARK SMILES O=c1cc(-c2ccc(O)c(O)c2)oc2cc(O)cc(O)c12
REMARK SMILES IDX 4 1 3 2 2 3 1 4 21 5 19 6 18 7 16 8 15 9 14 10 13 11 5 12
REMARK SMILES IDX 6 13 7 14 8 15 12 16 10 17 9 18 11 20 20 22 17 24
REMARK H PARENT 9 19 11 21 20 23 17 25
REMARK Flexibility Score: inf
ROOT
ATOM      1  C   UNL     1     222.414 217.435 224.835  1.00  0.00     0.138 A 
ATOM      2  C   UNL     1     223.457 218.334 225.099  1.00  0.00     0.100 A 
ATOM      3  C   UNL     1     223.195 219.704 225.129  1.00  0.00     0.197 A 
ATOM      4  O   UNL     1     224.138 220.482 225.429  1.00  0.00    -0.289 OA
ATOM      5  C   UNL     1     221.888 220.177 224.862  1.00  0.00     0.107 A 
ATOM      6  C   UNL     1     221.514 221.553 224.825  1.00  0.00     0.134 A 
ATOM      7  C   UNL     1     220.165 221.898 224.667  1.00  0.00     0.093 A 
ATOM      8  C   UNL     1     219.188 220.917 224.483  1.00  0.00     0.123 A 
ATOM      9  C   UNL     1     219.551 219.573 224.463  1.00  0.00     0.094 A 
ATOM     10  C   UNL     1     220.883 219.196 224.653  1.00  0.00     0.146 A 
ATOM     11  O   UNL     1     221.184 217.901 224.642  1.00  0.00    -0.456 OA
ENDROOT
BRANCH   1  12
ATOM     12  C   UNL     1     222.637 215.967 224.790  1.00  0.00     0.021 A 
ATOM     13  C   UNL     1     222.413 215.221 223.617  1.00  0.00     0.016 A 
ATOM     14  C   UNL     1     222.619 213.839 223.607  1.00  0.00     0.051 A 
ATOM     15  C   UNL     1     223.045 213.178 224.766  1.00  0.00     0.157 A 
ATOM     16  C   UNL     1     223.050 215.293 225.953  1.00  0.00     0.062 A 
ATOM     17  C   UNL     1     223.259 213.910 225.945  1.00  0.00     0.158 A 
BRANCH  15  18
ATOM     18  O   UNL     1     223.251 211.799 224.751  1.00  0.00    -0.504 OA
ATOM     19  H   UNL     1     224.120 211.389 225.074  1.00  0.00     0.293 HD
ENDBRANCH  15  18
BRANCH  17  20
ATOM     20  O   UNL     1     223.678 213.281 227.117  1.00  0.00    -0.504 OA
ATOM     21  H   UNL     1     223.021 212.945 227.812  1.00  0.00     0.293 HD
ENDBRANCH  17  20
ENDBRANCH   1  12
BRANCH   6  22
ATOM     22  O   UNL     1     222.423 222.613 224.915  1.00  0.00    -0.507 OA
ATOM     23  H   UNL     1     222.237 223.494 225.367  1.00  0.00     0.293 HD
ENDBRANCH   6  22
BRANCH   8  24
ATOM     24  O   UNL     1     217.851 221.270 224.310  1.00  0.00    -0.508 OA
ATOM     25  H   UNL     1     217.204 220.666 223.816  1.00  0.00     0.293 HD
ENDBRANCH   8  24
TORSDOF 5
ENDMDL
MODEL 5
REMARK VINA RESULT:    -5.036      4.227      8.437
REMARK INTER + INTRA:          -6.236
REMARK INTER:                  -5.951
REMARK INTRA:                  -0.285
REMARK UNBOUND:                -0.316
REMARK SMILES O=c1cc(-c2ccc(O)c(O)c2)oc2cc(O)cc(O)c12
REMARK SMILES IDX 4 1 3 2 2 3 1 4 21 5 19 6 18 7 16 8 15 9 14 10 13 11 5 12
REMARK SMILES IDX 6 13 7 14 8 15 12 16 10 17 9 18 11 20 20 22 17 24
REMARK H PARENT 9 19 11 21 20 23 17 25
REMARK Flexibility Score: inf
ROOT
ATOM      1  C   UNL     1     221.483 216.571 224.503  1.00  0.00     0.138 A 
ATOM      2  C   UNL     1     220.081 216.563 224.463  1.00  0.00     0.100 A 
ATOM      3  C   UNL     1     219.381 217.764 224.578  1.00  0.00     0.197 A 
ATOM      4  O   UNL     1     218.126 217.732 224.476  1.00  0.00    -0.289 OA
ATOM      5  C   UNL     1     220.087 218.976 224.767  1.00  0.00     0.107 A 
ATOM      6  C   UNL     1     219.477 220.254 224.937  1.00  0.00     0.134 A 
ATOM      7  C   UNL     1     220.280 221.400 224.999  1.00  0.00     0.093 A 
ATOM      8  C   UNL     1     221.673 221.307 224.957  1.00  0.00     0.123 A 
ATOM      9  C   UNL     1     222.280 220.058 224.845  1.00  0.00     0.094 A 
ATOM     10  C   UNL     1     221.505 218.899 224.746  1.00  0.00     0.146 A 
ATOM     11  O   UNL     1     222.124 217.730 224.626  1.00  0.00    -0.456 OA
ENDROOT
BRANCH   1  12
ATOM     12  C   UNL     1     222.278 215.323 224.386  1.00  0.00     0.021 A 
ATOM     13  C   UNL     1     223.545 215.310 223.772  1.00  0.00     0.016 A 
ATOM     14  C   UNL     1     224.267 214.118 223.665  1.00  0.00     0.051 A 
ATOM     15  C   UNL     1     223.736 212.921 224.162  1.00  0.00     0.157 A 
ATOM     16  C   UNL     1     221.747 214.115 224.870  1.00  0.00     0.062 A 
ATOM     17  C   UNL     1     222.468 212.920 224.766  1.00  0.00     0.158 A 
BRANCH  15  18
ATOM     18  O   UNL     1     224.461 211.734 224.056  1.00  0.00    -0.504 OA
ATOM     19  H   UNL     1     225.453 211.735 223.849  1.00  0.00     0.293 HD
ENDBRANCH  15  18
BRANCH  17  20
ATOM     20  O   UNL     1     221.909 211.745 225.266  1.00  0.00    -0.504 OA
ATOM     21  H   UNL     1     222.376 211.185 225.971  1.00  0.00     0.293 HD
ENDBRANCH  17  20
ENDBRANCH   1  12
BRANCH   6  22
ATOM     22  O   UNL     1     218.099 220.450 225.075  1.00  0.00    -0.507 OA
ATOM     23  H   UNL     1     217.597 221.262 224.751  1.00  0.00     0.293 HD
ENDBRANCH   6  22
BRANCH   8  24
ATOM     24  O   UNL     1     222.465 222.450 225.035  1.00  0.00    -0.508 OA
ATOM     25  H   UNL     1     222.225 223.219 225.650  1.00  0.00     0.293 HD
ENDBRANCH   8  24
TORSDOF 5
ENDMDL
MODEL 6
REMARK VINA RESULT:    -5.030      6.312      7.731
REMARK INTER + INTRA:          -6.229
REMARK INTER:                  -5.965
REMARK INTRA:                  -0.264
REMARK UNBOUND:                -0.316
REMARK SMILES O=c1cc(-c2ccc(O)c(O)c2)oc2cc(O)cc(O)c12
REMARK SMILES IDX 4 1 3 2 2 3 1 4 21 5 19 6 18 7 16 8 15 9 14 10 13 11 5 12
REMARK SMILES IDX 6 13 7 14 8 15 12 16 10 17 9 18 11 20 20 22 17 24
REMARK H PARENT 9 19 11 21 20 23 17 25
REMARK Flexibility Score: inf
ROOT
ATOM      1  C   UNL     1     211.944 216.984 224.845  1.00  0.00     0.138 A 
ATOM      2  C   UNL     1     210.936 216.059 225.149  1.00  0.00     0.100 A 
ATOM      3  C   UNL     1     211.240 214.697 225.190  1.00  0.00     0.197 A 
ATOM      4  O   UNL     1     210.328 213.896 225.527  1.00  0.00    -0.289 OA
ATOM      5  C   UNL     1     212.552 214.259 224.894  1.00  0.00     0.107 A 
ATOM      6  C   UNL     1     212.966 212.894 224.866  1.00  0.00     0.134 A 
ATOM      7  C   UNL     1     214.320 212.587 224.676  1.00  0.00     0.093 A 
ATOM      8  C   UNL     1     215.262 213.593 224.452  1.00  0.00     0.123 A 
ATOM      9  C   UNL     1     214.859 214.926 224.424  1.00  0.00     0.094 A 
ATOM     10  C   UNL     1     213.522 215.266 224.645  1.00  0.00     0.146 A 
ATOM     11  O   UNL     1     213.182 216.551 224.625  1.00  0.00    -0.456 OA
ENDROOT
BRANCH   1  12
ATOM     12  C   UNL     1     211.677 218.444 224.786  1.00  0.00     0.021 A 
ATOM     13  C   UNL     1     211.778 219.165 223.582  1.00  0.00     0.016 A 
ATOM     14  C   UNL     1     211.532 220.541 223.558  1.00  0.00     0.051 A 
ATOM     15  C   UNL     1     211.189 221.219 224.734  1.00  0.00     0.157 A 
ATOM     16  C   UNL     1     211.345 219.135 225.965  1.00  0.00     0.062 A 
ATOM     17  C   UNL     1     211.097 220.512 225.944  1.00  0.00     0.158 A 
BRANCH  15  18
ATOM     18  O   UNL     1     210.942 222.592 224.706  1.00  0.00    -0.504 OA
ATOM     19  H   UNL     1     210.551 223.077 225.505  1.00  0.00     0.293 HD
ENDBRANCH  15  18
BRANCH  17  20
ATOM     20  O   UNL     1     210.761 221.158 227.133  1.00  0.00    -0.504 OA
ATOM     21  H   UNL     1     210.833 222.164 227.237  1.00  0.00     0.293 HD
ENDBRANCH  17  20
ENDBRANCH   1  12
BRANCH   6  22
ATOM     22  O   UNL     1     212.092 211.810 224.995  1.00  0.00    -0.507 OA
ATOM     23  H   UNL     1     212.299 210.959 225.494  1.00  0.00     0.293 HD
ENDBRANCH   6  22
BRANCH   8  24
ATOM     24  O   UNL     1     216.604 213.278 224.247  1.00  0.00    -0.508 OA
ATOM     25  H   UNL     1     216.885 212.573 223.576  1.00  0.00     0.293 HD
ENDBRANCH   8  24
TORSDOF 5
ENDMDL
MODEL 7
REMARK VINA RESULT:    -5.029      1.589      6.707
REMARK INTER + INTRA:          -6.227
REMARK INTER:                  -5.942
REMARK INTRA:                  -0.285
REMARK UNBOUND:                -0.316
REMARK SMILES O=c1cc(-c2ccc(O)c(O)c2)oc2cc(O)cc(O)c12
REMARK SMILES IDX 4 1 3 2 2 3 1 4 21 5 19 6 18 7 16 8 15 9 14 10 13 11 5 12
REMARK SMILES IDX 6 13 7 14 8 15 12 16 10 17 9 18 11 20 20 22 17 24
REMARK H PARENT 9 19 11 21 20 23 17 25
REMARK Flexibility Score: inf
ROOT
ATOM      1  C   UNL     1     217.783 221.524 224.486  1.00  0.00     0.138 A 
ATOM      2  C   UNL     1     217.797 220.123 224.442  1.00  0.00     0.100 A 
ATOM      3  C   UNL     1     216.598 219.417 224.551  1.00  0.00     0.197 A 
ATOM      4  O   UNL     1     216.636 218.163 224.445  1.00  0.00    -0.289 OA
ATOM      5  C   UNL     1     215.383 220.118 224.737  1.00  0.00     0.107 A 
ATOM      6  C   UNL     1     214.107 219.502 224.901  1.00  0.00     0.134 A 
ATOM      7  C   UNL     1     212.957 220.300 224.960  1.00  0.00     0.093 A 
ATOM      8  C   UNL     1     213.045 221.694 224.923  1.00  0.00     0.123 A 
ATOM      9  C   UNL     1     214.292 222.306 224.817  1.00  0.00     0.094 A 
ATOM     10  C   UNL     1     215.454 221.536 224.721  1.00  0.00     0.146 A 
ATOM     11  O   UNL     1     216.621 222.160 224.606  1.00  0.00    -0.456 OA
ENDROOT
BRANCH   1  12
ATOM     12  C   UNL     1     219.028 222.325 224.376  1.00  0.00     0.021 A 
ATOM     13  C   UNL     1     219.037 223.598 223.774  1.00  0.00     0.016 A 
ATOM     14  C   UNL     1     220.226 224.325 223.673  1.00  0.00     0.051 A 
ATOM     15  C   UNL     1     221.425 223.794 224.164  1.00  0.00     0.157 A 
ATOM     16  C   UNL     1     220.239 221.793 224.853  1.00  0.00     0.062 A 
ATOM     17  C   UNL     1     221.431 222.519 224.755  1.00  0.00     0.158 A 
BRANCH  15  18
ATOM     18  O   UNL     1     222.609 224.524 224.063  1.00  0.00    -0.504 OA
ATOM     19  H   UNL     1     223.218 224.438 223.258  1.00  0.00     0.293 HD
ENDBRANCH  15  18
BRANCH  17  20
ATOM     20  O   UNL     1     222.608 221.960 225.248  1.00  0.00    -0.504 OA
ATOM     21  H   UNL     1     222.726 221.732 226.229  1.00  0.00     0.293 HD
ENDBRANCH  17  20
ENDBRANCH   1  12
BRANCH   6  22
ATOM     22  O   UNL     1     213.916 218.123 225.034  1.00  0.00    -0.507 OA
ATOM     23  H   UNL     1     214.654 217.436 225.029  1.00  0.00     0.293 HD
ENDBRANCH   6  22
BRANCH   8  24
ATOM     24  O   UNL     1     211.898 222.481 224.999  1.00  0.00    -0.508 OA
ATOM     25  H   UNL     1     211.445 222.672 225.885  1.00  0.00     0.293 HD
ENDBRANCH   8  24
TORSDOF 5
ENDMDL
MODEL 8
REMARK VINA RESULT:    -5.024      5.043      7.178
REMARK INTER + INTRA:          -6.221
REMARK INTER:                  -5.935
REMARK INTRA:                  -0.286
REMARK UNBOUND:                -0.316
REMARK SMILES O=c1cc(-c2ccc(O)c(O)c2)oc2cc(O)cc(O)c12
REMARK SMILES IDX 4 1 3 2 2 3 1 4 21 5 19 6 18 7 16 8 15 9 14 10 13 11 5 12
REMARK SMILES IDX 6 13 7 14 8 15 12 16 10 17 9 18 11 20 20 22 17 24
REMARK H PARENT 9 19 11 21 20 23 17 25
REMARK Flexibility Score: inf
ROOT
ATOM      1  C   UNL     1     212.885 217.814 224.506  1.00  0.00     0.138 A 
ATOM      2  C   UNL     1     214.287 217.825 224.477  1.00  0.00     0.100 A 
ATOM      3  C   UNL     1     214.988 216.624 224.595  1.00  0.00     0.197 A 
ATOM      4  O   UNL     1     216.243 216.658 224.502  1.00  0.00    -0.289 OA
ATOM      5  C   UNL     1     214.281 215.411 224.775  1.00  0.00     0.107 A 
ATOM      6  C   UNL     1     214.892 214.133 224.947  1.00  0.00     0.134 A 
ATOM      7  C   UNL     1     214.090 212.986 225.000  1.00  0.00     0.093 A 
ATOM      8  C   UNL     1     212.697 213.078 224.947  1.00  0.00     0.123 A 
ATOM      9  C   UNL     1     212.089 214.326 224.833  1.00  0.00     0.094 A 
ATOM     10  C   UNL     1     212.864 215.486 224.744  1.00  0.00     0.146 A 
ATOM     11  O   UNL     1     212.244 216.655 224.621  1.00  0.00    -0.456 OA
ENDROOT
BRANCH   1  12
ATOM     12  C   UNL     1     212.089 219.062 224.386  1.00  0.00     0.021 A 
ATOM     13  C   UNL     1     210.814 219.070 223.790  1.00  0.00     0.016 A 
ATOM     14  C   UNL     1     210.091 220.261 223.679  1.00  0.00     0.051 A 
ATOM     15  C   UNL     1     210.630 221.463 224.154  1.00  0.00     0.157 A 
ATOM     16  C   UNL     1     212.629 220.276 224.848  1.00  0.00     0.062 A 
ATOM     17  C   UNL     1     211.907 221.470 224.739  1.00  0.00     0.158 A 
BRANCH  15  18
ATOM     18  O   UNL     1     209.905 222.649 224.044  1.00  0.00    -0.504 OA
ATOM     19  H   UNL     1     208.992 222.754 224.471  1.00  0.00     0.293 HD
ENDBRANCH  15  18
BRANCH  17  20
ATOM     20  O   UNL     1     212.474 222.650 225.218  1.00  0.00    -0.504 OA
ATOM     21  H   UNL     1     212.107 223.562 224.971  1.00  0.00     0.293 HD
ENDBRANCH  17  20
ENDBRANCH   1  12
BRANCH   6  22
ATOM     22  O   UNL     1     216.269 213.939 225.096  1.00  0.00    -0.507 OA
ATOM     23  H   UNL     1     216.800 213.209 224.646  1.00  0.00     0.293 HD
ENDBRANCH   6  22
BRANCH   8  24
ATOM     24  O   UNL     1     211.906 211.933 225.016  1.00  0.00    -0.508 OA
ATOM     25  H   UNL     1     210.906 211.970 224.854  1.00  0.00     0.293 HD
ENDBRANCH   8  24
TORSDOF 5
ENDMDL
MODEL 9
REMARK VINA RESULT:    -5.008      6.987      8.782
REMARK INTER + INTRA:          -6.203
REMARK INTER:                  -5.917
REMARK INTRA:                  -0.286
REMARK UNBOUND:                -0.316
REMARK SMILES O=c1cc(-c2ccc(O)c(O)c2)oc2cc(O)cc(O)c12
REMARK SMILES IDX 4 1 3 2 2 3 1 4 21 5 19 6 18 7 16 8 15 9 14 10 13 11 5 12
REMARK SMILES IDX 6 13 7 14 8 15 12 16 10 17 9 18 11 20 20 22 17 24
REMARK H PARENT 9 19 11 21 20 23 17 25
REMARK Flexibility Score: inf
ROOT
ATOM      1  C   UNL     1     216.560 212.923 224.480  1.00  0.00     0.138 A 
ATOM      2  C   UNL     1     216.560 214.323 224.409  1.00  0.00     0.100 A 
ATOM      3  C   UNL     1     217.768 215.017 224.484  1.00  0.00     0.197 A 
ATOM      4  O   UNL     1     217.742 216.270 224.356  1.00  0.00    -0.289 OA
ATOM      5  C   UNL     1     218.979 214.307 224.662  1.00  0.00     0.107 A 
ATOM      6  C   UNL     1     220.265 214.912 224.792  1.00  0.00     0.134 A 
ATOM      7  C   UNL     1     221.407 214.102 224.847  1.00  0.00     0.093 A 
ATOM      8  C   UNL     1     221.303 212.709 224.837  1.00  0.00     0.123 A 
ATOM      9  C   UNL     1     220.048 212.108 224.765  1.00  0.00     0.094 A 
ATOM     10  C   UNL     1     218.893 212.889 224.674  1.00  0.00     0.146 A 
ATOM     11  O   UNL     1     217.717 212.276 224.592  1.00  0.00    -0.456 OA
ENDROOT
BRANCH   1  12
ATOM     12  C   UNL     1     215.304 212.134 224.407  1.00  0.00     0.021 A 
ATOM     13  C   UNL     1     215.275 210.844 223.844  1.00  0.00     0.016 A 
ATOM     14  C   UNL     1     214.076 210.128 223.777  1.00  0.00     0.051 A 
ATOM     15  C   UNL     1     212.888 210.689 224.264  1.00  0.00     0.157 A 
ATOM     16  C   UNL     1     214.105 212.695 224.880  1.00  0.00     0.062 A 
ATOM     17  C   UNL     1     212.904 211.980 224.816  1.00  0.00     0.158 A 
BRANCH  15  18
ATOM     18  O   UNL     1     211.695 209.970 224.197  1.00  0.00    -0.504 OA
ATOM     19  H   UNL     1     210.794 210.434 224.227  1.00  0.00     0.293 HD
ENDBRANCH  15  18
BRANCH  17  20
ATOM     20  O   UNL     1     211.738 212.569 225.304  1.00  0.00    -0.504 OA
ATOM     21  H   UNL     1     210.874 212.049 225.402  1.00  0.00     0.293 HD
ENDBRANCH  17  20
ENDBRANCH   1  12
BRANCH   6  22
ATOM     22  O   UNL     1     220.473 216.291 224.896  1.00  0.00    -0.507 OA
ATOM     23  H   UNL     1     221.376 216.734 224.952  1.00  0.00     0.293 HD
ENDBRANCH   6  22
BRANCH   8  24
ATOM     24  O   UNL     1     222.443 211.910 224.907  1.00  0.00    -0.508 OA
ATOM     25  H   UNL     1     222.401 210.957 225.249  1.00  0.00     0.293 HD
ENDBRANCH   8  24
TORSDOF 5
ENDMDL
