MODEL 1
REMARK VINA RESULT:    -6.128      0.000      0.000
REMARK INTER + INTRA:          -6.947
REMARK INTER:                  -7.382
REMARK INTRA:                   0.435
REMARK UNBOUND:                 0.435
REMARK SMILES O=c1c(O)c(-c2ccc(O)c(O)c2)oc2cc(O)cc(O)c12
REMARK SMILES IDX 5 1 3 2 2 3 1 4 22 5 20 6 19 7 17 8 16 9 15 10 14 11 6 12
REMARK SMILES IDX 7 13 8 14 9 15 13 16 11 17 10 18 12 20 4 22 21 24 18 26
REMARK H PARENT 10 19 12 21 4 23 21 25 18 27
REMARK Flexibility Score: inf
ROOT
ATOM      1  C   UNL     1     -13.088  -8.475  -3.278  1.00  0.00     0.180 A 
ATOM      2  C   UNL     1     -12.382  -8.764  -4.458  1.00  0.00     0.208 A 
ATOM      3  C   UNL     1     -13.043  -8.646  -5.692  1.00  0.00     0.238 A 
ATOM      4  O   UNL     1     -12.390  -8.854  -6.749  1.00  0.00    -0.285 OA
ATOM      5  C   UNL     1     -14.403  -8.257  -5.730  1.00  0.00     0.111 A 
ATOM      6  C   UNL     1     -15.182  -8.144  -6.920  1.00  0.00     0.134 A 
ATOM      7  C   UNL     1     -16.481  -7.626  -6.849  1.00  0.00     0.093 A 
ATOM      8  C   UNL     1     -17.051  -7.276  -5.623  1.00  0.00     0.123 A 
ATOM      9  C   UNL     1     -16.320  -7.439  -4.449  1.00  0.00     0.094 A 
ATOM     10  C   UNL     1     -15.010  -7.920  -4.491  1.00  0.00     0.146 A 
ATOM     11  O   UNL     1     -14.344  -8.049  -3.349  1.00  0.00    -0.452 OA
ENDROOT
BRANCH   1  12
ATOM     12  C   UNL     1     -12.468  -8.600  -1.938  1.00  0.00     0.025 A 
ATOM     13  C   UNL     1     -11.080  -8.757  -1.787  1.00  0.00     0.016 A 
ATOM     14  C   UNL     1     -10.521  -8.898  -0.514  1.00  0.00     0.051 A 
ATOM     15  C   UNL     1     -11.339  -8.897   0.623  1.00  0.00     0.157 A 
ATOM     16  C   UNL     1     -13.287  -8.621  -0.798  1.00  0.00     0.062 A 
ATOM     17  C   UNL     1     -12.729  -8.761   0.479  1.00  0.00     0.158 A 
BRANCH  15  18
ATOM     18  O   UNL     1     -10.777  -9.035   1.892  1.00  0.00    -0.504 OA
ATOM     19  H   UNL     1     -10.753  -8.263   2.549  1.00  0.00     0.293 HD
ENDBRANCH  15  18
BRANCH  17  20
ATOM     20  O   UNL     1     -13.572  -8.764   1.590  1.00  0.00    -0.504 OA
ATOM     21  H   UNL     1     -14.581  -8.740   1.501  1.00  0.00     0.293 HD
ENDBRANCH  17  20
ENDBRANCH   1  12
BRANCH   2  22
ATOM     22  O   UNL     1     -11.034  -9.125  -4.401  1.00  0.00    -0.502 OA
ATOM     23  H   UNL     1     -10.310  -8.479  -4.115  1.00  0.00     0.293 HD
ENDBRANCH   2  22
BRANCH   6  24
ATOM     24  O   UNL     1     -14.740  -8.551  -8.183  1.00  0.00    -0.507 OA
ATOM     25  H   UNL     1     -14.115  -8.021  -8.771  1.00  0.00     0.293 HD
ENDBRANCH   6  24
BRANCH   8  26
ATOM     26  O   UNL     1     -18.349  -6.775  -5.560  1.00  0.00    -0.508 OA
ATOM     27  H   UNL     1     -18.985  -7.044  -4.817  1.00  0.00     0.293 HD
ENDBRANCH   8  26
TORSDOF 6
ENDMDL
MODEL 2
REMARK VINA RESULT:    -5.805      1.619      7.338
REMARK INTER + INTRA:          -6.558
REMARK INTER:                  -6.752
REMARK INTRA:                   0.195
REMARK UNBOUND:                 0.435
REMARK SMILES O=c1c(O)c(-c2ccc(O)c(O)c2)oc2cc(O)cc(O)c12
REMARK SMILES IDX 5 1 3 2 2 3 1 4 22 5 20 6 19 7 17 8 16 9 15 10 14 11 6 12
REMARK SMILES IDX 7 13 8 14 9 15 13 16 11 17 10 18 12 20 4 22 21 24 18 26
REMARK H PARENT 10 19 12 21 4 23 21 25 18 27
REMARK Flexibility Score: inf
ROOT
ATOM      1  C   UNL     1     -14.856  -8.147  -4.111  1.00  0.00     0.180 A 
ATOM      2  C   UNL     1     -15.455  -7.899  -2.864  1.00  0.00     0.208 A 
ATOM      3  C   UNL     1     -14.671  -7.995  -1.702  1.00  0.00     0.238 A 
ATOM      4  O   UNL     1     -15.199  -7.719  -0.593  1.00  0.00    -0.285 OA
ATOM      5  C   UNL     1     -13.306  -8.354  -1.800  1.00  0.00     0.111 A 
ATOM      6  C   UNL     1     -12.429  -8.520  -0.686  1.00  0.00     0.134 A 
ATOM      7  C   UNL     1     -11.066  -8.749  -0.908  1.00  0.00     0.093 A 
ATOM      8  C   UNL     1     -10.559  -8.881  -2.203  1.00  0.00     0.123 A 
ATOM      9  C   UNL     1     -11.417  -8.780  -3.296  1.00  0.00     0.094 A 
ATOM     10  C   UNL     1     -12.776  -8.517  -3.107  1.00  0.00     0.146 A 
ATOM     11  O   UNL     1     -13.557  -8.417  -4.176  1.00  0.00    -0.452 OA
ENDROOT
BRANCH   1  12
ATOM     12  C   UNL     1     -15.622  -8.090  -5.377  1.00  0.00     0.025 A 
ATOM     13  C   UNL     1     -16.971  -8.477  -5.434  1.00  0.00     0.016 A 
ATOM     14  C   UNL     1     -17.666  -8.438  -6.646  1.00  0.00     0.051 A 
ATOM     15  C   UNL     1     -17.022  -8.024  -7.819  1.00  0.00     0.157 A 
ATOM     16  C   UNL     1     -14.973  -7.696  -6.559  1.00  0.00     0.062 A 
ATOM     17  C   UNL     1     -15.667  -7.654  -7.774  1.00  0.00     0.158 A 
BRANCH  15  18
ATOM     18  O   UNL     1     -17.719  -7.984  -9.026  1.00  0.00    -0.504 OA
ATOM     19  H   UNL     1     -18.723  -8.120  -9.063  1.00  0.00     0.293 HD
ENDBRANCH  15  18
BRANCH  17  20
ATOM     20  O   UNL     1     -14.995  -7.244  -8.926  1.00  0.00    -0.504 OA
ATOM     21  H   UNL     1     -15.176  -6.351  -9.366  1.00  0.00     0.293 HD
ENDBRANCH  17  20
ENDBRANCH   1  12
BRANCH   2  22
ATOM     22  O   UNL     1     -16.799  -7.525  -2.791  1.00  0.00    -0.502 OA
ATOM     23  H   UNL     1     -17.497  -8.092  -2.326  1.00  0.00     0.293 HD
ENDBRANCH   2  22
BRANCH   6  24
ATOM     24  O   UNL     1     -12.849  -8.498   0.647  1.00  0.00    -0.507 OA
ATOM     25  H   UNL     1     -13.705  -8.910   0.987  1.00  0.00     0.293 HD
ENDBRANCH   6  24
BRANCH   8  26
ATOM     26  O   UNL     1      -9.204  -9.124  -2.416  1.00  0.00    -0.508 OA
ATOM     27  H   UNL     1      -8.819  -9.197  -3.351  1.00  0.00     0.293 HD
ENDBRANCH   8  26
TORSDOF 6
ENDMDL
MODEL 3
REMARK VINA RESULT:    -5.698      2.855      7.576
REMARK INTER + INTRA:          -6.429
REMARK INTER:                  -6.113
REMARK INTRA:                  -0.316
REMARK UNBOUND:                 0.435
REMARK SMILES O=c1c(O)c(-c2ccc(O)c(O)c2)oc2cc(O)cc(O)c12
REMARK SMILES IDX 5 1 3 2 2 3 1 4 22 5 20 6 19 7 17 8 16 9 15 10 14 11 6 12
REMARK SMILES IDX 7 13 8 14 9 15 13 16 11 17 10 18 12 20 4 22 21 24 18 26
REMARK H PARENT 10 19 12 21 4 23 21 25 18 27
REMARK Flexibility Score: inf
ROOT
ATOM      1  C   UNL     1     -16.079  -6.263  -4.537  1.00  0.00     0.180 A 
ATOM      2  C   UNL     1     -16.199  -4.879  -4.328  1.00  0.00     0.208 A 
ATOM      3  C   UNL     1     -15.877  -4.352  -3.067  1.00  0.00     0.238 A 
ATOM      4  O   UNL     1     -15.935  -3.105  -2.902  1.00  0.00    -0.285 OA
ATOM      5  C   UNL     1     -15.457  -5.215  -2.027  1.00  0.00     0.111 A 
ATOM      6  C   UNL     1     -15.145  -4.794  -0.700  1.00  0.00     0.134 A 
ATOM      7  C   UNL     1     -14.615  -5.716   0.211  1.00  0.00     0.093 A 
ATOM      8  C   UNL     1     -14.445  -7.058  -0.139  1.00  0.00     0.123 A 
ATOM      9  C   UNL     1     -14.803  -7.491  -1.414  1.00  0.00     0.094 A 
ATOM     10  C   UNL     1     -15.301  -6.587  -2.355  1.00  0.00     0.146 A 
ATOM     11  O   UNL     1     -15.619  -7.039  -3.562  1.00  0.00    -0.452 OA
ENDROOT
BRANCH   1  12
ATOM     12  C   UNL     1     -16.422  -6.898  -5.831  1.00  0.00     0.025 A 
ATOM     13  C   UNL     1     -17.682  -7.481  -6.048  1.00  0.00     0.016 A 
ATOM     14  C   UNL     1     -17.975  -8.095  -7.268  1.00  0.00     0.051 A 
ATOM     15  C   UNL     1     -17.012  -8.147  -8.284  1.00  0.00     0.157 A 
ATOM     16  C   UNL     1     -15.452  -6.971  -6.844  1.00  0.00     0.062 A 
ATOM     17  C   UNL     1     -15.743  -7.584  -8.068  1.00  0.00     0.158 A 
BRANCH  15  18
ATOM     18  O   UNL     1     -17.308  -8.759  -9.501  1.00  0.00    -0.504 OA
ATOM     19  H   UNL     1     -16.889  -8.444 -10.369  1.00  0.00     0.293 HD
ENDBRANCH  15  18
BRANCH  17  20
ATOM     20  O   UNL     1     -14.760  -7.626  -9.056  1.00  0.00    -0.504 OA
ATOM     21  H   UNL     1     -14.070  -6.892  -9.161  1.00  0.00     0.293 HD
ENDBRANCH  17  20
ENDBRANCH   1  12
BRANCH   2  22
ATOM     22  O   UNL     1     -16.594  -4.041  -5.374  1.00  0.00    -0.502 OA
ATOM     23  H   UNL     1     -16.214  -4.122  -6.309  1.00  0.00     0.293 HD
ENDBRANCH   2  22
BRANCH   6  24
ATOM     24  O   UNL     1     -15.362  -3.499  -0.221  1.00  0.00    -0.507 OA
ATOM     25  H   UNL     1     -14.907  -2.671  -0.575  1.00  0.00     0.293 HD
ENDBRANCH   6  24
BRANCH   8  26
ATOM     26  O   UNL     1     -13.931  -7.972   0.778  1.00  0.00    -0.508 OA
ATOM     27  H   UNL     1     -13.045  -7.814   1.243  1.00  0.00     0.293 HD
ENDBRANCH   8  26
TORSDOF 6
ENDMDL
MODEL 4
REMARK VINA RESULT:    -5.682      1.340      2.894
REMARK INTER + INTRA:          -6.410
REMARK INTER:                  -6.886
REMARK INTRA:                   0.476
REMARK UNBOUND:                 0.435
REMARK SMILES O=c1c(O)c(-c2ccc(O)c(O)c2)oc2cc(O)cc(O)c12
REMARK SMILES IDX 5 1 3 2 2 3 1 4 22 5 20 6 19 7 17 8 16 9 15 10 14 11 6 12
REMARK SMILES IDX 7 13 8 14 9 15 13 16 11 17 10 18 12 20 4 22 21 24 18 26
REMARK H PARENT 10 19 12 21 4 23 21 25 18 27
REMARK Flexibility Score: inf
ROOT
ATOM      1  C   UNL     1     -14.079  -8.384  -2.777  1.00  0.00     0.180 A 
ATOM      2  C   UNL     1     -15.406  -8.497  -2.328  1.00  0.00     0.208 A 
ATOM      3  C   UNL     1     -16.452  -8.296  -3.242  1.00  0.00     0.238 A 
ATOM      4  O   UNL     1     -17.638  -8.453  -2.847  1.00  0.00    -0.285 OA
ATOM      5  C   UNL     1     -16.161  -7.968  -4.588  1.00  0.00     0.111 A 
ATOM      6  C   UNL     1     -17.142  -7.704  -5.589  1.00  0.00     0.134 A 
ATOM      7  C   UNL     1     -16.741  -7.517  -6.917  1.00  0.00     0.093 A 
ATOM      8  C   UNL     1     -15.389  -7.522  -7.269  1.00  0.00     0.123 A 
ATOM      9  C   UNL     1     -14.420  -7.720  -6.289  1.00  0.00     0.094 A 
ATOM     10  C   UNL     1     -14.791  -7.944  -4.961  1.00  0.00     0.146 A 
ATOM     11  O   UNL     1     -13.836  -8.139  -4.059  1.00  0.00    -0.452 OA
ENDROOT
BRANCH   1  12
ATOM     12  C   UNL     1     -12.922  -8.557  -1.868  1.00  0.00     0.025 A 
ATOM     13  C   UNL     1     -11.630  -8.798  -2.366  1.00  0.00     0.016 A 
ATOM     14  C   UNL     1     -10.558  -8.982  -1.489  1.00  0.00     0.051 A 
ATOM     15  C   UNL     1     -10.762  -8.942  -0.103  1.00  0.00     0.157 A 
ATOM     16  C   UNL     1     -13.126  -8.539  -0.479  1.00  0.00     0.062 A 
ATOM     17  C   UNL     1     -12.054  -8.723   0.403  1.00  0.00     0.158 A 
BRANCH  15  18
ATOM     18  O   UNL     1      -9.690  -9.124   0.769  1.00  0.00    -0.504 OA
ATOM     19  H   UNL     1      -9.614  -9.952   1.350  1.00  0.00     0.293 HD
ENDBRANCH  15  18
BRANCH  17  20
ATOM     20  O   UNL     1     -12.292  -8.685   1.777  1.00  0.00    -0.504 OA
ATOM     21  H   UNL     1     -13.030  -9.225   2.210  1.00  0.00     0.293 HD
ENDBRANCH  17  20
ENDBRANCH   1  12
BRANCH   2  22
ATOM     22  O   UNL     1     -15.672  -8.844  -1.001  1.00  0.00    -0.502 OA
ATOM     23  H   UNL     1     -15.561  -8.191  -0.235  1.00  0.00     0.293 HD
ENDBRANCH   2  22
BRANCH   6  24
ATOM     24  O   UNL     1     -18.511  -7.586  -5.328  1.00  0.00    -0.507 OA
ATOM     25  H   UNL     1     -18.985  -8.008  -4.543  1.00  0.00     0.293 HD
ENDBRANCH   6  24
BRANCH   8  26
ATOM     26  O   UNL     1     -14.998  -7.320  -8.590  1.00  0.00    -0.508 OA
ATOM     27  H   UNL     1     -15.558  -7.654  -9.366  1.00  0.00     0.293 HD
ENDBRANCH   8  26
TORSDOF 6
ENDMDL
MODEL 5
REMARK VINA RESULT:    -5.360      1.428      6.770
REMARK INTER + INTRA:          -6.021
REMARK INTER:                  -6.302
REMARK INTRA:                   0.281
REMARK UNBOUND:                 0.435
REMARK SMILES O=c1c(O)c(-c2ccc(O)c(O)c2)oc2cc(O)cc(O)c12
REMARK SMILES IDX 5 1 3 2 2 3 1 4 22 5 20 6 19 7 17 8 16 9 15 10 14 11 6 12
REMARK SMILES IDX 7 13 8 14 9 15 13 16 11 17 10 18 12 20 4 22 21 24 18 26
REMARK H PARENT 10 19 12 21 4 23 21 25 18 27
REMARK Flexibility Score: inf
ROOT
ATOM      1  C   UNL     1     -14.160  -8.598  -3.997  1.00  0.00     0.180 A 
ATOM      2  C   UNL     1     -12.770  -8.760  -4.121  1.00  0.00     0.208 A 
ATOM      3  C   UNL     1     -11.987  -8.826  -2.957  1.00  0.00     0.238 A 
ATOM      4  O   UNL     1     -10.749  -9.026  -3.073  1.00  0.00    -0.285 OA
ATOM      5  C   UNL     1     -12.599  -8.714  -1.687  1.00  0.00     0.111 A 
ATOM      6  C   UNL     1     -11.898  -8.728  -0.444  1.00  0.00     0.134 A 
ATOM      7  C   UNL     1     -12.620  -8.741   0.756  1.00  0.00     0.093 A 
ATOM      8  C   UNL     1     -14.015  -8.675   0.759  1.00  0.00     0.123 A 
ATOM      9  C   UNL     1     -14.706  -8.601  -0.448  1.00  0.00     0.094 A 
ATOM     10  C   UNL     1     -14.016  -8.623  -1.662  1.00  0.00     0.146 A 
ATOM     11  O   UNL     1     -14.714  -8.561  -2.790  1.00  0.00    -0.452 OA
ENDROOT
BRANCH   1  12
ATOM     12  C   UNL     1     -15.050  -8.494  -5.176  1.00  0.00     0.025 A 
ATOM     13  C   UNL     1     -16.353  -9.020  -5.158  1.00  0.00     0.016 A 
ATOM     14  C   UNL     1     -17.166  -8.932  -6.292  1.00  0.00     0.051 A 
ATOM     15  C   UNL     1     -16.686  -8.329  -7.462  1.00  0.00     0.157 A 
ATOM     16  C   UNL     1     -14.565  -7.910  -6.358  1.00  0.00     0.062 A 
ATOM     17  C   UNL     1     -15.377  -7.819  -7.495  1.00  0.00     0.158 A 
BRANCH  15  18
ATOM     18  O   UNL     1     -17.500  -8.241  -8.590  1.00  0.00    -0.504 OA
ATOM     19  H   UNL     1     -18.326  -8.819  -8.695  1.00  0.00     0.293 HD
ENDBRANCH  15  18
BRANCH  17  20
ATOM     20  O   UNL     1     -14.867  -7.220  -8.646  1.00  0.00    -0.504 OA
ATOM     21  H   UNL     1     -15.433  -6.626  -9.240  1.00  0.00     0.293 HD
ENDBRANCH  17  20
ENDBRANCH   1  12
BRANCH   2  22
ATOM     22  O   UNL     1     -12.187  -8.891  -5.384  1.00  0.00    -0.502 OA
ATOM     23  H   UNL     1     -12.732  -8.899  -6.236  1.00  0.00     0.293 HD
ENDBRANCH   2  22
BRANCH   6  24
ATOM     24  O   UNL     1     -10.505  -8.701  -0.334  1.00  0.00    -0.507 OA
ATOM     25  H   UNL     1      -9.964  -9.304   0.268  1.00  0.00     0.293 HD
ENDBRANCH   6  24
BRANCH   8  26
ATOM     26  O   UNL     1     -14.725  -8.673   1.958  1.00  0.00    -0.508 OA
ATOM     27  H   UNL     1     -15.644  -9.094   2.030  1.00  0.00     0.293 HD
ENDBRANCH   8  26
TORSDOF 6
ENDMDL
MODEL 6
REMARK VINA RESULT:    -5.155      1.537      3.458
REMARK INTER + INTRA:          -5.775
REMARK INTER:                  -6.164
REMARK INTRA:                   0.389
REMARK UNBOUND:                 0.435
REMARK SMILES O=c1c(O)c(-c2ccc(O)c(O)c2)oc2cc(O)cc(O)c12
REMARK SMILES IDX 5 1 3 2 2 3 1 4 22 5 20 6 19 7 17 8 16 9 15 10 14 11 6 12
REMARK SMILES IDX 7 13 8 14 9 15 13 16 11 17 10 18 12 20 4 22 21 24 18 26
REMARK H PARENT 10 19 12 21 4 23 21 25 18 27
REMARK Flexibility Score: inf
ROOT
ATOM      1  C   UNL     1     -13.077  -8.240  -1.086  1.00  0.00     0.180 A 
ATOM      2  C   UNL     1     -14.355  -7.735  -0.797  1.00  0.00     0.208 A 
ATOM      3  C   UNL     1     -15.266  -7.545  -1.849  1.00  0.00     0.238 A 
ATOM      4  O   UNL     1     -16.428  -7.143  -1.577  1.00  0.00    -0.285 OA
ATOM      5  C   UNL     1     -14.882  -7.846  -3.178  1.00  0.00     0.111 A 
ATOM      6  C   UNL     1     -15.709  -7.654  -4.324  1.00  0.00     0.134 A 
ATOM      7  C   UNL     1     -15.273  -8.108  -5.575  1.00  0.00     0.093 A 
ATOM      8  C   UNL     1     -14.012  -8.690  -5.731  1.00  0.00     0.123 A 
ATOM      9  C   UNL     1     -13.173  -8.827  -4.627  1.00  0.00     0.094 A 
ATOM     10  C   UNL     1     -13.594  -8.416  -3.361  1.00  0.00     0.146 A 
ATOM     11  O   UNL     1     -12.768  -8.575  -2.334  1.00  0.00    -0.452 OA
ENDROOT
BRANCH   1  12
ATOM     12  C   UNL     1     -12.054  -8.445  -0.035  1.00  0.00     0.025 A 
ATOM     13  C   UNL     1     -10.683  -8.462  -0.342  1.00  0.00     0.016 A 
ATOM     14  C   UNL     1      -9.737  -8.681   0.663  1.00  0.00     0.051 A 
ATOM     15  C   UNL     1     -10.146  -8.898   1.985  1.00  0.00     0.157 A 
ATOM     16  C   UNL     1     -12.461  -8.684   1.288  1.00  0.00     0.062 A 
ATOM     17  C   UNL     1     -11.515  -8.902   2.297  1.00  0.00     0.158 A 
BRANCH  15  18
ATOM     18  O   UNL     1      -9.199  -9.114   2.986  1.00  0.00    -0.504 OA
ATOM     19  H   UNL     1      -8.206  -9.132   2.782  1.00  0.00     0.293 HD
ENDBRANCH  15  18
BRANCH  17  20
ATOM     20  O   UNL     1     -11.956  -9.122   3.602  1.00  0.00    -0.504 OA
ATOM     21  H   UNL     1     -11.888 -10.029   4.047  1.00  0.00     0.293 HD
ENDBRANCH  17  20
ENDBRANCH   1  12
BRANCH   2  22
ATOM     22  O   UNL     1     -14.723  -7.465   0.524  1.00  0.00    -0.502 OA
ATOM     23  H   UNL     1     -15.588  -6.998   0.763  1.00  0.00     0.293 HD
ENDBRANCH   2  22
BRANCH   6  24
ATOM     24  O   UNL     1     -16.946  -7.002  -4.294  1.00  0.00    -0.507 OA
ATOM     25  H   UNL     1     -17.072  -6.018  -4.110  1.00  0.00     0.293 HD
ENDBRANCH   6  24
BRANCH   8  26
ATOM     26  O   UNL     1     -13.579  -9.125  -6.981  1.00  0.00    -0.508 OA
ATOM     27  H   UNL     1     -12.598  -9.111  -7.236  1.00  0.00     0.293 HD
ENDBRANCH   8  26
TORSDOF 6
ENDMDL
MODEL 7
REMARK VINA RESULT:    -4.994      1.481      6.682
REMARK INTER + INTRA:          -5.581
REMARK INTER:                  -5.394
REMARK INTRA:                  -0.187
REMARK UNBOUND:                 0.435
REMARK SMILES O=c1c(O)c(-c2ccc(O)c(O)c2)oc2cc(O)cc(O)c12
REMARK SMILES IDX 5 1 3 2 2 3 1 4 22 5 20 6 19 7 17 8 16 9 15 10 14 11 6 12
REMARK SMILES IDX 7 13 8 14 9 15 13 16 11 17 10 18 12 20 4 22 21 24 18 26
REMARK H PARENT 10 19 12 21 4 23 21 25 18 27
REMARK Flexibility Score: inf
ROOT
ATOM      1  C   UNL     1     -14.033  -8.335  -3.211  1.00  0.00     0.180 A 
ATOM      2  C   UNL     1     -12.700  -8.576  -3.584  1.00  0.00     0.208 A 
ATOM      3  C   UNL     1     -11.749  -8.828  -2.583  1.00  0.00     0.238 A 
ATOM      4  O   UNL     1     -10.567  -9.096  -2.926  1.00  0.00    -0.285 OA
ATOM      5  C   UNL     1     -12.137  -8.819  -1.222  1.00  0.00     0.111 A 
ATOM      6  C   UNL     1     -11.250  -9.022  -0.123  1.00  0.00     0.134 A 
ATOM      7  C   UNL     1     -11.767  -9.122   1.174  1.00  0.00     0.093 A 
ATOM      8  C   UNL     1     -13.133  -8.963   1.419  1.00  0.00     0.123 A 
ATOM      9  C   UNL     1     -14.000  -8.705   0.360  1.00  0.00     0.094 A 
ATOM     10  C   UNL     1     -13.519  -8.635  -0.949  1.00  0.00     0.146 A 
ATOM     11  O   UNL     1     -14.381  -8.398  -1.931  1.00  0.00    -0.452 OA
ENDROOT
BRANCH   1  12
ATOM     12  C   UNL     1     -15.089  -8.038  -4.207  1.00  0.00     0.025 A 
ATOM     13  C   UNL     1     -15.516  -9.006  -5.131  1.00  0.00     0.016 A 
ATOM     14  C   UNL     1     -16.497  -8.695  -6.077  1.00  0.00     0.051 A 
ATOM     15  C   UNL     1     -17.054  -7.410  -6.123  1.00  0.00     0.157 A 
ATOM     16  C   UNL     1     -15.634  -6.745  -4.270  1.00  0.00     0.062 A 
ATOM     17  C   UNL     1     -16.617  -6.431  -5.216  1.00  0.00     0.158 A 
BRANCH  15  18
ATOM     18  O   UNL     1     -18.033  -7.103  -7.067  1.00  0.00    -0.504 OA
ATOM     19  H   UNL     1     -17.826  -6.532  -7.879  1.00  0.00     0.293 HD
ENDBRANCH  15  18
BRANCH  17  20
ATOM     20  O   UNL     1     -17.146  -5.140  -5.240  1.00  0.00    -0.504 OA
ATOM     21  H   UNL     1     -16.679  -4.376  -5.713  1.00  0.00     0.293 HD
ENDBRANCH  17  20
ENDBRANCH   1  12
BRANCH   2  22
ATOM     22  O   UNL     1     -12.341  -8.602  -4.934  1.00  0.00    -0.502 OA
ATOM     23  H   UNL     1     -11.993  -9.436  -5.388  1.00  0.00     0.293 HD
ENDBRANCH   2  22
BRANCH   6  24
ATOM     24  O   UNL     1      -9.859  -9.103  -0.248  1.00  0.00    -0.507 OA
ATOM     25  H   UNL     1      -9.371  -9.798  -0.792  1.00  0.00     0.293 HD
ENDBRANCH   6  24
BRANCH   8  26
ATOM     26  O   UNL     1     -13.638  -9.048   2.714  1.00  0.00    -0.508 OA
ATOM     27  H   UNL     1     -13.035  -9.238   3.507  1.00  0.00     0.293 HD
ENDBRANCH   8  26
TORSDOF 6
ENDMDL
MODEL 8
REMARK VINA RESULT:    -4.801      1.345      2.095
REMARK INTER + INTRA:          -5.348
REMARK INTER:                  -5.863
REMARK INTRA:                   0.515
REMARK UNBOUND:                 0.435
REMARK SMILES O=c1c(O)c(-c2ccc(O)c(O)c2)oc2cc(O)cc(O)c12
REMARK SMILES IDX 5 1 3 2 2 3 1 4 22 5 20 6 19 7 17 8 16 9 15 10 14 11 6 12
REMARK SMILES IDX 7 13 8 14 9 15 13 16 11 17 10 18 12 20 4 22 21 24 18 26
REMARK H PARENT 10 19 12 21 4 23 21 25 18 27
REMARK Flexibility Score: inf
ROOT
ATOM      1  C   UNL     1     -13.463  -8.357  -3.841  1.00  0.00     0.180 A 
ATOM      2  C   UNL     1     -13.153  -8.574  -5.194  1.00  0.00     0.208 A 
ATOM      3  C   UNL     1     -14.153  -8.374  -6.160  1.00  0.00     0.238 A 
ATOM      4  O   UNL     1     -13.855  -8.517  -7.375  1.00  0.00    -0.285 OA
ATOM      5  C   UNL     1     -15.451  -7.977  -5.761  1.00  0.00     0.111 A 
ATOM      6  C   UNL     1     -16.550  -7.784  -6.651  1.00  0.00     0.134 A 
ATOM      7  C   UNL     1     -17.754  -7.265  -6.159  1.00  0.00     0.093 A 
ATOM      8  C   UNL     1     -17.919  -6.991  -4.800  1.00  0.00     0.123 A 
ATOM      9  C   UNL     1     -16.872  -7.232  -3.913  1.00  0.00     0.094 A 
ATOM     10  C   UNL     1     -15.647  -7.716  -4.379  1.00  0.00     0.146 A 
ATOM     11  O   UNL     1     -14.671  -7.922  -3.503  1.00  0.00    -0.452 OA
ENDROOT
BRANCH   1  12
ATOM     12  C   UNL     1     -12.470  -8.571  -2.762  1.00  0.00     0.025 A 
ATOM     13  C   UNL     1     -12.844  -8.538  -1.408  1.00  0.00     0.016 A 
ATOM     14  C   UNL     1     -11.886  -8.719  -0.406  1.00  0.00     0.051 A 
ATOM     15  C   UNL     1     -10.541  -8.921  -0.741  1.00  0.00     0.157 A 
ATOM     16  C   UNL     1     -11.118  -8.752  -3.093  1.00  0.00     0.062 A 
ATOM     17  C   UNL     1     -10.156  -8.934  -2.092  1.00  0.00     0.158 A 
BRANCH  15  18
ATOM     18  O   UNL     1      -9.588  -9.102   0.260  1.00  0.00    -0.504 OA
ATOM     19  H   UNL     1      -9.848  -9.416   1.189  1.00  0.00     0.293 HD
ENDBRANCH  15  18
BRANCH  17  20
ATOM     20  O   UNL     1      -8.824  -9.125  -2.459  1.00  0.00    -0.504 OA
ATOM     21  H   UNL     1      -8.169  -9.622  -1.869  1.00  0.00     0.293 HD
ENDBRANCH  17  20
ENDBRANCH   1  12
BRANCH   2  22
ATOM     22  O   UNL     1     -11.860  -8.945  -5.570  1.00  0.00    -0.502 OA
ATOM     23  H   UNL     1     -11.352  -8.475  -6.308  1.00  0.00     0.293 HD
ENDBRANCH   2  22
BRANCH   6  24
ATOM     24  O   UNL     1     -16.521  -8.112  -8.010  1.00  0.00    -0.507 OA
ATOM     25  H   UNL     1     -17.323  -8.406  -8.547  1.00  0.00     0.293 HD
ENDBRANCH   6  24
BRANCH   8  26
ATOM     26  O   UNL     1     -19.125  -6.489  -4.316  1.00  0.00    -0.508 OA
ATOM     27  H   UNL     1     -19.807  -7.090  -3.867  1.00  0.00     0.293 HD
ENDBRANCH   8  26
TORSDOF 6
ENDMDL
