MODEL 1
REMARK VINA RESULT:    -6.593      0.000      0.000
REMARK INTER + INTRA:          -8.068
REMARK INTER:                  -7.749
REMARK INTRA:                  -0.318
REMARK UNBOUND:                -0.318
REMARK SMILES O=c1cc(-c2ccc(O)c(O)c2)oc2cc(O)cc(O)c12
REMARK SMILES IDX 4 1 3 2 2 3 1 4 21 5 19 6 18 7 16 8 15 9 14 10 13 11 5 12
REMARK SMILES IDX 6 13 7 14 8 15 12 16 10 17 9 18 11 20 20 22 17 24
REMARK H PARENT 9 19 11 21 20 23 17 25
REMARK Flexibility Score: inf
ROOT
ATOM      1  C   UNL     1     155.650 164.281 159.363  1.00  0.00     0.138 A 
ATOM      2  C   UNL     1     156.663 164.361 158.398  1.00  0.00     0.100 A 
ATOM      3  C   UNL     1     157.731 163.464 158.443  1.00  0.00     0.197 A 
ATOM      4  O   UNL     1     158.592 163.519 157.526  1.00  0.00    -0.289 OA
ATOM      5  C   UNL     1     157.800 162.504 159.480  1.00  0.00     0.107 A 
ATOM      6  C   UNL     1     158.862 161.566 159.649  1.00  0.00     0.134 A 
ATOM      7  C   UNL     1     158.766 160.587 160.646  1.00  0.00     0.093 A 
ATOM      8  C   UNL     1     157.673 160.549 161.516  1.00  0.00     0.123 A 
ATOM      9  C   UNL     1     156.656 161.494 161.392  1.00  0.00     0.094 A 
ATOM     10  C   UNL     1     156.708 162.462 160.387  1.00  0.00     0.146 A 
ATOM     11  O   UNL     1     155.710 163.335 160.295  1.00  0.00    -0.456 OA
ENDROOT
BRANCH   1  12
ATOM     12  C   UNL     1     154.492 165.211 159.362  1.00  0.00     0.021 A 
ATOM     13  C   UNL     1     154.446 166.254 158.424  1.00  0.00     0.016 A 
ATOM     14  C   UNL     1     153.366 167.138 158.397  1.00  0.00     0.051 A 
ATOM     15  C   UNL     1     152.303 166.995 159.296  1.00  0.00     0.157 A 
ATOM     16  C   UNL     1     153.417 165.057 160.257  1.00  0.00     0.062 A 
ATOM     17  C   UNL     1     152.328 165.938 160.235  1.00  0.00     0.158 A 
BRANCH  15  18
ATOM     18  O   UNL     1     151.256 167.915 159.220  1.00  0.00    -0.504 OA
ATOM     19  H   UNL     1     150.975 168.515 159.982  1.00  0.00     0.293 HD
ENDBRANCH  15  18
BRANCH  17  20
ATOM     20  O   UNL     1     151.297 165.722 161.152  1.00  0.00    -0.504 OA
ATOM     21  H   UNL     1     151.303 164.990 161.847  1.00  0.00     0.293 HD
ENDBRANCH  17  20
ENDBRANCH   1  12
BRANCH   6  22
ATOM     22  O   UNL     1     160.036 161.570 158.890  1.00  0.00    -0.507 OA
ATOM     23  H   UNL     1     160.962 161.720 159.261  1.00  0.00     0.293 HD
ENDBRANCH   6  22
BRANCH   8  24
ATOM     24  O   UNL     1     157.592 159.579 162.513  1.00  0.00    -0.508 OA
ATOM     25  H   UNL     1     156.848 158.890 162.523  1.00  0.00     0.293 HD
ENDBRANCH   8  24
TORSDOF 5
ENDMDL
MODEL 2
REMARK VINA RESULT:    -6.590      2.303      7.062
REMARK INTER + INTRA:          -8.064
REMARK INTER:                  -7.797
REMARK INTRA:                  -0.267
REMARK UNBOUND:                -0.318
REMARK SMILES O=c1cc(-c2ccc(O)c(O)c2)oc2cc(O)cc(O)c12
REMARK SMILES IDX 4 1 3 2 2 3 1 4 21 5 19 6 18 7 16 8 15 9 14 10 13 11 5 12
REMARK SMILES IDX 6 13 7 14 8 15 12 16 10 17 9 18 11 20 20 22 17 24
REMARK H PARENT 9 19 11 21 20 23 17 25
REMARK Flexibility Score: inf
ROOT
ATOM      1  C   UNL     1     156.358 162.622 159.993  1.00  0.00     0.138 A 
ATOM      2  C   UNL     1     155.751 163.642 160.739  1.00  0.00     0.100 A 
ATOM      3  C   UNL     1     154.716 164.388 160.173  1.00  0.00     0.197 A 
ATOM      4  O   UNL     1     154.149 165.254 160.888  1.00  0.00    -0.289 OA
ATOM      5  C   UNL     1     154.311 164.131 158.842  1.00  0.00     0.107 A 
ATOM      6  C   UNL     1     153.295 164.855 158.148  1.00  0.00     0.134 A 
ATOM      7  C   UNL     1     152.898 164.436 156.872  1.00  0.00     0.093 A 
ATOM      8  C   UNL     1     153.521 163.355 156.243  1.00  0.00     0.123 A 
ATOM      9  C   UNL     1     154.551 162.675 156.890  1.00  0.00     0.094 A 
ATOM     10  C   UNL     1     154.945 163.048 158.177  1.00  0.00     0.146 A 
ATOM     11  O   UNL     1     155.921 162.364 158.765  1.00  0.00    -0.456 OA
ENDROOT
BRANCH   1  12
ATOM     12  C   UNL     1     157.463 161.799 160.547  1.00  0.00     0.021 A 
ATOM     13  C   UNL     1     158.788 162.094 160.191  1.00  0.00     0.016 A 
ATOM     14  C   UNL     1     159.846 161.340 160.703  1.00  0.00     0.051 A 
ATOM     15  C   UNL     1     159.607 160.284 161.589  1.00  0.00     0.157 A 
ATOM     16  C   UNL     1     157.223 160.746 161.450  1.00  0.00     0.062 A 
ATOM     17  C   UNL     1     158.278 159.987 161.971  1.00  0.00     0.158 A 
BRANCH  15  18
ATOM     18  O   UNL     1     160.707 159.566 162.060  1.00  0.00    -0.504 OA
ATOM     19  H   UNL     1     161.193 159.776 162.921  1.00  0.00     0.293 HD
ENDBRANCH  15  18
BRANCH  17  20
ATOM     20  O   UNL     1     157.963 158.959 162.862  1.00  0.00    -0.504 OA
ATOM     21  H   UNL     1     158.645 158.340 163.276  1.00  0.00     0.293 HD
ENDBRANCH  17  20
ENDBRANCH   1  12
BRANCH   6  22
ATOM     22  O   UNL     1     152.669 165.999 158.651  1.00  0.00    -0.507 OA
ATOM     23  H   UNL     1     152.567 166.217 159.631  1.00  0.00     0.293 HD
ENDBRANCH   6  22
BRANCH   8  24
ATOM     24  O   UNL     1     153.129 162.953 154.967  1.00  0.00    -0.508 OA
ATOM     25  H   UNL     1     152.221 163.200 154.590  1.00  0.00     0.293 HD
ENDBRANCH   8  24
TORSDOF 5
ENDMDL
MODEL 3
REMARK VINA RESULT:    -6.579      8.300     11.886
REMARK INTER + INTRA:          -8.051
REMARK INTER:                  -7.786
REMARK INTRA:                  -0.265
REMARK UNBOUND:                -0.318
REMARK SMILES O=c1cc(-c2ccc(O)c(O)c2)oc2cc(O)cc(O)c12
REMARK SMILES IDX 4 1 3 2 2 3 1 4 21 5 19 6 18 7 16 8 15 9 14 10 13 11 5 12
REMARK SMILES IDX 6 13 7 14 8 15 12 16 10 17 9 18 11 20 20 22 17 24
REMARK H PARENT 9 19 11 21 20 23 17 25
REMARK Flexibility Score: inf
ROOT
ATOM      1  C   UNL     1     166.102 159.859 159.978  1.00  0.00     0.138 A 
ATOM      2  C   UNL     1     166.724 158.839 160.714  1.00  0.00     0.100 A 
ATOM      3  C   UNL     1     167.748 158.094 160.129  1.00  0.00     0.197 A 
ATOM      4  O   UNL     1     168.330 157.229 160.835  1.00  0.00    -0.289 OA
ATOM      5  C   UNL     1     168.128 158.349 158.791  1.00  0.00     0.107 A 
ATOM      6  C   UNL     1     169.131 157.625 158.079  1.00  0.00     0.134 A 
ATOM      7  C   UNL     1     169.503 158.043 156.795  1.00  0.00     0.093 A 
ATOM      8  C   UNL     1     168.867 159.122 156.176  1.00  0.00     0.123 A 
ATOM      9  C   UNL     1     167.850 159.802 156.841  1.00  0.00     0.094 A 
ATOM     10  C   UNL     1     167.480 159.430 158.136  1.00  0.00     0.146 A 
ATOM     11  O   UNL     1     166.515 160.115 158.742  1.00  0.00    -0.456 OA
ENDROOT
BRANCH   1  12
ATOM     12  C   UNL     1     165.007 160.681 160.552  1.00  0.00     0.021 A 
ATOM     13  C   UNL     1     163.675 160.379 160.228  1.00  0.00     0.016 A 
ATOM     14  C   UNL     1     162.627 161.133 160.759  1.00  0.00     0.051 A 
ATOM     15  C   UNL     1     162.882 162.196 161.632  1.00  0.00     0.157 A 
ATOM     16  C   UNL     1     165.264 161.741 161.442  1.00  0.00     0.062 A 
ATOM     17  C   UNL     1     164.218 162.500 161.981  1.00  0.00     0.158 A 
BRANCH  15  18
ATOM     18  O   UNL     1     161.790 162.913 162.124  1.00  0.00    -0.504 OA
ATOM     19  H   UNL     1     160.889 162.502 162.327  1.00  0.00     0.293 HD
ENDBRANCH  15  18
BRANCH  17  20
ATOM     20  O   UNL     1     164.549 163.535 162.858  1.00  0.00    -0.504 OA
ATOM     21  H   UNL     1     164.255 164.493 162.739  1.00  0.00     0.293 HD
ENDBRANCH  17  20
ENDBRANCH   1  12
BRANCH   6  22
ATOM     22  O   UNL     1     169.768 156.483 158.571  1.00  0.00    -0.507 OA
ATOM     23  H   UNL     1     170.184 156.404 159.487  1.00  0.00     0.293 HD
ENDBRANCH   6  22
BRANCH   8  24
ATOM     24  O   UNL     1     169.235 159.522 154.892  1.00  0.00    -0.508 OA
ATOM     25  H   UNL     1     170.139 159.941 154.706  1.00  0.00     0.293 HD
ENDBRANCH   8  24
TORSDOF 5
ENDMDL
MODEL 4
REMARK VINA RESULT:    -6.502      8.349     10.910
REMARK INTER + INTRA:          -7.960
REMARK INTER:                  -7.681
REMARK INTRA:                  -0.280
REMARK UNBOUND:                -0.318
REMARK SMILES O=c1cc(-c2ccc(O)c(O)c2)oc2cc(O)cc(O)c12
REMARK SMILES IDX 4 1 3 2 2 3 1 4 21 5 19 6 18 7 16 8 15 9 14 10 13 11 5 12
REMARK SMILES IDX 6 13 7 14 8 15 12 16 10 17 9 18 11 20 20 22 17 24
REMARK H PARENT 9 19 11 21 20 23 17 25
REMARK Flexibility Score: inf
ROOT
ATOM      1  C   UNL     1     165.473 160.933 160.480  1.00  0.00     0.138 A 
ATOM      2  C   UNL     1     166.052 161.732 159.483  1.00  0.00     0.100 A 
ATOM      3  C   UNL     1     166.991 161.177 158.614  1.00  0.00     0.197 A 
ATOM      4  O   UNL     1     167.446 161.902 157.691  1.00  0.00    -0.289 OA
ATOM      5  C   UNL     1     167.378 159.825 158.766  1.00  0.00     0.107 A 
ATOM      6  C   UNL     1     168.357 159.165 157.965  1.00  0.00     0.134 A 
ATOM      7  C   UNL     1     168.574 157.792 158.131  1.00  0.00     0.093 A 
ATOM      8  C   UNL     1     167.889 157.068 159.111  1.00  0.00     0.123 A 
ATOM      9  C   UNL     1     166.970 157.714 159.935  1.00  0.00     0.094 A 
ATOM     10  C   UNL     1     166.708 159.076 159.769  1.00  0.00     0.146 A 
ATOM     11  O   UNL     1     165.813 159.651 160.566  1.00  0.00    -0.456 OA
ENDROOT
BRANCH   1  12
ATOM     12  C   UNL     1     164.468 161.473 161.431  1.00  0.00     0.021 A 
ATOM     13  C   UNL     1     163.327 160.713 161.733  1.00  0.00     0.016 A 
ATOM     14  C   UNL     1     162.371 161.195 162.629  1.00  0.00     0.051 A 
ATOM     15  C   UNL     1     162.536 162.437 163.251  1.00  0.00     0.157 A 
ATOM     16  C   UNL     1     164.643 162.716 162.067  1.00  0.00     0.062 A 
ATOM     17  C   UNL     1     163.690 163.205 162.970  1.00  0.00     0.158 A 
BRANCH  15  18
ATOM     18  O   UNL     1     161.541 162.863 164.133  1.00  0.00    -0.504 OA
ATOM     19  H   UNL     1     160.641 162.414 164.228  1.00  0.00     0.293 HD
ENDBRANCH  15  18
BRANCH  17  20
ATOM     20  O   UNL     1     163.931 164.446 163.563  1.00  0.00    -0.504 OA
ATOM     21  H   UNL     1     163.881 164.617 164.557  1.00  0.00     0.293 HD
ENDBRANCH  17  20
ENDBRANCH   1  12
BRANCH   6  22
ATOM     22  O   UNL     1     169.156 159.812 157.017  1.00  0.00    -0.507 OA
ATOM     23  H   UNL     1     169.846 160.516 157.229  1.00  0.00     0.293 HD
ENDBRANCH   6  22
BRANCH   8  24
ATOM     24  O   UNL     1     168.122 155.704 159.279  1.00  0.00    -0.508 OA
ATOM     25  H   UNL     1     168.787 155.204 158.700  1.00  0.00     0.293 HD
ENDBRANCH   8  24
TORSDOF 5
ENDMDL
MODEL 5
REMARK VINA RESULT:    -6.459      2.249      7.131
REMARK INTER + INTRA:          -7.910
REMARK INTER:                  -7.630
REMARK INTRA:                  -0.280
REMARK UNBOUND:                -0.318
REMARK SMILES O=c1cc(-c2ccc(O)c(O)c2)oc2cc(O)cc(O)c12
REMARK SMILES IDX 4 1 3 2 2 3 1 4 21 5 19 6 18 7 16 8 15 9 14 10 13 11 5 12
REMARK SMILES IDX 6 13 7 14 8 15 12 16 10 17 9 18 11 20 20 22 17 24
REMARK H PARENT 9 19 11 21 20 23 17 25
REMARK Flexibility Score: inf
ROOT
ATOM      1  C   UNL     1     156.996 161.657 160.464  1.00  0.00     0.138 A 
ATOM      2  C   UNL     1     156.412 160.849 159.478  1.00  0.00     0.100 A 
ATOM      3  C   UNL     1     155.451 161.390 158.623  1.00  0.00     0.197 A 
ATOM      4  O   UNL     1     154.991 160.659 157.708  1.00  0.00    -0.289 OA
ATOM      5  C   UNL     1     155.050 162.738 158.780  1.00  0.00     0.107 A 
ATOM      6  C   UNL     1     154.050 163.384 157.993  1.00  0.00     0.134 A 
ATOM      7  C   UNL     1     153.818 164.755 158.161  1.00  0.00     0.093 A 
ATOM      8  C   UNL     1     154.509 165.489 159.128  1.00  0.00     0.123 A 
ATOM      9  C   UNL     1     155.450 164.856 159.938  1.00  0.00     0.094 A 
ATOM     10  C   UNL     1     155.727 163.497 159.771  1.00  0.00     0.146 A 
ATOM     11  O   UNL     1     156.642 162.934 160.554  1.00  0.00    -0.456 OA
ENDROOT
BRANCH   1  12
ATOM     12  C   UNL     1     158.023 161.132 161.400  1.00  0.00     0.021 A 
ATOM     13  C   UNL     1     159.156 161.909 161.688  1.00  0.00     0.016 A 
ATOM     14  C   UNL     1     160.132 161.441 162.570  1.00  0.00     0.051 A 
ATOM     15  C   UNL     1     159.996 160.195 163.191  1.00  0.00     0.157 A 
ATOM     16  C   UNL     1     157.878 159.884 162.036  1.00  0.00     0.062 A 
ATOM     17  C   UNL     1     158.851 159.409 162.924  1.00  0.00     0.158 A 
BRANCH  15  18
ATOM     18  O   UNL     1     161.010 159.784 164.057  1.00  0.00    -0.504 OA
ATOM     19  H   UNL     1     161.056 160.037 165.034  1.00  0.00     0.293 HD
ENDBRANCH  15  18
BRANCH  17  20
ATOM     20  O   UNL     1     158.638 158.163 163.517  1.00  0.00    -0.504 OA
ATOM     21  H   UNL     1     158.687 157.285 163.021  1.00  0.00     0.293 HD
ENDBRANCH  17  20
ENDBRANCH   1  12
BRANCH   6  22
ATOM     22  O   UNL     1     153.244 162.726 157.059  1.00  0.00    -0.507 OA
ATOM     23  H   UNL     1     152.246 162.843 156.974  1.00  0.00     0.293 HD
ENDBRANCH   6  22
BRANCH   8  24
ATOM     24  O   UNL     1     154.263 166.850 159.298  1.00  0.00    -0.508 OA
ATOM     25  H   UNL     1     154.808 167.411 159.943  1.00  0.00     0.293 HD
ENDBRANCH   8  24
TORSDOF 5
ENDMDL
MODEL 6
REMARK VINA RESULT:    -6.392      2.307      7.186
REMARK INTER + INTRA:          -7.831
REMARK INTER:                  -7.558
REMARK INTRA:                  -0.273
REMARK UNBOUND:                -0.318
REMARK SMILES O=c1cc(-c2ccc(O)c(O)c2)oc2cc(O)cc(O)c12
REMARK SMILES IDX 4 1 3 2 2 3 1 4 21 5 19 6 18 7 16 8 15 9 14 10 13 11 5 12
REMARK SMILES IDX 6 13 7 14 8 15 12 16 10 17 9 18 11 20 20 22 17 24
REMARK H PARENT 9 19 11 21 20 23 17 25
REMARK Flexibility Score: inf
ROOT
ATOM      1  C   UNL     1     156.306 162.703 159.962  1.00  0.00     0.138 A 
ATOM      2  C   UNL     1     155.691 163.742 160.675  1.00  0.00     0.100 A 
ATOM      3  C   UNL     1     154.680 164.489 160.071  1.00  0.00     0.197 A 
ATOM      4  O   UNL     1     154.104 165.373 160.756  1.00  0.00    -0.289 OA
ATOM      5  C   UNL     1     154.306 164.215 158.734  1.00  0.00     0.107 A 
ATOM      6  C   UNL     1     153.317 164.938 158.002  1.00  0.00     0.134 A 
ATOM      7  C   UNL     1     152.949 164.502 156.723  1.00  0.00     0.093 A 
ATOM      8  C   UNL     1     153.576 163.405 156.128  1.00  0.00     0.123 A 
ATOM      9  C   UNL     1     154.580 162.724 156.813  1.00  0.00     0.094 A 
ATOM     10  C   UNL     1     154.945 163.115 158.103  1.00  0.00     0.146 A 
ATOM     11  O   UNL     1     155.898 162.430 158.728  1.00  0.00    -0.456 OA
ENDROOT
BRANCH   1  12
ATOM     12  C   UNL     1     157.387 161.877 160.558  1.00  0.00     0.021 A 
ATOM     13  C   UNL     1     157.062 160.898 161.510  1.00  0.00     0.016 A 
ATOM     14  C   UNL     1     158.059 160.104 162.080  1.00  0.00     0.051 A 
ATOM     15  C   UNL     1     159.398 160.261 161.706  1.00  0.00     0.157 A 
ATOM     16  C   UNL     1     158.732 162.026 160.171  1.00  0.00     0.062 A 
ATOM     17  C   UNL     1     159.737 161.231 160.736  1.00  0.00     0.158 A 
BRANCH  15  18
ATOM     18  O   UNL     1     160.346 159.439 162.318  1.00  0.00    -0.504 OA
ATOM     19  H   UNL     1     160.285 159.120 163.275  1.00  0.00     0.293 HD
ENDBRANCH  15  18
BRANCH  17  20
ATOM     20  O   UNL     1     161.049 161.434 160.301  1.00  0.00    -0.504 OA
ATOM     21  H   UNL     1     161.512 162.331 160.301  1.00  0.00     0.293 HD
ENDBRANCH  17  20
ENDBRANCH   1  12
BRANCH   6  22
ATOM     22  O   UNL     1     152.691 166.097 158.470  1.00  0.00    -0.507 OA
ATOM     23  H   UNL     1     151.776 166.127 158.894  1.00  0.00     0.293 HD
ENDBRANCH   6  22
BRANCH   8  24
ATOM     24  O   UNL     1     153.212 162.986 154.849  1.00  0.00    -0.508 OA
ATOM     25  H   UNL     1     153.856 162.475 154.256  1.00  0.00     0.293 HD
ENDBRANCH   8  24
TORSDOF 5
ENDMDL
MODEL 7
REMARK VINA RESULT:    -6.244      8.548      9.708
REMARK INTER + INTRA:          -7.657
REMARK INTER:                  -7.393
REMARK INTRA:                  -0.264
REMARK UNBOUND:                -0.318
REMARK SMILES O=c1cc(-c2ccc(O)c(O)c2)oc2cc(O)cc(O)c12
REMARK SMILES IDX 4 1 3 2 2 3 1 4 21 5 19 6 18 7 16 8 15 9 14 10 13 11 5 12
REMARK SMILES IDX 6 13 7 14 8 15 12 16 10 17 9 18 11 20 20 22 17 24
REMARK H PARENT 9 19 11 21 20 23 17 25
REMARK Flexibility Score: inf
ROOT
ATOM      1  C   UNL     1     162.086 164.020 165.965  1.00  0.00     0.138 A 
ATOM      2  C   UNL     1     162.438 163.695 164.647  1.00  0.00     0.100 A 
ATOM      3  C   UNL     1     162.206 162.405 164.169  1.00  0.00     0.197 A 
ATOM      4  O   UNL     1     162.475 162.161 162.964  1.00  0.00    -0.289 OA
ATOM      5  C   UNL     1     161.650 161.427 165.027  1.00  0.00     0.107 A 
ATOM      6  C   UNL     1     161.407 160.069 164.661  1.00  0.00     0.134 A 
ATOM      7  C   UNL     1     160.745 159.221 165.557  1.00  0.00     0.093 A 
ATOM      8  C   UNL     1     160.369 159.666 166.827  1.00  0.00     0.123 A 
ATOM      9  C   UNL     1     160.649 160.975 167.213  1.00  0.00     0.094 A 
ATOM     10  C   UNL     1     161.278 161.854 166.329  1.00  0.00     0.146 A 
ATOM     11  O   UNL     1     161.514 163.098 166.732  1.00  0.00    -0.456 OA
ENDROOT
BRANCH   1  12
ATOM     12  C   UNL     1     162.311 165.378 166.524  1.00  0.00     0.021 A 
ATOM     13  C   UNL     1     161.216 166.235 166.714  1.00  0.00     0.016 A 
ATOM     14  C   UNL     1     161.400 167.514 167.244  1.00  0.00     0.051 A 
ATOM     15  C   UNL     1     162.676 167.960 167.606  1.00  0.00     0.157 A 
ATOM     16  C   UNL     1     163.593 165.821 166.901  1.00  0.00     0.062 A 
ATOM     17  C   UNL     1     163.785 167.100 167.437  1.00  0.00     0.158 A 
BRANCH  15  18
ATOM     18  O   UNL     1     162.792 169.251 168.125  1.00  0.00    -0.504 OA
ATOM     19  H   UNL     1     162.406 169.540 169.013  1.00  0.00     0.293 HD
ENDBRANCH  15  18
BRANCH  17  20
ATOM     20  O   UNL     1     165.085 167.470 167.789  1.00  0.00    -0.504 OA
ATOM     21  H   UNL     1     165.441 168.413 167.727  1.00  0.00     0.293 HD
ENDBRANCH  17  20
ENDBRANCH   1  12
BRANCH   6  22
ATOM     22  O   UNL     1     161.817 159.501 163.451  1.00  0.00    -0.507 OA
ATOM     23  H   UNL     1     162.766 159.241 163.228  1.00  0.00     0.293 HD
ENDBRANCH   6  22
BRANCH   8  24
ATOM     24  O   UNL     1     159.722 158.810 167.717  1.00  0.00    -0.508 OA
ATOM     25  H   UNL     1     159.842 158.899 168.719  1.00  0.00     0.293 HD
ENDBRANCH   8  24
TORSDOF 5
ENDMDL
MODEL 8
REMARK VINA RESULT:    -6.193      8.396     13.495
REMARK INTER + INTRA:          -7.597
REMARK INTER:                  -7.289
REMARK INTRA:                  -0.308
REMARK UNBOUND:                -0.318
REMARK SMILES O=c1cc(-c2ccc(O)c(O)c2)oc2cc(O)cc(O)c12
REMARK SMILES IDX 4 1 3 2 2 3 1 4 21 5 19 6 18 7 16 8 15 9 14 10 13 11 5 12
REMARK SMILES IDX 6 13 7 14 8 15 12 16 10 17 9 18 11 20 20 22 17 24
REMARK H PARENT 9 19 11 21 20 23 17 25
REMARK Flexibility Score: inf
ROOT
ATOM      1  C   UNL     1     166.559 158.803 159.457  1.00  0.00     0.138 A 
ATOM      2  C   UNL     1     165.460 158.628 158.602  1.00  0.00     0.100 A 
ATOM      3  C   UNL     1     164.364 159.484 158.705  1.00  0.00     0.197 A 
ATOM      4  O   UNL     1     163.421 159.342 157.883  1.00  0.00    -0.289 OA
ATOM      5  C   UNL     1     164.353 160.499 159.691  1.00  0.00     0.107 A 
ATOM      6  C   UNL     1     163.272 161.403 159.914  1.00  0.00     0.134 A 
ATOM      7  C   UNL     1     163.422 162.442 160.842  1.00  0.00     0.093 A 
ATOM      8  C   UNL     1     164.591 162.572 161.595  1.00  0.00     0.123 A 
ATOM      9  C   UNL     1     165.632 161.663 161.422  1.00  0.00     0.094 A 
ATOM     10  C   UNL     1     165.525 160.637 160.480  1.00  0.00     0.146 A 
ATOM     11  O   UNL     1     166.547 159.799 160.337  1.00  0.00    -0.456 OA
ENDROOT
BRANCH   1  12
ATOM     12  C   UNL     1     167.751 157.920 159.390  1.00  0.00     0.021 A 
ATOM     13  C   UNL     1     168.089 157.308 158.173  1.00  0.00     0.016 A 
ATOM     14  C   UNL     1     169.208 156.480 158.082  1.00  0.00     0.051 A 
ATOM     15  C   UNL     1     170.021 156.252 159.197  1.00  0.00     0.157 A 
ATOM     16  C   UNL     1     168.576 157.704 160.509  1.00  0.00     0.062 A 
ATOM     17  C   UNL     1     169.703 156.876 160.426  1.00  0.00     0.158 A 
BRANCH  15  18
ATOM     18  O   UNL     1     171.123 155.408 159.041  1.00  0.00    -0.504 OA
ATOM     19  H   UNL     1     172.058 155.638 159.348  1.00  0.00     0.293 HD
ENDBRANCH  15  18
BRANCH  17  20
ATOM     20  O   UNL     1     170.475 156.709 161.577  1.00  0.00    -0.504 OA
ATOM     21  H   UNL     1     170.869 157.471 162.110  1.00  0.00     0.293 HD
ENDBRANCH  17  20
ENDBRANCH   1  12
BRANCH   6  22
ATOM     22  O   UNL     1     162.031 161.310 159.277  1.00  0.00    -0.507 OA
ATOM     23  H   UNL     1     161.769 161.822 158.449  1.00  0.00     0.293 HD
ENDBRANCH   6  22
BRANCH   8  24
ATOM     24  O   UNL     1     164.726 163.601 162.526  1.00  0.00    -0.508 OA
ATOM     25  H   UNL     1     165.377 164.365 162.381  1.00  0.00     0.293 HD
ENDBRANCH   8  24
TORSDOF 5
ENDMDL
MODEL 9
REMARK VINA RESULT:    -6.187      1.892      6.816
REMARK INTER + INTRA:          -7.590
REMARK INTER:                  -7.317
REMARK INTRA:                  -0.273
REMARK UNBOUND:                -0.318
REMARK SMILES O=c1cc(-c2ccc(O)c(O)c2)oc2cc(O)cc(O)c12
REMARK SMILES IDX 4 1 3 2 2 3 1 4 21 5 19 6 18 7 16 8 15 9 14 10 13 11 5 12
REMARK SMILES IDX 6 13 7 14 8 15 12 16 10 17 9 18 11 20 20 22 17 24
REMARK H PARENT 9 19 11 21 20 23 17 25
REMARK Flexibility Score: inf
ROOT
ATOM      1  C   UNL     1     156.687 162.600 159.322  1.00  0.00     0.138 A 
ATOM      2  C   UNL     1     156.579 162.468 157.931  1.00  0.00     0.100 A 
ATOM      3  C   UNL     1     155.600 163.186 157.244  1.00  0.00     0.197 A 
ATOM      4  O   UNL     1     155.569 163.096 155.989  1.00  0.00    -0.289 OA
ATOM      5  C   UNL     1     154.703 164.014 157.959  1.00  0.00     0.107 A 
ATOM      6  C   UNL     1     153.640 164.760 157.369  1.00  0.00     0.134 A 
ATOM      7  C   UNL     1     152.889 165.637 158.161  1.00  0.00     0.093 A 
ATOM      8  C   UNL     1     153.125 165.749 159.534  1.00  0.00     0.123 A 
ATOM      9  C   UNL     1     154.126 164.985 160.130  1.00  0.00     0.094 A 
ATOM     10  C   UNL     1     154.914 164.127 159.359  1.00  0.00     0.146 A 
ATOM     11  O   UNL     1     155.868 163.426 159.964  1.00  0.00    -0.456 OA
ENDROOT
BRANCH   1  12
ATOM     12  C   UNL     1     157.711 161.858 160.102  1.00  0.00     0.021 A 
ATOM     13  C   UNL     1     159.071 162.137 159.895  1.00  0.00     0.016 A 
ATOM     14  C   UNL     1     160.052 161.459 160.620  1.00  0.00     0.051 A 
ATOM     15  C   UNL     1     159.700 160.498 161.574  1.00  0.00     0.157 A 
ATOM     16  C   UNL     1     157.355 160.902 161.072  1.00  0.00     0.062 A 
ATOM     17  C   UNL     1     158.334 160.220 161.806  1.00  0.00     0.158 A 
BRANCH  15  18
ATOM     18  O   UNL     1     160.730 159.853 162.261  1.00  0.00    -0.504 OA
ATOM     19  H   UNL     1     161.618 159.607 161.847  1.00  0.00     0.293 HD
ENDBRANCH  15  18
BRANCH  17  20
ATOM     20  O   UNL     1     157.905 159.286 162.752  1.00  0.00    -0.504 OA
ATOM     21  H   UNL     1     157.895 159.454 163.747  1.00  0.00     0.293 HD
ENDBRANCH  17  20
ENDBRANCH   1  12
BRANCH   6  22
ATOM     22  O   UNL     1     153.266 164.659 156.025  1.00  0.00    -0.507 OA
ATOM     23  H   UNL     1     152.739 163.895 155.630  1.00  0.00     0.293 HD
ENDBRANCH   6  22
BRANCH   8  24
ATOM     24  O   UNL     1     152.363 166.614 160.318  1.00  0.00    -0.508 OA
ATOM     25  H   UNL     1     152.722 166.998 161.185  1.00  0.00     0.293 HD
ENDBRANCH   8  24
TORSDOF 5
ENDMDL
