MODEL 1
REMARK VINA RESULT:    -8.568      0.000      0.000
REMARK INTER + INTRA:          -9.585
REMARK INTER:                  -9.319
REMARK INTRA:                  -0.266
REMARK UNBOUND:                -0.266
REMARK SMILES C[C@H]1[C@H](C)CC[C@]2(C(=O)[O-])CC[C@@]3(C)C(=CC[C@@H]4[C@]5(C)CC[C@H](O)C(C)(C)[C@H]5CC[C@@]43C)[C@H]12
REMARK SMILES IDX 7 1 6 2 11 3 33 4 5 5 12 6 15 7 2 8 3 9 13 10 16 11 1 12
REMARK SMILES IDX 4 13 14 14 31 15 17 16 18 17 30 18 32 19 19 20 29 21 28 22
REMARK SMILES IDX 21 23 20 24 25 25 22 26 23 27 26 28 27 29 8 30 9 31 10 32
REMARK SMILES IDX 24 33
REMARK H PARENT 24 34
REMARK Flexibility Score: inf
ROOT
ATOM      1  C   UNL     1       1.622  -8.685   8.055  1.00  0.00     0.017 C 
ATOM      2  C   UNL     1       1.753 -10.144   8.573  1.00  0.00     0.014 C 
ATOM      3  C   UNL     1       1.943  -8.732   6.519  1.00  0.00     0.014 C 
ATOM      4  C   UNL     1       2.618  -7.722   8.824  1.00  0.00     0.030 C 
ATOM      5  C   UNL     1       1.626 -10.250  10.090  1.00  0.00     0.004 C 
ATOM      6  C   UNL     1       2.362  -7.380   5.896  1.00  0.00     0.013 C 
ATOM      7  C   UNL     1       3.829  -7.413   7.932  1.00  0.00    -0.063 C 
ATOM      8  C   UNL     1       2.915  -8.033  10.351  1.00  0.00    -0.003 C 
ATOM      9  C   UNL     1       2.771  -9.526  10.803  1.00  0.00    -0.011 C 
ATOM     10  C   UNL     1       3.534  -6.622   6.649  1.00  0.00    -0.006 C 
ATOM     11  C   UNL     1       4.924  -8.172   8.032  1.00  0.00    -0.027 C 
ATOM     12  C   UNL     1       2.027  -7.149  11.258  1.00  0.00     0.008 C 
ATOM     13  C   UNL     1       4.081 -10.334  10.753  1.00  0.00     0.008 C 
ATOM     14  C   UNL     1       3.008  -5.208   7.094  1.00  0.00     0.017 C 
ATOM     15  C   UNL     1       4.847  -6.425   5.727  1.00  0.00    -0.020 C 
ATOM     16  C   UNL     1       5.751  -8.599   6.865  1.00  0.00     0.032 C 
ATOM     17  C   UNL     1       5.605  -7.806   5.521  1.00  0.00     0.006 C 
ATOM     18  C   UNL     1       5.851  -5.426   6.403  1.00  0.00     0.008 C 
ATOM     19  C   UNL     1       4.379  -5.819   4.352  1.00  0.00     0.012 C 
ATOM     20  C   UNL     1       7.023  -7.706   4.769  1.00  0.00    -0.025 C 
ATOM     21  C   UNL     1       7.209  -5.291   5.691  1.00  0.00     0.005 C 
ATOM     22  C   UNL     1       7.924  -6.651   5.527  1.00  0.00     0.003 C 
ATOM     23  C   UNL     1       7.737  -9.123   4.725  1.00  0.00     0.010 C 
ATOM     24  C   UNL     1       6.821  -7.306   3.273  1.00  0.00     0.012 C 
ATOM     25  C   UNL     1       9.435  -6.543   5.036  1.00  0.00    -0.006 C 
ATOM     26  C   UNL     1       9.220  -9.099   5.125  1.00  0.00     0.033 C 
ATOM     27  C   UNL     1       9.945  -7.919   4.467  1.00  0.00     0.120 C 
ATOM     28  C   UNL     1      10.318  -6.125   6.249  1.00  0.00     0.014 C 
ATOM     29  C   UNL     1       9.629  -5.460   3.944  1.00  0.00     0.014 C 
ENDROOT
BRANCH   1  30
ATOM     30  C   UNL     1       0.179  -8.196   8.206  1.00  0.00     0.048 C 
ATOM     31  O   UNL     1      -0.074  -6.996   8.499  1.00  0.00    -0.550 OA
ATOM     32  O   UNL     1      -0.882  -9.092   8.124  1.00  0.00    -0.550 OA
ENDBRANCH   1  30
BRANCH  27  33
ATOM     33  O   UNL     1      11.335  -8.059   4.641  1.00  0.00    -0.393 OA
ATOM     34  H   UNL     1      11.585  -7.531   5.444  1.00  0.00     0.210 HD
ENDBRANCH  27  33
TORSDOF 2
ENDMDL
MODEL 2
REMARK VINA RESULT:    -8.309      1.010      1.230
REMARK INTER + INTRA:          -9.303
REMARK INTER:                  -9.008
REMARK INTRA:                  -0.295
REMARK UNBOUND:                -0.266
REMARK SMILES C[C@H]1[C@H](C)CC[C@]2(C(=O)[O-])CC[C@@]3(C)C(=CC[C@@H]4[C@]5(C)CC[C@H](O)C(C)(C)[C@H]5CC[C@@]43C)[C@H]12
REMARK SMILES IDX 7 1 6 2 11 3 33 4 5 5 12 6 15 7 2 8 3 9 13 10 16 11 1 12
REMARK SMILES IDX 4 13 14 14 31 15 17 16 18 17 30 18 32 19 19 20 29 21 28 22
REMARK SMILES IDX 21 23 20 24 25 25 22 26 23 27 26 28 27 29 8 30 9 31 10 32
REMARK SMILES IDX 24 33
REMARK H PARENT 24 34
REMARK Flexibility Score: inf
ROOT
ATOM      1  C   UNL     1       1.594  -8.217   7.860  1.00  0.00     0.017 C 
ATOM      2  C   UNL     1       1.260  -9.708   8.138  1.00  0.00     0.014 C 
ATOM      3  C   UNL     1       1.852  -8.104   6.316  1.00  0.00     0.014 C 
ATOM      4  C   UNL     1       2.860  -7.756   8.693  1.00  0.00     0.030 C 
ATOM      5  C   UNL     1       1.136 -10.022   9.627  1.00  0.00     0.004 C 
ATOM      6  C   UNL     1       2.671  -6.867   5.878  1.00  0.00     0.013 C 
ATOM      7  C   UNL     1       4.089  -7.697   7.774  1.00  0.00    -0.063 C 
ATOM      8  C   UNL     1       3.071  -8.395  10.129  1.00  0.00    -0.003 C 
ATOM      9  C   UNL     1       2.466  -9.822  10.358  1.00  0.00    -0.011 C 
ATOM     10  C   UNL     1       4.038  -6.651   6.651  1.00  0.00    -0.006 C 
ATOM     11  C   UNL     1       4.885  -8.765   7.678  1.00  0.00    -0.027 C 
ATOM     12  C   UNL     1       2.532  -7.443  11.222  1.00  0.00     0.008 C 
ATOM     13  C   UNL     1       3.447 -10.979  10.092  1.00  0.00     0.008 C 
ATOM     14  C   UNL     1       4.001  -5.238   7.343  1.00  0.00     0.017 C 
ATOM     15  C   UNL     1       5.326  -6.722   5.679  1.00  0.00    -0.020 C 
ATOM     16  C   UNL     1       5.508  -9.228   6.404  1.00  0.00     0.032 C 
ATOM     17  C   UNL     1       5.598  -8.216   5.210  1.00  0.00     0.006 C 
ATOM     18  C   UNL     1       6.611  -6.215   6.425  1.00  0.00     0.008 C 
ATOM     19  C   UNL     1       5.051  -5.779   4.448  1.00  0.00     0.012 C 
ATOM     20  C   UNL     1       6.959  -8.440   4.382  1.00  0.00    -0.025 C 
ATOM     21  C   UNL     1       7.926  -6.395   5.646  1.00  0.00     0.005 C 
ATOM     22  C   UNL     1       8.165  -7.863   5.225  1.00  0.00     0.003 C 
ATOM     23  C   UNL     1       7.180  -9.981   4.072  1.00  0.00     0.010 C 
ATOM     24  C   UNL     1       6.867  -7.753   2.983  1.00  0.00     0.012 C 
ATOM     25  C   UNL     1       9.621  -8.152   4.650  1.00  0.00    -0.006 C 
ATOM     26  C   UNL     1       8.601 -10.490   4.363  1.00  0.00     0.033 C 
ATOM     27  C   UNL     1       9.652  -9.503   3.843  1.00  0.00     0.120 C 
ATOM     28  C   UNL     1      10.615  -8.241   5.846  1.00  0.00     0.014 C 
ATOM     29  C   UNL     1      10.131  -7.018   3.724  1.00  0.00     0.014 C 
ENDROOT
BRANCH   1  30
ATOM     30  C   UNL     1       0.386  -7.333   8.187  1.00  0.00     0.048 C 
ATOM     31  O   UNL     1      -0.784  -7.693   7.887  1.00  0.00    -0.550 OA
ATOM     32  O   UNL     1       0.567  -6.065   8.729  1.00  0.00    -0.550 OA
ENDBRANCH   1  30
BRANCH  27  33
ATOM     33  O   UNL     1      10.927 -10.098   3.893  1.00  0.00    -0.393 OA
ATOM     34  H   UNL     1      10.884 -10.932   3.356  1.00  0.00     0.210 HD
ENDBRANCH  27  33
TORSDOF 2
ENDMDL
MODEL 3
REMARK VINA RESULT:    -6.989      2.227      7.835
REMARK INTER + INTRA:          -7.867
REMARK INTER:                  -7.573
REMARK INTRA:                  -0.295
REMARK UNBOUND:                -0.266
REMARK SMILES C[C@H]1[C@H](C)CC[C@]2(C(=O)[O-])CC[C@@]3(C)C(=CC[C@@H]4[C@]5(C)CC[C@H](O)C(C)(C)[C@H]5CC[C@@]43C)[C@H]12
REMARK SMILES IDX 7 1 6 2 11 3 33 4 5 5 12 6 15 7 2 8 3 9 13 10 16 11 1 12
REMARK SMILES IDX 4 13 14 14 31 15 17 16 18 17 30 18 32 19 19 20 29 21 28 22
REMARK SMILES IDX 21 23 20 24 25 25 22 26 23 27 26 28 27 29 8 30 9 31 10 32
REMARK SMILES IDX 24 33
REMARK H PARENT 24 34
REMARK Flexibility Score: inf
ROOT
ATOM      1  C   UNL     1       6.130  -7.286   5.359  1.00  0.00     0.017 C 
ATOM      2  C   UNL     1       7.371  -7.981   5.983  1.00  0.00     0.014 C 
ATOM      3  C   UNL     1       5.581  -6.300   6.450  1.00  0.00     0.014 C 
ATOM      4  C   UNL     1       5.035  -8.352   4.941  1.00  0.00     0.030 C 
ATOM      5  C   UNL     1       7.933  -9.094   5.103  1.00  0.00     0.004 C 
ATOM      6  C   UNL     1       4.105  -5.877   6.268  1.00  0.00     0.013 C 
ATOM      7  C   UNL     1       3.901  -8.361   5.977  1.00  0.00    -0.063 C 
ATOM      8  C   UNL     1       5.539  -9.763   4.421  1.00  0.00    -0.003 C 
ATOM      9  C   UNL     1       6.936 -10.245   4.943  1.00  0.00    -0.011 C 
ATOM     10  C   UNL     1       3.077  -7.069   6.081  1.00  0.00    -0.006 C 
ATOM     11  C   UNL     1       3.954  -9.223   6.996  1.00  0.00    -0.027 C 
ATOM     12  C   UNL     1       5.548  -9.791   2.875  1.00  0.00     0.008 C 
ATOM     13  C   UNL     1       6.873 -11.130   6.202  1.00  0.00     0.008 C 
ATOM     14  C   UNL     1       2.343  -6.883   4.702  1.00  0.00     0.017 C 
ATOM     15  C   UNL     1       1.971  -7.133   7.257  1.00  0.00    -0.020 C 
ATOM     16  C   UNL     1       3.541  -8.890   8.391  1.00  0.00     0.032 C 
ATOM     17  C   UNL     1       2.619  -7.642   8.615  1.00  0.00     0.006 C 
ATOM     18  C   UNL     1       0.817  -8.128   6.877  1.00  0.00     0.008 C 
ATOM     19  C   UNL     1       1.361  -5.691   7.420  1.00  0.00     0.012 C 
ATOM     20  C   UNL     1       1.581  -7.917   9.812  1.00  0.00    -0.025 C 
ATOM     21  C   UNL     1      -0.206  -8.391   7.996  1.00  0.00     0.005 C 
ATOM     22  C   UNL     1       0.460  -8.903   9.293  1.00  0.00     0.003 C 
ATOM     23  C   UNL     1       2.326  -8.530  11.073  1.00  0.00     0.010 C 
ATOM     24  C   UNL     1       0.963  -6.575  10.318  1.00  0.00     0.012 C 
ATOM     25  C   UNL     1      -0.564  -9.436  10.390  1.00  0.00    -0.006 C 
ATOM     26  C   UNL     1       1.625  -9.749  11.694  1.00  0.00     0.033 C 
ATOM     27  C   UNL     1       0.115  -9.511  11.808  1.00  0.00     0.120 C 
ATOM     28  C   UNL     1      -1.041 -10.858   9.969  1.00  0.00     0.014 C 
ATOM     29  C   UNL     1      -1.831  -8.551  10.501  1.00  0.00     0.014 C 
ENDROOT
BRANCH   1  30
ATOM     30  C   UNL     1       6.546  -6.443   4.149  1.00  0.00     0.048 C 
ATOM     31  O   UNL     1       7.609  -5.766   4.163  1.00  0.00    -0.550 OA
ATOM     32  O   UNL     1       5.704  -6.326   3.048  1.00  0.00    -0.550 OA
ENDBRANCH   1  30
BRANCH  27  33
ATOM     33  O   UNL     1      -0.465 -10.521  12.598  1.00  0.00    -0.393 OA
ATOM     34  H   UNL     1      -0.388 -10.234  13.546  1.00  0.00     0.210 HD
ENDBRANCH  27  33
TORSDOF 2
ENDMDL
MODEL 4
REMARK VINA RESULT:    -5.887      1.632      2.339
REMARK INTER + INTRA:          -6.669
REMARK INTER:                  -6.377
REMARK INTRA:                  -0.291
REMARK UNBOUND:                -0.266
REMARK SMILES C[C@H]1[C@H](C)CC[C@]2(C(=O)[O-])CC[C@@]3(C)C(=CC[C@@H]4[C@]5(C)CC[C@H](O)C(C)(C)[C@H]5CC[C@@]43C)[C@H]12
REMARK SMILES IDX 7 1 6 2 11 3 33 4 5 5 12 6 15 7 2 8 3 9 13 10 16 11 1 12
REMARK SMILES IDX 4 13 14 14 31 15 17 16 18 17 30 18 32 19 19 20 29 21 28 22
REMARK SMILES IDX 21 23 20 24 25 25 22 26 23 27 26 28 27 29 8 30 9 31 10 32
REMARK SMILES IDX 24 33
REMARK H PARENT 24 34
REMARK Flexibility Score: inf
ROOT
ATOM      1  C   UNL     1       1.420  -9.576   9.335  1.00  0.00     0.017 C 
ATOM      2  C   UNL     1       2.299 -10.703   9.944  1.00  0.00     0.014 C 
ATOM      3  C   UNL     1       1.412  -9.813   7.783  1.00  0.00     0.014 C 
ATOM      4  C   UNL     1       2.000  -8.148   9.698  1.00  0.00     0.030 C 
ATOM      5  C   UNL     1       2.541 -10.525  11.440  1.00  0.00     0.004 C 
ATOM      6  C   UNL     1       1.038  -8.576   6.934  1.00  0.00     0.013 C 
ATOM      7  C   UNL     1       2.733  -7.563   8.482  1.00  0.00    -0.063 C 
ATOM      8  C   UNL     1       2.704  -7.974  11.109  1.00  0.00    -0.003 C 
ATOM      9  C   UNL     1       3.348  -9.258  11.735  1.00  0.00    -0.011 C 
ATOM     10  C   UNL     1       1.861  -7.259   7.255  1.00  0.00    -0.006 C 
ATOM     11  C   UNL     1       4.048  -7.760   8.355  1.00  0.00    -0.027 C 
ATOM     12  C   UNL     1       1.713  -7.366  12.129  1.00  0.00     0.008 C 
ATOM     13  C   UNL     1       4.843  -9.441  11.411  1.00  0.00     0.008 C 
ATOM     14  C   UNL     1       0.850  -6.131   7.680  1.00  0.00     0.017 C 
ATOM     15  C   UNL     1       2.726  -6.738   5.994  1.00  0.00    -0.020 C 
ATOM     16  C   UNL     1       4.726  -8.044   7.057  1.00  0.00     0.032 C 
ATOM     17  C   UNL     1       3.971  -7.690   5.731  1.00  0.00     0.006 C 
ATOM     18  C   UNL     1       3.279  -5.294   6.263  1.00  0.00     0.008 C 
ATOM     19  C   UNL     1       1.770  -6.689   4.744  1.00  0.00     0.012 C 
ATOM     20  C   UNL     1       5.006  -7.175   4.613  1.00  0.00    -0.025 C 
ATOM     21  C   UNL     1       4.254  -4.764   5.196  1.00  0.00     0.005 C 
ATOM     22  C   UNL     1       5.460  -5.707   4.983  1.00  0.00     0.003 C 
ATOM     23  C   UNL     1       6.261  -8.142   4.520  1.00  0.00     0.010 C 
ATOM     24  C   UNL     1       4.350  -7.224   3.196  1.00  0.00     0.012 C 
ATOM     25  C   UNL     1       6.624  -5.090   4.088  1.00  0.00    -0.006 C 
ATOM     26  C   UNL     1       7.618  -7.421   4.494  1.00  0.00     0.033 C 
ATOM     27  C   UNL     1       7.579  -6.218   3.546  1.00  0.00     0.120 C 
ATOM     28  C   UNL     1       7.444  -4.095   4.964  1.00  0.00     0.014 C 
ATOM     29  C   UNL     1       6.083  -4.284   2.880  1.00  0.00     0.014 C 
ENDROOT
BRANCH   1  30
ATOM     30  C   UNL     1      -0.026  -9.709   9.824  1.00  0.00     0.048 C 
ATOM     31  O   UNL     1      -0.586 -10.835   9.901  1.00  0.00    -0.550 OA
ATOM     32  O   UNL     1      -0.785  -8.575  10.095  1.00  0.00    -0.550 OA
ENDBRANCH   1  30
BRANCH  27  33
ATOM     33  O   UNL     1       8.884  -5.729   3.346  1.00  0.00    -0.393 OA
ATOM     34  H   UNL     1       9.208  -5.390   4.222  1.00  0.00     0.210 HD
ENDBRANCH  27  33
TORSDOF 2
ENDMDL
