MODEL 1
REMARK VINA RESULT:    -3.622      0.000      0.000
REMARK INTER + INTRA:          -6.281
REMARK INTER:                  -5.739
REMARK INTRA:                  -0.542
REMARK UNBOUND:                -0.542
REMARK SMILES CCCCCCCCCCCC(=O)[O-]
REMARK SMILES IDX 7 1 8 2 9 3 10 4 11 5 12 6 13 7 14 8 6 9 5 10 4 11 3 12 2 13
REMARK SMILES IDX 1 14
REMARK H PARENT
REMARK Flexibility Score: inf
ROOT
ATOM      1  C   UNL     1      -7.913   2.416  -3.722  1.00  0.00     0.000 C 
ENDROOT
BRANCH   1   2
ATOM      2  C   UNL     1      -9.033   1.820  -4.589  1.00  0.00     0.000 C 
BRANCH   2   3
ATOM      3  C   UNL     1      -8.783   0.333  -4.862  1.00  0.00     0.000 C 
BRANCH   3   4
ATOM      4  C   UNL     1      -9.260  -0.057  -6.270  1.00  0.00     0.006 C 
BRANCH   4   5
ATOM      5  C   UNL     1      -9.410   1.161  -7.190  1.00  0.00     0.053 C 
BRANCH   5   6
ATOM      6  C   UNL     1      -8.738   0.947  -8.512  1.00  0.00     0.041 C 
ATOM      7  O   UNL     1      -7.595   1.430  -8.726  1.00  0.00    -0.550 OA
ATOM      8  O   UNL     1      -9.388   0.245  -9.518  1.00  0.00    -0.550 OA
ENDBRANCH   5   6
ENDBRANCH   4   5
ENDBRANCH   3   4
ENDBRANCH   2   3
ENDBRANCH   1   2
BRANCH   1   9
ATOM      9  C   UNL     1      -6.682   1.499  -3.629  1.00  0.00     0.000 C 
BRANCH   9  10
ATOM     10  C   UNL     1      -5.729   1.904  -2.490  1.00  0.00    -0.000 C 
BRANCH  10  11
ATOM     11  C   UNL     1      -6.439   2.701  -1.383  1.00  0.00    -0.000 C 
BRANCH  11  12
ATOM     12  C   UNL     1      -5.475   3.157  -0.272  1.00  0.00    -0.000 C 
BRANCH  12  13
ATOM     13  C   UNL     1      -5.226   2.061   0.777  1.00  0.00    -0.003 C 
ATOM     14  C   UNL     1      -5.280   2.590   2.210  1.00  0.00     0.004 C 
ENDBRANCH  12  13
ENDBRANCH  11  12
ENDBRANCH  10  11
ENDBRANCH   9  10
ENDBRANCH   1   9
TORSDOF 10
ENDMDL
MODEL 2
REMARK VINA RESULT:    -3.576      2.287      2.918
REMARK INTER + INTRA:          -6.208
REMARK INTER:                  -5.619
REMARK INTRA:                  -0.589
REMARK UNBOUND:                -0.542
REMARK SMILES CCCCCCCCCCCC(=O)[O-]
REMARK SMILES IDX 7 1 8 2 9 3 10 4 11 5 12 6 13 7 14 8 6 9 5 10 4 11 3 12 2 13
REMARK SMILES IDX 1 14
REMARK H PARENT
REMARK Flexibility Score: inf
ROOT
ATOM      1  C   UNL     1      -8.324   1.116  -4.294  1.00  0.00     0.000 C 
ENDROOT
BRANCH   1   2
ATOM      2  C   UNL     1      -9.377   1.948  -5.042  1.00  0.00     0.000 C 
BRANCH   2   3
ATOM      3  C   UNL     1      -9.498   3.351  -4.439  1.00  0.00     0.000 C 
BRANCH   3   4
ATOM      4  C   UNL     1      -9.957   4.368  -5.495  1.00  0.00     0.006 C 
BRANCH   4   5
ATOM      5  C   UNL     1      -8.838   5.337  -5.894  1.00  0.00     0.053 C 
BRANCH   5   6
ATOM      6  C   UNL     1      -8.317   5.052  -7.270  1.00  0.00     0.041 C 
ATOM      7  O   UNL     1      -8.209   5.983  -8.111  1.00  0.00    -0.550 OA
ATOM      8  O   UNL     1      -7.983   3.754  -7.633  1.00  0.00    -0.550 OA
ENDBRANCH   5   6
ENDBRANCH   4   5
ENDBRANCH   3   4
ENDBRANCH   2   3
ENDBRANCH   1   2
BRANCH   1   9
ATOM      9  C   UNL     1      -7.421   1.973  -3.392  1.00  0.00     0.000 C 
BRANCH   9  10
ATOM     10  C   UNL     1      -5.973   1.453  -3.341  1.00  0.00    -0.000 C 
BRANCH  10  11
ATOM     11  C   UNL     1      -5.246   1.856  -2.047  1.00  0.00    -0.000 C 
BRANCH  11  12
ATOM     12  C   UNL     1      -6.114   2.741  -1.134  1.00  0.00    -0.000 C 
BRANCH  12  13
ATOM     13  C   UNL     1      -5.306   3.375   0.010  1.00  0.00    -0.003 C 
ATOM     14  C   UNL     1      -5.325   2.534   1.286  1.00  0.00     0.004 C 
ENDBRANCH  12  13
ENDBRANCH  11  12
ENDBRANCH  10  11
ENDBRANCH   9  10
ENDBRANCH   1   9
TORSDOF 10
ENDMDL
MODEL 3
REMARK VINA RESULT:    -3.535      1.868      2.248
REMARK INTER + INTRA:          -6.144
REMARK INTER:                  -5.731
REMARK INTRA:                  -0.413
REMARK UNBOUND:                -0.542
REMARK SMILES CCCCCCCCCCCC(=O)[O-]
REMARK SMILES IDX 7 1 8 2 9 3 10 4 11 5 12 6 13 7 14 8 6 9 5 10 4 11 3 12 2 13
REMARK SMILES IDX 1 14
REMARK H PARENT
REMARK Flexibility Score: inf
ROOT
ATOM      1  C   UNL     1      -7.780   2.330  -3.354  1.00  0.00     0.000 C 
ENDROOT
BRANCH   1   2
ATOM      2  C   UNL     1      -8.634   2.061  -4.603  1.00  0.00     0.000 C 
BRANCH   2   3
ATOM      3  C   UNL     1      -9.375   3.329  -5.043  1.00  0.00     0.000 C 
BRANCH   3   4
ATOM      4  C   UNL     1      -9.468   3.409  -6.574  1.00  0.00     0.006 C 
BRANCH   4   5
ATOM      5  C   UNL     1      -8.701   4.611  -7.141  1.00  0.00     0.053 C 
BRANCH   5   6
ATOM      6  C   UNL     1      -7.807   4.217  -8.277  1.00  0.00     0.041 C 
ATOM      7  O   UNL     1      -7.176   5.097  -8.920  1.00  0.00    -0.550 OA
ATOM      8  O   UNL     1      -7.699   2.883  -8.648  1.00  0.00    -0.550 OA
ENDBRANCH   5   6
ENDBRANCH   4   5
ENDBRANCH   3   4
ENDBRANCH   2   3
ENDBRANCH   1   2
BRANCH   1   9
ATOM      9  C   UNL     1      -6.491   1.492  -3.324  1.00  0.00     0.000 C 
BRANCH   9  10
ATOM     10  C   UNL     1      -5.504   1.966  -2.242  1.00  0.00    -0.000 C 
BRANCH  10  11
ATOM     11  C   UNL     1      -6.131   2.989  -1.279  1.00  0.00    -0.000 C 
BRANCH  11  12
ATOM     12  C   UNL     1      -5.252   3.252  -0.043  1.00  0.00    -0.000 C 
BRANCH  12  13
ATOM     13  C   UNL     1      -5.244   2.068   0.936  1.00  0.00    -0.003 C 
ATOM     14  C   UNL     1      -5.206   2.509   2.399  1.00  0.00     0.004 C 
ENDBRANCH  12  13
ENDBRANCH  11  12
ENDBRANCH  10  11
ENDBRANCH   9  10
ENDBRANCH   1   9
TORSDOF 10
ENDMDL
MODEL 4
REMARK VINA RESULT:    -3.381     14.396     16.615
REMARK INTER + INTRA:          -5.900
REMARK INTER:                  -4.797
REMARK INTRA:                  -1.102
REMARK UNBOUND:                -0.542
REMARK SMILES CCCCCCCCCCCC(=O)[O-]
REMARK SMILES IDX 7 1 8 2 9 3 10 4 11 5 12 6 13 7 14 8 6 9 5 10 4 11 3 12 2 13
REMARK SMILES IDX 1 14
REMARK H PARENT
REMARK Flexibility Score: inf
ROOT
ATOM      1  C   UNL     1       4.806   8.534  -2.651  1.00  0.00     0.000 C 
ENDROOT
BRANCH   1   2
ATOM      2  C   UNL     1       5.375   9.906  -2.256  1.00  0.00     0.000 C 
BRANCH   2   3
ATOM      3  C   UNL     1       6.609   9.751  -1.360  1.00  0.00     0.000 C 
BRANCH   3   4
ATOM      4  C   UNL     1       7.217   8.347  -1.497  1.00  0.00     0.006 C 
BRANCH   4   5
ATOM      5  C   UNL     1       8.416   8.324  -2.453  1.00  0.00     0.053 C 
BRANCH   5   6
ATOM      6  C   UNL     1       8.286   7.246  -3.486  1.00  0.00     0.041 C 
ATOM      7  O   UNL     1       7.441   6.325  -3.336  1.00  0.00    -0.550 OA
ATOM      8  O   UNL     1       9.120   7.241  -4.596  1.00  0.00    -0.550 OA
ENDBRANCH   5   6
ENDBRANCH   4   5
ENDBRANCH   3   4
ENDBRANCH   2   3
ENDBRANCH   1   2
BRANCH   1   9
ATOM      9  C   UNL     1       4.504   8.426  -4.154  1.00  0.00     0.000 C 
BRANCH   9  10
ATOM     10  C   UNL     1       4.988   9.656  -4.944  1.00  0.00    -0.000 C 
BRANCH  10  11
ATOM     11  C   UNL     1       6.244   9.362  -5.781  1.00  0.00    -0.000 C 
BRANCH  11  12
ATOM     12  C   UNL     1       5.911   8.740  -7.149  1.00  0.00    -0.000 C 
BRANCH  12  13
ATOM     13  C   UNL     1       4.821   9.522  -7.900  1.00  0.00    -0.003 C 
ATOM     14  C   UNL     1       3.571   8.686  -8.171  1.00  0.00     0.004 C 
ENDBRANCH  12  13
ENDBRANCH  11  12
ENDBRANCH  10  11
ENDBRANCH   9  10
ENDBRANCH   1   9
TORSDOF 10
ENDMDL
MODEL 5
REMARK VINA RESULT:    -3.246     14.265     15.925
REMARK INTER + INTRA:          -5.685
REMARK INTER:                  -4.644
REMARK INTRA:                  -1.041
REMARK UNBOUND:                -0.542
REMARK SMILES CCCCCCCCCCCC(=O)[O-]
REMARK SMILES IDX 7 1 8 2 9 3 10 4 11 5 12 6 13 7 14 8 6 9 5 10 4 11 3 12 2 13
REMARK SMILES IDX 1 14
REMARK H PARENT
REMARK Flexibility Score: inf
ROOT
ATOM      1  C   UNL     1       4.968   7.029  -2.978  1.00  0.00     0.000 C 
ENDROOT
BRANCH   1   2
ATOM      2  C   UNL     1       4.003   8.066  -3.574  1.00  0.00     0.000 C 
BRANCH   2   3
ATOM      3  C   UNL     1       4.771   9.234  -4.202  1.00  0.00     0.000 C 
BRANCH   3   4
ATOM      4  C   UNL     1       4.930   9.038  -5.717  1.00  0.00     0.006 C 
BRANCH   4   5
ATOM      5  C   UNL     1       6.402   8.979  -6.144  1.00  0.00     0.053 C 
BRANCH   5   6
ATOM      6  C   UNL     1       6.547   8.809  -7.626  1.00  0.00     0.041 C 
ATOM      7  O   UNL     1       7.566   8.242  -8.101  1.00  0.00    -0.550 OA
ATOM      8  O   UNL     1       5.573   9.306  -8.482  1.00  0.00    -0.550 OA
ENDBRANCH   5   6
ENDBRANCH   4   5
ENDBRANCH   3   4
ENDBRANCH   2   3
ENDBRANCH   1   2
BRANCH   1   9
ATOM      9  C   UNL     1       6.258   7.663  -2.432  1.00  0.00     0.000 C 
BRANCH   9  10
ATOM     10  C   UNL     1       7.527   7.018  -3.018  1.00  0.00    -0.000 C 
BRANCH  10  11
ATOM     11  C   UNL     1       8.681   8.023  -3.172  1.00  0.00    -0.000 C 
BRANCH  11  12
ATOM     12  C   UNL     1       8.565   9.210  -2.198  1.00  0.00    -0.000 C 
BRANCH  12  13
ATOM     13  C   UNL     1       9.368   8.990  -0.906  1.00  0.00    -0.003 C 
ATOM     14  C   UNL     1       8.599   9.407   0.347  1.00  0.00     0.004 C 
ENDBRANCH  12  13
ENDBRANCH  11  12
ENDBRANCH  10  11
ENDBRANCH   9  10
ENDBRANCH   1   9
TORSDOF 10
ENDMDL
MODEL 6
REMARK VINA RESULT:    -3.213     14.453     16.679
REMARK INTER + INTRA:          -5.633
REMARK INTER:                  -4.589
REMARK INTRA:                  -1.043
REMARK UNBOUND:                -0.542
REMARK SMILES CCCCCCCCCCCC(=O)[O-]
REMARK SMILES IDX 7 1 8 2 9 3 10 4 11 5 12 6 13 7 14 8 6 9 5 10 4 11 3 12 2 13
REMARK SMILES IDX 1 14
REMARK H PARENT
REMARK Flexibility Score: inf
ROOT
ATOM      1  C   UNL     1       4.741   8.321  -3.228  1.00  0.00     0.000 C 
ENDROOT
BRANCH   1   2
ATOM      2  C   UNL     1       4.837   9.566  -2.332  1.00  0.00     0.000 C 
BRANCH   2   3
ATOM      3  C   UNL     1       6.248   9.719  -1.754  1.00  0.00     0.000 C 
BRANCH   3   4
ATOM      4  C   UNL     1       7.309   9.226  -2.749  1.00  0.00     0.006 C 
BRANCH   4   5
ATOM      5  C   UNL     1       8.191   8.118  -2.158  1.00  0.00     0.053 C 
BRANCH   5   6
ATOM      6  C   UNL     1       8.288   6.935  -3.072  1.00  0.00     0.041 C 
ATOM      7  O   UNL     1       9.359   6.700  -3.691  1.00  0.00    -0.550 OA
ATOM      8  O   UNL     1       7.187   6.113  -3.267  1.00  0.00    -0.550 OA
ENDBRANCH   5   6
ENDBRANCH   4   5
ENDBRANCH   3   4
ENDBRANCH   2   3
ENDBRANCH   1   2
BRANCH   1   9
ATOM      9  C   UNL     1       3.940   8.575  -4.515  1.00  0.00     0.000 C 
BRANCH   9  10
ATOM     10  C   UNL     1       4.621   9.595  -5.444  1.00  0.00    -0.000 C 
BRANCH  10  11
ATOM     11  C   UNL     1       4.803   9.060  -6.875  1.00  0.00    -0.000 C 
BRANCH  11  12
ATOM     12  C   UNL     1       6.275   9.064  -7.325  1.00  0.00    -0.000 C 
BRANCH  12  13
ATOM     13  C   UNL     1       7.236   8.668  -6.194  1.00  0.00    -0.003 C 
ATOM     14  C   UNL     1       8.636   9.253  -6.374  1.00  0.00     0.004 C 
ENDBRANCH  12  13
ENDBRANCH  11  12
ENDBRANCH  10  11
ENDBRANCH   9  10
ENDBRANCH   1   9
TORSDOF 10
ENDMDL
MODEL 7
REMARK VINA RESULT:    -1.364     14.904     17.176
REMARK INTER + INTRA:          -2.704
REMARK INTER:                  -1.591
REMARK INTRA:                  -1.113
REMARK UNBOUND:                -0.542
REMARK SMILES CCCCCCCCCCCC(=O)[O-]
REMARK SMILES IDX 7 1 8 2 9 3 10 4 11 5 12 6 13 7 14 8 6 9 5 10 4 11 3 12 2 13
REMARK SMILES IDX 1 14
REMARK H PARENT
REMARK Flexibility Score: inf
ROOT
ATOM      1  C   UNL     1       6.392   7.480  -3.077  1.00  0.00     0.000 C 
ENDROOT
BRANCH   1   2
ATOM      2  C   UNL     1       7.016   8.208  -1.877  1.00  0.00     0.000 C 
BRANCH   2   3
ATOM      3  C   UNL     1       7.986   9.301  -2.341  1.00  0.00     0.000 C 
BRANCH   3   4
ATOM      4  C   UNL     1       9.409   8.744  -2.498  1.00  0.00     0.006 C 
BRANCH   4   5
ATOM      5  C   UNL     1       9.870   8.732  -3.961  1.00  0.00     0.053 C 
BRANCH   5   6
ATOM      6  C   UNL     1       9.895   7.344  -4.527  1.00  0.00     0.041 C 
ATOM      7  O   UNL     1       9.738   6.350  -3.770  1.00  0.00    -0.550 OA
ATOM      8  O   UNL     1      10.125   7.148  -5.882  1.00  0.00    -0.550 OA
ENDBRANCH   5   6
ENDBRANCH   4   5
ENDBRANCH   3   4
ENDBRANCH   2   3
ENDBRANCH   1   2
BRANCH   1   9
ATOM      9  C   UNL     1       4.878   7.264  -2.921  1.00  0.00     0.000 C 
BRANCH   9  10
ATOM     10  C   UNL     1       4.050   8.244  -3.771  1.00  0.00    -0.000 C 
BRANCH  10  11
ATOM     11  C   UNL     1       4.924   9.089  -4.715  1.00  0.00    -0.000 C 
BRANCH  11  12
ATOM     12  C   UNL     1       4.484   8.976  -6.186  1.00  0.00    -0.000 C 
BRANCH  12  13
ATOM     13  C   UNL     1       5.667   9.078  -7.162  1.00  0.00    -0.003 C 
ATOM     14  C   UNL     1       7.020   8.890  -6.475  1.00  0.00     0.004 C 
ENDBRANCH  12  13
ENDBRANCH  11  12
ENDBRANCH  10  11
ENDBRANCH   9  10
ENDBRANCH   1   9
TORSDOF 10
ENDMDL
