MODEL 1
REMARK VINA RESULT:    10.221      0.000      0.000
REMARK INTER + INTRA:          19.381
REMARK INTER:                  19.781
REMARK INTRA:                  -0.400
REMARK UNBOUND:                -0.400
REMARK SMILES CCCCCCCCCCCCCCCCCC(=O)[O-]
REMARK SMILES IDX 10 1 11 2 12 3 13 4 14 5 15 6 16 7 17 8 18 9 19 10 20 11
REMARK SMILES IDX 9 12 8 13 7 14 6 15 5 16 4 17 3 18 2 19 1 20
REMARK H PARENT
REMARK Flexibility Score: inf
ROOT
ATOM      1  C   UNL     1      25.747  42.789   3.855  1.00  0.00     0.000 C 
ENDROOT
BRANCH   1   2
ATOM      2  C   UNL     1      24.984  43.138   2.568  1.00  0.00     0.000 C 
BRANCH   2   3
ATOM      3  C   UNL     1      23.816  42.173   2.295  1.00  0.00     0.000 C 
BRANCH   3   4
ATOM      4  C   UNL     1      22.612  42.431   3.215  1.00  0.00     0.000 C 
BRANCH   4   5
ATOM      5  C   UNL     1      22.996  42.455   4.705  1.00  0.00     0.000 C 
BRANCH   5   6
ATOM      6  C   UNL     1      23.078  41.047   5.324  1.00  0.00     0.000 C 
BRANCH   6   7
ATOM      7  C   UNL     1      24.505  40.493   5.485  1.00  0.00     0.006 C 
BRANCH   7   8
ATOM      8  C   UNL     1      24.730  39.801   6.835  1.00  0.00     0.053 C 
BRANCH   8   9
ATOM      9  C   UNL     1      25.713  38.683   6.692  1.00  0.00     0.041 C 
ATOM     10  O   UNL     1      25.685  37.940   5.675  1.00  0.00    -0.550 OA
ATOM     11  O   UNL     1      26.691  38.489   7.659  1.00  0.00    -0.550 OA
ENDBRANCH   8   9
ENDBRANCH   7   8
ENDBRANCH   6   7
ENDBRANCH   5   6
ENDBRANCH   4   5
ENDBRANCH   3   4
ENDBRANCH   2   3
ENDBRANCH   1   2
BRANCH   1  12
ATOM     12  C   UNL     1      26.443  44.007   4.482  1.00  0.00     0.000 C 
BRANCH  12  13
ATOM     13  C   UNL     1      27.839  44.211   3.874  1.00  0.00    -0.000 C 
BRANCH  13  14
ATOM     14  C   UNL     1      28.379  45.636   4.087  1.00  0.00    -0.000 C 
BRANCH  14  15
ATOM     15  C   UNL     1      27.332  46.576   4.709  1.00  0.00    -0.000 C 
BRANCH  15  16
ATOM     16  C   UNL     1      27.929  47.490   5.793  1.00  0.00    -0.000 C 
BRANCH  16  17
ATOM     17  C   UNL     1      27.157  47.411   7.123  1.00  0.00    -0.000 C 
BRANCH  17  18
ATOM     18  C   UNL     1      26.343  46.114   7.256  1.00  0.00    -0.000 C 
BRANCH  18  19
ATOM     19  C   UNL     1      25.160  46.252   8.226  1.00  0.00    -0.003 C 
ATOM     20  C   UNL     1      24.273  47.434   7.846  1.00  0.00     0.004 C 
ENDBRANCH  18  19
ENDBRANCH  17  18
ENDBRANCH  16  17
ENDBRANCH  15  16
ENDBRANCH  14  15
ENDBRANCH  13  14
ENDBRANCH  12  13
ENDBRANCH   1  12
TORSDOF 16
ENDMDL
MODEL 2
REMARK VINA RESULT:    10.377      3.982      7.491
REMARK INTER + INTRA:          19.684
REMARK INTER:                  20.308
REMARK INTRA:                  -0.624
REMARK UNBOUND:                -0.400
REMARK SMILES CCCCCCCCCCCCCCCCCC(=O)[O-]
REMARK SMILES IDX 10 1 11 2 12 3 13 4 14 5 15 6 16 7 17 8 18 9 19 10 20 11
REMARK SMILES IDX 9 12 8 13 7 14 6 15 5 16 4 17 3 18 2 19 1 20
REMARK H PARENT
REMARK Flexibility Score: inf
ROOT
ATOM      1  C   UNL     1      26.009  42.975   3.894  1.00  0.00     0.000 C 
ENDROOT
BRANCH   1   2
ATOM      2  C   UNL     1      26.540  44.085   4.816  1.00  0.00     0.000 C 
BRANCH   2   3
ATOM      3  C   UNL     1      27.520  45.029   4.099  1.00  0.00     0.000 C 
BRANCH   3   4
ATOM      4  C   UNL     1      28.842  44.337   3.732  1.00  0.00     0.000 C 
BRANCH   4   5
ATOM      5  C   UNL     1      29.335  44.703   2.322  1.00  0.00     0.000 C 
BRANCH   5   6
ATOM      6  C   UNL     1      29.356  43.498   1.364  1.00  0.00     0.000 C 
BRANCH   6   7
ATOM      7  C   UNL     1      30.205  43.696   0.095  1.00  0.00     0.006 C 
BRANCH   7   8
ATOM      8  C   UNL     1      30.315  42.425  -0.756  1.00  0.00     0.053 C 
BRANCH   8   9
ATOM      9  C   UNL     1      29.547  42.581  -2.030  1.00  0.00     0.041 C 
ATOM     10  O   UNL     1      29.886  43.454  -2.872  1.00  0.00    -0.550 OA
ATOM     11  O   UNL     1      28.483  41.733  -2.309  1.00  0.00    -0.550 OA
ENDBRANCH   8   9
ENDBRANCH   7   8
ENDBRANCH   6   7
ENDBRANCH   5   6
ENDBRANCH   4   5
ENDBRANCH   3   4
ENDBRANCH   2   3
ENDBRANCH   1   2
BRANCH   1  12
ATOM     12  C   UNL     1      25.052  43.508   2.815  1.00  0.00     0.000 C 
BRANCH  12  13
ATOM     13  C   UNL     1      24.123  42.394   2.312  1.00  0.00    -0.000 C 
BRANCH  13  14
ATOM     14  C   UNL     1      22.827  42.284   3.134  1.00  0.00    -0.000 C 
BRANCH  14  15
ATOM     15  C   UNL     1      23.072  42.434   4.645  1.00  0.00    -0.000 C 
BRANCH  15  16
ATOM     16  C   UNL     1      23.161  41.079   5.367  1.00  0.00    -0.000 C 
BRANCH  16  17
ATOM     17  C   UNL     1      24.613  40.612   5.571  1.00  0.00    -0.000 C 
BRANCH  17  18
ATOM     18  C   UNL     1      24.796  39.799   6.863  1.00  0.00    -0.000 C 
BRANCH  18  19
ATOM     19  C   UNL     1      25.870  38.709   6.733  1.00  0.00    -0.003 C 
ATOM     20  C   UNL     1      25.417  37.604   5.783  1.00  0.00     0.004 C 
ENDBRANCH  18  19
ENDBRANCH  17  18
ENDBRANCH  16  17
ENDBRANCH  15  16
ENDBRANCH  14  15
ENDBRANCH  13  14
ENDBRANCH  12  13
ENDBRANCH   1  12
TORSDOF 16
ENDMDL
MODEL 3
REMARK VINA RESULT:    10.477      2.817      5.147
REMARK INTER + INTRA:          19.877
REMARK INTER:                  20.702
REMARK INTRA:                  -0.826
REMARK UNBOUND:                -0.400
REMARK SMILES CCCCCCCCCCCCCCCCCC(=O)[O-]
REMARK SMILES IDX 10 1 11 2 12 3 13 4 14 5 15 6 16 7 17 8 18 9 19 10 20 11
REMARK SMILES IDX 9 12 8 13 7 14 6 15 5 16 4 17 3 18 2 19 1 20
REMARK H PARENT
REMARK Flexibility Score: inf
ROOT
ATOM      1  C   UNL     1      26.107  42.942   3.893  1.00  0.00     0.000 C 
ENDROOT
BRANCH   1   2
ATOM      2  C   UNL     1      25.114  43.515   2.869  1.00  0.00     0.000 C 
BRANCH   2   3
ATOM      3  C   UNL     1      24.149  42.448   2.323  1.00  0.00     0.000 C 
BRANCH   3   4
ATOM      4  C   UNL     1      22.826  42.396   3.103  1.00  0.00     0.000 C 
BRANCH   4   5
ATOM      5  C   UNL     1      23.030  42.462   4.626  1.00  0.00     0.000 C 
BRANCH   5   6
ATOM      6  C   UNL     1      23.075  41.071   5.285  1.00  0.00     0.000 C 
BRANCH   6   7
ATOM      7  C   UNL     1      24.488  40.489   5.472  1.00  0.00     0.006 C 
BRANCH   7   8
ATOM      8  C   UNL     1      24.647  39.712   6.784  1.00  0.00     0.053 C 
BRANCH   8   9
ATOM      9  C   UNL     1      25.694  38.655   6.641  1.00  0.00     0.041 C 
ATOM     10  O   UNL     1      25.702  37.902   5.632  1.00  0.00    -0.550 OA
ATOM     11  O   UNL     1      26.691  38.529   7.601  1.00  0.00    -0.550 OA
ENDBRANCH   8   9
ENDBRANCH   7   8
ENDBRANCH   6   7
ENDBRANCH   5   6
ENDBRANCH   4   5
ENDBRANCH   3   4
ENDBRANCH   2   3
ENDBRANCH   1   2
BRANCH   1  12
ATOM     12  C   UNL     1      26.714  44.024   4.801  1.00  0.00     0.000 C 
BRANCH  12  13
ATOM     13  C   UNL     1      27.516  45.041   3.976  1.00  0.00    -0.000 C 
BRANCH  13  14
ATOM     14  C   UNL     1      28.927  44.541   3.624  1.00  0.00    -0.000 C 
BRANCH  14  15
ATOM     15  C   UNL     1      29.284  44.775   2.146  1.00  0.00    -0.000 C 
BRANCH  15  16
ATOM     16  C   UNL     1      29.479  43.461   1.370  1.00  0.00    -0.000 C 
BRANCH  16  17
ATOM     17  C   UNL     1      30.422  43.621   0.164  1.00  0.00    -0.000 C 
BRANCH  17  18
ATOM     18  C   UNL     1      30.304  42.459  -0.835  1.00  0.00    -0.000 C 
BRANCH  18  19
ATOM     19  C   UNL     1      29.997  42.932  -2.264  1.00  0.00    -0.003 C 
ATOM     20  C   UNL     1      28.799  42.187  -2.845  1.00  0.00     0.004 C 
ENDBRANCH  18  19
ENDBRANCH  17  18
ENDBRANCH  16  17
ENDBRANCH  15  16
ENDBRANCH  14  15
ENDBRANCH  13  14
ENDBRANCH  12  13
ENDBRANCH   1  12
TORSDOF 16
ENDMDL
MODEL 4
REMARK VINA RESULT:    10.738     12.856     15.528
REMARK INTER + INTRA:          20.381
REMARK INTER:                  20.962
REMARK INTRA:                  -0.581
REMARK UNBOUND:                -0.400
REMARK SMILES CCCCCCCCCCCCCCCCCC(=O)[O-]
REMARK SMILES IDX 10 1 11 2 12 3 13 4 14 5 15 6 16 7 17 8 18 9 19 10 20 11
REMARK SMILES IDX 9 12 8 13 7 14 6 15 5 16 4 17 3 18 2 19 1 20
REMARK H PARENT
REMARK Flexibility Score: inf
ROOT
ATOM      1  C   UNL     1      27.217  30.190   0.440  1.00  0.00     0.000 C 
ENDROOT
BRANCH   1   2
ATOM      2  C   UNL     1      26.815  29.216   1.559  1.00  0.00     0.000 C 
BRANCH   2   3
ATOM      3  C   UNL     1      27.921  28.195   1.878  1.00  0.00     0.000 C 
BRANCH   3   4
ATOM      4  C   UNL     1      28.357  28.238   3.351  1.00  0.00     0.000 C 
BRANCH   4   5
ATOM      5  C   UNL     1      27.647  29.345   4.149  1.00  0.00     0.000 C 
BRANCH   5   6
ATOM      6  C   UNL     1      27.770  29.157   5.672  1.00  0.00     0.000 C 
BRANCH   6   7
ATOM      7  C   UNL     1      27.953  30.459   6.472  1.00  0.00     0.006 C 
BRANCH   7   8
ATOM      8  C   UNL     1      29.148  30.409   7.433  1.00  0.00     0.053 C 
BRANCH   8   9
ATOM      9  C   UNL     1      29.727  31.775   7.618  1.00  0.00     0.041 C 
ATOM     10  O   UNL     1      29.063  32.795   7.294  1.00  0.00    -0.550 OA
ATOM     11  O   UNL     1      30.984  31.926   8.191  1.00  0.00    -0.550 OA
ENDBRANCH   8   9
ENDBRANCH   7   8
ENDBRANCH   6   7
ENDBRANCH   5   6
ENDBRANCH   4   5
ENDBRANCH   3   4
ENDBRANCH   2   3
ENDBRANCH   1   2
BRANCH   1  12
ATOM     12  C   UNL     1      26.388  29.999  -0.840  1.00  0.00     0.000 C 
BRANCH  12  13
ATOM     13  C   UNL     1      27.228  30.310  -2.087  1.00  0.00    -0.000 C 
BRANCH  13  14
ATOM     14  C   UNL     1      26.589  31.386  -2.982  1.00  0.00    -0.000 C 
BRANCH  14  15
ATOM     15  C   UNL     1      26.838  31.133  -4.478  1.00  0.00    -0.000 C 
BRANCH  15  16
ATOM     16  C   UNL     1      25.552  31.235  -5.316  1.00  0.00    -0.000 C 
BRANCH  16  17
ATOM     17  C   UNL     1      25.796  30.957  -6.810  1.00  0.00    -0.000 C 
BRANCH  17  18
ATOM     18  C   UNL     1      25.434  32.157  -7.700  1.00  0.00    -0.000 C 
BRANCH  18  19
ATOM     19  C   UNL     1      23.960  32.572  -7.568  1.00  0.00    -0.003 C 
ATOM     20  C   UNL     1      23.031  31.438  -7.992  1.00  0.00     0.004 C 
ENDBRANCH  18  19
ENDBRANCH  17  18
ENDBRANCH  16  17
ENDBRANCH  15  16
ENDBRANCH  14  15
ENDBRANCH  13  14
ENDBRANCH  12  13
ENDBRANCH   1  12
TORSDOF 16
ENDMDL
MODEL 5
REMARK VINA RESULT:    10.804      2.549      6.797
REMARK INTER + INTRA:          20.509
REMARK INTER:                  20.674
REMARK INTRA:                  -0.165
REMARK UNBOUND:                -0.400
REMARK SMILES CCCCCCCCCCCCCCCCCC(=O)[O-]
REMARK SMILES IDX 10 1 11 2 12 3 13 4 14 5 15 6 16 7 17 8 18 9 19 10 20 11
REMARK SMILES IDX 9 12 8 13 7 14 6 15 5 16 4 17 3 18 2 19 1 20
REMARK H PARENT
REMARK Flexibility Score: inf
ROOT
ATOM      1  C   UNL     1      24.789  42.178   2.653  1.00  0.00     0.000 C 
ENDROOT
BRANCH   1   2
ATOM      2  C   UNL     1      25.336  43.598   2.868  1.00  0.00     0.000 C 
BRANCH   2   3
ATOM      3  C   UNL     1      26.405  43.657   3.974  1.00  0.00     0.000 C 
BRANCH   3   4
ATOM      4  C   UNL     1      27.767  44.139   3.450  1.00  0.00     0.000 C 
BRANCH   4   5
ATOM      5  C   UNL     1      28.209  45.472   4.077  1.00  0.00     0.000 C 
BRANCH   5   6
ATOM      6  C   UNL     1      27.282  45.934   5.216  1.00  0.00     0.000 C 
BRANCH   6   7
ATOM      7  C   UNL     1      27.535  47.368   5.716  1.00  0.00     0.006 C 
BRANCH   7   8
ATOM      8  C   UNL     1      27.261  47.537   7.215  1.00  0.00     0.053 C 
BRANCH   8   9
ATOM      9  C   UNL     1      26.184  46.598   7.658  1.00  0.00     0.041 C 
ATOM     10  O   UNL     1      24.972  46.922   7.541  1.00  0.00    -0.550 OA
ATOM     11  O   UNL     1      26.515  45.345   8.159  1.00  0.00    -0.550 OA
ENDBRANCH   8   9
ENDBRANCH   7   8
ENDBRANCH   6   7
ENDBRANCH   5   6
ENDBRANCH   4   5
ENDBRANCH   3   4
ENDBRANCH   2   3
ENDBRANCH   1   2
BRANCH   1  12
ATOM     12  C   UNL     1      23.338  42.171   2.145  1.00  0.00     0.000 C 
BRANCH  12  13
ATOM     13  C   UNL     1      22.386  42.747   3.203  1.00  0.00    -0.000 C 
BRANCH  13  14
ATOM     14  C   UNL     1      23.003  42.765   4.612  1.00  0.00    -0.000 C 
BRANCH  14  15
ATOM     15  C   UNL     1      22.903  41.402   5.318  1.00  0.00    -0.000 C 
BRANCH  15  16
ATOM     16  C   UNL     1      24.280  40.766   5.575  1.00  0.00    -0.000 C 
BRANCH  16  17
ATOM     17  C   UNL     1      24.241  39.700   6.684  1.00  0.00    -0.000 C 
BRANCH  17  18
ATOM     18  C   UNL     1      25.633  39.400   7.263  1.00  0.00    -0.000 C 
BRANCH  18  19
ATOM     19  C   UNL     1      26.349  38.257   6.526  1.00  0.00    -0.003 C 
ATOM     20  C   UNL     1      25.348  37.343   5.826  1.00  0.00     0.004 C 
ENDBRANCH  18  19
ENDBRANCH  17  18
ENDBRANCH  16  17
ENDBRANCH  15  16
ENDBRANCH  14  15
ENDBRANCH  13  14
ENDBRANCH  12  13
ENDBRANCH   1  12
TORSDOF 16
ENDMDL
MODEL 6
REMARK VINA RESULT:    10.970      4.613      7.726
REMARK INTER + INTRA:          20.831
REMARK INTER:                  20.796
REMARK INTRA:                   0.034
REMARK UNBOUND:                -0.400
REMARK SMILES CCCCCCCCCCCCCCCCCC(=O)[O-]
REMARK SMILES IDX 10 1 11 2 12 3 13 4 14 5 15 6 16 7 17 8 18 9 19 10 20 11
REMARK SMILES IDX 9 12 8 13 7 14 6 15 5 16 4 17 3 18 2 19 1 20
REMARK H PARENT
REMARK Flexibility Score: inf
ROOT
ATOM      1  C   UNL     1      27.591  45.624   4.103  1.00  0.00     0.000 C 
ENDROOT
BRANCH   1   2
ATOM      2  C   UNL     1      28.808  44.761   3.734  1.00  0.00     0.000 C 
BRANCH   2   3
ATOM      3  C   UNL     1      29.282  44.996   2.288  1.00  0.00     0.000 C 
BRANCH   3   4
ATOM      4  C   UNL     1      29.331  43.698   1.467  1.00  0.00     0.000 C 
BRANCH   4   5
ATOM      5  C   UNL     1      30.421  43.722   0.382  1.00  0.00     0.000 C 
BRANCH   5   6
ATOM      6  C   UNL     1      30.439  42.443  -0.476  1.00  0.00     0.000 C 
BRANCH   6   7
ATOM      7  C   UNL     1      30.596  42.682  -1.989  1.00  0.00     0.006 C 
BRANCH   7   8
ATOM      8  C   UNL     1      29.274  43.039  -2.680  1.00  0.00     0.053 C 
BRANCH   8   9
ATOM      9  C   UNL     1      28.646  41.816  -3.269  1.00  0.00     0.041 C 
ATOM     10  O   UNL     1      27.830  41.134  -2.594  1.00  0.00    -0.550 OA
ATOM     11  O   UNL     1      28.926  41.452  -4.580  1.00  0.00    -0.550 OA
ENDBRANCH   8   9
ENDBRANCH   7   8
ENDBRANCH   6   7
ENDBRANCH   5   6
ENDBRANCH   4   5
ENDBRANCH   3   4
ENDBRANCH   2   3
ENDBRANCH   1   2
BRANCH   1  12
ATOM     12  C   UNL     1      27.136  45.419   5.556  1.00  0.00     0.000 C 
BRANCH  12  13
ATOM     13  C   UNL     1      26.571  44.005   5.757  1.00  0.00    -0.000 C 
BRANCH  13  14
ATOM     14  C   UNL     1      26.427  43.229   4.437  1.00  0.00    -0.000 C 
BRANCH  14  15
ATOM     15  C   UNL     1      24.967  43.135   3.963  1.00  0.00    -0.000 C 
BRANCH  15  16
ATOM     16  C   UNL     1      24.082  42.334   4.932  1.00  0.00    -0.000 C 
BRANCH  16  17
ATOM     17  C   UNL     1      22.665  42.095   4.380  1.00  0.00    -0.000 C 
BRANCH  17  18
ATOM     18  C   UNL     1      22.399  42.875   3.083  1.00  0.00    -0.000 C 
BRANCH  18  19
ATOM     19  C   UNL     1      22.982  42.182   1.842  1.00  0.00    -0.003 C 
ATOM     20  C   UNL     1      22.242  40.883   1.540  1.00  0.00     0.004 C 
ENDBRANCH  18  19
ENDBRANCH  17  18
ENDBRANCH  16  17
ENDBRANCH  15  16
ENDBRANCH  14  15
ENDBRANCH  13  14
ENDBRANCH  12  13
ENDBRANCH   1  12
TORSDOF 16
ENDMDL
