MODEL 1
REMARK VINA RESULT:    -5.726      0.000      0.000
REMARK INTER + INTRA:         -18.500
REMARK INTER:                 -15.100
REMARK INTRA:                  -3.400
REMARK UNBOUND:                -3.400
REMARK SMILES CCCCCCCCCCCCCCCCCCCCCCCCCCCCCC(=O)[O-]
REMARK SMILES IDX 16 1 17 2 18 3 19 4 20 5 21 6 22 7 23 8 24 9 25 10 26 11
REMARK SMILES IDX 27 12 28 13 29 14 30 15 31 16 32 17 15 18 14 19 13 20 12 21
REMARK SMILES IDX 11 22 10 23 9 24 8 25 7 26 6 27 5 28 4 29 3 30 2 31 1 32
REMARK H PARENT
REMARK Flexibility Score: inf
ROOT
ATOM      1  C   UNL     1      10.057   0.435  24.549  1.00  0.00     0.000 C 
ENDROOT
BRANCH   1   2
ATOM      2  C   UNL     1      11.123   0.724  23.477  1.00  0.00     0.000 C 
BRANCH   2   3
ATOM      3  C   UNL     1      10.587   1.345  22.170  1.00  0.00     0.000 C 
BRANCH   3   4
ATOM      4  C   UNL     1      10.659   2.882  22.092  1.00  0.00     0.000 C 
BRANCH   4   5
ATOM      5  C   UNL     1      10.263   3.429  20.710  1.00  0.00     0.000 C 
BRANCH   5   6
ATOM      6  C   UNL     1       9.860   2.324  19.715  1.00  0.00     0.000 C 
BRANCH   6   7
ATOM      7  C   UNL     1       9.346   2.821  18.350  1.00  0.00     0.000 C 
BRANCH   7   8
ATOM      8  C   UNL     1       8.675   4.208  18.371  1.00  0.00     0.000 C 
BRANCH   8   9
ATOM      9  C   UNL     1       9.458   5.294  17.599  1.00  0.00     0.000 C 
BRANCH   9  10
ATOM     10  C   UNL     1       9.126   6.738  18.017  1.00  0.00     0.000 C 
BRANCH  10  11
ATOM     11  C   UNL     1       9.022   6.899  19.544  1.00  0.00     0.000 C 
BRANCH  11  12
ATOM     12  C   UNL     1      10.184   7.716  20.140  1.00  0.00     0.000 C 
BRANCH  12  13
ATOM     13  C   UNL     1      10.676   7.239  21.519  1.00  0.00     0.006 C 
BRANCH  13  14
ATOM     14  C   UNL     1      12.204   7.125  21.604  1.00  0.00     0.053 C 
BRANCH  14  15
ATOM     15  C   UNL     1      12.843   8.464  21.407  1.00  0.00     0.041 C 
ATOM     16  O   UNL     1      13.642   8.648  20.451  1.00  0.00    -0.550 OA
ATOM     17  O   UNL     1      12.514   9.523  22.244  1.00  0.00    -0.550 OA
ENDBRANCH  14  15
ENDBRANCH  13  14
ENDBRANCH  12  13
ENDBRANCH  11  12
ENDBRANCH  10  11
ENDBRANCH   9  10
ENDBRANCH   8   9
ENDBRANCH   7   8
ENDBRANCH   6   7
ENDBRANCH   5   6
ENDBRANCH   4   5
ENDBRANCH   3   4
ENDBRANCH   2   3
ENDBRANCH   1   2
BRANCH   1  18
ATOM     18  C   UNL     1      10.591   0.604  25.979  1.00  0.00     0.000 C 
BRANCH  18  19
ATOM     19  C   UNL     1      11.256  -0.691  26.470  1.00  0.00     0.000 C 
BRANCH  19  20
ATOM     20  C   UNL     1      12.506  -1.064  25.658  1.00  0.00     0.000 C 
BRANCH  20  21
ATOM     21  C   UNL     1      13.377  -2.121  26.359  1.00  0.00     0.000 C 
BRANCH  21  22
ATOM     22  C   UNL     1      14.881  -1.827  26.216  1.00  0.00     0.000 C 
BRANCH  22  23
ATOM     23  C   UNL     1      15.702  -2.381  27.390  1.00  0.00     0.000 C 
BRANCH  23  24
ATOM     24  C   UNL     1      14.841  -2.514  28.653  1.00  0.00    -0.000 C 
BRANCH  24  25
ATOM     25  C   UNL     1      14.907  -1.231  29.496  1.00  0.00    -0.000 C 
BRANCH  25  26
ATOM     26  C   UNL     1      13.577  -0.447  29.482  1.00  0.00    -0.000 C 
BRANCH  26  27
ATOM     27  C   UNL     1      13.749   1.050  29.170  1.00  0.00    -0.000 C 
BRANCH  27  28
ATOM     28  C   UNL     1      13.699   1.352  27.665  1.00  0.00    -0.000 C 
BRANCH  28  29
ATOM     29  C   UNL     1      15.087   1.630  27.062  1.00  0.00    -0.000 C 
BRANCH  29  30
ATOM     30  C   UNL     1      15.111   1.821  25.532  1.00  0.00    -0.000 C 
BRANCH  30  31
ATOM     31  C   UNL     1      13.738   2.168  24.921  1.00  0.00    -0.003 C 
ATOM     32  C   UNL     1      13.581   3.663  24.641  1.00  0.00     0.004 C 
ENDBRANCH  30  31
ENDBRANCH  29  30
ENDBRANCH  28  29
ENDBRANCH  27  28
ENDBRANCH  26  27
ENDBRANCH  25  26
ENDBRANCH  24  25
ENDBRANCH  23  24
ENDBRANCH  22  23
ENDBRANCH  21  22
ENDBRANCH  20  21
ENDBRANCH  19  20
ENDBRANCH  18  19
ENDBRANCH   1  18
TORSDOF 28
ENDMDL
MODEL 2
REMARK VINA RESULT:    -5.686      4.147      7.140
REMARK INTER + INTRA:         -18.393
REMARK INTER:                 -15.975
REMARK INTRA:                  -2.418
REMARK UNBOUND:                -3.400
REMARK SMILES CCCCCCCCCCCCCCCCCCCCCCCCCCCCCC(=O)[O-]
REMARK SMILES IDX 16 1 17 2 18 3 19 4 20 5 21 6 22 7 23 8 24 9 25 10 26 11
REMARK SMILES IDX 27 12 28 13 29 14 30 15 31 16 32 17 15 18 14 19 13 20 12 21
REMARK SMILES IDX 11 22 10 23 9 24 8 25 7 26 6 27 5 28 4 29 3 30 2 31 1 32
REMARK H PARENT
REMARK Flexibility Score: inf
ROOT
ATOM      1  C   UNL     1      13.023   0.579  29.282  1.00  0.00     0.000 C 
ENDROOT
BRANCH   1   2
ATOM      2  C   UNL     1      14.103   1.000  28.270  1.00  0.00     0.000 C 
BRANCH   2   3
ATOM      3  C   UNL     1      14.104   0.209  26.946  1.00  0.00     0.000 C 
BRANCH   3   4
ATOM      4  C   UNL     1      12.996  -0.852  26.809  1.00  0.00     0.000 C 
BRANCH   4   5
ATOM      5  C   UNL     1      11.752  -0.326  26.073  1.00  0.00     0.000 C 
BRANCH   5   6
ATOM      6  C   UNL     1      12.044   0.908  25.198  1.00  0.00     0.000 C 
BRANCH   6   7
ATOM      7  C   UNL     1      11.328   0.934  23.834  1.00  0.00     0.000 C 
BRANCH   7   8
ATOM      8  C   UNL     1      11.515   2.231  23.024  1.00  0.00     0.000 C 
BRANCH   8   9
ATOM      9  C   UNL     1      10.593   2.333  21.786  1.00  0.00     0.000 C 
BRANCH   9  10
ATOM     10  C   UNL     1      10.272   3.773  21.348  1.00  0.00     0.000 C 
BRANCH  10  11
ATOM     11  C   UNL     1      11.003   4.172  20.055  1.00  0.00     0.000 C 
BRANCH  11  12
ATOM     12  C   UNL     1      11.486   5.635  20.067  1.00  0.00     0.000 C 
BRANCH  12  13
ATOM     13  C   UNL     1      11.535   6.294  21.459  1.00  0.00     0.006 C 
BRANCH  13  14
ATOM     14  C   UNL     1      11.569   7.826  21.397  1.00  0.00     0.053 C 
BRANCH  14  15
ATOM     15  C   UNL     1      12.981   8.321  21.400  1.00  0.00     0.041 C 
ATOM     16  O   UNL     1      13.603   8.450  22.489  1.00  0.00    -0.550 OA
ATOM     17  O   UNL     1      13.630   8.588  20.201  1.00  0.00    -0.550 OA
ENDBRANCH  14  15
ENDBRANCH  13  14
ENDBRANCH  12  13
ENDBRANCH  11  12
ENDBRANCH  10  11
ENDBRANCH   9  10
ENDBRANCH   8   9
ENDBRANCH   7   8
ENDBRANCH   6   7
ENDBRANCH   5   6
ENDBRANCH   4   5
ENDBRANCH   3   4
ENDBRANCH   2   3
ENDBRANCH   1   2
BRANCH   1  18
ATOM     18  C   UNL     1      13.614   0.095  30.615  1.00  0.00     0.000 C 
BRANCH  18  19
ATOM     19  C   UNL     1      14.874  -0.751  30.379  1.00  0.00     0.000 C 
BRANCH  19  20
ATOM     20  C   UNL     1      15.864  -0.685  31.553  1.00  0.00     0.000 C 
BRANCH  20  21
ATOM     21  C   UNL     1      16.040  -2.040  32.259  1.00  0.00     0.000 C 
BRANCH  21  22
ATOM     22  C   UNL     1      16.984  -1.950  33.471  1.00  0.00     0.000 C 
BRANCH  22  23
ATOM     23  C   UNL     1      17.894  -3.181  33.599  1.00  0.00     0.000 C 
BRANCH  23  24
ATOM     24  C   UNL     1      18.339  -3.391  35.051  1.00  0.00    -0.000 C 
BRANCH  24  25
ATOM     25  C   UNL     1      17.127  -3.421  35.995  1.00  0.00    -0.000 C 
BRANCH  25  26
ATOM     26  C   UNL     1      16.506  -4.830  36.112  1.00  0.00    -0.000 C 
BRANCH  26  27
ATOM     27  C   UNL     1      15.160  -4.972  35.380  1.00  0.00    -0.000 C 
BRANCH  27  28
ATOM     28  C   UNL     1      15.087  -6.237  34.512  1.00  0.00    -0.000 C 
BRANCH  28  29
ATOM     29  C   UNL     1      16.095  -6.228  33.349  1.00  0.00    -0.000 C 
BRANCH  29  30
ATOM     30  C   UNL     1      16.916  -7.521  33.182  1.00  0.00    -0.000 C 
BRANCH  30  31
ATOM     31  C   UNL     1      18.332  -7.449  33.790  1.00  0.00    -0.003 C 
ATOM     32  C   UNL     1      19.217  -6.413  33.097  1.00  0.00     0.004 C 
ENDBRANCH  30  31
ENDBRANCH  29  30
ENDBRANCH  28  29
ENDBRANCH  27  28
ENDBRANCH  26  27
ENDBRANCH  25  26
ENDBRANCH  24  25
ENDBRANCH  23  24
ENDBRANCH  22  23
ENDBRANCH  21  22
ENDBRANCH  20  21
ENDBRANCH  19  20
ENDBRANCH  18  19
ENDBRANCH   1  18
TORSDOF 28
ENDMDL
MODEL 3
REMARK VINA RESULT:    -5.631      5.956     12.957
REMARK INTER + INTRA:         -18.247
REMARK INTER:                 -15.677
REMARK INTRA:                  -2.570
REMARK UNBOUND:                -3.400
REMARK SMILES CCCCCCCCCCCCCCCCCCCCCCCCCCCCCC(=O)[O-]
REMARK SMILES IDX 16 1 17 2 18 3 19 4 20 5 21 6 22 7 23 8 24 9 25 10 26 11
REMARK SMILES IDX 27 12 28 13 29 14 30 15 31 16 32 17 15 18 14 19 13 20 12 21
REMARK SMILES IDX 11 22 10 23 9 24 8 25 7 26 6 27 5 28 4 29 3 30 2 31 1 32
REMARK H PARENT
REMARK Flexibility Score: inf
ROOT
ATOM      1  C   UNL     1      11.668  -0.730  26.262  1.00  0.00     0.000 C 
ENDROOT
BRANCH   1   2
ATOM      2  C   UNL     1      13.172  -0.773  26.582  1.00  0.00     0.000 C 
BRANCH   2   3
ATOM      3  C   UNL     1      13.849   0.605  26.737  1.00  0.00     0.000 C 
BRANCH   3   4
ATOM      4  C   UNL     1      14.241   0.990  28.176  1.00  0.00     0.000 C 
BRANCH   4   5
ATOM      5  C   UNL     1      13.107   0.756  29.188  1.00  0.00     0.000 C 
BRANCH   5   6
ATOM      6  C   UNL     1      13.583   0.068  30.482  1.00  0.00     0.000 C 
BRANCH   6   7
ATOM      7  C   UNL     1      14.935  -0.664  30.380  1.00  0.00     0.000 C 
BRANCH   7   8
ATOM      8  C   UNL     1      16.038  -0.130  31.313  1.00  0.00     0.000 C 
BRANCH   8   9
ATOM      9  C   UNL     1      16.244  -0.979  32.589  1.00  0.00     0.000 C 
BRANCH   9  10
ATOM     10  C   UNL     1      16.171  -2.500  32.360  1.00  0.00     0.000 C 
BRANCH  10  11
ATOM     11  C   UNL     1      16.806  -3.300  33.511  1.00  0.00     0.000 C 
BRANCH  11  12
ATOM     12  C   UNL     1      17.339  -4.673  33.061  1.00  0.00     0.000 C 
BRANCH  12  13
ATOM     13  C   UNL     1      16.270  -5.645  32.529  1.00  0.00     0.006 C 
BRANCH  13  14
ATOM     14  C   UNL     1      16.610  -7.117  32.797  1.00  0.00     0.053 C 
BRANCH  14  15
ATOM     15  C   UNL     1      15.405  -7.852  33.294  1.00  0.00     0.041 C 
ATOM     16  O   UNL     1      15.024  -8.906  32.717  1.00  0.00    -0.550 OA
ATOM     17  O   UNL     1      14.735  -7.407  34.428  1.00  0.00    -0.550 OA
ENDBRANCH  14  15
ENDBRANCH  13  14
ENDBRANCH  12  13
ENDBRANCH  11  12
ENDBRANCH  10  11
ENDBRANCH   9  10
ENDBRANCH   8   9
ENDBRANCH   7   8
ENDBRANCH   6   7
ENDBRANCH   5   6
ENDBRANCH   4   5
ENDBRANCH   3   4
ENDBRANCH   2   3
ENDBRANCH   1   2
BRANCH   1  18
ATOM     18  C   UNL     1      11.233   0.597  25.623  1.00  0.00     0.000 C 
BRANCH  18  19
ATOM     19  C   UNL     1      10.677   0.367  24.210  1.00  0.00     0.000 C 
BRANCH  19  20
ATOM     20  C   UNL     1      11.360   1.247  23.151  1.00  0.00     0.000 C 
BRANCH  20  21
ATOM     21  C   UNL     1      10.453   1.534  21.942  1.00  0.00     0.000 C 
BRANCH  21  22
ATOM     22  C   UNL     1      10.409   3.030  21.586  1.00  0.00     0.000 C 
BRANCH  22  23
ATOM     23  C   UNL     1      10.704   3.290  20.101  1.00  0.00     0.000 C 
BRANCH  23  24
ATOM     24  C   UNL     1      11.732   4.415  19.929  1.00  0.00    -0.000 C 
BRANCH  24  25
ATOM     25  C   UNL     1      11.581   5.089  18.557  1.00  0.00    -0.000 C 
BRANCH  25  26
ATOM     26  C   UNL     1      11.531   6.628  18.659  1.00  0.00    -0.000 C 
BRANCH  26  27
ATOM     27  C   UNL     1      12.064   7.175  19.994  1.00  0.00    -0.000 C 
BRANCH  27  28
ATOM     28  C   UNL     1      10.967   7.826  20.850  1.00  0.00    -0.000 C 
BRANCH  28  29
ATOM     29  C   UNL     1       9.548   7.413  20.423  1.00  0.00    -0.000 C 
BRANCH  29  30
ATOM     30  C   UNL     1       8.911   6.288  21.262  1.00  0.00    -0.000 C 
BRANCH  30  31
ATOM     31  C   UNL     1       7.744   5.565  20.558  1.00  0.00    -0.003 C 
ATOM     32  C   UNL     1       7.936   5.475  19.044  1.00  0.00     0.004 C 
ENDBRANCH  30  31
ENDBRANCH  29  30
ENDBRANCH  28  29
ENDBRANCH  27  28
ENDBRANCH  26  27
ENDBRANCH  25  26
ENDBRANCH  24  25
ENDBRANCH  23  24
ENDBRANCH  22  23
ENDBRANCH  21  22
ENDBRANCH  20  21
ENDBRANCH  19  20
ENDBRANCH  18  19
ENDBRANCH   1  18
TORSDOF 28
ENDMDL
MODEL 4
REMARK VINA RESULT:    -5.616      1.214      2.595
REMARK INTER + INTRA:         -18.208
REMARK INTER:                 -14.829
REMARK INTRA:                  -3.378
REMARK UNBOUND:                -3.400
REMARK SMILES CCCCCCCCCCCCCCCCCCCCCCCCCCCCCC(=O)[O-]
REMARK SMILES IDX 16 1 17 2 18 3 19 4 20 5 21 6 22 7 23 8 24 9 25 10 26 11
REMARK SMILES IDX 27 12 28 13 29 14 30 15 31 16 32 17 15 18 14 19 13 20 12 21
REMARK SMILES IDX 11 22 10 23 9 24 8 25 7 26 6 27 5 28 4 29 3 30 2 31 1 32
REMARK H PARENT
REMARK Flexibility Score: inf
ROOT
ATOM      1  C   UNL     1      10.575   2.040  21.950  1.00  0.00     0.000 C 
ENDROOT
BRANCH   1   2
ATOM      2  C   UNL     1      10.304   2.375  20.473  1.00  0.00     0.000 C 
BRANCH   2   3
ATOM      3  C   UNL     1      10.635   3.824  20.059  1.00  0.00     0.000 C 
BRANCH   3   4
ATOM      4  C   UNL     1      10.686   4.845  21.211  1.00  0.00     0.000 C 
BRANCH   4   5
ATOM      5  C   UNL     1       9.308   5.444  21.542  1.00  0.00     0.000 C 
BRANCH   5   6
ATOM      6  C   UNL     1       8.647   6.141  20.337  1.00  0.00     0.000 C 
BRANCH   6   7
ATOM      7  C   UNL     1       7.678   5.266  19.519  1.00  0.00     0.000 C 
BRANCH   7   8
ATOM      8  C   UNL     1       7.808   5.403  17.990  1.00  0.00     0.000 C 
BRANCH   8   9
ATOM      9  C   UNL     1       8.507   6.705  17.535  1.00  0.00     0.000 C 
BRANCH   9  10
ATOM     10  C   UNL     1       9.979   6.526  17.122  1.00  0.00     0.000 C 
BRANCH  10  11
ATOM     11  C   UNL     1      10.913   7.531  17.820  1.00  0.00     0.000 C 
BRANCH  11  12
ATOM     12  C   UNL     1      12.009   6.847  18.659  1.00  0.00     0.000 C 
BRANCH  12  13
ATOM     13  C   UNL     1      12.719   7.762  19.674  1.00  0.00     0.006 C 
BRANCH  13  14
ATOM     14  C   UNL     1      11.836   8.125  20.875  1.00  0.00     0.053 C 
BRANCH  14  15
ATOM     15  C   UNL     1      12.624   8.886  21.894  1.00  0.00     0.041 C 
ATOM     16  O   UNL     1      12.105   9.869  22.489  1.00  0.00    -0.550 OA
ATOM     17  O   UNL     1      13.909   8.479  22.229  1.00  0.00    -0.550 OA
ENDBRANCH  14  15
ENDBRANCH  13  14
ENDBRANCH  12  13
ENDBRANCH  11  12
ENDBRANCH  10  11
ENDBRANCH   9  10
ENDBRANCH   8   9
ENDBRANCH   7   8
ENDBRANCH   6   7
ENDBRANCH   5   6
ENDBRANCH   4   5
ENDBRANCH   3   4
ENDBRANCH   2   3
ENDBRANCH   1   2
BRANCH   1  18
ATOM     18  C   UNL     1      10.658   0.528  22.210  1.00  0.00     0.000 C 
BRANCH  18  19
ATOM     19  C   UNL     1      10.501   0.223  23.708  1.00  0.00     0.000 C 
BRANCH  19  20
ATOM     20  C   UNL     1      11.443   1.060  24.589  1.00  0.00     0.000 C 
BRANCH  20  21
ATOM     21  C   UNL     1      11.303   0.732  26.085  1.00  0.00     0.000 C 
BRANCH  21  22
ATOM     22  C   UNL     1      11.617  -0.742  26.393  1.00  0.00     0.000 C 
BRANCH  22  23
ATOM     23  C   UNL     1      12.987  -1.177  25.851  1.00  0.00     0.000 C 
BRANCH  23  24
ATOM     24  C   UNL     1      13.586  -2.304  26.701  1.00  0.00    -0.000 C 
BRANCH  24  25
ATOM     25  C   UNL     1      14.858  -1.831  27.421  1.00  0.00    -0.000 C 
BRANCH  25  26
ATOM     26  C   UNL     1      14.791  -2.056  28.946  1.00  0.00    -0.000 C 
BRANCH  26  27
ATOM     27  C   UNL     1      14.690  -0.753  29.757  1.00  0.00    -0.000 C 
BRANCH  27  28
ATOM     28  C   UNL     1      13.747   0.276  29.114  1.00  0.00    -0.000 C 
BRANCH  28  29
ATOM     29  C   UNL     1      14.483   1.526  28.600  1.00  0.00    -0.000 C 
BRANCH  29  30
ATOM     30  C   UNL     1      14.291   1.831  27.102  1.00  0.00    -0.000 C 
BRANCH  30  31
ATOM     31  C   UNL     1      15.520   1.495  26.232  1.00  0.00    -0.003 C 
ATOM     32  C   UNL     1      15.378   2.002  24.796  1.00  0.00     0.004 C 
ENDBRANCH  30  31
ENDBRANCH  29  30
ENDBRANCH  28  29
ENDBRANCH  27  28
ENDBRANCH  26  27
ENDBRANCH  25  26
ENDBRANCH  24  25
ENDBRANCH  23  24
ENDBRANCH  22  23
ENDBRANCH  21  22
ENDBRANCH  20  21
ENDBRANCH  19  20
ENDBRANCH  18  19
ENDBRANCH   1  18
TORSDOF 28
ENDMDL
MODEL 5
REMARK VINA RESULT:    -5.490      4.032      7.287
REMARK INTER + INTRA:         -17.875
REMARK INTER:                 -15.685
REMARK INTRA:                  -2.190
REMARK UNBOUND:                -3.400
REMARK SMILES CCCCCCCCCCCCCCCCCCCCCCCCCCCCCC(=O)[O-]
REMARK SMILES IDX 16 1 17 2 18 3 19 4 20 5 21 6 22 7 23 8 24 9 25 10 26 11
REMARK SMILES IDX 27 12 28 13 29 14 30 15 31 16 32 17 15 18 14 19 13 20 12 21
REMARK SMILES IDX 11 22 10 23 9 24 8 25 7 26 6 27 5 28 4 29 3 30 2 31 1 32
REMARK H PARENT
REMARK Flexibility Score: inf
ROOT
ATOM      1  C   UNL     1      13.257   0.764  29.272  1.00  0.00     0.000 C 
ENDROOT
BRANCH   1   2
ATOM      2  C   UNL     1      14.158   0.267  28.127  1.00  0.00     0.000 C 
BRANCH   2   3
ATOM      3  C   UNL     1      14.378   1.276  26.981  1.00  0.00     0.000 C 
BRANCH   3   4
ATOM      4  C   UNL     1      13.384   1.172  25.809  1.00  0.00     0.000 C 
BRANCH   4   5
ATOM      5  C   UNL     1      12.498  -0.083  25.887  1.00  0.00     0.000 C 
BRANCH   5   6
ATOM      6  C   UNL     1      10.998   0.243  26.020  1.00  0.00     0.000 C 
BRANCH   6   7
ATOM      7  C   UNL     1      10.281   0.594  24.702  1.00  0.00     0.000 C 
BRANCH   7   8
ATOM      8  C   UNL     1      11.088   0.305  23.422  1.00  0.00     0.000 C 
BRANCH   8   9
ATOM      9  C   UNL     1      10.388   0.766  22.123  1.00  0.00     0.000 C 
BRANCH   9  10
ATOM     10  C   UNL     1      10.614   2.247  21.770  1.00  0.00     0.000 C 
BRANCH  10  11
ATOM     11  C   UNL     1      10.081   2.608  20.372  1.00  0.00     0.000 C 
BRANCH  11  12
ATOM     12  C   UNL     1      10.380   4.066  19.975  1.00  0.00     0.000 C 
BRANCH  12  13
ATOM     13  C   UNL     1      10.364   5.074  21.139  1.00  0.00     0.006 C 
BRANCH  13  14
ATOM     14  C   UNL     1      11.736   5.707  21.404  1.00  0.00     0.053 C 
BRANCH  14  15
ATOM     15  C   UNL     1      11.647   7.200  21.344  1.00  0.00     0.041 C 
ATOM     16  O   UNL     1      12.596   7.907  21.776  1.00  0.00    -0.550 OA
ATOM     17  O   UNL     1      10.542   7.809  20.762  1.00  0.00    -0.550 OA
ENDBRANCH  14  15
ENDBRANCH  13  14
ENDBRANCH  12  13
ENDBRANCH  11  12
ENDBRANCH  10  11
ENDBRANCH   9  10
ENDBRANCH   8   9
ENDBRANCH   7   8
ENDBRANCH   6   7
ENDBRANCH   5   6
ENDBRANCH   4   5
ENDBRANCH   3   4
ENDBRANCH   2   3
ENDBRANCH   1   2
BRANCH   1  18
ATOM     18  C   UNL     1      13.476  -0.011  30.580  1.00  0.00     0.000 C 
BRANCH  18  19
ATOM     19  C   UNL     1      14.750  -0.866  30.502  1.00  0.00     0.000 C 
BRANCH  19  20
ATOM     20  C   UNL     1      15.888  -0.320  31.378  1.00  0.00     0.000 C 
BRANCH  20  21
ATOM     21  C   UNL     1      16.253  -1.265  32.536  1.00  0.00     0.000 C 
BRANCH  21  22
ATOM     22  C   UNL     1      16.060  -2.746  32.165  1.00  0.00     0.000 C 
BRANCH  22  23
ATOM     23  C   UNL     1      16.327  -3.687  33.349  1.00  0.00     0.000 C 
BRANCH  23  24
ATOM     24  C   UNL     1      17.385  -3.102  34.293  1.00  0.00    -0.000 C 
BRANCH  24  25
ATOM     25  C   UNL     1      18.462  -4.147  34.621  1.00  0.00    -0.000 C 
BRANCH  25  26
ATOM     26  C   UNL     1      19.384  -4.442  33.419  1.00  0.00    -0.000 C 
BRANCH  26  27
ATOM     27  C   UNL     1      19.482  -5.937  33.069  1.00  0.00    -0.000 C 
BRANCH  27  28
ATOM     28  C   UNL     1      18.516  -6.803  33.892  1.00  0.00    -0.000 C 
BRANCH  28  29
ATOM     29  C   UNL     1      17.778  -7.852  33.042  1.00  0.00    -0.000 C 
BRANCH  29  30
ATOM     30  C   UNL     1      16.346  -7.466  32.622  1.00  0.00    -0.000 C 
BRANCH  30  31
ATOM     31  C   UNL     1      15.263  -7.864  33.647  1.00  0.00    -0.003 C 
ATOM     32  C   UNL     1      14.770  -6.674  34.471  1.00  0.00     0.004 C 
ENDBRANCH  30  31
ENDBRANCH  29  30
ENDBRANCH  28  29
ENDBRANCH  27  28
ENDBRANCH  26  27
ENDBRANCH  25  26
ENDBRANCH  24  25
ENDBRANCH  23  24
ENDBRANCH  22  23
ENDBRANCH  21  22
ENDBRANCH  20  21
ENDBRANCH  19  20
ENDBRANCH  18  19
ENDBRANCH   1  18
TORSDOF 28
ENDMDL
MODEL 6
REMARK VINA RESULT:    -5.456      4.347      6.941
REMARK INTER + INTRA:         -17.786
REMARK INTER:                 -15.543
REMARK INTRA:                  -2.243
REMARK UNBOUND:                -3.400
REMARK SMILES CCCCCCCCCCCCCCCCCCCCCCCCCCCCCC(=O)[O-]
REMARK SMILES IDX 16 1 17 2 18 3 19 4 20 5 21 6 22 7 23 8 24 9 25 10 26 11
REMARK SMILES IDX 27 12 28 13 29 14 30 15 31 16 32 17 15 18 14 19 13 20 12 21
REMARK SMILES IDX 11 22 10 23 9 24 8 25 7 26 6 27 5 28 4 29 3 30 2 31 1 32
REMARK H PARENT
REMARK Flexibility Score: inf
ROOT
ATOM      1  C   UNL     1      14.277  -1.069  26.859  1.00  0.00     0.000 C 
ENDROOT
BRANCH   1   2
ATOM      2  C   UNL     1      12.879  -1.112  26.218  1.00  0.00     0.000 C 
BRANCH   2   3
ATOM      3  C   UNL     1      11.887  -0.051  26.738  1.00  0.00     0.000 C 
BRANCH   3   4
ATOM      4  C   UNL     1      10.790   0.370  25.742  1.00  0.00     0.000 C 
BRANCH   4   5
ATOM      5  C   UNL     1      11.353   1.066  24.491  1.00  0.00     0.000 C 
BRANCH   5   6
ATOM      6  C   UNL     1      11.073   0.290  23.190  1.00  0.00     0.000 C 
BRANCH   6   7
ATOM      7  C   UNL     1      10.383   1.099  22.075  1.00  0.00     0.000 C 
BRANCH   7   8
ATOM      8  C   UNL     1      10.798   2.580  21.992  1.00  0.00     0.000 C 
BRANCH   8   9
ATOM      9  C   UNL     1      10.054   3.378  20.895  1.00  0.00     0.000 C 
BRANCH   9  10
ATOM     10  C   UNL     1      10.651   3.230  19.485  1.00  0.00     0.000 C 
BRANCH  10  11
ATOM     11  C   UNL     1      10.596   4.541  18.681  1.00  0.00     0.000 C 
BRANCH  11  12
ATOM     12  C   UNL     1      11.969   5.230  18.564  1.00  0.00     0.000 C 
BRANCH  12  13
ATOM     13  C   UNL     1      11.988   6.717  18.962  1.00  0.00     0.006 C 
BRANCH  13  14
ATOM     14  C   UNL     1      11.613   6.950  20.432  1.00  0.00     0.053 C 
BRANCH  14  15
ATOM     15  C   UNL     1      10.284   7.629  20.534  1.00  0.00     0.041 C 
ATOM     16  O   UNL     1       9.590   7.818  19.499  1.00  0.00    -0.550 OA
ATOM     17  O   UNL     1       9.785   8.004  21.775  1.00  0.00    -0.550 OA
ENDBRANCH  14  15
ENDBRANCH  13  14
ENDBRANCH  12  13
ENDBRANCH  11  12
ENDBRANCH  10  11
ENDBRANCH   9  10
ENDBRANCH   8   9
ENDBRANCH   7   8
ENDBRANCH   6   7
ENDBRANCH   5   6
ENDBRANCH   4   5
ENDBRANCH   3   4
ENDBRANCH   2   3
ENDBRANCH   1   2
BRANCH   1  18
ATOM     18  C   UNL     1      14.310  -0.256  28.161  1.00  0.00     0.000 C 
BRANCH  18  19
ATOM     19  C   UNL     1      14.729  -1.139  29.347  1.00  0.00     0.000 C 
BRANCH  19  20
ATOM     20  C   UNL     1      14.586  -0.425  30.701  1.00  0.00     0.000 C 
BRANCH  20  21
ATOM     21  C   UNL     1      15.841  -0.563  31.580  1.00  0.00     0.000 C 
BRANCH  21  22
ATOM     22  C   UNL     1      15.995  -1.981  32.160  1.00  0.00     0.000 C 
BRANCH  22  23
ATOM     23  C   UNL     1      17.013  -2.038  33.309  1.00  0.00     0.000 C 
BRANCH  23  24
ATOM     24  C   UNL     1      17.219  -3.478  33.794  1.00  0.00    -0.000 C 
BRANCH  24  25
ATOM     25  C   UNL     1      15.886  -4.241  33.822  1.00  0.00    -0.000 C 
BRANCH  25  26
ATOM     26  C   UNL     1      15.643  -4.956  35.169  1.00  0.00    -0.000 C 
BRANCH  26  27
ATOM     27  C   UNL     1      16.707  -4.639  36.234  1.00  0.00    -0.000 C 
BRANCH  27  28
ATOM     28  C   UNL     1      17.398  -5.899  36.777  1.00  0.00    -0.000 C 
BRANCH  28  29
ATOM     29  C   UNL     1      17.333  -7.087  35.801  1.00  0.00    -0.000 C 
BRANCH  29  30
ATOM     30  C   UNL     1      18.637  -7.375  35.032  1.00  0.00    -0.000 C 
BRANCH  30  31
ATOM     31  C   UNL     1      18.461  -7.439  33.500  1.00  0.00    -0.003 C 
ATOM     32  C   UNL     1      17.006  -7.664  33.086  1.00  0.00     0.004 C 
ENDBRANCH  30  31
ENDBRANCH  29  30
ENDBRANCH  28  29
ENDBRANCH  27  28
ENDBRANCH  26  27
ENDBRANCH  25  26
ENDBRANCH  24  25
ENDBRANCH  23  24
ENDBRANCH  22  23
ENDBRANCH  21  22
ENDBRANCH  20  21
ENDBRANCH  19  20
ENDBRANCH  18  19
ENDBRANCH   1  18
TORSDOF 28
ENDMDL
MODEL 7
REMARK VINA RESULT:    -5.447      6.478     13.906
REMARK INTER + INTRA:         -17.763
REMARK INTER:                 -15.726
REMARK INTRA:                  -2.037
REMARK UNBOUND:                -3.400
REMARK SMILES CCCCCCCCCCCCCCCCCCCCCCCCCCCCCC(=O)[O-]
REMARK SMILES IDX 16 1 17 2 18 3 19 4 20 5 21 6 22 7 23 8 24 9 25 10 26 11
REMARK SMILES IDX 27 12 28 13 29 14 30 15 31 16 32 17 15 18 14 19 13 20 12 21
REMARK SMILES IDX 11 22 10 23 9 24 8 25 7 26 6 27 5 28 4 29 3 30 2 31 1 32
REMARK H PARENT
REMARK Flexibility Score: inf
ROOT
ATOM      1  C   UNL     1      13.920   0.826  27.744  1.00  0.00     0.000 C 
ENDROOT
BRANCH   1   2
ATOM      2  C   UNL     1      12.914   0.800  28.908  1.00  0.00     0.000 C 
BRANCH   2   3
ATOM      3  C   UNL     1      13.407   0.086  30.184  1.00  0.00     0.000 C 
BRANCH   3   4
ATOM      4  C   UNL     1      14.716  -0.711  30.031  1.00  0.00     0.000 C 
BRANCH   4   5
ATOM      5  C   UNL     1      15.604  -0.650  31.286  1.00  0.00     0.000 C 
BRANCH   5   6
ATOM      6  C   UNL     1      15.825  -2.028  31.938  1.00  0.00     0.000 C 
BRANCH   6   7
ATOM      7  C   UNL     1      16.782  -2.039  33.145  1.00  0.00     0.000 C 
BRANCH   7   8
ATOM      8  C   UNL     1      17.196  -3.440  33.637  1.00  0.00     0.000 C 
BRANCH   8   9
ATOM      9  C   UNL     1      17.588  -3.488  35.132  1.00  0.00     0.000 C 
BRANCH   9  10
ATOM     10  C   UNL     1      16.523  -4.116  36.049  1.00  0.00     0.000 C 
BRANCH  10  11
ATOM     11  C   UNL     1      16.311  -5.613  35.767  1.00  0.00     0.000 C 
BRANCH  11  12
ATOM     12  C   UNL     1      15.100  -5.885  34.855  1.00  0.00     0.000 C 
BRANCH  12  13
ATOM     13  C   UNL     1      15.115  -7.249  34.140  1.00  0.00     0.006 C 
BRANCH  13  14
ATOM     14  C   UNL     1      15.849  -7.211  32.793  1.00  0.00     0.053 C 
BRANCH  14  15
ATOM     15  C   UNL     1      15.900  -8.578  32.184  1.00  0.00     0.041 C 
ATOM     16  O   UNL     1      16.974  -9.009  31.687  1.00  0.00    -0.550 OA
ATOM     17  O   UNL     1      14.777  -9.397  32.214  1.00  0.00    -0.550 OA
ENDBRANCH  14  15
ENDBRANCH  13  14
ENDBRANCH  12  13
ENDBRANCH  11  12
ENDBRANCH  10  11
ENDBRANCH   9  10
ENDBRANCH   8   9
ENDBRANCH   7   8
ENDBRANCH   6   7
ENDBRANCH   5   6
ENDBRANCH   4   5
ENDBRANCH   3   4
ENDBRANCH   2   3
ENDBRANCH   1   2
BRANCH   1  18
ATOM     18  C   UNL     1      13.312   0.337  26.421  1.00  0.00     0.000 C 
BRANCH  18  19
ATOM     19  C   UNL     1      11.896  -0.218  26.643  1.00  0.00     0.000 C 
BRANCH  19  20
ATOM     20  C   UNL     1      10.866   0.372  25.667  1.00  0.00     0.000 C 
BRANCH  20  21
ATOM     21  C   UNL     1      11.518   1.010  24.428  1.00  0.00     0.000 C 
BRANCH  21  22
ATOM     22  C   UNL     1      11.078   0.330  23.120  1.00  0.00     0.000 C 
BRANCH  22  23
ATOM     23  C   UNL     1      10.286   1.275  22.204  1.00  0.00     0.000 C 
BRANCH  23  24
ATOM     24  C   UNL     1      10.871   2.693  22.235  1.00  0.00    -0.000 C 
BRANCH  24  25
ATOM     25  C   UNL     1      10.531   3.453  20.944  1.00  0.00    -0.000 C 
BRANCH  25  26
ATOM     26  C   UNL     1       9.918   2.536  19.864  1.00  0.00    -0.000 C 
BRANCH  26  27
ATOM     27  C   UNL     1       9.031   3.283  18.853  1.00  0.00    -0.000 C 
BRANCH  27  28
ATOM     28  C   UNL     1       8.500   4.617  19.401  1.00  0.00    -0.000 C 
BRANCH  28  29
ATOM     29  C   UNL     1       8.720   5.793  18.434  1.00  0.00    -0.000 C 
BRANCH  29  30
ATOM     30  C   UNL     1       9.834   6.777  18.840  1.00  0.00    -0.000 C 
BRANCH  30  31
ATOM     31  C   UNL     1      11.064   6.752  17.909  1.00  0.00    -0.003 C 
ATOM     32  C   UNL     1      12.112   5.728  18.348  1.00  0.00     0.004 C 
ENDBRANCH  30  31
ENDBRANCH  29  30
ENDBRANCH  28  29
ENDBRANCH  27  28
ENDBRANCH  26  27
ENDBRANCH  25  26
ENDBRANCH  24  25
ENDBRANCH  23  24
ENDBRANCH  22  23
ENDBRANCH  21  22
ENDBRANCH  20  21
ENDBRANCH  19  20
ENDBRANCH  18  19
ENDBRANCH   1  18
TORSDOF 28
ENDMDL
MODEL 8
REMARK VINA RESULT:    -5.443      2.799      4.785
REMARK INTER + INTRA:         -17.752
REMARK INTER:                 -15.501
REMARK INTRA:                  -2.251
REMARK UNBOUND:                -3.400
REMARK SMILES CCCCCCCCCCCCCCCCCCCCCCCCCCCCCC(=O)[O-]
REMARK SMILES IDX 16 1 17 2 18 3 19 4 20 5 21 6 22 7 23 8 24 9 25 10 26 11
REMARK SMILES IDX 27 12 28 13 29 14 30 15 31 16 32 17 15 18 14 19 13 20 12 21
REMARK SMILES IDX 11 22 10 23 9 24 8 25 7 26 6 27 5 28 4 29 3 30 2 31 1 32
REMARK H PARENT
REMARK Flexibility Score: inf
ROOT
ATOM      1  C   UNL     1      11.703   1.105  24.347  1.00  0.00     0.000 C 
ENDROOT
BRANCH   1   2
ATOM      2  C   UNL     1      10.972   0.999  22.998  1.00  0.00     0.000 C 
BRANCH   2   3
ATOM      3  C   UNL     1      10.734   2.341  22.274  1.00  0.00     0.000 C 
BRANCH   3   4
ATOM      4  C   UNL     1      10.232   2.228  20.822  1.00  0.00     0.000 C 
BRANCH   4   5
ATOM      5  C   UNL     1      10.036   3.597  20.149  1.00  0.00     0.000 C 
BRANCH   5   6
ATOM      6  C   UNL     1       9.211   4.578  21.003  1.00  0.00     0.000 C 
BRANCH   6   7
ATOM      7  C   UNL     1       8.203   5.444  20.224  1.00  0.00     0.000 C 
BRANCH   7   8
ATOM      8  C   UNL     1       7.884   4.951  18.799  1.00  0.00     0.000 C 
BRANCH   8   9
ATOM      9  C   UNL     1       7.910   6.068  17.730  1.00  0.00     0.000 C 
BRANCH   9  10
ATOM     10  C   UNL     1       9.152   6.975  17.787  1.00  0.00     0.000 C 
BRANCH  10  11
ATOM     11  C   UNL     1      10.466   6.182  17.676  1.00  0.00     0.000 C 
BRANCH  11  12
ATOM     12  C   UNL     1      11.588   6.756  18.561  1.00  0.00     0.000 C 
BRANCH  12  13
ATOM     13  C   UNL     1      11.108   7.581  19.769  1.00  0.00     0.006 C 
BRANCH  13  14
ATOM     14  C   UNL     1      11.901   7.289  21.049  1.00  0.00     0.053 C 
BRANCH  14  15
ATOM     15  C   UNL     1      12.701   8.487  21.456  1.00  0.00     0.041 C 
ATOM     16  O   UNL     1      13.862   8.657  20.995  1.00  0.00    -0.550 OA
ATOM     17  O   UNL     1      12.148   9.443  22.299  1.00  0.00    -0.550 OA
ENDBRANCH  14  15
ENDBRANCH  13  14
ENDBRANCH  12  13
ENDBRANCH  11  12
ENDBRANCH  10  11
ENDBRANCH   9  10
ENDBRANCH   8   9
ENDBRANCH   7   8
ENDBRANCH   6   7
ENDBRANCH   5   6
ENDBRANCH   4   5
ENDBRANCH   3   4
ENDBRANCH   2   3
ENDBRANCH   1   2
BRANCH   1  18
ATOM     18  C   UNL     1      11.238   0.050  25.361  1.00  0.00     0.000 C 
BRANCH  18  19
ATOM     19  C   UNL     1      12.214  -0.040  26.544  1.00  0.00     0.000 C 
BRANCH  19  20
ATOM     20  C   UNL     1      13.519   0.732  26.299  1.00  0.00     0.000 C 
BRANCH  20  21
ATOM     21  C   UNL     1      14.772  -0.103  26.616  1.00  0.00     0.000 C 
BRANCH  21  22
ATOM     22  C   UNL     1      14.450  -1.599  26.782  1.00  0.00     0.000 C 
BRANCH  22  23
ATOM     23  C   UNL     1      14.865  -2.139  28.159  1.00  0.00     0.000 C 
BRANCH  23  24
ATOM     24  C   UNL     1      15.253  -3.621  28.078  1.00  0.00    -0.000 C 
BRANCH  24  25
ATOM     25  C   UNL     1      14.787  -4.377  29.331  1.00  0.00    -0.000 C 
BRANCH  25  26
ATOM     26  C   UNL     1      15.544  -3.934  30.602  1.00  0.00    -0.000 C 
BRANCH  26  27
ATOM     27  C   UNL     1      15.866  -5.092  31.562  1.00  0.00    -0.000 C 
BRANCH  27  28
ATOM     28  C   UNL     1      16.529  -4.618  32.864  1.00  0.00    -0.000 C 
BRANCH  28  29
ATOM     29  C   UNL     1      18.046  -4.878  32.895  1.00  0.00    -0.000 C 
BRANCH  29  30
ATOM     30  C   UNL     1      18.829  -4.069  33.948  1.00  0.00    -0.000 C 
BRANCH  30  31
ATOM     31  C   UNL     1      17.964  -3.566  35.123  1.00  0.00    -0.003 C 
ATOM     32  C   UNL     1      17.974  -2.042  35.248  1.00  0.00     0.004 C 
ENDBRANCH  30  31
ENDBRANCH  29  30
ENDBRANCH  28  29
ENDBRANCH  27  28
ENDBRANCH  26  27
ENDBRANCH  25  26
ENDBRANCH  24  25
ENDBRANCH  23  24
ENDBRANCH  22  23
ENDBRANCH  21  22
ENDBRANCH  20  21
ENDBRANCH  19  20
ENDBRANCH  18  19
ENDBRANCH   1  18
TORSDOF 28
ENDMDL
MODEL 9
REMARK VINA RESULT:    -5.443      4.111      6.793
REMARK INTER + INTRA:         -17.751
REMARK INTER:                 -15.372
REMARK INTRA:                  -2.379
REMARK UNBOUND:                -3.400
REMARK SMILES CCCCCCCCCCCCCCCCCCCCCCCCCCCCCC(=O)[O-]
REMARK SMILES IDX 16 1 17 2 18 3 19 4 20 5 21 6 22 7 23 8 24 9 25 10 26 11
REMARK SMILES IDX 27 12 28 13 29 14 30 15 31 16 32 17 15 18 14 19 13 20 12 21
REMARK SMILES IDX 11 22 10 23 9 24 8 25 7 26 6 27 5 28 4 29 3 30 2 31 1 32
REMARK H PARENT
REMARK Flexibility Score: inf
ROOT
ATOM      1  C   UNL     1      14.077  -1.663  26.240  1.00  0.00     0.000 C 
ENDROOT
BRANCH   1   2
ATOM      2  C   UNL     1      13.187  -0.534  26.788  1.00  0.00     0.000 C 
BRANCH   2   3
ATOM      3  C   UNL     1      11.703  -0.609  26.374  1.00  0.00     0.000 C 
BRANCH   3   4
ATOM      4  C   UNL     1      11.119   0.683  25.772  1.00  0.00     0.000 C 
BRANCH   4   5
ATOM      5  C   UNL     1      11.683   1.001  24.377  1.00  0.00     0.000 C 
BRANCH   5   6
ATOM      6  C   UNL     1      10.947   0.261  23.244  1.00  0.00     0.000 C 
BRANCH   6   7
ATOM      7  C   UNL     1      10.446   1.152  22.091  1.00  0.00     0.000 C 
BRANCH   7   8
ATOM      8  C   UNL     1      10.884   2.628  22.169  1.00  0.00     0.000 C 
BRANCH   8   9
ATOM      9  C   UNL     1      10.161   3.549  21.160  1.00  0.00     0.000 C 
BRANCH   9  10
ATOM     10  C   UNL     1       9.795   2.871  19.827  1.00  0.00     0.000 C 
BRANCH  10  11
ATOM     11  C   UNL     1       8.625   3.569  19.112  1.00  0.00     0.000 C 
BRANCH  11  12
ATOM     12  C   UNL     1       8.451   5.037  19.543  1.00  0.00     0.000 C 
BRANCH  12  13
ATOM     13  C   UNL     1       8.550   6.067  18.402  1.00  0.00     0.006 C 
BRANCH  13  14
ATOM     14  C   UNL     1       9.744   5.819  17.472  1.00  0.00     0.053 C 
BRANCH  14  15
ATOM     15  C   UNL     1      11.028   6.148  18.167  1.00  0.00     0.041 C 
ATOM     16  O   UNL     1      11.925   5.270  18.286  1.00  0.00    -0.550 OA
ATOM     17  O   UNL     1      11.259   7.436  18.635  1.00  0.00    -0.550 OA
ENDBRANCH  14  15
ENDBRANCH  13  14
ENDBRANCH  12  13
ENDBRANCH  11  12
ENDBRANCH  10  11
ENDBRANCH   9  10
ENDBRANCH   8   9
ENDBRANCH   7   8
ENDBRANCH   6   7
ENDBRANCH   5   6
ENDBRANCH   4   5
ENDBRANCH   3   4
ENDBRANCH   2   3
ENDBRANCH   1   2
BRANCH   1  18
ATOM     18  C   UNL     1      15.379  -1.833  27.035  1.00  0.00     0.000 C 
BRANCH  18  19
ATOM     19  C   UNL     1      15.485  -3.252  27.614  1.00  0.00     0.000 C 
BRANCH  19  20
ATOM     20  C   UNL     1      14.834  -3.380  29.000  1.00  0.00     0.000 C 
BRANCH  20  21
ATOM     21  C   UNL     1      15.073  -4.756  29.644  1.00  0.00     0.000 C 
BRANCH  21  22
ATOM     22  C   UNL     1      15.603  -4.643  31.085  1.00  0.00     0.000 C 
BRANCH  22  23
ATOM     23  C   UNL     1      15.641  -6.000  31.805  1.00  0.00     0.000 C 
BRANCH  23  24
ATOM     24  C   UNL     1      16.382  -5.895  33.143  1.00  0.00    -0.000 C 
BRANCH  24  25
ATOM     25  C   UNL     1      17.488  -6.957  33.241  1.00  0.00    -0.000 C 
BRANCH  25  26
ATOM     26  C   UNL     1      18.892  -6.334  33.397  1.00  0.00    -0.000 C 
BRANCH  26  27
ATOM     27  C   UNL     1      18.951  -4.845  33.015  1.00  0.00    -0.000 C 
BRANCH  27  28
ATOM     28  C   UNL     1      19.300  -3.940  34.207  1.00  0.00    -0.000 C 
BRANCH  28  29
ATOM     29  C   UNL     1      18.184  -2.936  34.545  1.00  0.00    -0.000 C 
BRANCH  29  30
ATOM     30  C   UNL     1      17.638  -3.022  35.983  1.00  0.00    -0.000 C 
BRANCH  30  31
ATOM     31  C   UNL     1      16.793  -4.282  36.259  1.00  0.00    -0.003 C 
ATOM     32  C   UNL     1      17.598  -5.393  36.935  1.00  0.00     0.004 C 
ENDBRANCH  30  31
ENDBRANCH  29  30
ENDBRANCH  28  29
ENDBRANCH  27  28
ENDBRANCH  26  27
ENDBRANCH  25  26
ENDBRANCH  24  25
ENDBRANCH  23  24
ENDBRANCH  22  23
ENDBRANCH  21  22
ENDBRANCH  20  21
ENDBRANCH  19  20
ENDBRANCH  18  19
ENDBRANCH   1  18
TORSDOF 28
ENDMDL
