MODEL 1
REMARK VINA RESULT:    -4.173      0.000      0.000
REMARK INTER + INTRA:         -10.426
REMARK INTER:                  -8.077
REMARK INTRA:                  -2.348
REMARK UNBOUND:                -2.348
REMARK SMILES CCCCCCCCCCCCCCCCCC(=O)[O-]
REMARK SMILES IDX 10 1 11 2 12 3 13 4 14 5 15 6 16 7 17 8 18 9 19 10 20 11
REMARK SMILES IDX 9 12 8 13 7 14 6 15 5 16 4 17 3 18 2 19 1 20
REMARK H PARENT
REMARK Flexibility Score: inf
ROOT
ATOM      1  C   UNL     1      50.422   7.342  24.532  1.00  0.00     0.000 C 
ENDROOT
BRANCH   1   2
ATOM      2  C   UNL     1      49.432   7.857  23.473  1.00  0.00     0.000 C 
BRANCH   2   3
ATOM      3  C   UNL     1      48.680   6.722  22.760  1.00  0.00     0.000 C 
BRANCH   3   4
ATOM      4  C   UNL     1      49.036   6.626  21.266  1.00  0.00     0.000 C 
BRANCH   4   5
ATOM      5  C   UNL     1      49.741   7.889  20.736  1.00  0.00     0.000 C 
BRANCH   5   6
ATOM      6  C   UNL     1      49.022   8.603  19.576  1.00  0.00     0.000 C 
BRANCH   6   7
ATOM      7  C   UNL     1      47.548   8.918  19.889  1.00  0.00     0.006 C 
BRANCH   7   8
ATOM      8  C   UNL     1      47.399   9.877  21.077  1.00  0.00     0.053 C 
BRANCH   8   9
ATOM      9  C   UNL     1      46.789  11.182  20.667  1.00  0.00     0.041 C 
ATOM     10  O   UNL     1      45.585  11.433  20.938  1.00  0.00    -0.550 OA
ATOM     11  O   UNL     1      47.556  12.129  20.000  1.00  0.00    -0.550 OA
ENDBRANCH   8   9
ENDBRANCH   7   8
ENDBRANCH   6   7
ENDBRANCH   5   6
ENDBRANCH   4   5
ENDBRANCH   3   4
ENDBRANCH   2   3
ENDBRANCH   1   2
BRANCH   1  12
ATOM     12  C   UNL     1      50.029   5.968  25.104  1.00  0.00     0.000 C 
BRANCH  12  13
ATOM     13  C   UNL     1      50.195   5.822  26.628  1.00  0.00    -0.000 C 
BRANCH  13  14
ATOM     14  C   UNL     1      48.873   6.000  27.393  1.00  0.00    -0.000 C 
BRANCH  14  15
ATOM     15  C   UNL     1      48.697   7.422  27.958  1.00  0.00    -0.000 C 
BRANCH  15  16
ATOM     16  C   UNL     1      47.352   8.099  27.624  1.00  0.00    -0.000 C 
BRANCH  16  17
ATOM     17  C   UNL     1      46.565   7.458  26.463  1.00  0.00    -0.000 C 
BRANCH  17  18
ATOM     18  C   UNL     1      46.277   8.398  25.277  1.00  0.00    -0.000 C 
BRANCH  18  19
ATOM     19  C   UNL     1      47.078   9.706  25.347  1.00  0.00    -0.003 C 
ATOM     20  C   UNL     1      46.435  10.792  24.488  1.00  0.00     0.004 C 
ENDBRANCH  18  19
ENDBRANCH  17  18
ENDBRANCH  16  17
ENDBRANCH  15  16
ENDBRANCH  14  15
ENDBRANCH  13  14
ENDBRANCH  12  13
ENDBRANCH   1  12
TORSDOF 16
ENDMDL
MODEL 2
REMARK VINA RESULT:    -4.137      4.287      6.649
REMARK INTER + INTRA:         -10.356
REMARK INTER:                  -7.902
REMARK INTRA:                  -2.454
REMARK UNBOUND:                -2.348
REMARK SMILES CCCCCCCCCCCCCCCCCC(=O)[O-]
REMARK SMILES IDX 10 1 11 2 12 3 13 4 14 5 15 6 16 7 17 8 18 9 19 10 20 11
REMARK SMILES IDX 9 12 8 13 7 14 6 15 5 16 4 17 3 18 2 19 1 20
REMARK H PARENT
REMARK Flexibility Score: inf
ROOT
ATOM      1  C   UNL     1      50.036   8.083  24.622  1.00  0.00     0.000 C 
ENDROOT
BRANCH   1   2
ATOM      2  C   UNL     1      50.415   6.630  24.956  1.00  0.00     0.000 C 
BRANCH   2   3
ATOM      3  C   UNL     1      49.296   5.631  24.623  1.00  0.00     0.000 C 
BRANCH   3   4
ATOM      4  C   UNL     1      49.656   4.714  23.442  1.00  0.00     0.000 C 
BRANCH   4   5
ATOM      5  C   UNL     1      48.434   3.981  22.857  1.00  0.00     0.000 C 
BRANCH   5   6
ATOM      6  C   UNL     1      48.669   3.294  21.499  1.00  0.00     0.000 C 
BRANCH   6   7
ATOM      7  C   UNL     1      50.017   3.674  20.861  1.00  0.00     0.006 C 
BRANCH   7   8
ATOM      8  C   UNL     1      50.789   2.446  20.361  1.00  0.00     0.053 C 
BRANCH   8   9
ATOM      9  C   UNL     1      52.017   2.188  21.180  1.00  0.00     0.041 C 
ATOM     10  O   UNL     1      51.921   1.963  22.415  1.00  0.00    -0.550 OA
ATOM     11  O   UNL     1      53.268   2.180  20.575  1.00  0.00    -0.550 OA
ENDBRANCH   8   9
ENDBRANCH   7   8
ENDBRANCH   6   7
ENDBRANCH   5   6
ENDBRANCH   4   5
ENDBRANCH   3   4
ENDBRANCH   2   3
ENDBRANCH   1   2
BRANCH   1  12
ATOM     12  C   UNL     1      48.515   8.323  24.628  1.00  0.00     0.000 C 
BRANCH  12  13
ATOM     13  C   UNL     1      48.034   9.488  23.744  1.00  0.00    -0.000 C 
BRANCH  13  14
ATOM     14  C   UNL     1      47.006   9.052  22.686  1.00  0.00    -0.000 C 
BRANCH  14  15
ATOM     15  C   UNL     1      47.104   7.554  22.341  1.00  0.00    -0.000 C 
BRANCH  15  16
ATOM     16  C   UNL     1      47.601   7.240  20.915  1.00  0.00    -0.000 C 
BRANCH  16  17
ATOM     17  C   UNL     1      49.129   7.086  20.772  1.00  0.00    -0.000 C 
BRANCH  17  18
ATOM     18  C   UNL     1      49.880   8.381  20.410  1.00  0.00    -0.000 C 
BRANCH  18  19
ATOM     19  C   UNL     1      50.595   8.294  19.054  1.00  0.00    -0.003 C 
ATOM     20  C   UNL     1      49.656   8.673  17.911  1.00  0.00     0.004 C 
ENDBRANCH  18  19
ENDBRANCH  17  18
ENDBRANCH  16  17
ENDBRANCH  15  16
ENDBRANCH  14  15
ENDBRANCH  13  14
ENDBRANCH  12  13
ENDBRANCH   1  12
TORSDOF 16
ENDMDL
MODEL 3
REMARK VINA RESULT:    -4.092      2.692      4.967
REMARK INTER + INTRA:         -10.268
REMARK INTER:                  -7.801
REMARK INTRA:                  -2.467
REMARK UNBOUND:                -2.348
REMARK SMILES CCCCCCCCCCCCCCCCCC(=O)[O-]
REMARK SMILES IDX 10 1 11 2 12 3 13 4 14 5 15 6 16 7 17 8 18 9 19 10 20 11
REMARK SMILES IDX 9 12 8 13 7 14 6 15 5 16 4 17 3 18 2 19 1 20
REMARK H PARENT
REMARK Flexibility Score: inf
ROOT
ATOM      1  C   UNL     1      48.546   9.041  23.914  1.00  0.00     0.000 C 
ENDROOT
BRANCH   1   2
ATOM      2  C   UNL     1      47.154   8.454  24.205  1.00  0.00     0.000 C 
BRANCH   2   3
ATOM      3  C   UNL     1      46.248   8.429  22.963  1.00  0.00     0.000 C 
BRANCH   3   4
ATOM      4  C   UNL     1      46.303   7.083  22.220  1.00  0.00     0.000 C 
BRANCH   4   5
ATOM      5  C   UNL     1      47.120   7.152  20.915  1.00  0.00     0.000 C 
BRANCH   5   6
ATOM      6  C   UNL     1      46.999   8.474  20.136  1.00  0.00     0.000 C 
BRANCH   6   7
ATOM      7  C   UNL     1      48.365   9.053  19.725  1.00  0.00     0.006 C 
BRANCH   7   8
ATOM      8  C   UNL     1      49.526   8.122  20.098  1.00  0.00     0.053 C 
BRANCH   8   9
ATOM      9  C   UNL     1      50.497   7.962  18.968  1.00  0.00     0.041 C 
ATOM     10  O   UNL     1      51.606   7.397  19.160  1.00  0.00    -0.550 OA
ATOM     11  O   UNL     1      50.170   8.423  17.699  1.00  0.00    -0.550 OA
ENDBRANCH   8   9
ENDBRANCH   7   8
ENDBRANCH   6   7
ENDBRANCH   5   6
ENDBRANCH   4   5
ENDBRANCH   3   4
ENDBRANCH   2   3
ENDBRANCH   1   2
BRANCH   1  12
ATOM     12  C   UNL     1      49.613   7.959  23.664  1.00  0.00     0.000 C 
BRANCH  12  13
ATOM     13  C   UNL     1      50.274   7.388  24.932  1.00  0.00    -0.000 C 
BRANCH  13  14
ATOM     14  C   UNL     1      49.897   5.920  25.193  1.00  0.00    -0.000 C 
BRANCH  14  15
ATOM     15  C   UNL     1      49.903   5.064  23.913  1.00  0.00    -0.000 C 
BRANCH  15  16
ATOM     16  C   UNL     1      48.525   4.528  23.475  1.00  0.00    -0.000 C 
BRANCH  16  17
ATOM     17  C   UNL     1      48.483   3.894  22.070  1.00  0.00    -0.000 C 
BRANCH  17  18
ATOM     18  C   UNL     1      49.643   4.298  21.141  1.00  0.00    -0.000 C 
BRANCH  18  19
ATOM     19  C   UNL     1      50.341   3.090  20.501  1.00  0.00    -0.003 C 
ATOM     20  C   UNL     1      51.274   3.526  19.374  1.00  0.00     0.004 C 
ENDBRANCH  18  19
ENDBRANCH  17  18
ENDBRANCH  16  17
ENDBRANCH  15  16
ENDBRANCH  14  15
ENDBRANCH  13  14
ENDBRANCH  12  13
ENDBRANCH   1  12
TORSDOF 16
ENDMDL
MODEL 4
REMARK VINA RESULT:    -4.065      3.595      6.362
REMARK INTER + INTRA:         -10.215
REMARK INTER:                  -8.130
REMARK INTRA:                  -2.085
REMARK UNBOUND:                -2.348
REMARK SMILES CCCCCCCCCCCCCCCCCC(=O)[O-]
REMARK SMILES IDX 10 1 11 2 12 3 13 4 14 5 15 6 16 7 17 8 18 9 19 10 20 11
REMARK SMILES IDX 9 12 8 13 7 14 6 15 5 16 4 17 3 18 2 19 1 20
REMARK H PARENT
REMARK Flexibility Score: inf
ROOT
ATOM      1  C   UNL     1      51.327   6.715  18.272  1.00  0.00     0.000 C 
ENDROOT
BRANCH   1   2
ATOM      2  C   UNL     1      51.124   7.641  19.483  1.00  0.00     0.000 C 
BRANCH   2   3
ATOM      3  C   UNL     1      50.411   8.953  19.116  1.00  0.00     0.000 C 
BRANCH   3   4
ATOM      4  C   UNL     1      48.883   8.792  19.037  1.00  0.00     0.000 C 
BRANCH   4   5
ATOM      5  C   UNL     1      48.298   8.028  20.240  1.00  0.00     0.000 C 
BRANCH   5   6
ATOM      6  C   UNL     1      47.408   8.864  21.178  1.00  0.00     0.000 C 
BRANCH   6   7
ATOM      7  C   UNL     1      47.875   8.819  22.644  1.00  0.00     0.006 C 
BRANCH   7   8
ATOM      8  C   UNL     1      49.252   8.159  22.794  1.00  0.00     0.053 C 
BRANCH   8   9
ATOM      9  C   UNL     1      49.427   7.536  24.145  1.00  0.00     0.041 C 
ATOM     10  O   UNL     1      50.575   7.430  24.651  1.00  0.00    -0.550 OA
ATOM     11  O   UNL     1      48.319   7.086  24.853  1.00  0.00    -0.550 OA
ENDBRANCH   8   9
ENDBRANCH   7   8
ENDBRANCH   6   7
ENDBRANCH   5   6
ENDBRANCH   4   5
ENDBRANCH   3   4
ENDBRANCH   2   3
ENDBRANCH   1   2
BRANCH   1  12
ATOM     12  C   UNL     1      52.313   5.566  18.554  1.00  0.00     0.000 C 
BRANCH  12  13
ATOM     13  C   UNL     1      51.691   4.157  18.552  1.00  0.00    -0.000 C 
BRANCH  13  14
ATOM     14  C   UNL     1      52.514   3.139  19.359  1.00  0.00    -0.000 C 
BRANCH  14  15
ATOM     15  C   UNL     1      51.637   2.204  20.212  1.00  0.00    -0.000 C 
BRANCH  15  16
ATOM     16  C   UNL     1      50.253   2.769  20.594  1.00  0.00    -0.000 C 
BRANCH  16  17
ATOM     17  C   UNL     1      50.221   3.613  21.884  1.00  0.00    -0.000 C 
BRANCH  17  18
ATOM     18  C   UNL     1      49.088   4.653  21.950  1.00  0.00    -0.000 C 
BRANCH  18  19
ATOM     19  C   UNL     1      47.813   4.190  21.231  1.00  0.00    -0.003 C 
ATOM     20  C   UNL     1      46.603   5.011  21.672  1.00  0.00     0.004 C 
ENDBRANCH  18  19
ENDBRANCH  17  18
ENDBRANCH  16  17
ENDBRANCH  15  16
ENDBRANCH  14  15
ENDBRANCH  13  14
ENDBRANCH  12  13
ENDBRANCH   1  12
TORSDOF 16
ENDMDL
MODEL 5
REMARK VINA RESULT:    -4.052      7.941     10.180
REMARK INTER + INTRA:         -10.191
REMARK INTER:                  -7.230
REMARK INTRA:                  -2.961
REMARK UNBOUND:                -2.348
REMARK SMILES CCCCCCCCCCCCCCCCCC(=O)[O-]
REMARK SMILES IDX 10 1 11 2 12 3 13 4 14 5 15 6 16 7 17 8 18 9 19 10 20 11
REMARK SMILES IDX 9 12 8 13 7 14 6 15 5 16 4 17 3 18 2 19 1 20
REMARK H PARENT
REMARK Flexibility Score: inf
ROOT
ATOM      1  C   UNL     1      43.121  -0.107  22.436  1.00  0.00     0.000 C 
ENDROOT
BRANCH   1   2
ATOM      2  C   UNL     1      43.168   0.432  23.876  1.00  0.00     0.000 C 
BRANCH   2   3
ATOM      3  C   UNL     1      44.278  -0.217  24.719  1.00  0.00     0.000 C 
BRANCH   3   4
ATOM      4  C   UNL     1      45.554  -0.490  23.903  1.00  0.00     0.000 C 
BRANCH   4   5
ATOM      5  C   UNL     1      46.564   0.672  23.962  1.00  0.00     0.000 C 
BRANCH   5   6
ATOM      6  C   UNL     1      47.889   0.427  23.217  1.00  0.00     0.000 C 
BRANCH   6   7
ATOM      7  C   UNL     1      47.747  -0.573  22.056  1.00  0.00     0.006 C 
BRANCH   7   8
ATOM      8  C   UNL     1      48.855  -1.634  22.066  1.00  0.00     0.053 C 
BRANCH   8   9
ATOM      9  C   UNL     1      48.843  -2.441  23.329  1.00  0.00     0.041 C 
ATOM     10  O   UNL     1      47.868  -3.194  23.591  1.00  0.00    -0.550 OA
ATOM     11  O   UNL     1      49.917  -2.374  24.208  1.00  0.00    -0.550 OA
ENDBRANCH   8   9
ENDBRANCH   7   8
ENDBRANCH   6   7
ENDBRANCH   5   6
ENDBRANCH   4   5
ENDBRANCH   3   4
ENDBRANCH   2   3
ENDBRANCH   1   2
BRANCH   1  12
ATOM     12  C   UNL     1      43.205   1.007  21.376  1.00  0.00     0.000 C 
BRANCH  12  13
ATOM     13  C   UNL     1      43.466   2.419  21.931  1.00  0.00    -0.000 C 
BRANCH  13  14
ATOM     14  C   UNL     1      44.894   2.917  21.652  1.00  0.00    -0.000 C 
BRANCH  14  15
ATOM     15  C   UNL     1      45.632   2.060  20.607  1.00  0.00    -0.000 C 
BRANCH  15  16
ATOM     16  C   UNL     1      47.044   2.554  20.230  1.00  0.00    -0.000 C 
BRANCH  16  17
ATOM     17  C   UNL     1      47.622   3.649  21.149  1.00  0.00    -0.000 C 
BRANCH  17  18
ATOM     18  C   UNL     1      49.080   3.423  21.589  1.00  0.00    -0.000 C 
BRANCH  18  19
ATOM     19  C   UNL     1      49.845   2.479  20.650  1.00  0.00    -0.003 C 
ATOM     20  C   UNL     1      51.058   1.870  21.350  1.00  0.00     0.004 C 
ENDBRANCH  18  19
ENDBRANCH  17  18
ENDBRANCH  16  17
ENDBRANCH  15  16
ENDBRANCH  14  15
ENDBRANCH  13  14
ENDBRANCH  12  13
ENDBRANCH   1  12
TORSDOF 16
ENDMDL
MODEL 6
REMARK VINA RESULT:    -4.010      1.837      3.829
REMARK INTER + INTRA:         -10.110
REMARK INTER:                  -7.683
REMARK INTRA:                  -2.427
REMARK UNBOUND:                -2.348
REMARK SMILES CCCCCCCCCCCCCCCCCC(=O)[O-]
REMARK SMILES IDX 10 1 11 2 12 3 13 4 14 5 15 6 16 7 17 8 18 9 19 10 20 11
REMARK SMILES IDX 9 12 8 13 7 14 6 15 5 16 4 17 3 18 2 19 1 20
REMARK H PARENT
REMARK Flexibility Score: inf
ROOT
ATOM      1  C   UNL     1      48.967   7.177  26.958  1.00  0.00     0.000 C 
ENDROOT
BRANCH   1   2
ATOM      2  C   UNL     1      49.387   5.989  26.074  1.00  0.00     0.000 C 
BRANCH   2   3
ATOM      3  C   UNL     1      50.228   6.418  24.861  1.00  0.00     0.000 C 
BRANCH   3   4
ATOM      4  C   UNL     1      50.188   7.937  24.623  1.00  0.00     0.000 C 
BRANCH   4   5
ATOM      5  C   UNL     1      49.351   8.327  23.390  1.00  0.00     0.000 C 
BRANCH   5   6
ATOM      6  C   UNL     1      48.698   7.151  22.641  1.00  0.00     0.000 C 
BRANCH   6   7
ATOM      7  C   UNL     1      49.211   7.001  21.198  1.00  0.00     0.006 C 
BRANCH   7   8
ATOM      8  C   UNL     1      49.081   8.305  20.399  1.00  0.00     0.053 C 
BRANCH   8   9
ATOM      9  C   UNL     1      50.238   8.504  19.466  1.00  0.00     0.041 C 
ATOM     10  O   UNL     1      50.258   9.489  18.682  1.00  0.00    -0.550 OA
ATOM     11  O   UNL     1      51.301   7.609  19.476  1.00  0.00    -0.550 OA
ENDBRANCH   8   9
ENDBRANCH   7   8
ENDBRANCH   6   7
ENDBRANCH   5   6
ENDBRANCH   4   5
ENDBRANCH   3   4
ENDBRANCH   2   3
ENDBRANCH   1   2
BRANCH   1  12
ATOM     12  C   UNL     1      47.526   7.646  26.687  1.00  0.00     0.000 C 
BRANCH  12  13
ATOM     13  C   UNL     1      46.682   6.697  25.816  1.00  0.00    -0.000 C 
BRANCH  13  14
ATOM     14  C   UNL     1      45.757   7.444  24.841  1.00  0.00    -0.000 C 
BRANCH  14  15
ATOM     15  C   UNL     1      45.125   8.703  25.462  1.00  0.00    -0.000 C 
BRANCH  15  16
ATOM     16  C   UNL     1      45.255   9.988  24.619  1.00  0.00    -0.000 C 
BRANCH  16  17
ATOM     17  C   UNL     1      46.674  10.589  24.554  1.00  0.00    -0.000 C 
BRANCH  17  18
ATOM     18  C   UNL     1      46.995  11.354  23.256  1.00  0.00    -0.000 C 
BRANCH  18  19
ATOM     19  C   UNL     1      46.630  10.561  21.993  1.00  0.00    -0.003 C 
ATOM     20  C   UNL     1      46.894  11.382  20.733  1.00  0.00     0.004 C 
ENDBRANCH  18  19
ENDBRANCH  17  18
ENDBRANCH  16  17
ENDBRANCH  15  16
ENDBRANCH  14  15
ENDBRANCH  13  14
ENDBRANCH  12  13
ENDBRANCH   1  12
TORSDOF 16
ENDMDL
MODEL 7
REMARK VINA RESULT:    -3.997      4.298      6.871
REMARK INTER + INTRA:         -10.084
REMARK INTER:                  -7.964
REMARK INTRA:                  -2.120
REMARK UNBOUND:                -2.348
REMARK SMILES CCCCCCCCCCCCCCCCCC(=O)[O-]
REMARK SMILES IDX 10 1 11 2 12 3 13 4 14 5 15 6 16 7 17 8 18 9 19 10 20 11
REMARK SMILES IDX 9 12 8 13 7 14 6 15 5 16 4 17 3 18 2 19 1 20
REMARK H PARENT
REMARK Flexibility Score: inf
ROOT
ATOM      1  C   UNL     1      46.192   2.189  21.276  1.00  0.00     0.000 C 
ENDROOT
BRANCH   1   2
ATOM      2  C   UNL     1      46.622   3.487  20.570  1.00  0.00     0.000 C 
BRANCH   2   3
ATOM      3  C   UNL     1      45.835   4.716  21.052  1.00  0.00     0.000 C 
BRANCH   3   4
ATOM      4  C   UNL     1      46.751   5.834  21.579  1.00  0.00     0.000 C 
BRANCH   4   5
ATOM      5  C   UNL     1      47.712   5.351  22.682  1.00  0.00     0.000 C 
BRANCH   5   6
ATOM      6  C   UNL     1      49.158   5.869  22.566  1.00  0.00     0.000 C 
BRANCH   6   7
ATOM      7  C   UNL     1      49.248   7.243  21.878  1.00  0.00     0.006 C 
BRANCH   7   8
ATOM      8  C   UNL     1      50.044   7.184  20.567  1.00  0.00     0.053 C 
BRANCH   8   9
ATOM      9  C   UNL     1      49.628   8.263  19.614  1.00  0.00     0.041 C 
ATOM     10  O   UNL     1      48.408   8.459  19.371  1.00  0.00    -0.550 OA
ATOM     11  O   UNL     1      50.589   9.062  19.006  1.00  0.00    -0.550 OA
ENDBRANCH   8   9
ENDBRANCH   7   8
ENDBRANCH   6   7
ENDBRANCH   5   6
ENDBRANCH   4   5
ENDBRANCH   3   4
ENDBRANCH   2   3
ENDBRANCH   1   2
BRANCH   1  12
ATOM     12  C   UNL     1      46.952   0.950  20.769  1.00  0.00     0.000 C 
BRANCH  12  13
ATOM     13  C   UNL     1      47.756   0.192  21.842  1.00  0.00    -0.000 C 
BRANCH  13  14
ATOM     14  C   UNL     1      49.260   0.510  21.798  1.00  0.00    -0.000 C 
BRANCH  14  15
ATOM     15  C   UNL     1      49.632   1.757  22.621  1.00  0.00    -0.000 C 
BRANCH  15  16
ATOM     16  C   UNL     1      50.413   2.842  21.853  1.00  0.00    -0.000 C 
BRANCH  16  17
ATOM     17  C   UNL     1      50.146   2.893  20.335  1.00  0.00    -0.000 C 
BRANCH  17  18
ATOM     18  C   UNL     1      51.312   3.436  19.489  1.00  0.00    -0.000 C 
BRANCH  18  19
ATOM     19  C   UNL     1      52.371   2.367  19.182  1.00  0.00    -0.003 C 
ATOM     20  C   UNL     1      53.650   2.615  19.978  1.00  0.00     0.004 C 
ENDBRANCH  18  19
ENDBRANCH  17  18
ENDBRANCH  16  17
ENDBRANCH  15  16
ENDBRANCH  14  15
ENDBRANCH  13  14
ENDBRANCH  12  13
ENDBRANCH   1  12
TORSDOF 16
ENDMDL
MODEL 8
REMARK VINA RESULT:    -3.928      4.797      6.688
REMARK INTER + INTRA:          -9.951
REMARK INTER:                  -7.205
REMARK INTRA:                  -2.746
REMARK UNBOUND:                -2.348
REMARK SMILES CCCCCCCCCCCCCCCCCC(=O)[O-]
REMARK SMILES IDX 10 1 11 2 12 3 13 4 14 5 15 6 16 7 17 8 18 9 19 10 20 11
REMARK SMILES IDX 9 12 8 13 7 14 6 15 5 16 4 17 3 18 2 19 1 20
REMARK H PARENT
REMARK Flexibility Score: inf
ROOT
ATOM      1  C   UNL     1      46.637   4.661  21.018  1.00  0.00     0.000 C 
ENDROOT
BRANCH   1   2
ATOM      2  C   UNL     1      45.791   3.507  20.452  1.00  0.00     0.000 C 
BRANCH   2   3
ATOM      3  C   UNL     1      46.640   2.296  20.035  1.00  0.00     0.000 C 
BRANCH   3   4
ATOM      4  C   UNL     1      47.035   1.412  21.230  1.00  0.00     0.000 C 
BRANCH   4   5
ATOM      5  C   UNL     1      48.553   1.170  21.320  1.00  0.00     0.000 C 
BRANCH   5   6
ATOM      6  C   UNL     1      49.294   2.028  22.363  1.00  0.00     0.000 C 
BRANCH   6   7
ATOM      7  C   UNL     1      50.004   3.243  21.742  1.00  0.00     0.006 C 
BRANCH   7   8
ATOM      8  C   UNL     1      50.349   3.020  20.263  1.00  0.00     0.053 C 
BRANCH   8   9
ATOM      9  C   UNL     1      51.785   2.635  20.078  1.00  0.00     0.041 C 
ATOM     10  O   UNL     1      52.317   2.700  18.938  1.00  0.00    -0.550 OA
ATOM     11  O   UNL     1      52.540   2.220  21.168  1.00  0.00    -0.550 OA
ENDBRANCH   8   9
ENDBRANCH   7   8
ENDBRANCH   6   7
ENDBRANCH   5   6
ENDBRANCH   4   5
ENDBRANCH   3   4
ENDBRANCH   2   3
ENDBRANCH   1   2
BRANCH   1  12
ATOM     12  C   UNL     1      46.154   5.138  22.400  1.00  0.00     0.000 C 
BRANCH  12  13
ATOM     13  C   UNL     1      46.833   4.453  23.601  1.00  0.00    -0.000 C 
BRANCH  13  14
ATOM     14  C   UNL     1      47.934   5.317  24.238  1.00  0.00    -0.000 C 
BRANCH  14  15
ATOM     15  C   UNL     1      47.660   6.827  24.106  1.00  0.00    -0.000 C 
BRANCH  15  16
ATOM     16  C   UNL     1      48.759   7.634  23.385  1.00  0.00    -0.000 C 
BRANCH  16  17
ATOM     17  C   UNL     1      49.596   6.836  22.365  1.00  0.00    -0.000 C 
BRANCH  17  18
ATOM     18  C   UNL     1      49.644   7.442  20.950  1.00  0.00    -0.000 C 
BRANCH  18  19
ATOM     19  C   UNL     1      48.433   8.336  20.645  1.00  0.00    -0.003 C 
ATOM     20  C   UNL     1      48.406   8.741  19.173  1.00  0.00     0.004 C 
ENDBRANCH  18  19
ENDBRANCH  17  18
ENDBRANCH  16  17
ENDBRANCH  15  16
ENDBRANCH  14  15
ENDBRANCH  13  14
ENDBRANCH  12  13
ENDBRANCH   1  12
TORSDOF 16
ENDMDL
MODEL 9
REMARK VINA RESULT:    -3.926      7.326      9.219
REMARK INTER + INTRA:          -9.946
REMARK INTER:                  -8.117
REMARK INTRA:                  -1.829
REMARK UNBOUND:                -2.348
REMARK SMILES CCCCCCCCCCCCCCCCCC(=O)[O-]
REMARK SMILES IDX 10 1 11 2 12 3 13 4 14 5 15 6 16 7 17 8 18 9 19 10 20 11
REMARK SMILES IDX 9 12 8 13 7 14 6 15 5 16 4 17 3 18 2 19 1 20
REMARK H PARENT
REMARK Flexibility Score: inf
ROOT
ATOM      1  C   UNL     1      43.261   1.158  21.038  1.00  0.00     0.000 C 
ENDROOT
BRANCH   1   2
ATOM      2  C   UNL     1      43.302   2.600  21.572  1.00  0.00     0.000 C 
BRANCH   2   3
ATOM      3  C   UNL     1      44.507   3.396  21.047  1.00  0.00     0.000 C 
BRANCH   3   4
ATOM      4  C   UNL     1      45.686   2.489  20.654  1.00  0.00     0.000 C 
BRANCH   4   5
ATOM      5  C   UNL     1      47.043   3.218  20.696  1.00  0.00     0.000 C 
BRANCH   5   6
ATOM      6  C   UNL     1      48.280   2.302  20.669  1.00  0.00     0.000 C 
BRANCH   6   7
ATOM      7  C   UNL     1      49.604   3.081  20.762  1.00  0.00     0.006 C 
BRANCH   7   8
ATOM      8  C   UNL     1      50.827   2.168  20.603  1.00  0.00     0.053 C 
BRANCH   8   9
ATOM      9  C   UNL     1      51.795   2.704  19.592  1.00  0.00     0.041 C 
ATOM     10  O   UNL     1      51.481   3.689  18.873  1.00  0.00    -0.550 OA
ATOM     11  O   UNL     1      53.051   2.125  19.457  1.00  0.00    -0.550 OA
ENDBRANCH   8   9
ENDBRANCH   7   8
ENDBRANCH   6   7
ENDBRANCH   5   6
ENDBRANCH   4   5
ENDBRANCH   3   4
ENDBRANCH   2   3
ENDBRANCH   1   2
BRANCH   1  12
ATOM     12  C   UNL     1      42.888   0.128  22.119  1.00  0.00     0.000 C 
BRANCH  12  13
ATOM     13  C   UNL     1      43.179   0.566  23.567  1.00  0.00    -0.000 C 
BRANCH  13  14
ATOM     14  C   UNL     1      44.386  -0.163  24.181  1.00  0.00    -0.000 C 
BRANCH  14  15
ATOM     15  C   UNL     1      45.735   0.410  23.707  1.00  0.00    -0.000 C 
BRANCH  15  16
ATOM     16  C   UNL     1      46.496  -0.460  22.687  1.00  0.00    -0.000 C 
BRANCH  16  17
ATOM     17  C   UNL     1      47.961  -0.771  23.053  1.00  0.00    -0.000 C 
BRANCH  17  18
ATOM     18  C   UNL     1      48.365  -2.250  22.916  1.00  0.00    -0.000 C 
BRANCH  18  19
ATOM     19  C   UNL     1      49.705  -2.437  22.190  1.00  0.00    -0.003 C 
ATOM     20  C   UNL     1      50.681  -1.317  22.540  1.00  0.00     0.004 C 
ENDBRANCH  18  19
ENDBRANCH  17  18
ENDBRANCH  16  17
ENDBRANCH  15  16
ENDBRANCH  14  15
ENDBRANCH  13  14
ENDBRANCH  12  13
ENDBRANCH   1  12
TORSDOF 16
ENDMDL
