MODEL 1
REMARK VINA RESULT:    -5.197      0.000      0.000
REMARK INTER + INTRA:         -17.951
REMARK INTER:                 -13.703
REMARK INTRA:                  -4.248
REMARK UNBOUND:                -4.248
REMARK SMILES CCCCCCCCCCCCCCCCCCCCCCCCCCCCCC(=O)[O-]
REMARK SMILES IDX 16 1 17 2 18 3 19 4 20 5 21 6 22 7 23 8 24 9 25 10 26 11
REMARK SMILES IDX 27 12 28 13 29 14 30 15 31 16 32 17 15 18 14 19 13 20 12 21
REMARK SMILES IDX 11 22 10 23 9 24 8 25 7 26 6 27 5 28 4 29 3 30 2 31 1 32
REMARK H PARENT
REMARK Flexibility Score: inf
ROOT
ATOM      1  C   UNL     1      11.094 -15.861  11.216  1.00  0.00     0.000 C 
ENDROOT
BRANCH   1   2
ATOM      2  C   UNL     1      10.699 -15.871  12.705  1.00  0.00     0.000 C 
BRANCH   2   3
ATOM      3  C   UNL     1      11.772 -16.426  13.661  1.00  0.00     0.000 C 
BRANCH   3   4
ATOM      4  C   UNL     1      11.945 -15.647  14.979  1.00  0.00     0.000 C 
BRANCH   4   5
ATOM      5  C   UNL     1      13.191 -16.062  15.791  1.00  0.00     0.000 C 
BRANCH   5   6
ATOM      6  C   UNL     1      13.644 -17.500  15.489  1.00  0.00     0.000 C 
BRANCH   6   7
ATOM      7  C   UNL     1      15.133 -17.590  15.109  1.00  0.00     0.000 C 
BRANCH   7   8
ATOM      8  C   UNL     1      15.408 -17.864  13.617  1.00  0.00     0.000 C 
BRANCH   8   9
ATOM      9  C   UNL     1      15.514 -16.609  12.728  1.00  0.00     0.000 C 
BRANCH   9  10
ATOM     10  C   UNL     1      15.935 -15.327  13.468  1.00  0.00     0.000 C 
BRANCH  10  11
ATOM     11  C   UNL     1      15.031 -14.126  13.143  1.00  0.00     0.000 C 
BRANCH  11  12
ATOM     12  C   UNL     1      15.702 -12.784  13.505  1.00  0.00     0.000 C 
BRANCH  12  13
ATOM     13  C   UNL     1      14.716 -11.701  13.980  1.00  0.00     0.006 C 
BRANCH  13  14
ATOM     14  C   UNL     1      13.812 -12.141  15.145  1.00  0.00     0.053 C 
BRANCH  14  15
ATOM     15  C   UNL     1      12.451 -11.511  15.093  1.00  0.00     0.041 C 
ATOM     16  O   UNL     1      11.426 -12.229  14.960  1.00  0.00    -0.550 OA
ATOM     17  O   UNL     1      12.309 -10.139  15.251  1.00  0.00    -0.550 OA
ENDBRANCH  14  15
ENDBRANCH  13  14
ENDBRANCH  12  13
ENDBRANCH  11  12
ENDBRANCH  10  11
ENDBRANCH   9  10
ENDBRANCH   8   9
ENDBRANCH   7   8
ENDBRANCH   6   7
ENDBRANCH   5   6
ENDBRANCH   4   5
ENDBRANCH   3   4
ENDBRANCH   2   3
ENDBRANCH   1   2
BRANCH   1  18
ATOM     18  C   UNL     1      12.377 -16.654  10.933  1.00  0.00     0.000 C 
BRANCH  18  19
ATOM     19  C   UNL     1      12.413 -17.135   9.474  1.00  0.00     0.000 C 
BRANCH  19  20
ATOM     20  C   UNL     1      11.546 -18.386   9.236  1.00  0.00     0.000 C 
BRANCH  20  21
ATOM     21  C   UNL     1      10.548 -18.272   8.064  1.00  0.00     0.000 C 
BRANCH  21  22
ATOM     22  C   UNL     1      10.087 -16.838   7.740  1.00  0.00     0.000 C 
BRANCH  22  23
ATOM     23  C   UNL     1       8.699 -16.738   7.077  1.00  0.00     0.000 C 
BRANCH  23  24
ATOM     24  C   UNL     1       8.641 -15.876   5.799  1.00  0.00    -0.000 C 
BRANCH  24  25
ATOM     25  C   UNL     1       9.554 -16.345   4.650  1.00  0.00    -0.000 C 
BRANCH  25  26
ATOM     26  C   UNL     1       8.773 -16.727   3.382  1.00  0.00    -0.000 C 
BRANCH  26  27
ATOM     27  C   UNL     1       7.293 -17.053   3.664  1.00  0.00    -0.000 C 
BRANCH  27  28
ATOM     28  C   UNL     1       6.935 -18.550   3.637  1.00  0.00    -0.000 C 
BRANCH  28  29
ATOM     29  C   UNL     1       6.610 -19.116   5.028  1.00  0.00    -0.000 C 
BRANCH  29  30
ATOM     30  C   UNL     1       7.750 -20.014   5.531  1.00  0.00    -0.000 C 
BRANCH  30  31
ATOM     31  C   UNL     1       8.770 -20.347   4.431  1.00  0.00    -0.003 C 
ATOM     32  C   UNL     1      10.203 -20.000   4.831  1.00  0.00     0.004 C 
ENDBRANCH  30  31
ENDBRANCH  29  30
ENDBRANCH  28  29
ENDBRANCH  27  28
ENDBRANCH  26  27
ENDBRANCH  25  26
ENDBRANCH  24  25
ENDBRANCH  23  24
ENDBRANCH  22  23
ENDBRANCH  21  22
ENDBRANCH  20  21
ENDBRANCH  19  20
ENDBRANCH  18  19
ENDBRANCH   1  18
TORSDOF 28
ENDMDL
MODEL 2
REMARK VINA RESULT:    -5.120      4.949     10.723
REMARK INTER + INTRA:         -17.749
REMARK INTER:                 -12.759
REMARK INTRA:                  -4.990
REMARK UNBOUND:                -4.248
REMARK SMILES CCCCCCCCCCCCCCCCCCCCCCCCCCCCCC(=O)[O-]
REMARK SMILES IDX 16 1 17 2 18 3 19 4 20 5 21 6 22 7 23 8 24 9 25 10 26 11
REMARK SMILES IDX 27 12 28 13 29 14 30 15 31 16 32 17 15 18 14 19 13 20 12 21
REMARK SMILES IDX 11 22 10 23 9 24 8 25 7 26 6 27 5 28 4 29 3 30 2 31 1 32
REMARK H PARENT
REMARK Flexibility Score: inf
ROOT
ATOM      1  C   UNL     1      12.540  -9.136  15.166  1.00  0.00     0.000 C 
ENDROOT
BRANCH   1   2
ATOM      2  C   UNL     1      11.549 -10.308  15.292  1.00  0.00     0.000 C 
BRANCH   2   3
ATOM      3  C   UNL     1      12.176 -11.709  15.171  1.00  0.00     0.000 C 
BRANCH   3   4
ATOM      4  C   UNL     1      11.356 -12.853  15.798  1.00  0.00     0.000 C 
BRANCH   4   5
ATOM      5  C   UNL     1      12.017 -14.242  15.665  1.00  0.00     0.000 C 
BRANCH   5   6
ATOM      6  C   UNL     1      11.001 -15.357  15.361  1.00  0.00     0.000 C 
BRANCH   6   7
ATOM      7  C   UNL     1      11.327 -16.127  14.070  1.00  0.00     0.000 C 
BRANCH   7   8
ATOM      8  C   UNL     1      10.627 -15.598  12.802  1.00  0.00     0.000 C 
BRANCH   8   9
ATOM      9  C   UNL     1      11.294 -15.997  11.471  1.00  0.00     0.000 C 
BRANCH   9  10
ATOM     10  C   UNL     1      12.665 -16.681  11.614  1.00  0.00     0.000 C 
BRANCH  10  11
ATOM     11  C   UNL     1      13.793 -15.912  10.904  1.00  0.00     0.000 C 
BRANCH  11  12
ATOM     12  C   UNL     1      14.988 -15.642  11.843  1.00  0.00     0.000 C 
BRANCH  12  13
ATOM     13  C   UNL     1      14.595 -14.993  13.183  1.00  0.00     0.006 C 
BRANCH  13  14
ATOM     14  C   UNL     1      15.424 -15.481  14.385  1.00  0.00     0.053 C 
BRANCH  14  15
ATOM     15  C   UNL     1      15.144 -16.912  14.739  1.00  0.00     0.041 C 
ATOM     16  O   UNL     1      15.808 -17.837  14.205  1.00  0.00    -0.550 OA
ATOM     17  O   UNL     1      14.193 -17.220  15.703  1.00  0.00    -0.550 OA
ENDBRANCH  14  15
ENDBRANCH  13  14
ENDBRANCH  12  13
ENDBRANCH  11  12
ENDBRANCH  10  11
ENDBRANCH   9  10
ENDBRANCH   8   9
ENDBRANCH   7   8
ENDBRANCH   6   7
ENDBRANCH   5   6
ENDBRANCH   4   5
ENDBRANCH   3   4
ENDBRANCH   2   3
ENDBRANCH   1   2
BRANCH   1  18
ATOM     18  C   UNL     1      14.004  -9.596  15.104  1.00  0.00     0.000 C 
BRANCH  18  19
ATOM     19  C   UNL     1      14.727  -8.964  13.904  1.00  0.00     0.000 C 
BRANCH  19  20
ATOM     20  C   UNL     1      15.351 -10.011  12.964  1.00  0.00     0.000 C 
BRANCH  20  21
ATOM     21  C   UNL     1      15.399 -11.447  13.528  1.00  0.00     0.000 C 
BRANCH  21  22
ATOM     22  C   UNL     1      16.814 -11.991  13.800  1.00  0.00     0.000 C 
BRANCH  22  23
ATOM     23  C   UNL     1      17.476 -11.461  15.088  1.00  0.00     0.000 C 
BRANCH  23  24
ATOM     24  C   UNL     1      18.868 -10.823  14.895  1.00  0.00    -0.000 C 
BRANCH  24  25
ATOM     25  C   UNL     1      19.072  -9.469  15.602  1.00  0.00    -0.000 C 
BRANCH  25  26
ATOM     26  C   UNL     1      17.817  -8.581  15.568  1.00  0.00    -0.000 C 
BRANCH  26  27
ATOM     27  C   UNL     1      18.065  -7.217  14.895  1.00  0.00    -0.000 C 
BRANCH  27  28
ATOM     28  C   UNL     1      17.968  -7.217  13.359  1.00  0.00    -0.000 C 
BRANCH  28  29
ATOM     29  C   UNL     1      19.319  -6.965  12.671  1.00  0.00    -0.000 C 
BRANCH  29  30
ATOM     30  C   UNL     1      19.731  -8.176  11.820  1.00  0.00    -0.000 C 
BRANCH  30  31
ATOM     31  C   UNL     1      18.589  -9.187  11.637  1.00  0.00    -0.003 C 
ATOM     32  C   UNL     1      19.080 -10.553  11.161  1.00  0.00     0.004 C 
ENDBRANCH  30  31
ENDBRANCH  29  30
ENDBRANCH  28  29
ENDBRANCH  27  28
ENDBRANCH  26  27
ENDBRANCH  25  26
ENDBRANCH  24  25
ENDBRANCH  23  24
ENDBRANCH  22  23
ENDBRANCH  21  22
ENDBRANCH  20  21
ENDBRANCH  19  20
ENDBRANCH  18  19
ENDBRANCH   1  18
TORSDOF 28
ENDMDL
MODEL 3
REMARK VINA RESULT:    -5.023      4.908     10.631
REMARK INTER + INTRA:         -17.493
REMARK INTER:                 -12.271
REMARK INTRA:                  -5.222
REMARK UNBOUND:                -4.248
REMARK SMILES CCCCCCCCCCCCCCCCCCCCCCCCCCCCCC(=O)[O-]
REMARK SMILES IDX 16 1 17 2 18 3 19 4 20 5 21 6 22 7 23 8 24 9 25 10 26 11
REMARK SMILES IDX 27 12 28 13 29 14 30 15 31 16 32 17 15 18 14 19 13 20 12 21
REMARK SMILES IDX 11 22 10 23 9 24 8 25 7 26 6 27 5 28 4 29 3 30 2 31 1 32
REMARK H PARENT
REMARK Flexibility Score: inf
ROOT
ATOM      1  C   UNL     1      13.452 -11.250  15.102  1.00  0.00     0.000 C 
ENDROOT
BRANCH   1   2
ATOM      2  C   UNL     1      12.806 -12.624  14.843  1.00  0.00     0.000 C 
BRANCH   2   3
ATOM      3  C   UNL     1      11.799 -13.084  15.914  1.00  0.00     0.000 C 
BRANCH   3   4
ATOM      4  C   UNL     1      11.863 -14.580  16.277  1.00  0.00     0.000 C 
BRANCH   4   5
ATOM      5  C   UNL     1      10.826 -15.449  15.532  1.00  0.00     0.000 C 
BRANCH   5   6
ATOM      6  C   UNL     1      11.414 -16.140  14.290  1.00  0.00     0.000 C 
BRANCH   6   7
ATOM      7  C   UNL     1      11.080 -15.403  12.981  1.00  0.00     0.000 C 
BRANCH   7   8
ATOM      8  C   UNL     1      11.059 -16.290  11.721  1.00  0.00     0.000 C 
BRANCH   8   9
ATOM      9  C   UNL     1      12.295 -16.163  10.809  1.00  0.00     0.000 C 
BRANCH   9  10
ATOM     10  C   UNL     1      13.463 -17.098  11.169  1.00  0.00     0.000 C 
BRANCH  10  11
ATOM     11  C   UNL     1      14.804 -16.356  11.303  1.00  0.00     0.000 C 
BRANCH  11  12
ATOM     12  C   UNL     1      14.698 -15.137  12.243  1.00  0.00     0.000 C 
BRANCH  12  13
ATOM     13  C   UNL     1      15.650 -15.196  13.452  1.00  0.00     0.006 C 
BRANCH  13  14
ATOM     14  C   UNL     1      14.985 -15.680  14.753  1.00  0.00     0.053 C 
BRANCH  14  15
ATOM     15  C   UNL     1      15.036 -17.171  14.910  1.00  0.00     0.041 C 
ATOM     16  O   UNL     1      15.874 -17.848  14.259  1.00  0.00    -0.550 OA
ATOM     17  O   UNL     1      14.202 -17.808  15.819  1.00  0.00    -0.550 OA
ENDBRANCH  14  15
ENDBRANCH  13  14
ENDBRANCH  12  13
ENDBRANCH  11  12
ENDBRANCH  10  11
ENDBRANCH   9  10
ENDBRANCH   8   9
ENDBRANCH   7   8
ENDBRANCH   6   7
ENDBRANCH   5   6
ENDBRANCH   4   5
ENDBRANCH   3   4
ENDBRANCH   2   3
ENDBRANCH   1   2
BRANCH   1  18
ATOM     18  C   UNL     1      12.426 -10.110  15.167  1.00  0.00     0.000 C 
BRANCH  18  19
ATOM     19  C   UNL     1      13.127  -8.743  15.186  1.00  0.00     0.000 C 
BRANCH  19  20
ATOM     20  C   UNL     1      14.657  -8.857  15.317  1.00  0.00     0.000 C 
BRANCH  20  21
ATOM     21  C   UNL     1      15.461  -7.920  14.393  1.00  0.00     0.000 C 
BRANCH  21  22
ATOM     22  C   UNL     1      16.244  -8.628  13.270  1.00  0.00     0.000 C 
BRANCH  22  23
ATOM     23  C   UNL     1      15.413  -9.611  12.421  1.00  0.00     0.000 C 
BRANCH  23  24
ATOM     24  C   UNL     1      15.883 -11.080  12.469  1.00  0.00    -0.000 C 
BRANCH  24  25
ATOM     25  C   UNL     1      17.396 -11.278  12.682  1.00  0.00    -0.000 C 
BRANCH  25  26
ATOM     26  C   UNL     1      17.721 -12.078  13.954  1.00  0.00    -0.000 C 
BRANCH  26  27
ATOM     27  C   UNL     1      17.001 -11.537  15.205  1.00  0.00    -0.000 C 
BRANCH  27  28
ATOM     28  C   UNL     1      17.881 -10.712  16.161  1.00  0.00    -0.000 C 
BRANCH  28  29
ATOM     29  C   UNL     1      19.370 -10.741  15.785  1.00  0.00    -0.000 C 
BRANCH  29  30
ATOM     30  C   UNL     1      19.969  -9.327  15.818  1.00  0.00    -0.000 C 
BRANCH  30  31
ATOM     31  C   UNL     1      19.493  -8.456  14.645  1.00  0.00    -0.003 C 
ATOM     32  C   UNL     1      19.086  -7.049  15.081  1.00  0.00     0.004 C 
ENDBRANCH  30  31
ENDBRANCH  29  30
ENDBRANCH  28  29
ENDBRANCH  27  28
ENDBRANCH  26  27
ENDBRANCH  25  26
ENDBRANCH  24  25
ENDBRANCH  23  24
ENDBRANCH  22  23
ENDBRANCH  21  22
ENDBRANCH  20  21
ENDBRANCH  19  20
ENDBRANCH  18  19
ENDBRANCH   1  18
TORSDOF 28
ENDMDL
MODEL 4
REMARK VINA RESULT:    -4.931      1.616      4.041
REMARK INTER + INTRA:         -17.251
REMARK INTER:                 -12.945
REMARK INTRA:                  -4.307
REMARK UNBOUND:                -4.248
REMARK SMILES CCCCCCCCCCCCCCCCCCCCCCCCCCCCCC(=O)[O-]
REMARK SMILES IDX 16 1 17 2 18 3 19 4 20 5 21 6 22 7 23 8 24 9 25 10 26 11
REMARK SMILES IDX 27 12 28 13 29 14 30 15 31 16 32 17 15 18 14 19 13 20 12 21
REMARK SMILES IDX 11 22 10 23 9 24 8 25 7 26 6 27 5 28 4 29 3 30 2 31 1 32
REMARK H PARENT
REMARK Flexibility Score: inf
ROOT
ATOM      1  C   UNL     1      13.806 -15.997  16.260  1.00  0.00     0.000 C 
ENDROOT
BRANCH   1   2
ATOM      2  C   UNL     1      13.797 -17.284  15.415  1.00  0.00     0.000 C 
BRANCH   2   3
ATOM      3  C   UNL     1      15.184 -17.776  14.960  1.00  0.00     0.000 C 
BRANCH   3   4
ATOM      4  C   UNL     1      15.510 -17.540  13.473  1.00  0.00     0.000 C 
BRANCH   4   5
ATOM      5  C   UNL     1      14.373 -16.856  12.684  1.00  0.00     0.000 C 
BRANCH   5   6
ATOM      6  C   UNL     1      14.818 -15.543  12.018  1.00  0.00     0.000 C 
BRANCH   6   7
ATOM      7  C   UNL     1      14.678 -14.323  12.946  1.00  0.00     0.000 C 
BRANCH   7   8
ATOM      8  C   UNL     1      15.894 -14.053  13.854  1.00  0.00     0.000 C 
BRANCH   8   9
ATOM      9  C   UNL     1      17.128 -13.467  13.141  1.00  0.00     0.000 C 
BRANCH   9  10
ATOM     10  C   UNL     1      16.813 -12.405  12.073  1.00  0.00     0.000 C 
BRANCH  10  11
ATOM     11  C   UNL     1      16.785 -10.976  12.642  1.00  0.00     0.000 C 
BRANCH  11  12
ATOM     12  C   UNL     1      15.391 -10.327  12.506  1.00  0.00     0.000 C 
BRANCH  12  13
ATOM     13  C   UNL     1      14.809  -9.813  13.836  1.00  0.00     0.006 C 
BRANCH  13  14
ATOM     14  C   UNL     1      14.184 -10.911  14.715  1.00  0.00     0.053 C 
BRANCH  14  15
ATOM     15  C   UNL     1      12.751 -10.632  15.060  1.00  0.00     0.041 C 
ATOM     16  O   UNL     1      12.352  -9.446  15.195  1.00  0.00    -0.550 OA
ATOM     17  O   UNL     1      11.843 -11.676  15.174  1.00  0.00    -0.550 OA
ENDBRANCH  14  15
ENDBRANCH  13  14
ENDBRANCH  12  13
ENDBRANCH  11  12
ENDBRANCH  10  11
ENDBRANCH   9  10
ENDBRANCH   8   9
ENDBRANCH   7   8
ENDBRANCH   6   7
ENDBRANCH   5   6
ENDBRANCH   4   5
ENDBRANCH   3   4
ENDBRANCH   2   3
ENDBRANCH   1   2
BRANCH   1  18
ATOM     18  C   UNL     1      12.684 -15.022  15.876  1.00  0.00     0.000 C 
BRANCH  18  19
ATOM     19  C   UNL     1      11.524 -15.763  15.193  1.00  0.00     0.000 C 
BRANCH  19  20
ATOM     20  C   UNL     1      11.114 -15.125  13.853  1.00  0.00     0.000 C 
BRANCH  20  21
ATOM     21  C   UNL     1      10.829 -16.127  12.715  1.00  0.00     0.000 C 
BRANCH  21  22
ATOM     22  C   UNL     1      10.859 -15.526  11.296  1.00  0.00     0.000 C 
BRANCH  22  23
ATOM     23  C   UNL     1      11.597 -16.381  10.247  1.00  0.00     0.000 C 
BRANCH  23  24
ATOM     24  C   UNL     1      11.847 -15.686   8.891  1.00  0.00    -0.000 C 
BRANCH  24  25
ATOM     25  C   UNL     1      11.532 -16.541   7.649  1.00  0.00    -0.000 C 
BRANCH  25  26
ATOM     26  C   UNL     1      10.486 -17.634   7.924  1.00  0.00    -0.000 C 
BRANCH  26  27
ATOM     27  C   UNL     1       9.167 -17.408   7.159  1.00  0.00    -0.000 C 
BRANCH  27  28
ATOM     28  C   UNL     1       8.984 -15.998   6.569  1.00  0.00    -0.000 C 
BRANCH  28  29
ATOM     29  C   UNL     1       8.468 -16.012   5.122  1.00  0.00    -0.000 C 
BRANCH  29  30
ATOM     30  C   UNL     1       9.320 -16.947   4.250  1.00  0.00    -0.000 C 
BRANCH  30  31
ATOM     31  C   UNL     1      10.321 -16.184   3.369  1.00  0.00    -0.003 C 
ATOM     32  C   UNL     1      10.086 -16.410   1.876  1.00  0.00     0.004 C 
ENDBRANCH  30  31
ENDBRANCH  29  30
ENDBRANCH  28  29
ENDBRANCH  27  28
ENDBRANCH  26  27
ENDBRANCH  25  26
ENDBRANCH  24  25
ENDBRANCH  23  24
ENDBRANCH  22  23
ENDBRANCH  21  22
ENDBRANCH  20  21
ENDBRANCH  19  20
ENDBRANCH  18  19
ENDBRANCH   1  18
TORSDOF 28
ENDMDL
MODEL 5
REMARK VINA RESULT:    -4.919      2.518      4.946
REMARK INTER + INTRA:         -17.218
REMARK INTER:                 -12.433
REMARK INTRA:                  -4.785
REMARK UNBOUND:                -4.248
REMARK SMILES CCCCCCCCCCCCCCCCCCCCCCCCCCCCCC(=O)[O-]
REMARK SMILES IDX 16 1 17 2 18 3 19 4 20 5 21 6 22 7 23 8 24 9 25 10 26 11
REMARK SMILES IDX 27 12 28 13 29 14 30 15 31 16 32 17 15 18 14 19 13 20 12 21
REMARK SMILES IDX 11 22 10 23 9 24 8 25 7 26 6 27 5 28 4 29 3 30 2 31 1 32
REMARK H PARENT
REMARK Flexibility Score: inf
ROOT
ATOM      1  C   UNL     1       9.234 -16.594   7.633  1.00  0.00     0.000 C 
ENDROOT
BRANCH   1   2
ATOM      2  C   UNL     1      10.629 -16.143   8.105  1.00  0.00     0.000 C 
BRANCH   2   3
ATOM      3  C   UNL     1      11.042 -16.654   9.499  1.00  0.00     0.000 C 
BRANCH   3   4
ATOM      4  C   UNL     1      10.952 -15.616  10.634  1.00  0.00     0.000 C 
BRANCH   4   5
ATOM      5  C   UNL     1      10.720 -16.234  12.030  1.00  0.00     0.000 C 
BRANCH   5   6
ATOM      6  C   UNL     1      11.196 -15.318  13.171  1.00  0.00     0.000 C 
BRANCH   6   7
ATOM      7  C   UNL     1      11.283 -16.045  14.524  1.00  0.00     0.000 C 
BRANCH   7   8
ATOM      8  C   UNL     1      12.175 -15.357  15.577  1.00  0.00     0.000 C 
BRANCH   8   9
ATOM      9  C   UNL     1      13.400 -16.174  16.033  1.00  0.00     0.000 C 
BRANCH   9  10
ATOM     10  C   UNL     1      13.505 -17.580  15.416  1.00  0.00     0.000 C 
BRANCH  10  11
ATOM     11  C   UNL     1      14.949 -17.964  15.050  1.00  0.00     0.000 C 
BRANCH  11  12
ATOM     12  C   UNL     1      15.622 -16.900  14.157  1.00  0.00     0.000 C 
BRANCH  12  13
ATOM     13  C   UNL     1      15.645 -17.263  12.661  1.00  0.00     0.006 C 
BRANCH  13  14
ATOM     14  C   UNL     1      14.319 -16.996  11.928  1.00  0.00     0.053 C 
BRANCH  14  15
ATOM     15  C   UNL     1      14.518 -16.382  10.574  1.00  0.00     0.041 C 
ATOM     16  O   UNL     1      14.682 -17.115   9.565  1.00  0.00    -0.550 OA
ATOM     17  O   UNL     1      14.461 -15.004  10.416  1.00  0.00    -0.550 OA
ENDBRANCH  14  15
ENDBRANCH  13  14
ENDBRANCH  12  13
ENDBRANCH  11  12
ENDBRANCH  10  11
ENDBRANCH   9  10
ENDBRANCH   8   9
ENDBRANCH   7   8
ENDBRANCH   6   7
ENDBRANCH   5   6
ENDBRANCH   4   5
ENDBRANCH   3   4
ENDBRANCH   2   3
ENDBRANCH   1   2
BRANCH   1  18
ATOM     18  C   UNL     1       8.908 -16.130   6.206  1.00  0.00     0.000 C 
BRANCH  18  19
ATOM     19  C   UNL     1      10.023 -15.229   5.654  1.00  0.00     0.000 C 
BRANCH  19  20
ATOM     20  C   UNL     1      10.563 -15.711   4.295  1.00  0.00     0.000 C 
BRANCH  20  21
ATOM     21  C   UNL     1      10.871 -17.221   4.216  1.00  0.00     0.000 C 
BRANCH  21  22
ATOM     22  C   UNL     1      12.118 -17.673   5.000  1.00  0.00     0.000 C 
BRANCH  22  23
ATOM     23  C   UNL     1      11.898 -18.886   5.924  1.00  0.00     0.000 C 
BRANCH  23  24
ATOM     24  C   UNL     1      12.933 -19.046   7.057  1.00  0.00    -0.000 C 
BRANCH  24  25
ATOM     25  C   UNL     1      12.394 -19.679   8.354  1.00  0.00    -0.000 C 
BRANCH  25  26
ATOM     26  C   UNL     1      11.192 -20.608   8.112  1.00  0.00    -0.000 C 
BRANCH  26  27
ATOM     27  C   UNL     1       9.893 -20.090   8.759  1.00  0.00    -0.000 C 
BRANCH  27  28
ATOM     28  C   UNL     1       8.722 -19.860   7.786  1.00  0.00    -0.000 C 
BRANCH  28  29
ATOM     29  C   UNL     1       8.752 -20.805   6.576  1.00  0.00    -0.000 C 
BRANCH  29  30
ATOM     30  C   UNL     1       8.457 -20.038   5.278  1.00  0.00    -0.000 C 
BRANCH  30  31
ATOM     31  C   UNL     1       7.016 -19.511   5.216  1.00  0.00    -0.003 C 
ATOM     32  C   UNL     1       6.830 -18.422   4.161  1.00  0.00     0.004 C 
ENDBRANCH  30  31
ENDBRANCH  29  30
ENDBRANCH  28  29
ENDBRANCH  27  28
ENDBRANCH  26  27
ENDBRANCH  25  26
ENDBRANCH  24  25
ENDBRANCH  23  24
ENDBRANCH  22  23
ENDBRANCH  21  22
ENDBRANCH  20  21
ENDBRANCH  19  20
ENDBRANCH  18  19
ENDBRANCH   1  18
TORSDOF 28
ENDMDL
MODEL 6
REMARK VINA RESULT:    -4.903      3.832      8.784
REMARK INTER + INTRA:         -17.175
REMARK INTER:                 -11.950
REMARK INTRA:                  -5.225
REMARK UNBOUND:                -4.248
REMARK SMILES CCCCCCCCCCCCCCCCCCCCCCCCCCCCCC(=O)[O-]
REMARK SMILES IDX 16 1 17 2 18 3 19 4 20 5 21 6 22 7 23 8 24 9 25 10 26 11
REMARK SMILES IDX 27 12 28 13 29 14 30 15 31 16 32 17 15 18 14 19 13 20 12 21
REMARK SMILES IDX 11 22 10 23 9 24 8 25 7 26 6 27 5 28 4 29 3 30 2 31 1 32
REMARK H PARENT
REMARK Flexibility Score: inf
ROOT
ATOM      1  C   UNL     1      15.158 -16.960  11.868  1.00  0.00     0.000 C 
ENDROOT
BRANCH   1   2
ATOM      2  C   UNL     1      15.076 -15.442  11.623  1.00  0.00     0.000 C 
BRANCH   2   3
ATOM      3  C   UNL     1      14.716 -15.031  10.182  1.00  0.00     0.000 C 
BRANCH   3   4
ATOM      4  C   UNL     1      15.199 -15.997   9.083  1.00  0.00     0.000 C 
BRANCH   4   5
ATOM      5  C   UNL     1      14.438 -15.854   7.747  1.00  0.00     0.000 C 
BRANCH   5   6
ATOM      6  C   UNL     1      14.073 -14.395   7.425  1.00  0.00     0.000 C 
BRANCH   6   7
ATOM      7  C   UNL     1      12.560 -14.183   7.242  1.00  0.00     0.000 C 
BRANCH   7   8
ATOM      8  C   UNL     1      12.122 -13.826   5.808  1.00  0.00     0.000 C 
BRANCH   8   9
ATOM      9  C   UNL     1      10.997 -14.705   5.227  1.00  0.00     0.000 C 
BRANCH   9  10
ATOM     10  C   UNL     1      10.113 -15.400   6.278  1.00  0.00     0.000 C 
BRANCH  10  11
ATOM     11  C   UNL     1       8.709 -15.737   5.747  1.00  0.00     0.000 C 
BRANCH  11  12
ATOM     12  C   UNL     1       8.752 -16.812   4.640  1.00  0.00     0.000 C 
BRANCH  12  13
ATOM     13  C   UNL     1       7.444 -16.935   3.838  1.00  0.00     0.006 C 
BRANCH  13  14
ATOM     14  C   UNL     1       7.079 -18.379   3.448  1.00  0.00     0.053 C 
BRANCH  14  15
ATOM     15  C   UNL     1       7.086 -19.316   4.620  1.00  0.00     0.041 C 
ATOM     16  O   UNL     1       6.164 -19.265   5.475  1.00  0.00    -0.550 OA
ATOM     17  O   UNL     1       8.075 -20.283   4.737  1.00  0.00    -0.550 OA
ENDBRANCH  14  15
ENDBRANCH  13  14
ENDBRANCH  12  13
ENDBRANCH  11  12
ENDBRANCH  10  11
ENDBRANCH   9  10
ENDBRANCH   8   9
ENDBRANCH   7   8
ENDBRANCH   6   7
ENDBRANCH   5   6
ENDBRANCH   4   5
ENDBRANCH   3   4
ENDBRANCH   2   3
ENDBRANCH   1   2
BRANCH   1  18
ATOM     18  C   UNL     1      15.394 -17.316  13.342  1.00  0.00     0.000 C 
BRANCH  18  19
ATOM     19  C   UNL     1      14.126 -17.913  13.971  1.00  0.00     0.000 C 
BRANCH  19  20
ATOM     20  C   UNL     1      13.695 -17.182  15.256  1.00  0.00     0.000 C 
BRANCH  20  21
ATOM     21  C   UNL     1      13.845 -15.647  15.213  1.00  0.00     0.000 C 
BRANCH  21  22
ATOM     22  C   UNL     1      12.721 -14.904  14.466  1.00  0.00     0.000 C 
BRANCH  22  23
ATOM     23  C   UNL     1      11.325 -15.547  14.592  1.00  0.00     0.000 C 
BRANCH  23  24
ATOM     24  C   UNL     1      10.599 -15.807  13.255  1.00  0.00    -0.000 C 
BRANCH  24  25
ATOM     25  C   UNL     1      11.520 -16.107  12.057  1.00  0.00    -0.000 C 
BRANCH  25  26
ATOM     26  C   UNL     1      10.951 -15.597  10.722  1.00  0.00    -0.000 C 
BRANCH  26  27
ATOM     27  C   UNL     1      11.271 -16.529   9.538  1.00  0.00    -0.000 C 
BRANCH  27  28
ATOM     28  C   UNL     1      12.114 -17.769   9.889  1.00  0.00    -0.000 C 
BRANCH  28  29
ATOM     29  C   UNL     1      11.804 -18.980   8.995  1.00  0.00    -0.000 C 
BRANCH  29  30
ATOM     30  C   UNL     1      10.610 -18.686   8.074  1.00  0.00    -0.000 C 
BRANCH  30  31
ATOM     31  C   UNL     1      10.899 -19.028   6.605  1.00  0.00    -0.003 C 
ATOM     32  C   UNL     1      12.207 -18.419   6.102  1.00  0.00     0.004 C 
ENDBRANCH  30  31
ENDBRANCH  29  30
ENDBRANCH  28  29
ENDBRANCH  27  28
ENDBRANCH  26  27
ENDBRANCH  25  26
ENDBRANCH  24  25
ENDBRANCH  23  24
ENDBRANCH  22  23
ENDBRANCH  21  22
ENDBRANCH  20  21
ENDBRANCH  19  20
ENDBRANCH  18  19
ENDBRANCH   1  18
TORSDOF 28
ENDMDL
MODEL 7
REMARK VINA RESULT:    -4.899      2.609     10.348
REMARK INTER + INTRA:         -17.165
REMARK INTER:                 -12.578
REMARK INTRA:                  -4.587
REMARK UNBOUND:                -4.248
REMARK SMILES CCCCCCCCCCCCCCCCCCCCCCCCCCCCCC(=O)[O-]
REMARK SMILES IDX 16 1 17 2 18 3 19 4 20 5 21 6 22 7 23 8 24 9 25 10 26 11
REMARK SMILES IDX 27 12 28 13 29 14 30 15 31 16 32 17 15 18 14 19 13 20 12 21
REMARK SMILES IDX 11 22 10 23 9 24 8 25 7 26 6 27 5 28 4 29 3 30 2 31 1 32
REMARK H PARENT
REMARK Flexibility Score: inf
ROOT
ATOM      1  C   UNL     1      12.095 -19.126   8.739  1.00  0.00     0.000 C 
ENDROOT
BRANCH   1   2
ATOM      2  C   UNL     1      11.037 -19.847   7.884  1.00  0.00     0.000 C 
BRANCH   2   3
ATOM      3  C   UNL     1       9.592 -19.739   8.407  1.00  0.00     0.000 C 
BRANCH   3   4
ATOM      4  C   UNL     1       8.502 -19.675   7.320  1.00  0.00     0.000 C 
BRANCH   4   5
ATOM      5  C   UNL     1       8.990 -20.104   5.919  1.00  0.00     0.000 C 
BRANCH   5   6
ATOM      6  C   UNL     1       7.832 -20.361   4.940  1.00  0.00     0.000 C 
BRANCH   6   7
ATOM      7  C   UNL     1       6.662 -19.378   5.125  1.00  0.00     0.000 C 
BRANCH   7   8
ATOM      8  C   UNL     1       6.426 -18.417   3.943  1.00  0.00     0.000 C 
BRANCH   8   9
ATOM      9  C   UNL     1       7.600 -18.295   2.952  1.00  0.00     0.000 C 
BRANCH   9  10
ATOM     10  C   UNL     1       8.235 -16.896   2.871  1.00  0.00     0.000 C 
BRANCH  10  11
ATOM     11  C   UNL     1       9.363 -16.691   3.896  1.00  0.00     0.000 C 
BRANCH  11  12
ATOM     12  C   UNL     1       8.861 -15.984   5.173  1.00  0.00     0.000 C 
BRANCH  12  13
ATOM     13  C   UNL     1       9.577 -16.437   6.460  1.00  0.00     0.006 C 
BRANCH  13  14
ATOM     14  C   UNL     1      10.673 -15.471   6.942  1.00  0.00     0.053 C 
BRANCH  14  15
ATOM     15  C   UNL     1      12.054 -15.930   6.574  1.00  0.00     0.041 C 
ATOM     16  O   UNL     1      12.213 -16.992   5.917  1.00  0.00    -0.550 OA
ATOM     17  O   UNL     1      13.159 -15.157   6.902  1.00  0.00    -0.550 OA
ENDBRANCH  14  15
ENDBRANCH  13  14
ENDBRANCH  12  13
ENDBRANCH  11  12
ENDBRANCH  10  11
ENDBRANCH   9  10
ENDBRANCH   8   9
ENDBRANCH   7   8
ENDBRANCH   6   7
ENDBRANCH   5   6
ENDBRANCH   4   5
ENDBRANCH   3   4
ENDBRANCH   2   3
ENDBRANCH   1   2
BRANCH   1  18
ATOM     18  C   UNL     1      11.506 -17.991   9.588  1.00  0.00     0.000 C 
BRANCH  18  19
ATOM     19  C   UNL     1      12.619 -17.100  10.160  1.00  0.00     0.000 C 
BRANCH  19  20
ATOM     20  C   UNL     1      12.074 -15.890  10.942  1.00  0.00     0.000 C 
BRANCH  20  21
ATOM     21  C   UNL     1      11.075 -16.238  12.066  1.00  0.00     0.000 C 
BRANCH  21  22
ATOM     22  C   UNL     1      11.085 -15.272  13.267  1.00  0.00     0.000 C 
BRANCH  22  23
ATOM     23  C   UNL     1      11.101 -15.957  14.648  1.00  0.00     0.000 C 
BRANCH  23  24
ATOM     24  C   UNL     1      12.235 -15.504  15.592  1.00  0.00    -0.000 C 
BRANCH  24  25
ATOM     25  C   UNL     1      13.320 -16.563  15.868  1.00  0.00    -0.000 C 
BRANCH  25  26
ATOM     26  C   UNL     1      13.368 -17.664  14.795  1.00  0.00    -0.000 C 
BRANCH  26  27
ATOM     27  C   UNL     1      14.309 -17.320  13.624  1.00  0.00    -0.000 C 
BRANCH  27  28
ATOM     28  C   UNL     1      15.741 -16.923  14.028  1.00  0.00    -0.000 C 
BRANCH  28  29
ATOM     29  C   UNL     1      16.214 -15.620  13.367  1.00  0.00    -0.000 C 
BRANCH  29  30
ATOM     30  C   UNL     1      15.058 -14.613  13.260  1.00  0.00    -0.000 C 
BRANCH  30  31
ATOM     31  C   UNL     1      15.264 -13.379  14.151  1.00  0.00    -0.003 C 
ATOM     32  C   UNL     1      13.948 -12.714  14.553  1.00  0.00     0.004 C 
ENDBRANCH  30  31
ENDBRANCH  29  30
ENDBRANCH  28  29
ENDBRANCH  27  28
ENDBRANCH  26  27
ENDBRANCH  25  26
ENDBRANCH  24  25
ENDBRANCH  23  24
ENDBRANCH  22  23
ENDBRANCH  21  22
ENDBRANCH  20  21
ENDBRANCH  19  20
ENDBRANCH  18  19
ENDBRANCH   1  18
TORSDOF 28
ENDMDL
MODEL 8
REMARK VINA RESULT:    -4.873      1.932      3.789
REMARK INTER + INTRA:         -17.098
REMARK INTER:                 -12.547
REMARK INTRA:                  -4.551
REMARK UNBOUND:                -4.248
REMARK SMILES CCCCCCCCCCCCCCCCCCCCCCCCCCCCCC(=O)[O-]
REMARK SMILES IDX 16 1 17 2 18 3 19 4 20 5 21 6 22 7 23 8 24 9 25 10 26 11
REMARK SMILES IDX 27 12 28 13 29 14 30 15 31 16 32 17 15 18 14 19 13 20 12 21
REMARK SMILES IDX 11 22 10 23 9 24 8 25 7 26 6 27 5 28 4 29 3 30 2 31 1 32
REMARK H PARENT
REMARK Flexibility Score: inf
ROOT
ATOM      1  C   UNL     1      12.066 -17.054  10.035  1.00  0.00     0.000 C 
ENDROOT
BRANCH   1   2
ATOM      2  C   UNL     1      11.113 -15.848  10.108  1.00  0.00     0.000 C 
BRANCH   2   3
ATOM      3  C   UNL     1      10.610 -15.497  11.522  1.00  0.00     0.000 C 
BRANCH   3   4
ATOM      4  C   UNL     1      11.319 -16.236  12.674  1.00  0.00     0.000 C 
BRANCH   4   5
ATOM      5  C   UNL     1      10.911 -15.740  14.078  1.00  0.00     0.000 C 
BRANCH   5   6
ATOM      6  C   UNL     1      11.787 -14.577  14.574  1.00  0.00     0.000 C 
BRANCH   6   7
ATOM      7  C   UNL     1      11.845 -14.484  16.109  1.00  0.00     0.000 C 
BRANCH   7   8
ATOM      8  C   UNL     1      12.794 -15.491  16.787  1.00  0.00     0.000 C 
BRANCH   8   9
ATOM      9  C   UNL     1      13.990 -15.946  15.928  1.00  0.00     0.000 C 
BRANCH   9  10
ATOM     10  C   UNL     1      13.972 -17.433  15.531  1.00  0.00     0.000 C 
BRANCH  10  11
ATOM     11  C   UNL     1      15.032 -17.781  14.471  1.00  0.00     0.000 C 
BRANCH  11  12
ATOM     12  C   UNL     1      14.526 -17.512  13.038  1.00  0.00     0.000 C 
BRANCH  12  13
ATOM     13  C   UNL     1      15.416 -16.547  12.233  1.00  0.00     0.006 C 
BRANCH  13  14
ATOM     14  C   UNL     1      14.835 -15.130  12.086  1.00  0.00     0.053 C 
BRANCH  14  15
ATOM     15  C   UNL     1      15.744 -14.070  12.635  1.00  0.00     0.041 C 
ATOM     16  O   UNL     1      15.435 -12.855  12.532  1.00  0.00    -0.550 OA
ATOM     17  O   UNL     1      16.902 -14.426  13.314  1.00  0.00    -0.550 OA
ENDBRANCH  14  15
ENDBRANCH  13  14
ENDBRANCH  12  13
ENDBRANCH  11  12
ENDBRANCH  10  11
ENDBRANCH   9  10
ENDBRANCH   8   9
ENDBRANCH   7   8
ENDBRANCH   6   7
ENDBRANCH   5   6
ENDBRANCH   4   5
ENDBRANCH   3   4
ENDBRANCH   2   3
ENDBRANCH   1   2
BRANCH   1  18
ATOM     18  C   UNL     1      13.203 -16.858   9.022  1.00  0.00     0.000 C 
BRANCH  18  19
ATOM     19  C   UNL     1      12.952 -17.683   7.750  1.00  0.00     0.000 C 
BRANCH  19  20
ATOM     20  C   UNL     1      11.871 -18.763   7.942  1.00  0.00     0.000 C 
BRANCH  20  21
ATOM     21  C   UNL     1      10.744 -18.751   6.888  1.00  0.00     0.000 C 
BRANCH  21  22
ATOM     22  C   UNL     1       9.334 -18.474   7.446  1.00  0.00     0.000 C 
BRANCH  22  23
ATOM     23  C   UNL     1       8.299 -18.027   6.395  1.00  0.00     0.000 C 
BRANCH  23  24
ATOM     24  C   UNL     1       7.252 -19.094   6.009  1.00  0.00    -0.000 C 
BRANCH  24  25
ATOM     25  C   UNL     1       6.660 -18.950   4.594  1.00  0.00    -0.000 C 
BRANCH  25  26
ATOM     26  C   UNL     1       7.232 -17.747   3.826  1.00  0.00    -0.000 C 
BRANCH  26  27
ATOM     27  C   UNL     1       8.180 -18.159   2.683  1.00  0.00    -0.000 C 
BRANCH  27  28
ATOM     28  C   UNL     1       9.639 -17.691   2.841  1.00  0.00    -0.000 C 
BRANCH  28  29
ATOM     29  C   UNL     1       9.756 -16.214   3.247  1.00  0.00    -0.000 C 
BRANCH  29  30
ATOM     30  C   UNL     1      10.797 -16.036   4.362  1.00  0.00    -0.000 C 
BRANCH  30  31
ATOM     31  C   UNL     1      10.291 -15.146   5.507  1.00  0.00    -0.003 C 
ATOM     32  C   UNL     1      11.417 -14.653   6.415  1.00  0.00     0.004 C 
ENDBRANCH  30  31
ENDBRANCH  29  30
ENDBRANCH  28  29
ENDBRANCH  27  28
ENDBRANCH  26  27
ENDBRANCH  25  26
ENDBRANCH  24  25
ENDBRANCH  23  24
ENDBRANCH  22  23
ENDBRANCH  21  22
ENDBRANCH  20  21
ENDBRANCH  19  20
ENDBRANCH  18  19
ENDBRANCH   1  18
TORSDOF 28
ENDMDL
MODEL 9
REMARK VINA RESULT:    -4.841      1.186      2.272
REMARK INTER + INTRA:         -17.014
REMARK INTER:                 -13.122
REMARK INTRA:                  -3.891
REMARK UNBOUND:                -4.248
REMARK SMILES CCCCCCCCCCCCCCCCCCCCCCCCCCCCCC(=O)[O-]
REMARK SMILES IDX 16 1 17 2 18 3 19 4 20 5 21 6 22 7 23 8 24 9 25 10 26 11
REMARK SMILES IDX 27 12 28 13 29 14 30 15 31 16 32 17 15 18 14 19 13 20 12 21
REMARK SMILES IDX 11 22 10 23 9 24 8 25 7 26 6 27 5 28 4 29 3 30 2 31 1 32
REMARK H PARENT
REMARK Flexibility Score: inf
ROOT
ATOM      1  C   UNL     1      10.595 -15.500  12.299  1.00  0.00     0.000 C 
ENDROOT
BRANCH   1   2
ATOM      2  C   UNL     1      11.030 -15.721  13.760  1.00  0.00     0.000 C 
BRANCH   2   3
ATOM      3  C   UNL     1      11.967 -14.641  14.332  1.00  0.00     0.000 C 
BRANCH   3   4
ATOM      4  C   UNL     1      11.919 -14.472  15.863  1.00  0.00     0.000 C 
BRANCH   4   5
ATOM      5  C   UNL     1      12.754 -15.517  16.633  1.00  0.00     0.000 C 
BRANCH   5   6
ATOM      6  C   UNL     1      14.007 -15.962  15.860  1.00  0.00     0.000 C 
BRANCH   6   7
ATOM      7  C   UNL     1      13.986 -17.458  15.498  1.00  0.00     0.000 C 
BRANCH   7   8
ATOM      8  C   UNL     1      13.951 -17.761  13.986  1.00  0.00     0.000 C 
BRANCH   8   9
ATOM      9  C   UNL     1      15.182 -17.281  13.193  1.00  0.00     0.000 C 
BRANCH   9  10
ATOM     10  C   UNL     1      14.863 -16.656  11.823  1.00  0.00     0.000 C 
BRANCH  10  11
ATOM     11  C   UNL     1      14.946 -15.120  11.833  1.00  0.00     0.000 C 
BRANCH  11  12
ATOM     12  C   UNL     1      15.539 -14.582  13.153  1.00  0.00     0.000 C 
BRANCH  12  13
ATOM     13  C   UNL     1      15.520 -13.046  13.266  1.00  0.00     0.006 C 
BRANCH  13  14
ATOM     14  C   UNL     1      14.933 -12.520  14.587  1.00  0.00     0.053 C 
BRANCH  14  15
ATOM     15  C   UNL     1      14.241 -11.198  14.429  1.00  0.00     0.041 C 
ATOM     16  O   UNL     1      13.227 -10.927  15.123  1.00  0.00    -0.550 OA
ATOM     17  O   UNL     1      14.750 -10.242  13.560  1.00  0.00    -0.550 OA
ENDBRANCH  14  15
ENDBRANCH  13  14
ENDBRANCH  12  13
ENDBRANCH  11  12
ENDBRANCH  10  11
ENDBRANCH   9  10
ENDBRANCH   8   9
ENDBRANCH   7   8
ENDBRANCH   6   7
ENDBRANCH   5   6
ENDBRANCH   4   5
ENDBRANCH   3   4
ENDBRANCH   2   3
ENDBRANCH   1   2
BRANCH   1  18
ATOM     18  C   UNL     1      11.388 -16.358  11.303  1.00  0.00     0.000 C 
BRANCH  18  19
ATOM     19  C   UNL     1      11.150 -15.885   9.861  1.00  0.00     0.000 C 
BRANCH  19  20
ATOM     20  C   UNL     1      11.787 -16.816   8.813  1.00  0.00     0.000 C 
BRANCH  20  21
ATOM     21  C   UNL     1      10.786 -17.528   7.880  1.00  0.00     0.000 C 
BRANCH  21  22
ATOM     22  C   UNL     1       9.516 -16.720   7.551  1.00  0.00     0.000 C 
BRANCH  22  23
ATOM     23  C   UNL     1       8.370 -17.541   6.926  1.00  0.00     0.000 C 
BRANCH  23  24
ATOM     24  C   UNL     1       8.787 -18.900   6.326  1.00  0.00    -0.000 C 
BRANCH  24  25
ATOM     25  C   UNL     1       7.776 -19.521   5.344  1.00  0.00    -0.000 C 
BRANCH  25  26
ATOM     26  C   UNL     1       6.883 -18.472   4.661  1.00  0.00    -0.000 C 
BRANCH  26  27
ATOM     27  C   UNL     1       6.883 -18.592   3.125  1.00  0.00    -0.000 C 
BRANCH  27  28
ATOM     28  C   UNL     1       8.259 -18.422   2.455  1.00  0.00    -0.000 C 
BRANCH  28  29
ATOM     29  C   UNL     1       8.659 -16.951   2.267  1.00  0.00    -0.000 C 
BRANCH  29  30
ATOM     30  C   UNL     1       8.812 -16.250   3.625  1.00  0.00    -0.000 C 
BRANCH  30  31
ATOM     31  C   UNL     1      10.269 -15.874   3.936  1.00  0.00    -0.003 C 
ATOM     32  C   UNL     1      11.173 -17.095   4.098  1.00  0.00     0.004 C 
ENDBRANCH  30  31
ENDBRANCH  29  30
ENDBRANCH  28  29
ENDBRANCH  27  28
ENDBRANCH  26  27
ENDBRANCH  25  26
ENDBRANCH  24  25
ENDBRANCH  23  24
ENDBRANCH  22  23
ENDBRANCH  21  22
ENDBRANCH  20  21
ENDBRANCH  19  20
ENDBRANCH  18  19
ENDBRANCH   1  18
TORSDOF 28
ENDMDL
