MODEL 1
REMARK VINA RESULT:    36.141      0.000      0.000
REMARK INTER + INTRA:          44.301
REMARK INTER:                  44.592
REMARK INTRA:                  -0.291
REMARK UNBOUND:                -0.291
REMARK SMILES Oc1cc(O)c2cc(O)c(-c3cc(O)c(O)c(O)c3)[o+]c2c1
REMARK SMILES IDX 10 1 20 2 21 3 22 4 2 5 3 6 4 7 6 8 7 9 8 10 11 11 12 12
REMARK SMILES IDX 13 13 19 14 15 15 17 16 14 17 16 19 18 21 9 23 1 25 5 27
REMARK H PARENT 14 18 16 20 18 22 9 24 1 26 5 28
REMARK Flexibility Score: inf
ROOT
ATOM      1  C   UNL     1      30.275 -31.803  -2.487  1.00  0.00     0.402 A 
ATOM      2  O   UNL     1      31.202 -31.611  -3.424  1.00  0.00    -0.202 OA
ATOM      3  C   UNL     1      32.459 -31.276  -3.147  1.00  0.00     0.368 A 
ATOM      4  C   UNL     1      33.371 -31.089  -4.189  1.00  0.00     0.162 A 
ATOM      5  C   UNL     1      34.697 -30.732  -3.910  1.00  0.00     0.128 A 
ATOM      6  C   UNL     1      35.109 -30.562  -2.584  1.00  0.00     0.093 A 
ATOM      7  C   UNL     1      34.205 -30.748  -1.528  1.00  0.00     0.136 A 
ATOM      8  C   UNL     1      32.872 -31.107  -1.809  1.00  0.00     0.125 A 
ATOM      9  C   UNL     1      31.930 -31.313  -0.795  1.00  0.00     0.078 A 
ATOM     10  C   UNL     1      30.620 -31.674  -1.127  1.00  0.00     0.223 A 
ENDROOT
BRANCH   1  11
ATOM     11  C   UNL     1      28.906 -32.165  -2.921  1.00  0.00     0.091 A 
ATOM     12  C   UNL     1      27.827 -31.284  -2.748  1.00  0.00     0.068 A 
ATOM     13  C   UNL     1      26.545 -31.637  -3.186  1.00  0.00     0.162 A 
ATOM     14  C   UNL     1      28.688 -33.390  -3.568  1.00  0.00     0.068 A 
ATOM     15  C   UNL     1      26.325 -32.872  -3.811  1.00  0.00     0.200 A 
ATOM     16  C   UNL     1      27.412 -33.756  -4.009  1.00  0.00     0.162 A 
BRANCH  13  17
ATOM     17  O   UNL     1      25.477 -30.758  -3.004  1.00  0.00    -0.504 OA
ATOM     18  H   UNL     1      25.220 -30.417  -2.085  1.00  0.00     0.293 HD
ENDBRANCH  13  17
BRANCH  15  19
ATOM     19  O   UNL     1      25.024 -33.177  -4.222  1.00  0.00    -0.502 OA
ATOM     20  H   UNL     1      24.299 -33.509  -3.602  1.00  0.00     0.293 HD
ENDBRANCH  15  19
BRANCH  16  21
ATOM     21  O   UNL     1      27.271 -34.997  -4.635  1.00  0.00    -0.504 OA
ATOM     22  H   UNL     1      27.207 -35.876  -4.141  1.00  0.00     0.293 HD
ENDBRANCH  16  21
ENDBRANCH   1  11
BRANCH  10  23
ATOM     23  O   UNL     1      29.689 -31.930  -0.120  1.00  0.00    -0.500 OA
ATOM     24  H   UNL     1      29.261 -32.842  -0.012  1.00  0.00     0.294 HD
ENDBRANCH  10  23
BRANCH   5  25
ATOM     25  O   UNL     1      35.612 -30.542  -4.942  1.00  0.00    -0.507 OA
ATOM     26  H   UNL     1      36.384 -29.892  -4.852  1.00  0.00     0.293 HD
ENDBRANCH   5  25
BRANCH   7  27
ATOM     27  O   UNL     1      34.629 -30.577  -0.209  1.00  0.00    -0.507 OA
ATOM     28  H   UNL     1      34.507 -29.697   0.278  1.00  0.00     0.293 HD
ENDBRANCH   7  27
TORSDOF 7
ENDMDL
MODEL 2
REMARK VINA RESULT:    36.638      0.091      1.801
REMARK INTER + INTRA:          44.914
REMARK INTER:                  45.166
REMARK INTRA:                  -0.252
REMARK UNBOUND:                -0.291
REMARK SMILES Oc1cc(O)c2cc(O)c(-c3cc(O)c(O)c(O)c3)[o+]c2c1
REMARK SMILES IDX 10 1 20 2 21 3 22 4 2 5 3 6 4 7 6 8 7 9 8 10 11 11 12 12
REMARK SMILES IDX 13 13 19 14 15 15 17 16 14 17 16 19 18 21 9 23 1 25 5 27
REMARK H PARENT 14 18 16 20 18 22 9 24 1 26 5 28
REMARK Flexibility Score: inf
ROOT
ATOM      1  C   UNL     1      30.232 -31.830  -2.515  1.00  0.00     0.402 A 
ATOM      2  O   UNL     1      31.182 -31.631  -3.428  1.00  0.00    -0.202 OA
ATOM      3  C   UNL     1      32.430 -31.291  -3.118  1.00  0.00     0.368 A 
ATOM      4  C   UNL     1      33.367 -31.096  -4.137  1.00  0.00     0.162 A 
ATOM      5  C   UNL     1      34.684 -30.733  -3.823  1.00  0.00     0.128 A 
ATOM      6  C   UNL     1      35.062 -30.566  -2.486  1.00  0.00     0.093 A 
ATOM      7  C   UNL     1      34.132 -30.759  -1.454  1.00  0.00     0.136 A 
ATOM      8  C   UNL     1      32.809 -31.123  -1.769  1.00  0.00     0.125 A 
ATOM      9  C   UNL     1      31.842 -31.337  -0.780  1.00  0.00     0.078 A 
ATOM     10  C   UNL     1      30.543 -31.704  -1.146  1.00  0.00     0.223 A 
ENDROOT
BRANCH   1  11
ATOM     11  C   UNL     1      28.877 -32.197  -2.984  1.00  0.00     0.091 A 
ATOM     12  C   UNL     1      28.624 -33.436  -3.591  1.00  0.00     0.068 A 
ATOM     13  C   UNL     1      27.330 -33.774  -4.007  1.00  0.00     0.162 A 
ATOM     14  C   UNL     1      27.809 -31.313  -2.770  1.00  0.00     0.068 A 
ATOM     15  C   UNL     1      26.268 -32.879  -3.813  1.00  0.00     0.200 A 
ATOM     16  C   UNL     1      26.512 -31.636  -3.182  1.00  0.00     0.162 A 
BRANCH  13  17
ATOM     17  O   UNL     1      27.089 -35.006  -4.615  1.00  0.00    -0.504 OA
ATOM     18  H   UNL     1      27.577 -35.286  -5.458  1.00  0.00     0.293 HD
ENDBRANCH  13  17
BRANCH  15  19
ATOM     19  O   UNL     1      24.999 -33.262  -4.254  1.00  0.00    -0.502 OA
ATOM     20  H   UNL     1      24.183 -33.306  -3.660  1.00  0.00     0.293 HD
ENDBRANCH  15  19
BRANCH  16  21
ATOM     21  O   UNL     1      25.502 -30.700  -2.945  1.00  0.00    -0.504 OA
ATOM     22  H   UNL     1      25.558 -29.727  -3.211  1.00  0.00     0.293 HD
ENDBRANCH  16  21
ENDBRANCH   1  11
BRANCH  10  23
ATOM     23  O   UNL     1      29.588 -31.967  -0.164  1.00  0.00    -0.500 OA
ATOM     24  H   UNL     1      28.724 -31.441  -0.109  1.00  0.00     0.294 HD
ENDBRANCH  10  23
BRANCH   5  25
ATOM     25  O   UNL     1      35.624 -30.536  -4.831  1.00  0.00    -0.507 OA
ATOM     26  H   UNL     1      35.377 -30.623  -5.810  1.00  0.00     0.293 HD
ENDBRANCH   5  25
BRANCH   7  27
ATOM     27  O   UNL     1      34.522 -30.590  -0.125  1.00  0.00    -0.507 OA
ATOM     28  H   UNL     1      33.907 -30.163   0.559  1.00  0.00     0.293 HD
ENDBRANCH   7  27
TORSDOF 7
ENDMDL
