MODEL 1
REMARK VINA RESULT:    -1.452      0.000      0.000
REMARK INTER + INTRA:          -5.310
REMARK INTER:                  -2.640
REMARK INTRA:                  -2.670
REMARK UNBOUND:                -2.670
REMARK SMILES CCCCCCCCCCCCCCCC(=O)[O-]
REMARK SMILES IDX 9 1 10 2 11 3 12 4 13 5 14 6 15 7 16 8 17 9 18 10 8 11 7 12
REMARK SMILES IDX 6 13 5 14 4 15 3 16 2 17 1 18
REMARK H PARENT
REMARK Flexibility Score: inf
ROOT
ATOM      1  C   UNL     1     -30.004 -31.821  14.486  1.00  0.00     0.000 C 
ENDROOT
BRANCH   1   2
ATOM      2  C   UNL     1     -31.084 -31.375  13.486  1.00  0.00     0.000 C 
BRANCH   2   3
ATOM      3  C   UNL     1     -32.268 -32.357  13.405  1.00  0.00     0.000 C 
BRANCH   3   4
ATOM      4  C   UNL     1     -32.472 -33.027  12.034  1.00  0.00     0.000 C 
BRANCH   4   5
ATOM      5  C   UNL     1     -32.824 -34.522  12.143  1.00  0.00     0.000 C 
BRANCH   5   6
ATOM      6  C   UNL     1     -34.237 -34.754  12.703  1.00  0.00     0.006 C 
BRANCH   6   7
ATOM      7  C   UNL     1     -34.292 -35.912  13.708  1.00  0.00     0.053 C 
BRANCH   7   8
ATOM      8  C   UNL     1     -34.616 -35.399  15.076  1.00  0.00     0.041 C 
ATOM      9  O   UNL     1     -34.424 -36.125  16.087  1.00  0.00    -0.550 OA
ATOM     10  O   UNL     1     -35.083 -34.101  15.238  1.00  0.00    -0.550 OA
ENDBRANCH   7   8
ENDBRANCH   6   7
ENDBRANCH   5   6
ENDBRANCH   4   5
ENDBRANCH   3   4
ENDBRANCH   2   3
ENDBRANCH   1   2
BRANCH   1  11
ATOM     11  C   UNL     1     -28.619 -31.959  13.833  1.00  0.00     0.000 C 
BRANCH  11  12
ATOM     12  C   UNL     1     -28.161 -33.423  13.727  1.00  0.00    -0.000 C 
BRANCH  12  13
ATOM     13  C   UNL     1     -28.838 -34.178  12.570  1.00  0.00    -0.000 C 
BRANCH  13  14
ATOM     14  C   UNL     1     -29.546 -35.477  13.007  1.00  0.00    -0.000 C 
BRANCH  14  15
ATOM     15  C   UNL     1     -29.485 -35.688  14.528  1.00  0.00    -0.000 C 
BRANCH  15  16
ATOM     16  C   UNL     1     -30.896 -35.751  15.132  1.00  0.00    -0.000 C 
BRANCH  16  17
ATOM     17  C   UNL     1     -31.135 -34.663  16.190  1.00  0.00    -0.003 C 
ATOM     18  C   UNL     1     -29.898 -34.384  17.043  1.00  0.00     0.004 C 
ENDBRANCH  16  17
ENDBRANCH  15  16
ENDBRANCH  14  15
ENDBRANCH  13  14
ENDBRANCH  12  13
ENDBRANCH  11  12
ENDBRANCH   1  11
TORSDOF 14
ENDMDL
MODEL 2
REMARK VINA RESULT:    -1.382     21.767     23.971
REMARK INTER + INTRA:          -5.183
REMARK INTER:                  -2.650
REMARK INTRA:                  -2.533
REMARK UNBOUND:                -2.670
REMARK SMILES CCCCCCCCCCCCCCCC(=O)[O-]
REMARK SMILES IDX 9 1 10 2 11 3 12 4 13 5 14 6 15 7 16 8 17 9 18 10 8 11 7 12
REMARK SMILES IDX 6 13 5 14 4 15 3 16 2 17 1 18
REMARK H PARENT
REMARK Flexibility Score: inf
ROOT
ATOM      1  C   UNL     1     -17.804 -26.882  28.275  1.00  0.00     0.000 C 
ENDROOT
BRANCH   1   2
ATOM      2  C   UNL     1     -19.000 -26.232  28.991  1.00  0.00     0.000 C 
BRANCH   2   3
ATOM      3  C   UNL     1     -18.853 -26.230  30.524  1.00  0.00     0.000 C 
BRANCH   3   4
ATOM      4  C   UNL     1     -18.738 -24.838  31.171  1.00  0.00     0.000 C 
BRANCH   4   5
ATOM      5  C   UNL     1     -19.888 -23.895  30.773  1.00  0.00     0.000 C 
BRANCH   5   6
ATOM      6  C   UNL     1     -19.385 -22.514  30.321  1.00  0.00     0.006 C 
BRANCH   6   7
ATOM      7  C   UNL     1     -17.911 -22.277  30.672  1.00  0.00     0.053 C 
BRANCH   7   8
ATOM      8  C   UNL     1     -17.770 -21.060  31.531  1.00  0.00     0.041 C 
ATOM      9  O   UNL     1     -18.767 -20.324  31.756  1.00  0.00    -0.550 OA
ATOM     10  O   UNL     1     -16.549 -20.766  32.125  1.00  0.00    -0.550 OA
ENDBRANCH   7   8
ENDBRANCH   6   7
ENDBRANCH   5   6
ENDBRANCH   4   5
ENDBRANCH   3   4
ENDBRANCH   2   3
ENDBRANCH   1   2
BRANCH   1  11
ATOM     11  C   UNL     1     -17.013 -25.876  27.421  1.00  0.00     0.000 C 
BRANCH  11  12
ATOM     12  C   UNL     1     -16.440 -24.719  28.255  1.00  0.00    -0.000 C 
BRANCH  12  13
ATOM     13  C   UNL     1     -15.159 -25.107  29.014  1.00  0.00    -0.000 C 
BRANCH  13  14
ATOM     14  C   UNL     1     -15.017 -24.412  30.384  1.00  0.00    -0.000 C 
BRANCH  14  15
ATOM     15  C   UNL     1     -15.179 -25.395  31.554  1.00  0.00    -0.000 C 
BRANCH  15  16
ATOM     16  C   UNL     1     -14.875 -26.834  31.109  1.00  0.00    -0.000 C 
BRANCH  16  17
ATOM     17  C   UNL     1     -15.796 -27.866  31.778  1.00  0.00    -0.003 C 
ATOM     18  C   UNL     1     -16.261 -28.958  30.816  1.00  0.00     0.004 C 
ENDBRANCH  16  17
ENDBRANCH  15  16
ENDBRANCH  14  15
ENDBRANCH  13  14
ENDBRANCH  12  13
ENDBRANCH  11  12
ENDBRANCH   1  11
TORSDOF 14
ENDMDL
MODEL 3
REMARK VINA RESULT:    -1.368      2.703      4.661
REMARK INTER + INTRA:          -5.158
REMARK INTER:                  -2.865
REMARK INTRA:                  -2.293
REMARK UNBOUND:                -2.670
REMARK SMILES CCCCCCCCCCCCCCCC(=O)[O-]
REMARK SMILES IDX 9 1 10 2 11 3 12 4 13 5 14 6 15 7 16 8 17 9 18 10 8 11 7 12
REMARK SMILES IDX 6 13 5 14 4 15 3 16 2 17 1 18
REMARK H PARENT
REMARK Flexibility Score: inf
ROOT
ATOM      1  C   UNL     1     -33.897 -34.529  14.848  1.00  0.00     0.000 C 
ENDROOT
BRANCH   1   2
ATOM      2  C   UNL     1     -33.912 -35.887  14.127  1.00  0.00     0.000 C 
BRANCH   2   3
ATOM      3  C   UNL     1     -33.787 -35.755  12.597  1.00  0.00     0.000 C 
BRANCH   3   4
ATOM      4  C   UNL     1     -32.788 -34.689  12.109  1.00  0.00     0.000 C 
BRANCH   4   5
ATOM      5  C   UNL     1     -31.321 -35.128  12.262  1.00  0.00     0.000 C 
BRANCH   5   6
ATOM      6  C   UNL     1     -30.332 -33.990  11.955  1.00  0.00     0.006 C 
BRANCH   6   7
ATOM      7  C   UNL     1     -31.008 -32.613  11.921  1.00  0.00     0.053 C 
BRANCH   7   8
ATOM      8  C   UNL     1     -30.091 -31.570  12.480  1.00  0.00     0.041 C 
ATOM      9  O   UNL     1     -28.931 -31.430  12.011  1.00  0.00    -0.550 OA
ATOM     10  O   UNL     1     -30.536 -30.720  13.484  1.00  0.00    -0.550 OA
ENDBRANCH   7   8
ENDBRANCH   6   7
ENDBRANCH   5   6
ENDBRANCH   4   5
ENDBRANCH   3   4
ENDBRANCH   2   3
ENDBRANCH   1   2
BRANCH   1  11
ATOM     11  C   UNL     1     -32.972 -34.526  16.076  1.00  0.00     0.000 C 
BRANCH  11  12
ATOM     12  C   UNL     1     -31.922 -35.647  16.026  1.00  0.00    -0.000 C 
BRANCH  12  13
ATOM     13  C   UNL     1     -30.495 -35.120  15.793  1.00  0.00    -0.000 C 
BRANCH  13  14
ATOM     14  C   UNL     1     -30.416 -33.585  15.660  1.00  0.00    -0.000 C 
BRANCH  14  15
ATOM     15  C   UNL     1     -28.967 -33.074  15.688  1.00  0.00    -0.000 C 
BRANCH  15  16
ATOM     16  C   UNL     1     -28.072 -33.906  14.757  1.00  0.00    -0.000 C 
BRANCH  16  17
ATOM     17  C   UNL     1     -26.741 -34.300  15.415  1.00  0.00    -0.003 C 
ATOM     18  C   UNL     1     -26.793 -35.673  16.083  1.00  0.00     0.004 C 
ENDBRANCH  16  17
ENDBRANCH  15  16
ENDBRANCH  14  15
ENDBRANCH  13  14
ENDBRANCH  12  13
ENDBRANCH  11  12
ENDBRANCH   1  11
TORSDOF 14
ENDMDL
MODEL 4
REMARK VINA RESULT:    -1.367     22.405     24.183
REMARK INTER + INTRA:          -5.156
REMARK INTER:                  -2.731
REMARK INTRA:                  -2.425
REMARK UNBOUND:                -2.670
REMARK SMILES CCCCCCCCCCCCCCCC(=O)[O-]
REMARK SMILES IDX 9 1 10 2 11 3 12 4 13 5 14 6 15 7 16 8 17 9 18 10 8 11 7 12
REMARK SMILES IDX 6 13 5 14 4 15 3 16 2 17 1 18
REMARK H PARENT
REMARK Flexibility Score: inf
ROOT
ATOM      1  C   UNL     1     -16.965 -26.163  29.603  1.00  0.00     0.000 C 
ENDROOT
BRANCH   1   2
ATOM      2  C   UNL     1     -17.933 -26.105  30.798  1.00  0.00     0.000 C 
BRANCH   2   3
ATOM      3  C   UNL     1     -19.053 -25.065  30.612  1.00  0.00     0.000 C 
BRANCH   3   4
ATOM      4  C   UNL     1     -18.853 -24.086  29.441  1.00  0.00     0.000 C 
BRANCH   4   5
ATOM      5  C   UNL     1     -19.994 -23.061  29.313  1.00  0.00     0.000 C 
BRANCH   5   6
ATOM      6  C   UNL     1     -19.705 -21.760  30.080  1.00  0.00     0.006 C 
BRANCH   6   7
ATOM      7  C   UNL     1     -20.661 -21.545  31.260  1.00  0.00     0.053 C 
BRANCH   7   8
ATOM      8  C   UNL     1     -21.682 -20.505  30.920  1.00  0.00     0.041 C 
ATOM      9  O   UNL     1     -21.665 -19.946  29.791  1.00  0.00    -0.550 OA
ATOM     10  O   UNL     1     -22.683 -20.189  31.829  1.00  0.00    -0.550 OA
ENDBRANCH   7   8
ENDBRANCH   6   7
ENDBRANCH   5   6
ENDBRANCH   4   5
ENDBRANCH   3   4
ENDBRANCH   2   3
ENDBRANCH   1   2
BRANCH   1  11
ATOM     11  C   UNL     1     -15.537 -25.739  29.982  1.00  0.00     0.000 C 
BRANCH  11  12
ATOM     12  C   UNL     1     -15.398 -25.408  31.477  1.00  0.00    -0.000 C 
BRANCH  12  13
ATOM     13  C   UNL     1     -14.995 -23.944  31.729  1.00  0.00    -0.000 C 
BRANCH  13  14
ATOM     14  C   UNL     1     -16.197 -22.994  31.913  1.00  0.00    -0.000 C 
BRANCH  14  15
ATOM     15  C   UNL     1     -16.200 -21.855  30.881  1.00  0.00    -0.000 C 
BRANCH  15  16
ATOM     16  C   UNL     1     -15.166 -22.114  29.775  1.00  0.00    -0.000 C 
BRANCH  16  17
ATOM     17  C   UNL     1     -15.815 -22.331  28.399  1.00  0.00    -0.003 C 
ATOM     18  C   UNL     1     -16.677 -21.149  27.958  1.00  0.00     0.004 C 
ENDBRANCH  16  17
ENDBRANCH  15  16
ENDBRANCH  14  15
ENDBRANCH  13  14
ENDBRANCH  12  13
ENDBRANCH  11  12
ENDBRANCH   1  11
TORSDOF 14
ENDMDL
MODEL 5
REMARK VINA RESULT:    -1.317     21.499     23.774
REMARK INTER + INTRA:          -5.064
REMARK INTER:                  -2.762
REMARK INTRA:                  -2.302
REMARK UNBOUND:                -2.670
REMARK SMILES CCCCCCCCCCCCCCCC(=O)[O-]
REMARK SMILES IDX 9 1 10 2 11 3 12 4 13 5 14 6 15 7 16 8 17 9 18 10 8 11 7 12
REMARK SMILES IDX 6 13 5 14 4 15 3 16 2 17 1 18
REMARK H PARENT
REMARK Flexibility Score: inf
ROOT
ATOM      1  C   UNL     1     -19.621 -23.013  27.811  1.00  0.00     0.000 C 
ENDROOT
BRANCH   1   2
ATOM      2  C   UNL     1     -19.140 -24.435  28.146  1.00  0.00     0.000 C 
BRANCH   2   3
ATOM      3  C   UNL     1     -19.986 -25.111  29.243  1.00  0.00     0.000 C 
BRANCH   3   4
ATOM      4  C   UNL     1     -20.922 -24.170  30.023  1.00  0.00     0.000 C 
BRANCH   4   5
ATOM      5  C   UNL     1     -20.362 -23.774  31.401  1.00  0.00     0.000 C 
BRANCH   5   6
ATOM      6  C   UNL     1     -21.252 -22.750  32.125  1.00  0.00     0.006 C 
BRANCH   6   7
ATOM      7  C   UNL     1     -20.655 -21.336  32.115  1.00  0.00     0.053 C 
BRANCH   7   8
ATOM      8  C   UNL     1     -21.457 -20.439  31.225  1.00  0.00     0.041 C 
ATOM      9  O   UNL     1     -21.226 -20.405  29.987  1.00  0.00    -0.550 OA
ATOM     10  O   UNL     1     -22.492 -19.679  31.754  1.00  0.00    -0.550 OA
ENDBRANCH   7   8
ENDBRANCH   6   7
ENDBRANCH   5   6
ENDBRANCH   4   5
ENDBRANCH   3   4
ENDBRANCH   2   3
ENDBRANCH   1   2
BRANCH   1  11
ATOM     11  C   UNL     1     -18.520 -21.958  28.014  1.00  0.00     0.000 C 
BRANCH  11  12
ATOM     12  C   UNL     1     -17.486 -22.381  29.069  1.00  0.00    -0.000 C 
BRANCH  12  13
ATOM     13  C   UNL     1     -17.462 -21.446  30.291  1.00  0.00    -0.000 C 
BRANCH  13  14
ATOM     14  C   UNL     1     -16.529 -21.928  31.421  1.00  0.00    -0.000 C 
BRANCH  14  15
ATOM     15  C   UNL     1     -16.746 -23.410  31.762  1.00  0.00    -0.000 C 
BRANCH  15  16
ATOM     16  C   UNL     1     -15.404 -24.127  31.975  1.00  0.00    -0.000 C 
BRANCH  16  17
ATOM     17  C   UNL     1     -15.141 -25.213  30.921  1.00  0.00    -0.003 C 
ATOM     18  C   UNL     1     -16.428 -25.812  30.352  1.00  0.00     0.004 C 
ENDBRANCH  16  17
ENDBRANCH  15  16
ENDBRANCH  14  15
ENDBRANCH  13  14
ENDBRANCH  12  13
ENDBRANCH  11  12
ENDBRANCH   1  11
TORSDOF 14
ENDMDL
MODEL 6
REMARK VINA RESULT:    -1.281      3.160      5.415
REMARK INTER + INTRA:          -4.999
REMARK INTER:                  -2.767
REMARK INTRA:                  -2.232
REMARK UNBOUND:                -2.670
REMARK SMILES CCCCCCCCCCCCCCCC(=O)[O-]
REMARK SMILES IDX 9 1 10 2 11 3 12 4 13 5 14 6 15 7 16 8 17 9 18 10 8 11 7 12
REMARK SMILES IDX 6 13 5 14 4 15 3 16 2 17 1 18
REMARK H PARENT
REMARK Flexibility Score: inf
ROOT
ATOM      1  C   UNL     1     -31.141 -33.319  15.595  1.00  0.00     0.000 C 
ENDROOT
BRANCH   1   2
ATOM      2  C   UNL     1     -32.300 -33.993  16.350  1.00  0.00     0.000 C 
BRANCH   2   3
ATOM      3  C   UNL     1     -32.088 -35.506  16.548  1.00  0.00     0.000 C 
BRANCH   3   4
ATOM      4  C   UNL     1     -31.357 -35.902  17.843  1.00  0.00     0.000 C 
BRANCH   4   5
ATOM      5  C   UNL     1     -32.187 -35.626  19.110  1.00  0.00     0.000 C 
BRANCH   5   6
ATOM      6  C   UNL     1     -31.409 -34.813  20.157  1.00  0.00     0.006 C 
BRANCH   6   7
ATOM      7  C   UNL     1     -31.518 -33.299  19.932  1.00  0.00     0.053 C 
BRANCH   7   8
ATOM      8  C   UNL     1     -30.158 -32.701  19.752  1.00  0.00     0.041 C 
ATOM      9  O   UNL     1     -29.794 -32.281  18.622  1.00  0.00    -0.550 OA
ATOM     10  O   UNL     1     -29.311 -32.559  20.844  1.00  0.00    -0.550 OA
ENDBRANCH   7   8
ENDBRANCH   6   7
ENDBRANCH   5   6
ENDBRANCH   4   5
ENDBRANCH   3   4
ENDBRANCH   2   3
ENDBRANCH   1   2
BRANCH   1  11
ATOM     11  C   UNL     1     -30.452 -34.272  14.605  1.00  0.00     0.000 C 
BRANCH  11  12
ATOM     12  C   UNL     1     -30.518 -33.765  13.156  1.00  0.00    -0.000 C 
BRANCH  12  13
ATOM     13  C   UNL     1     -31.032 -34.831  12.172  1.00  0.00    -0.000 C 
BRANCH  13  14
ATOM     14  C   UNL     1     -31.767 -36.002  12.857  1.00  0.00    -0.000 C 
BRANCH  14  15
ATOM     15  C   UNL     1     -33.258 -36.048  12.488  1.00  0.00    -0.000 C 
BRANCH  15  16
ATOM     16  C   UNL     1     -34.084 -35.156  13.428  1.00  0.00    -0.000 C 
BRANCH  16  17
ATOM     17  C   UNL     1     -34.652 -33.917  12.719  1.00  0.00    -0.003 C 
ATOM     18  C   UNL     1     -34.007 -32.615  13.194  1.00  0.00     0.004 C 
ENDBRANCH  16  17
ENDBRANCH  15  16
ENDBRANCH  14  15
ENDBRANCH  13  14
ENDBRANCH  12  13
ENDBRANCH  11  12
ENDBRANCH   1  11
TORSDOF 14
ENDMDL
MODEL 7
REMARK VINA RESULT:    -1.272      3.462      5.976
REMARK INTER + INTRA:          -4.983
REMARK INTER:                  -3.060
REMARK INTRA:                  -1.923
REMARK UNBOUND:                -2.670
REMARK SMILES CCCCCCCCCCCCCCCC(=O)[O-]
REMARK SMILES IDX 9 1 10 2 11 3 12 4 13 5 14 6 15 7 16 8 17 9 18 10 8 11 7 12
REMARK SMILES IDX 6 13 5 14 4 15 3 16 2 17 1 18
REMARK H PARENT
REMARK Flexibility Score: inf
ROOT
ATOM      1  C   UNL     1     -33.555 -33.173  14.383  1.00  0.00     0.000 C 
ENDROOT
BRANCH   1   2
ATOM      2  C   UNL     1     -33.693 -34.603  14.932  1.00  0.00     0.000 C 
BRANCH   2   3
ATOM      3  C   UNL     1     -34.029 -35.635  13.838  1.00  0.00     0.000 C 
BRANCH   3   4
ATOM      4  C   UNL     1     -33.261 -35.462  12.515  1.00  0.00     0.000 C 
BRANCH   4   5
ATOM      5  C   UNL     1     -31.775 -35.844  12.629  1.00  0.00     0.000 C 
BRANCH   5   6
ATOM      6  C   UNL     1     -30.839 -34.654  12.356  1.00  0.00     0.006 C 
BRANCH   6   7
ATOM      7  C   UNL     1     -30.034 -34.239  13.594  1.00  0.00     0.053 C 
BRANCH   7   8
ATOM      8  C   UNL     1     -28.845 -33.424  13.192  1.00  0.00     0.041 C 
ATOM      9  O   UNL     1     -28.213 -32.757  14.054  1.00  0.00    -0.550 OA
ATOM     10  O   UNL     1     -28.403 -33.442  11.875  1.00  0.00    -0.550 OA
ENDBRANCH   7   8
ENDBRANCH   6   7
ENDBRANCH   5   6
ENDBRANCH   4   5
ENDBRANCH   3   4
ENDBRANCH   2   3
ENDBRANCH   1   2
BRANCH   1  11
ATOM     11  C   UNL     1     -34.913 -32.544  14.031  1.00  0.00     0.000 C 
BRANCH  11  12
ATOM     12  C   UNL     1     -35.038 -32.210  12.536  1.00  0.00    -0.000 C 
BRANCH  12  13
ATOM     13  C   UNL     1     -33.686 -31.862  11.888  1.00  0.00    -0.000 C 
BRANCH  13  14
ATOM     14  C   UNL     1     -33.301 -30.374  12.019  1.00  0.00    -0.000 C 
BRANCH  14  15
ATOM     15  C   UNL     1     -34.516 -29.445  11.876  1.00  0.00    -0.000 C 
BRANCH  15  16
ATOM     16  C   UNL     1     -34.506 -28.357  12.961  1.00  0.00    -0.000 C 
BRANCH  16  17
ATOM     17  C   UNL     1     -34.382 -28.938  14.378  1.00  0.00    -0.003 C 
ATOM     18  C   UNL     1     -33.175 -28.391  15.139  1.00  0.00     0.004 C 
ENDBRANCH  16  17
ENDBRANCH  15  16
ENDBRANCH  14  15
ENDBRANCH  13  14
ENDBRANCH  12  13
ENDBRANCH  11  12
ENDBRANCH   1  11
TORSDOF 14
ENDMDL
