MODEL 1
REMARK VINA RESULT:    -5.613      0.000      0.000
REMARK INTER + INTRA:         -12.088
REMARK INTER:                 -10.535
REMARK INTRA:                  -1.553
REMARK UNBOUND:                -1.553
REMARK SMILES CCCCCCCCC=CCCCCCCCC(=O)[O-]
REMARK SMILES IDX 10 1 9 2 11 3 12 4 13 5 14 6 15 7 16 8 17 9 18 10 19 11
REMARK SMILES IDX 20 12 8 13 7 14 6 15 5 16 4 17 3 18 2 19 1 20
REMARK H PARENT
REMARK Flexibility Score: inf
ROOT
ATOM      1  C   UNL     1       5.352  -9.993 -16.923  1.00  0.00    -0.031 C 
ATOM      2  C   UNL     1       6.070 -10.769 -17.755  1.00  0.00    -0.031 C 
ENDROOT
BRANCH   1   3
ATOM      3  C   UNL     1       3.905  -9.618 -17.145  1.00  0.00     0.027 C 
BRANCH   3   4
ATOM      4  C   UNL     1       3.229  -9.165 -15.843  1.00  0.00     0.004 C 
BRANCH   4   5
ATOM      5  C   UNL     1       3.813  -9.880 -14.611  1.00  0.00     0.000 C 
BRANCH   5   6
ATOM      6  C   UNL     1       3.089 -11.195 -14.285  1.00  0.00     0.000 C 
BRANCH   6   7
ATOM      7  C   UNL     1       3.984 -12.431 -14.468  1.00  0.00     0.000 C 
BRANCH   7   8
ATOM      8  C   UNL     1       3.811 -13.033 -15.869  1.00  0.00     0.006 C 
BRANCH   8   9
ATOM      9  C   UNL     1       2.402 -13.609 -16.052  1.00  0.00     0.053 C 
BRANCH   9  10
ATOM     10  C   UNL     1       2.075 -13.776 -17.505  1.00  0.00     0.041 C 
ATOM     11  O   UNL     1       2.455 -12.913 -18.343  1.00  0.00    -0.550 OA
ATOM     12  O   UNL     1       1.300 -14.848 -17.930  1.00  0.00    -0.550 OA
ENDBRANCH   9  10
ENDBRANCH   8   9
ENDBRANCH   7   8
ENDBRANCH   6   7
ENDBRANCH   5   6
ENDBRANCH   4   5
ENDBRANCH   3   4
ENDBRANCH   1   3
BRANCH   2  13
ATOM     13  C   UNL     1       5.494 -11.422 -18.989  1.00  0.00     0.027 C 
BRANCH  13  14
ATOM     14  C   UNL     1       5.856 -10.635 -20.254  1.00  0.00     0.004 C 
BRANCH  14  15
ATOM     15  C   UNL     1       4.674  -9.781 -20.727  1.00  0.00     0.000 C 
BRANCH  15  16
ATOM     16  C   UNL     1       5.040  -8.980 -21.987  1.00  0.00     0.000 C 
BRANCH  16  17
ATOM     17  C   UNL     1       4.320  -7.623 -22.066  1.00  0.00    -0.000 C 
BRANCH  17  18
ATOM     18  C   UNL     1       5.150  -6.472 -22.670  1.00  0.00    -0.000 C 
BRANCH  18  19
ATOM     19  C   UNL     1       6.670  -6.697 -22.669  1.00  0.00    -0.003 C 
ATOM     20  C   UNL     1       7.199  -7.190 -24.013  1.00  0.00     0.004 C 
ENDBRANCH  18  19
ENDBRANCH  17  18
ENDBRANCH  16  17
ENDBRANCH  15  16
ENDBRANCH  14  15
ENDBRANCH  13  14
ENDBRANCH   2  13
TORSDOF 15
ENDMDL
MODEL 2
REMARK VINA RESULT:    -5.409      1.819      3.263
REMARK INTER + INTRA:         -11.706
REMARK INTER:                 -10.156
REMARK INTRA:                  -1.550
REMARK UNBOUND:                -1.553
REMARK SMILES CCCCCCCCC=CCCCCCCCC(=O)[O-]
REMARK SMILES IDX 10 1 9 2 11 3 12 4 13 5 14 6 15 7 16 8 17 9 18 10 19 11
REMARK SMILES IDX 20 12 8 13 7 14 6 15 5 16 4 17 3 18 2 19 1 20
REMARK H PARENT
REMARK Flexibility Score: inf
ROOT
ATOM      1  C   UNL     1       4.744 -10.365 -20.255  1.00  0.00    -0.031 C 
ATOM      2  C   UNL     1       5.813  -9.919 -20.940  1.00  0.00    -0.031 C 
ENDROOT
BRANCH   1   3
ATOM      3  C   UNL     1       4.812 -11.381 -19.139  1.00  0.00     0.027 C 
BRANCH   3   4
ATOM      4  C   UNL     1       3.556 -11.340 -18.256  1.00  0.00     0.004 C 
BRANCH   4   5
ATOM      5  C   UNL     1       2.933  -9.933 -18.204  1.00  0.00     0.000 C 
BRANCH   5   6
ATOM      6  C   UNL     1       3.104  -9.254 -16.837  1.00  0.00     0.000 C 
BRANCH   6   7
ATOM      7  C   UNL     1       4.446  -9.589 -16.168  1.00  0.00     0.000 C 
BRANCH   7   8
ATOM      8  C   UNL     1       4.230 -10.217 -14.785  1.00  0.00     0.006 C 
BRANCH   8   9
ATOM      9  C   UNL     1       4.308 -11.746 -14.855  1.00  0.00     0.053 C 
BRANCH   9  10
ATOM     10  C   UNL     1       2.961 -12.364 -14.637  1.00  0.00     0.041 C 
ATOM     11  O   UNL     1       2.621 -13.388 -15.289  1.00  0.00    -0.550 OA
ATOM     12  O   UNL     1       2.056 -11.780 -13.759  1.00  0.00    -0.550 OA
ENDBRANCH   9  10
ENDBRANCH   8   9
ENDBRANCH   7   8
ENDBRANCH   6   7
ENDBRANCH   5   6
ENDBRANCH   4   5
ENDBRANCH   3   4
ENDBRANCH   1   3
BRANCH   2  13
ATOM     13  C   UNL     1       7.232 -10.330 -20.630  1.00  0.00     0.027 C 
BRANCH  13  14
ATOM     14  C   UNL     1       8.234  -9.579 -21.514  1.00  0.00     0.004 C 
BRANCH  14  15
ATOM     15  C   UNL     1       7.747  -8.155 -21.810  1.00  0.00     0.000 C 
BRANCH  15  16
ATOM     16  C   UNL     1       7.729  -7.880 -23.322  1.00  0.00     0.000 C 
BRANCH  16  17
ATOM     17  C   UNL     1       6.474  -7.116 -23.778  1.00  0.00    -0.000 C 
BRANCH  17  18
ATOM     18  C   UNL     1       5.646  -6.476 -22.645  1.00  0.00    -0.000 C 
BRANCH  18  19
ATOM     19  C   UNL     1       4.223  -7.033 -22.487  1.00  0.00    -0.003 C 
ATOM     20  C   UNL     1       3.170  -6.185 -23.197  1.00  0.00     0.004 C 
ENDBRANCH  18  19
ENDBRANCH  17  18
ENDBRANCH  16  17
ENDBRANCH  15  16
ENDBRANCH  14  15
ENDBRANCH  13  14
ENDBRANCH   2  13
TORSDOF 15
ENDMDL
MODEL 3
REMARK VINA RESULT:    -5.392      3.216      8.010
REMARK INTER + INTRA:         -11.674
REMARK INTER:                 -10.176
REMARK INTRA:                  -1.498
REMARK UNBOUND:                -1.553
REMARK SMILES CCCCCCCCC=CCCCCCCCC(=O)[O-]
REMARK SMILES IDX 10 1 9 2 11 3 12 4 13 5 14 6 15 7 16 8 17 9 18 10 19 11
REMARK SMILES IDX 20 12 8 13 7 14 6 15 5 16 4 17 3 18 2 19 1 20
REMARK H PARENT
REMARK Flexibility Score: inf
ROOT
ATOM      1  C   UNL     1       6.114 -10.955 -18.069  1.00  0.00    -0.031 C 
ATOM      2  C   UNL     1       5.422 -10.248 -17.157  1.00  0.00    -0.031 C 
ENDROOT
BRANCH   1   3
ATOM      3  C   UNL     1       5.548 -11.430 -19.387  1.00  0.00     0.027 C 
BRANCH   3   4
ATOM      4  C   UNL     1       5.781 -10.406 -20.508  1.00  0.00     0.004 C 
BRANCH   4   5
ATOM      5  C   UNL     1       4.521  -9.570 -20.796  1.00  0.00     0.000 C 
BRANCH   5   6
ATOM      6  C   UNL     1       4.633  -8.745 -22.087  1.00  0.00     0.000 C 
BRANCH   6   7
ATOM      7  C   UNL     1       3.866  -7.416 -22.016  1.00  0.00     0.000 C 
BRANCH   7   8
ATOM      8  C   UNL     1       4.734  -6.253 -22.513  1.00  0.00     0.006 C 
BRANCH   8   9
ATOM      9  C   UNL     1       5.549  -6.660 -23.745  1.00  0.00     0.053 C 
BRANCH   9  10
ATOM     10  C   UNL     1       6.996  -6.838 -23.398  1.00  0.00     0.041 C 
ATOM     11  O   UNL     1       7.397  -6.616 -22.223  1.00  0.00    -0.550 OA
ATOM     12  O   UNL     1       7.914  -7.192 -24.380  1.00  0.00    -0.550 OA
ENDBRANCH   9  10
ENDBRANCH   8   9
ENDBRANCH   7   8
ENDBRANCH   6   7
ENDBRANCH   5   6
ENDBRANCH   4   5
ENDBRANCH   3   4
ENDBRANCH   1   3
BRANCH   2  13
ATOM     13  C   UNL     1       4.002  -9.780 -17.370  1.00  0.00     0.027 C 
BRANCH  13  14
ATOM     14  C   UNL     1       3.374  -9.298 -16.057  1.00  0.00     0.004 C 
BRANCH  14  15
ATOM     15  C   UNL     1       4.078  -9.926 -14.848  1.00  0.00     0.000 C 
BRANCH  15  16
ATOM     16  C   UNL     1       3.153 -10.918 -14.125  1.00  0.00     0.000 C 
BRANCH  16  17
ATOM     17  C   UNL     1       3.652 -12.371 -14.206  1.00  0.00    -0.000 C 
BRANCH  17  18
ATOM     18  C   UNL     1       3.896 -12.904 -15.633  1.00  0.00    -0.000 C 
BRANCH  18  19
ATOM     19  C   UNL     1       2.645 -13.434 -16.351  1.00  0.00    -0.003 C 
ATOM     20  C   UNL     1       2.616 -13.078 -17.835  1.00  0.00     0.004 C 
ENDBRANCH  18  19
ENDBRANCH  17  18
ENDBRANCH  16  17
ENDBRANCH  15  16
ENDBRANCH  14  15
ENDBRANCH  13  14
ENDBRANCH   2  13
TORSDOF 15
ENDMDL
MODEL 4
REMARK VINA RESULT:    -5.378      1.456      2.365
REMARK INTER + INTRA:         -11.647
REMARK INTER:                  -9.434
REMARK INTRA:                  -2.212
REMARK UNBOUND:                -1.553
REMARK SMILES CCCCCCCCC=CCCCCCCCC(=O)[O-]
REMARK SMILES IDX 10 1 9 2 11 3 12 4 13 5 14 6 15 7 16 8 17 9 18 10 19 11
REMARK SMILES IDX 20 12 8 13 7 14 6 15 5 16 4 17 3 18 2 19 1 20
REMARK H PARENT
REMARK Flexibility Score: inf
ROOT
ATOM      1  C   UNL     1       5.244 -11.096 -18.187  1.00  0.00    -0.031 C 
ATOM      2  C   UNL     1       6.347 -10.767 -18.883  1.00  0.00    -0.031 C 
ENDROOT
BRANCH   1   3
ATOM      3  C   UNL     1       3.968 -11.613 -18.809  1.00  0.00     0.027 C 
BRANCH   3   4
ATOM      4  C   UNL     1       2.757 -10.749 -18.426  1.00  0.00     0.004 C 
BRANCH   4   5
ATOM      5  C   UNL     1       3.180  -9.379 -17.866  1.00  0.00     0.000 C 
BRANCH   5   6
ATOM      6  C   UNL     1       2.709  -9.153 -16.422  1.00  0.00     0.000 C 
BRANCH   6   7
ATOM      7  C   UNL     1       3.872  -8.923 -15.443  1.00  0.00     0.000 C 
BRANCH   7   8
ATOM      8  C   UNL     1       4.327 -10.243 -14.809  1.00  0.00     0.006 C 
BRANCH   8   9
ATOM      9  C   UNL     1       3.133 -11.163 -14.533  1.00  0.00     0.053 C 
BRANCH   9  10
ATOM     10  C   UNL     1       3.365 -12.531 -15.099  1.00  0.00     0.041 C 
ATOM     11  O   UNL     1       4.533 -12.903 -15.395  1.00  0.00    -0.550 OA
ATOM     12  O   UNL     1       2.292 -13.375 -15.357  1.00  0.00    -0.550 OA
ENDBRANCH   9  10
ENDBRANCH   8   9
ENDBRANCH   7   8
ENDBRANCH   6   7
ENDBRANCH   5   6
ENDBRANCH   4   5
ENDBRANCH   3   4
ENDBRANCH   1   3
BRANCH   2  13
ATOM     13  C   UNL     1       6.471 -10.940 -20.377  1.00  0.00     0.027 C 
BRANCH  13  14
ATOM     14  C   UNL     1       6.153  -9.635 -21.116  1.00  0.00     0.004 C 
BRANCH  14  15
ATOM     15  C   UNL     1       4.674  -9.579 -21.520  1.00  0.00     0.000 C 
BRANCH  15  16
ATOM     16  C   UNL     1       4.148  -8.135 -21.493  1.00  0.00     0.000 C 
BRANCH  16  17
ATOM     17  C   UNL     1       4.495  -7.346 -22.767  1.00  0.00    -0.000 C 
BRANCH  17  18
ATOM     18  C   UNL     1       5.489  -6.183 -22.570  1.00  0.00    -0.000 C 
BRANCH  18  19
ATOM     19  C   UNL     1       6.967  -6.551 -22.770  1.00  0.00    -0.003 C 
ATOM     20  C   UNL     1       7.217  -7.330 -24.058  1.00  0.00     0.004 C 
ENDBRANCH  18  19
ENDBRANCH  17  18
ENDBRANCH  16  17
ENDBRANCH  15  16
ENDBRANCH  14  15
ENDBRANCH  13  14
ENDBRANCH   2  13
TORSDOF 15
ENDMDL
MODEL 5
REMARK VINA RESULT:    -5.270      1.357      2.063
REMARK INTER + INTRA:         -11.444
REMARK INTER:                  -9.794
REMARK INTRA:                  -1.650
REMARK UNBOUND:                -1.553
REMARK SMILES CCCCCCCCC=CCCCCCCCC(=O)[O-]
REMARK SMILES IDX 10 1 9 2 11 3 12 4 13 5 14 6 15 7 16 8 17 9 18 10 19 11
REMARK SMILES IDX 20 12 8 13 7 14 6 15 5 16 4 17 3 18 2 19 1 20
REMARK H PARENT
REMARK Flexibility Score: inf
ROOT
ATOM      1  C   UNL     1       3.146 -10.753 -18.747  1.00  0.00    -0.031 C 
ATOM      2  C   UNL     1       4.260 -11.491 -18.898  1.00  0.00    -0.031 C 
ENDROOT
BRANCH   1   3
ATOM      3  C   UNL     1       3.124  -9.349 -18.189  1.00  0.00     0.027 C 
BRANCH   3   4
ATOM      4  C   UNL     1       2.618  -9.321 -16.739  1.00  0.00     0.004 C 
BRANCH   4   5
ATOM      5  C   UNL     1       3.684  -8.784 -15.767  1.00  0.00     0.000 C 
BRANCH   5   6
ATOM      6  C   UNL     1       4.568  -9.893 -15.177  1.00  0.00     0.000 C 
BRANCH   6   7
ATOM      7  C   UNL     1       3.837 -10.746 -14.129  1.00  0.00     0.000 C 
BRANCH   7   8
ATOM      8  C   UNL     1       4.239 -12.222 -14.243  1.00  0.00     0.006 C 
BRANCH   8   9
ATOM      9  C   UNL     1       4.071 -12.730 -15.679  1.00  0.00     0.053 C 
BRANCH   9  10
ATOM     10  C   UNL     1       2.701 -13.298 -15.892  1.00  0.00     0.041 C 
ATOM     11  O   UNL     1       1.907 -13.419 -14.920  1.00  0.00    -0.550 OA
ATOM     12  O   UNL     1       2.317 -13.749 -17.149  1.00  0.00    -0.550 OA
ENDBRANCH   9  10
ENDBRANCH   8   9
ENDBRANCH   7   8
ENDBRANCH   6   7
ENDBRANCH   5   6
ENDBRANCH   4   5
ENDBRANCH   3   4
ENDBRANCH   1   3
BRANCH   2  13
ATOM     13  C   UNL     1       5.647 -10.978 -18.589  1.00  0.00     0.027 C 
BRANCH  13  14
ATOM     14  C   UNL     1       6.428 -10.684 -19.875  1.00  0.00     0.004 C 
BRANCH  14  15
ATOM     15  C   UNL     1       5.478 -10.363 -21.035  1.00  0.00     0.000 C 
BRANCH  15  16
ATOM     16  C   UNL     1       5.885  -9.058 -21.738  1.00  0.00     0.000 C 
BRANCH  16  17
ATOM     17  C   UNL     1       4.681  -8.176 -22.110  1.00  0.00    -0.000 C 
BRANCH  17  18
ATOM     18  C   UNL     1       5.020  -6.713 -22.458  1.00  0.00    -0.000 C 
BRANCH  18  19
ATOM     19  C   UNL     1       3.819  -5.755 -22.481  1.00  0.00    -0.003 C 
ATOM     20  C   UNL     1       2.873  -6.016 -23.650  1.00  0.00     0.004 C 
ENDBRANCH  18  19
ENDBRANCH  17  18
ENDBRANCH  16  17
ENDBRANCH  15  16
ENDBRANCH  14  15
ENDBRANCH  13  14
ENDBRANCH   2  13
TORSDOF 15
ENDMDL
MODEL 6
REMARK VINA RESULT:    -5.223      3.100      7.866
REMARK INTER + INTRA:         -11.357
REMARK INTER:                  -9.703
REMARK INTRA:                  -1.654
REMARK UNBOUND:                -1.553
REMARK SMILES CCCCCCCCC=CCCCCCCCC(=O)[O-]
REMARK SMILES IDX 10 1 9 2 11 3 12 4 13 5 14 6 15 7 16 8 17 9 18 10 19 11
REMARK SMILES IDX 20 12 8 13 7 14 6 15 5 16 4 17 3 18 2 19 1 20
REMARK H PARENT
REMARK Flexibility Score: inf
ROOT
ATOM      1  C   UNL     1       6.546 -10.769 -19.060  1.00  0.00    -0.031 C 
ATOM      2  C   UNL     1       5.376 -11.140 -18.510  1.00  0.00    -0.031 C 
ENDROOT
BRANCH   1   3
ATOM      3  C   UNL     1       6.727 -10.409 -20.516  1.00  0.00     0.027 C 
BRANCH   3   4
ATOM      4  C   UNL     1       8.203 -10.160 -20.861  1.00  0.00     0.004 C 
BRANCH   4   5
ATOM      5  C   UNL     1       8.375  -8.991 -21.848  1.00  0.00     0.000 C 
BRANCH   5   6
ATOM      6  C   UNL     1       7.062  -8.243 -22.123  1.00  0.00     0.000 C 
BRANCH   6   7
ATOM      7  C   UNL     1       7.195  -7.191 -23.236  1.00  0.00     0.000 C 
BRANCH   7   8
ATOM      8  C   UNL     1       5.817  -6.750 -23.744  1.00  0.00     0.006 C 
BRANCH   8   9
ATOM      9  C   UNL     1       4.776  -6.786 -22.619  1.00  0.00     0.053 C 
BRANCH   9  10
ATOM     10  C   UNL     1       3.477  -6.191 -23.069  1.00  0.00     0.041 C 
ATOM     11  O   UNL     1       2.561  -5.965 -22.232  1.00  0.00    -0.550 OA
ATOM     12  O   UNL     1       3.250  -5.941 -24.417  1.00  0.00    -0.550 OA
ENDBRANCH   9  10
ENDBRANCH   8   9
ENDBRANCH   7   8
ENDBRANCH   6   7
ENDBRANCH   5   6
ENDBRANCH   4   5
ENDBRANCH   3   4
ENDBRANCH   1   3
BRANCH   2  13
ATOM     13  C   UNL     1       4.073 -11.176 -19.273  1.00  0.00     0.027 C 
BRANCH  13  14
ATOM     14  C   UNL     1       2.902 -10.726 -18.392  1.00  0.00     0.004 C 
BRANCH  14  15
ATOM     15  C   UNL     1       3.085  -9.274 -17.932  1.00  0.00     0.000 C 
BRANCH  15  16
ATOM     16  C   UNL     1       2.885  -9.146 -16.413  1.00  0.00     0.000 C 
BRANCH  16  17
ATOM     17  C   UNL     1       4.137  -9.537 -15.608  1.00  0.00    -0.000 C 
BRANCH  17  18
ATOM     18  C   UNL     1       3.934 -10.675 -14.588  1.00  0.00    -0.000 C 
BRANCH  18  19
ATOM     19  C   UNL     1       4.323 -12.074 -15.089  1.00  0.00    -0.003 C 
ATOM     20  C   UNL     1       3.118 -12.917 -15.496  1.00  0.00     0.004 C 
ENDBRANCH  18  19
ENDBRANCH  17  18
ENDBRANCH  16  17
ENDBRANCH  15  16
ENDBRANCH  14  15
ENDBRANCH  13  14
ENDBRANCH   2  13
TORSDOF 15
ENDMDL
MODEL 7
REMARK VINA RESULT:    -5.114      3.102      7.864
REMARK INTER + INTRA:         -11.152
REMARK INTER:                  -9.455
REMARK INTRA:                  -1.696
REMARK UNBOUND:                -1.553
REMARK SMILES CCCCCCCCC=CCCCCCCCC(=O)[O-]
REMARK SMILES IDX 10 1 9 2 11 3 12 4 13 5 14 6 15 7 16 8 17 9 18 10 19 11
REMARK SMILES IDX 20 12 8 13 7 14 6 15 5 16 4 17 3 18 2 19 1 20
REMARK H PARENT
REMARK Flexibility Score: inf
ROOT
ATOM      1  C   UNL     1       4.393 -11.494 -18.946  1.00  0.00    -0.031 C 
ATOM      2  C   UNL     1       3.269 -10.789 -18.729  1.00  0.00    -0.031 C 
ENDROOT
BRANCH   1   3
ATOM      3  C   UNL     1       5.790 -10.939 -18.790  1.00  0.00     0.027 C 
BRANCH   3   4
ATOM      4  C   UNL     1       6.329 -10.376 -20.113  1.00  0.00     0.004 C 
BRANCH   4   5
ATOM      5  C   UNL     1       5.241 -10.319 -21.201  1.00  0.00     0.000 C 
BRANCH   5   6
ATOM      6  C   UNL     1       5.000  -8.897 -21.731  1.00  0.00     0.000 C 
BRANCH   6   7
ATOM      7  C   UNL     1       6.290  -8.209 -22.205  1.00  0.00     0.000 C 
BRANCH   7   8
ATOM      8  C   UNL     1       5.998  -6.803 -22.742  1.00  0.00     0.006 C 
BRANCH   8   9
ATOM      9  C   UNL     1       4.611  -6.321 -22.304  1.00  0.00     0.053 C 
BRANCH   9  10
ATOM     10  C   UNL     1       3.690  -6.191 -23.479  1.00  0.00     0.041 C 
ATOM     11  O   UNL     1       2.442  -6.270 -23.316  1.00  0.00    -0.550 OA
ATOM     12  O   UNL     1       4.206  -6.043 -24.760  1.00  0.00    -0.550 OA
ENDBRANCH   9  10
ENDBRANCH   8   9
ENDBRANCH   7   8
ENDBRANCH   6   7
ENDBRANCH   5   6
ENDBRANCH   4   5
ENDBRANCH   3   4
ENDBRANCH   1   3
BRANCH   2  13
ATOM     13  C   UNL     1       3.263  -9.363 -18.232  1.00  0.00     0.027 C 
BRANCH  13  14
ATOM     14  C   UNL     1       2.545  -9.248 -16.883  1.00  0.00     0.004 C 
BRANCH  14  15
ATOM     15  C   UNL     1       3.498  -8.740 -15.794  1.00  0.00     0.000 C 
BRANCH  15  16
ATOM     16  C   UNL     1       4.488  -9.835 -15.370  1.00  0.00     0.000 C 
BRANCH  16  17
ATOM     17  C   UNL     1       3.940 -10.741 -14.254  1.00  0.00    -0.000 C 
BRANCH  17  18
ATOM     18  C   UNL     1       4.301 -12.235 -14.383  1.00  0.00    -0.000 C 
BRANCH  18  19
ATOM     19  C   UNL     1       3.854 -12.900 -15.694  1.00  0.00    -0.003 C 
ATOM     20  C   UNL     1       2.403 -13.371 -15.658  1.00  0.00     0.004 C 
ENDBRANCH  18  19
ENDBRANCH  17  18
ENDBRANCH  16  17
ENDBRANCH  15  16
ENDBRANCH  14  15
ENDBRANCH  13  14
ENDBRANCH   2  13
TORSDOF 15
ENDMDL
MODEL 8
REMARK VINA RESULT:    -4.898      1.350      2.429
REMARK INTER + INTRA:         -10.746
REMARK INTER:                  -9.271
REMARK INTRA:                  -1.475
REMARK UNBOUND:                -1.553
REMARK SMILES CCCCCCCCC=CCCCCCCCC(=O)[O-]
REMARK SMILES IDX 10 1 9 2 11 3 12 4 13 5 14 6 15 7 16 8 17 9 18 10 19 11
REMARK SMILES IDX 20 12 8 13 7 14 6 15 5 16 4 17 3 18 2 19 1 20
REMARK H PARENT
REMARK Flexibility Score: inf
ROOT
ATOM      1  C   UNL     1       3.460  -9.368 -16.206  1.00  0.00    -0.031 C 
ATOM      2  C   UNL     1       4.140  -9.622 -17.339  1.00  0.00    -0.031 C 
ENDROOT
BRANCH   1   3
ATOM      3  C   UNL     1       3.844  -9.902 -14.846  1.00  0.00     0.027 C 
BRANCH   3   4
ATOM      4  C   UNL     1       3.011 -11.134 -14.463  1.00  0.00     0.004 C 
BRANCH   4   5
ATOM      5  C   UNL     1       3.746 -12.449 -14.782  1.00  0.00     0.000 C 
BRANCH   5   6
ATOM      6  C   UNL     1       2.943 -13.372 -15.710  1.00  0.00     0.000 C 
BRANCH   6   7
ATOM      7  C   UNL     1       2.844 -12.836 -17.147  1.00  0.00     0.000 C 
BRANCH   7   8
ATOM      8  C   UNL     1       2.052 -13.798 -18.040  1.00  0.00     0.006 C 
BRANCH   8   9
ATOM      9  C   UNL     1       1.254 -14.801 -17.200  1.00  0.00     0.053 C 
BRANCH   9  10
ATOM     10  C   UNL     1       0.376 -15.651 -18.067  1.00  0.00     0.041 C 
ATOM     11  O   UNL     1       0.800 -16.752 -18.511  1.00  0.00    -0.550 OA
ATOM     12  O   UNL     1      -0.888 -15.205 -18.435  1.00  0.00    -0.550 OA
ENDBRANCH   9  10
ENDBRANCH   8   9
ENDBRANCH   7   8
ENDBRANCH   6   7
ENDBRANCH   5   6
ENDBRANCH   4   5
ENDBRANCH   3   4
ENDBRANCH   1   3
BRANCH   2  13
ATOM     13  C   UNL     1       5.420 -10.422 -17.381  1.00  0.00     0.027 C 
BRANCH  13  14
ATOM     14  C   UNL     1       5.688 -10.966 -18.789  1.00  0.00     0.004 C 
BRANCH  14  15
ATOM     15  C   UNL     1       4.656 -10.433 -19.791  1.00  0.00     0.000 C 
BRANCH  15  16
ATOM     16  C   UNL     1       5.336  -9.956 -21.084  1.00  0.00     0.000 C 
BRANCH  16  17
ATOM     17  C   UNL     1       4.614  -8.765 -21.738  1.00  0.00    -0.000 C 
BRANCH  17  18
ATOM     18  C   UNL     1       5.535  -7.720 -22.399  1.00  0.00    -0.000 C 
BRANCH  18  19
ATOM     19  C   UNL     1       4.806  -6.582 -23.129  1.00  0.00    -0.003 C 
ATOM     20  C   UNL     1       3.494  -6.187 -22.456  1.00  0.00     0.004 C 
ENDBRANCH  18  19
ENDBRANCH  17  18
ENDBRANCH  16  17
ENDBRANCH  15  16
ENDBRANCH  14  15
ENDBRANCH  13  14
ENDBRANCH   2  13
TORSDOF 15
ENDMDL
MODEL 9
REMARK VINA RESULT:    -4.793      2.995      7.603
REMARK INTER + INTRA:         -10.549
REMARK INTER:                  -8.804
REMARK INTRA:                  -1.745
REMARK UNBOUND:                -1.553
REMARK SMILES CCCCCCCCC=CCCCCCCCC(=O)[O-]
REMARK SMILES IDX 10 1 9 2 11 3 12 4 13 5 14 6 15 7 16 8 17 9 18 10 19 11
REMARK SMILES IDX 20 12 8 13 7 14 6 15 5 16 4 17 3 18 2 19 1 20
REMARK H PARENT
REMARK Flexibility Score: inf
ROOT
ATOM      1  C   UNL     1       2.852 -12.671 -14.492  1.00  0.00    -0.031 C 
ATOM      2  C   UNL     1       2.337 -13.342 -15.538  1.00  0.00    -0.031 C 
ENDROOT
BRANCH   1   3
ATOM      3  C   UNL     1       4.131 -11.869 -14.541  1.00  0.00     0.027 C 
BRANCH   3   4
ATOM      4  C   UNL     1       3.871 -10.369 -14.333  1.00  0.00     0.004 C 
BRANCH   4   5
ATOM      5  C   UNL     1       4.146  -9.554 -15.609  1.00  0.00     0.000 C 
BRANCH   5   6
ATOM      6  C   UNL     1       2.887  -9.340 -16.464  1.00  0.00     0.000 C 
BRANCH   6   7
ATOM      7  C   UNL     1       3.118  -9.642 -17.953  1.00  0.00     0.000 C 
BRANCH   7   8
ATOM      8  C   UNL     1       4.507 -10.251 -18.182  1.00  0.00     0.006 C 
BRANCH   8   9
ATOM      9  C   UNL     1       4.547 -11.062 -19.482  1.00  0.00     0.053 C 
BRANCH   9  10
ATOM     10  C   UNL     1       5.518 -10.468 -20.456  1.00  0.00     0.041 C 
ATOM     11  O   UNL     1       5.107  -9.716 -21.381  1.00  0.00    -0.550 OA
ATOM     12  O   UNL     1       6.868 -10.789 -20.384  1.00  0.00    -0.550 OA
ENDBRANCH   9  10
ENDBRANCH   8   9
ENDBRANCH   7   8
ENDBRANCH   6   7
ENDBRANCH   5   6
ENDBRANCH   4   5
ENDBRANCH   3   4
ENDBRANCH   1   3
BRANCH   2  13
ATOM     13  C   UNL     1       2.945 -13.321 -16.920  1.00  0.00     0.027 C 
BRANCH  13  14
ATOM     14  C   UNL     1       1.928 -13.764 -17.979  1.00  0.00     0.004 C 
BRANCH  14  15
ATOM     15  C   UNL     1       1.282 -15.101 -17.595  1.00  0.00     0.000 C 
BRANCH  15  16
ATOM     16  C   UNL     1      -0.067 -15.288 -18.309  1.00  0.00     0.000 C 
BRANCH  16  17
ATOM     17  C   UNL     1      -0.397 -16.763 -18.590  1.00  0.00    -0.000 C 
BRANCH  17  18
ATOM     18  C   UNL     1       0.797 -17.735 -18.495  1.00  0.00    -0.000 C 
BRANCH  18  19
ATOM     19  C   UNL     1       0.420 -19.210 -18.290  1.00  0.00    -0.003 C 
ATOM     20  C   UNL     1       0.908 -19.769 -16.957  1.00  0.00     0.004 C 
ENDBRANCH  18  19
ENDBRANCH  17  18
ENDBRANCH  16  17
ENDBRANCH  15  16
ENDBRANCH  14  15
ENDBRANCH  13  14
ENDBRANCH   2  13
TORSDOF 15
ENDMDL
