MODEL 1
REMARK VINA RESULT:    -3.533      0.000      0.000
REMARK INTER + INTRA:         -14.378
REMARK INTER:                  -9.316
REMARK INTRA:                  -5.062
REMARK UNBOUND:                -5.062
REMARK SMILES CCCCCCCCCCCCCCCCCCCCCCCCCCCCCC(=O)[O-]
REMARK SMILES IDX 16 1 17 2 18 3 19 4 20 5 21 6 22 7 23 8 24 9 25 10 26 11
REMARK SMILES IDX 27 12 28 13 29 14 30 15 31 16 32 17 15 18 14 19 13 20 12 21
REMARK SMILES IDX 11 22 10 23 9 24 8 25 7 26 6 27 5 28 4 29 3 30 2 31 1 32
REMARK H PARENT
REMARK Flexibility Score: inf
ROOT
ATOM      1  C   UNL     1     150.559 132.595 164.936  1.00  0.00     0.000 C 
ENDROOT
BRANCH   1   2
ATOM      2  C   UNL     1     151.908 131.875 165.055  1.00  0.00     0.000 C 
BRANCH   2   3
ATOM      3  C   UNL     1     152.904 132.385 164.003  1.00  0.00     0.000 C 
BRANCH   3   4
ATOM      4  C   UNL     1     154.220 132.904 164.612  1.00  0.00     0.000 C 
BRANCH   4   5
ATOM      5  C   UNL     1     154.484 132.473 166.068  1.00  0.00     0.000 C 
BRANCH   5   6
ATOM      6  C   UNL     1     155.977 132.297 166.383  1.00  0.00     0.000 C 
BRANCH   6   7
ATOM      7  C   UNL     1     156.286 132.717 167.826  1.00  0.00     0.000 C 
BRANCH   7   8
ATOM      8  C   UNL     1     157.303 133.867 167.861  1.00  0.00     0.000 C 
BRANCH   8   9
ATOM      9  C   UNL     1     156.662 135.223 168.207  1.00  0.00     0.000 C 
BRANCH   9  10
ATOM     10  C   UNL     1     156.604 136.227 167.043  1.00  0.00     0.000 C 
BRANCH  10  11
ATOM     11  C   UNL     1     155.255 136.954 166.948  1.00  0.00     0.000 C 
BRANCH  11  12
ATOM     12  C   UNL     1     154.217 136.085 166.222  1.00  0.00     0.000 C 
BRANCH  12  13
ATOM     13  C   UNL     1     152.996 135.752 167.100  1.00  0.00     0.006 C 
BRANCH  13  14
ATOM     14  C   UNL     1     151.659 135.730 166.341  1.00  0.00     0.053 C 
BRANCH  14  15
ATOM     15  C   UNL     1     151.362 137.039 165.675  1.00  0.00     0.041 C 
ATOM     16  O   UNL     1     151.374 138.108 166.340  1.00  0.00    -0.550 OA
ATOM     17  O   UNL     1     151.063 137.077 164.318  1.00  0.00    -0.550 OA
ENDBRANCH  14  15
ENDBRANCH  13  14
ENDBRANCH  12  13
ENDBRANCH  11  12
ENDBRANCH  10  11
ENDBRANCH   9  10
ENDBRANCH   8   9
ENDBRANCH   7   8
ENDBRANCH   6   7
ENDBRANCH   5   6
ENDBRANCH   4   5
ENDBRANCH   3   4
ENDBRANCH   2   3
ENDBRANCH   1   2
BRANCH   1  18
ATOM     18  C   UNL     1     150.540 133.528 163.719  1.00  0.00     0.000 C 
BRANCH  18  19
ATOM     19  C   UNL     1     149.412 133.149 162.749  1.00  0.00     0.000 C 
BRANCH  19  20
ATOM     20  C   UNL     1     148.363 132.224 163.388  1.00  0.00     0.000 C 
BRANCH  20  21
ATOM     21  C   UNL     1     146.988 132.225 162.693  1.00  0.00     0.000 C 
BRANCH  21  22
ATOM     22  C   UNL     1     146.869 133.261 161.555  1.00  0.00     0.000 C 
BRANCH  22  23
ATOM     23  C   UNL     1     145.535 134.024 161.583  1.00  0.00     0.000 C 
BRANCH  23  24
ATOM     24  C   UNL     1     145.553 135.242 162.524  1.00  0.00    -0.000 C 
BRANCH  24  25
ATOM     25  C   UNL     1     146.927 135.937 162.644  1.00  0.00    -0.000 C 
BRANCH  25  26
ATOM     26  C   UNL     1     147.473 136.084 164.081  1.00  0.00    -0.000 C 
BRANCH  26  27
ATOM     27  C   UNL     1     146.798 135.206 165.157  1.00  0.00    -0.000 C 
BRANCH  27  28
ATOM     28  C   UNL     1     147.753 134.578 166.187  1.00  0.00    -0.000 C 
BRANCH  28  29
ATOM     29  C   UNL     1     147.252 133.226 166.715  1.00  0.00    -0.000 C 
BRANCH  29  30
ATOM     30  C   UNL     1     148.270 132.603 167.677  1.00  0.00    -0.000 C 
BRANCH  30  31
ATOM     31  C   UNL     1     147.645 132.343 169.052  1.00  0.00    -0.003 C 
ATOM     32  C   UNL     1     147.073 133.627 169.649  1.00  0.00     0.004 C 
ENDBRANCH  30  31
ENDBRANCH  29  30
ENDBRANCH  28  29
ENDBRANCH  27  28
ENDBRANCH  26  27
ENDBRANCH  25  26
ENDBRANCH  24  25
ENDBRANCH  23  24
ENDBRANCH  22  23
ENDBRANCH  21  22
ENDBRANCH  20  21
ENDBRANCH  19  20
ENDBRANCH  18  19
ENDBRANCH   1  18
TORSDOF 28
ENDMDL
MODEL 2
REMARK VINA RESULT:    -3.495      2.780      8.362
REMARK INTER + INTRA:         -14.278
REMARK INTER:                  -9.882
REMARK INTRA:                  -4.396
REMARK UNBOUND:                -5.062
REMARK SMILES CCCCCCCCCCCCCCCCCCCCCCCCCCCCCC(=O)[O-]
REMARK SMILES IDX 16 1 17 2 18 3 19 4 20 5 21 6 22 7 23 8 24 9 25 10 26 11
REMARK SMILES IDX 27 12 28 13 29 14 30 15 31 16 32 17 15 18 14 19 13 20 12 21
REMARK SMILES IDX 11 22 10 23 9 24 8 25 7 26 6 27 5 28 4 29 3 30 2 31 1 32
REMARK H PARENT
REMARK Flexibility Score: inf
ROOT
ATOM      1  C   UNL     1     157.345 133.632 168.677  1.00  0.00     0.000 C 
ENDROOT
BRANCH   1   2
ATOM      2  C   UNL     1     157.191 133.211 170.143  1.00  0.00     0.000 C 
BRANCH   2   3
ATOM      3  C   UNL     1     155.711 133.140 170.548  1.00  0.00     0.000 C 
BRANCH   3   4
ATOM      4  C   UNL     1     154.872 134.305 169.988  1.00  0.00     0.000 C 
BRANCH   4   5
ATOM      5  C   UNL     1     153.363 134.230 170.289  1.00  0.00     0.000 C 
BRANCH   5   6
ATOM      6  C   UNL     1     152.707 132.942 169.769  1.00  0.00     0.000 C 
BRANCH   6   7
ATOM      7  C   UNL     1     152.354 133.067 168.281  1.00  0.00     0.000 C 
BRANCH   7   8
ATOM      8  C   UNL     1     151.318 134.176 168.049  1.00  0.00     0.000 C 
BRANCH   8   9
ATOM      9  C   UNL     1     150.867 134.278 166.581  1.00  0.00     0.000 C 
BRANCH   9  10
ATOM     10  C   UNL     1     150.078 133.064 166.061  1.00  0.00     0.000 C 
BRANCH  10  11
ATOM     11  C   UNL     1     150.792 132.333 164.915  1.00  0.00     0.000 C 
BRANCH  11  12
ATOM     12  C   UNL     1     149.851 132.151 163.714  1.00  0.00     0.000 C 
BRANCH  12  13
ATOM     13  C   UNL     1     149.544 133.474 162.988  1.00  0.00     0.006 C 
BRANCH  13  14
ATOM     14  C   UNL     1     148.233 133.465 162.186  1.00  0.00     0.053 C 
BRANCH  14  15
ATOM     15  C   UNL     1     147.095 132.874 162.962  1.00  0.00     0.041 C 
ATOM     16  O   UNL     1     146.852 133.269 164.132  1.00  0.00    -0.550 OA
ATOM     17  O   UNL     1     146.308 131.880 162.393  1.00  0.00    -0.550 OA
ENDBRANCH  14  15
ENDBRANCH  13  14
ENDBRANCH  12  13
ENDBRANCH  11  12
ENDBRANCH  10  11
ENDBRANCH   9  10
ENDBRANCH   8   9
ENDBRANCH   7   8
ENDBRANCH   6   7
ENDBRANCH   5   6
ENDBRANCH   4   5
ENDBRANCH   3   4
ENDBRANCH   2   3
ENDBRANCH   1   2
BRANCH   1  18
ATOM     18  C   UNL     1     158.124 132.577 167.881  1.00  0.00     0.000 C 
BRANCH  18  19
ATOM     19  C   UNL     1     157.282 132.025 166.722  1.00  0.00     0.000 C 
BRANCH  19  20
ATOM     20  C   UNL     1     155.775 132.262 166.916  1.00  0.00     0.000 C 
BRANCH  20  21
ATOM     21  C   UNL     1     154.977 132.460 165.612  1.00  0.00     0.000 C 
BRANCH  21  22
ATOM     22  C   UNL     1     154.252 133.820 165.529  1.00  0.00     0.000 C 
BRANCH  22  23
ATOM     23  C   UNL     1     155.037 134.955 166.207  1.00  0.00     0.000 C 
BRANCH  23  24
ATOM     24  C   UNL     1     154.186 136.212 166.459  1.00  0.00    -0.000 C 
BRANCH  24  25
ATOM     25  C   UNL     1     154.756 137.165 167.534  1.00  0.00    -0.000 C 
BRANCH  25  26
ATOM     26  C   UNL     1     156.251 136.970 167.869  1.00  0.00    -0.000 C 
BRANCH  26  27
ATOM     27  C   UNL     1     157.019 138.235 168.307  1.00  0.00    -0.000 C 
BRANCH  27  28
ATOM     28  C   UNL     1     157.791 138.955 167.188  1.00  0.00    -0.000 C 
BRANCH  28  29
ATOM     29  C   UNL     1     157.220 140.346 166.872  1.00  0.00    -0.000 C 
BRANCH  29  30
ATOM     30  C   UNL     1     157.110 140.561 165.357  1.00  0.00    -0.000 C 
BRANCH  30  31
ATOM     31  C   UNL     1     155.714 140.189 164.846  1.00  0.00    -0.003 C 
ATOM     32  C   UNL     1     154.644 140.497 165.891  1.00  0.00     0.004 C 
ENDBRANCH  30  31
ENDBRANCH  29  30
ENDBRANCH  28  29
ENDBRANCH  27  28
ENDBRANCH  26  27
ENDBRANCH  25  26
ENDBRANCH  24  25
ENDBRANCH  23  24
ENDBRANCH  22  23
ENDBRANCH  21  22
ENDBRANCH  20  21
ENDBRANCH  19  20
ENDBRANCH  18  19
ENDBRANCH   1  18
TORSDOF 28
ENDMDL
MODEL 3
REMARK VINA RESULT:    -3.477      3.516      7.513
REMARK INTER + INTRA:         -14.229
REMARK INTER:                  -8.487
REMARK INTRA:                  -5.742
REMARK UNBOUND:                -5.062
REMARK SMILES CCCCCCCCCCCCCCCCCCCCCCCCCCCCCC(=O)[O-]
REMARK SMILES IDX 16 1 17 2 18 3 19 4 20 5 21 6 22 7 23 8 24 9 25 10 26 11
REMARK SMILES IDX 27 12 28 13 29 14 30 15 31 16 32 17 15 18 14 19 13 20 12 21
REMARK SMILES IDX 11 22 10 23 9 24 8 25 7 26 6 27 5 28 4 29 3 30 2 31 1 32
REMARK H PARENT
REMARK Flexibility Score: inf
ROOT
ATOM      1  C   UNL     1     155.715 136.041 166.833  1.00  0.00     0.000 C 
ENDROOT
BRANCH   1   2
ATOM      2  C   UNL     1     155.335 136.326 168.291  1.00  0.00     0.000 C 
BRANCH   2   3
ATOM      3  C   UNL     1     156.501 136.977 169.052  1.00  0.00     0.000 C 
BRANCH   3   4
ATOM      4  C   UNL     1     157.406 137.841 168.152  1.00  0.00     0.000 C 
BRANCH   4   5
ATOM      5  C   UNL     1     156.997 139.322 168.040  1.00  0.00     0.000 C 
BRANCH   5   6
ATOM      6  C   UNL     1     157.739 140.069 166.921  1.00  0.00     0.000 C 
BRANCH   6   7
ATOM      7  C   UNL     1     156.760 140.566 165.849  1.00  0.00     0.000 C 
BRANCH   7   8
ATOM      8  C   UNL     1     155.928 139.408 165.279  1.00  0.00     0.000 C 
BRANCH   8   9
ATOM      9  C   UNL     1     154.779 139.885 164.373  1.00  0.00     0.000 C 
BRANCH   9  10
ATOM     10  C   UNL     1     153.389 139.346 164.752  1.00  0.00     0.000 C 
BRANCH  10  11
ATOM     11  C   UNL     1     152.944 139.779 166.156  1.00  0.00     0.000 C 
BRANCH  11  12
ATOM     12  C   UNL     1     152.518 138.563 166.993  1.00  0.00     0.000 C 
BRANCH  12  13
ATOM     13  C   UNL     1     151.064 138.130 166.723  1.00  0.00     0.006 C 
BRANCH  13  14
ATOM     14  C   UNL     1     150.904 136.646 166.355  1.00  0.00     0.053 C 
BRANCH  14  15
ATOM     15  C   UNL     1     150.789 136.437 164.875  1.00  0.00     0.041 C 
ATOM     16  O   UNL     1     150.936 135.287 164.383  1.00  0.00    -0.550 OA
ATOM     17  O   UNL     1     150.528 137.515 164.039  1.00  0.00    -0.550 OA
ENDBRANCH  14  15
ENDBRANCH  13  14
ENDBRANCH  12  13
ENDBRANCH  11  12
ENDBRANCH  10  11
ENDBRANCH   9  10
ENDBRANCH   8   9
ENDBRANCH   7   8
ENDBRANCH   6   7
ENDBRANCH   5   6
ENDBRANCH   4   5
ENDBRANCH   3   4
ENDBRANCH   2   3
ENDBRANCH   1   2
BRANCH   1  18
ATOM     18  C   UNL     1     154.467 135.778 165.981  1.00  0.00     0.000 C 
BRANCH  18  19
ATOM     19  C   UNL     1     153.875 134.393 166.279  1.00  0.00     0.000 C 
BRANCH  19  20
ATOM     20  C   UNL     1     154.227 133.352 165.204  1.00  0.00     0.000 C 
BRANCH  20  21
ATOM     21  C   UNL     1     154.918 132.081 165.734  1.00  0.00     0.000 C 
BRANCH  21  22
ATOM     22  C   UNL     1     155.657 132.289 167.074  1.00  0.00     0.000 C 
BRANCH  22  23
ATOM     23  C   UNL     1     157.186 132.307 166.913  1.00  0.00     0.000 C 
BRANCH  23  24
ATOM     24  C   UNL     1     157.887 133.256 167.901  1.00  0.00    -0.000 C 
BRANCH  24  25
ATOM     25  C   UNL     1     157.896 132.764 169.366  1.00  0.00    -0.000 C 
BRANCH  25  26
ATOM     26  C   UNL     1     157.015 133.573 170.343  1.00  0.00    -0.000 C 
BRANCH  26  27
ATOM     27  C   UNL     1     156.130 132.748 171.302  1.00  0.00    -0.000 C 
BRANCH  27  28
ATOM     28  C   UNL     1     154.767 132.319 170.732  1.00  0.00    -0.000 C 
BRANCH  28  29
ATOM     29  C   UNL     1     153.991 133.486 170.105  1.00  0.00    -0.000 C 
BRANCH  29  30
ATOM     30  C   UNL     1     152.750 132.980 169.359  1.00  0.00    -0.000 C 
BRANCH  30  31
ATOM     31  C   UNL     1     151.580 133.960 169.503  1.00  0.00    -0.003 C 
ATOM     32  C   UNL     1     152.079 135.396 169.648  1.00  0.00     0.004 C 
ENDBRANCH  30  31
ENDBRANCH  29  30
ENDBRANCH  28  29
ENDBRANCH  27  28
ENDBRANCH  26  27
ENDBRANCH  25  26
ENDBRANCH  24  25
ENDBRANCH  23  24
ENDBRANCH  22  23
ENDBRANCH  21  22
ENDBRANCH  20  21
ENDBRANCH  19  20
ENDBRANCH  18  19
ENDBRANCH   1  18
TORSDOF 28
ENDMDL
MODEL 4
REMARK VINA RESULT:    -3.475      3.063      8.617
REMARK INTER + INTRA:         -14.226
REMARK INTER:                 -10.052
REMARK INTRA:                  -4.174
REMARK UNBOUND:                -5.062
REMARK SMILES CCCCCCCCCCCCCCCCCCCCCCCCCCCCCC(=O)[O-]
REMARK SMILES IDX 16 1 17 2 18 3 19 4 20 5 21 6 22 7 23 8 24 9 25 10 26 11
REMARK SMILES IDX 27 12 28 13 29 14 30 15 31 16 32 17 15 18 14 19 13 20 12 21
REMARK SMILES IDX 11 22 10 23 9 24 8 25 7 26 6 27 5 28 4 29 3 30 2 31 1 32
REMARK H PARENT
REMARK Flexibility Score: inf
ROOT
ATOM      1  C   UNL     1     156.513 132.923 170.027  1.00  0.00     0.000 C 
ENDROOT
BRANCH   1   2
ATOM      2  C   UNL     1     155.017 132.624 170.185  1.00  0.00     0.000 C 
BRANCH   2   3
ATOM      3  C   UNL     1     154.162 133.658 169.436  1.00  0.00     0.000 C 
BRANCH   3   4
ATOM      4  C   UNL     1     152.864 133.066 168.854  1.00  0.00     0.000 C 
BRANCH   4   5
ATOM      5  C   UNL     1     151.563 133.575 169.503  1.00  0.00     0.000 C 
BRANCH   5   6
ATOM      6  C   UNL     1     150.316 133.304 168.648  1.00  0.00     0.000 C 
BRANCH   6   7
ATOM      7  C   UNL     1     150.537 133.750 167.197  1.00  0.00     0.000 C 
BRANCH   7   8
ATOM      8  C   UNL     1     150.137 132.644 166.210  1.00  0.00     0.000 C 
BRANCH   8   9
ATOM      9  C   UNL     1     151.163 132.451 165.079  1.00  0.00     0.000 C 
BRANCH   9  10
ATOM     10  C   UNL     1     150.631 132.742 163.665  1.00  0.00     0.000 C 
BRANCH  10  11
ATOM     11  C   UNL     1     149.135 132.432 163.515  1.00  0.00     0.000 C 
BRANCH  11  12
ATOM     12  C   UNL     1     148.431 133.525 162.697  1.00  0.00     0.000 C 
BRANCH  12  13
ATOM     13  C   UNL     1     147.607 132.959 161.525  1.00  0.00     0.006 C 
BRANCH  13  14
ATOM     14  C   UNL     1     146.396 132.113 161.954  1.00  0.00     0.053 C 
BRANCH  14  15
ATOM     15  C   UNL     1     145.218 132.307 161.048  1.00  0.00     0.041 C 
ATOM     16  O   UNL     1     145.390 132.560 159.827  1.00  0.00    -0.550 OA
ATOM     17  O   UNL     1     143.928 132.216 161.557  1.00  0.00    -0.550 OA
ENDBRANCH  14  15
ENDBRANCH  13  14
ENDBRANCH  12  13
ENDBRANCH  11  12
ENDBRANCH  10  11
ENDBRANCH   9  10
ENDBRANCH   8   9
ENDBRANCH   7   8
ENDBRANCH   6   7
ENDBRANCH   5   6
ENDBRANCH   4   5
ENDBRANCH   3   4
ENDBRANCH   2   3
ENDBRANCH   1   2
BRANCH   1  18
ATOM     18  C   UNL     1     156.739 134.114 169.086  1.00  0.00     0.000 C 
BRANCH  18  19
ATOM     19  C   UNL     1     157.661 133.731 167.920  1.00  0.00     0.000 C 
BRANCH  19  20
ATOM     20  C   UNL     1     157.432 132.292 167.428  1.00  0.00     0.000 C 
BRANCH  20  21
ATOM     21  C   UNL     1     156.676 132.177 166.090  1.00  0.00     0.000 C 
BRANCH  21  22
ATOM     22  C   UNL     1     155.139 132.193 166.242  1.00  0.00     0.000 C 
BRANCH  22  23
ATOM     23  C   UNL     1     154.467 133.261 165.364  1.00  0.00     0.000 C 
BRANCH  23  24
ATOM     24  C   UNL     1     154.731 134.698 165.848  1.00  0.00    -0.000 C 
BRANCH  24  25
ATOM     25  C   UNL     1     153.460 135.559 166.024  1.00  0.00    -0.000 C 
BRANCH  25  26
ATOM     26  C   UNL     1     153.510 136.588 167.174  1.00  0.00    -0.000 C 
BRANCH  26  27
ATOM     27  C   UNL     1     154.888 136.802 167.835  1.00  0.00    -0.000 C 
BRANCH  27  28
ATOM     28  C   UNL     1     155.210 138.255 168.225  1.00  0.00    -0.000 C 
BRANCH  28  29
ATOM     29  C   UNL     1     156.709 138.485 168.472  1.00  0.00    -0.000 C 
BRANCH  29  30
ATOM     30  C   UNL     1     157.457 138.687 167.148  1.00  0.00    -0.000 C 
BRANCH  30  31
ATOM     31  C   UNL     1     157.205 140.087 166.578  1.00  0.00    -0.003 C 
ATOM     32  C   UNL     1     156.505 140.014 165.223  1.00  0.00     0.004 C 
ENDBRANCH  30  31
ENDBRANCH  29  30
ENDBRANCH  28  29
ENDBRANCH  27  28
ENDBRANCH  26  27
ENDBRANCH  25  26
ENDBRANCH  24  25
ENDBRANCH  23  24
ENDBRANCH  22  23
ENDBRANCH  21  22
ENDBRANCH  20  21
ENDBRANCH  19  20
ENDBRANCH  18  19
ENDBRANCH   1  18
TORSDOF 28
ENDMDL
MODEL 5
REMARK VINA RESULT:    -3.445      2.079      4.039
REMARK INTER + INTRA:         -14.145
REMARK INTER:                 -10.046
REMARK INTRA:                  -4.098
REMARK UNBOUND:                -5.062
REMARK SMILES CCCCCCCCCCCCCCCCCCCCCCCCCCCCCC(=O)[O-]
REMARK SMILES IDX 16 1 17 2 18 3 19 4 20 5 21 6 22 7 23 8 24 9 25 10 26 11
REMARK SMILES IDX 27 12 28 13 29 14 30 15 31 16 32 17 15 18 14 19 13 20 12 21
REMARK SMILES IDX 11 22 10 23 9 24 8 25 7 26 6 27 5 28 4 29 3 30 2 31 1 32
REMARK H PARENT
REMARK Flexibility Score: inf
ROOT
ATOM      1  C   UNL     1     152.140 134.611 167.503  1.00  0.00     0.000 C 
ENDROOT
BRANCH   1   2
ATOM      2  C   UNL     1     153.625 134.650 167.123  1.00  0.00     0.000 C 
BRANCH   2   3
ATOM      3  C   UNL     1     153.816 134.475 165.609  1.00  0.00     0.000 C 
BRANCH   3   4
ATOM      4  C   UNL     1     154.351 133.084 165.220  1.00  0.00     0.000 C 
BRANCH   4   5
ATOM      5  C   UNL     1     154.886 132.236 166.391  1.00  0.00     0.000 C 
BRANCH   5   6
ATOM      6  C   UNL     1     156.420 132.205 166.461  1.00  0.00     0.000 C 
BRANCH   6   7
ATOM      7  C   UNL     1     156.915 132.635 167.848  1.00  0.00     0.000 C 
BRANCH   7   8
ATOM      8  C   UNL     1     157.192 134.145 167.894  1.00  0.00     0.000 C 
BRANCH   8   9
ATOM      9  C   UNL     1     156.704 134.804 169.197  1.00  0.00     0.000 C 
BRANCH   9  10
ATOM     10  C   UNL     1     156.023 136.171 169.015  1.00  0.00     0.000 C 
BRANCH  10  11
ATOM     11  C   UNL     1     157.000 137.273 168.584  1.00  0.00     0.000 C 
BRANCH  11  12
ATOM     12  C   UNL     1     156.921 137.511 167.069  1.00  0.00     0.000 C 
BRANCH  12  13
ATOM     13  C   UNL     1     155.490 137.809 166.583  1.00  0.00     0.006 C 
BRANCH  13  14
ATOM     14  C   UNL     1     155.193 139.302 166.371  1.00  0.00     0.053 C 
BRANCH  14  15
ATOM     15  C   UNL     1     155.709 139.804 165.057  1.00  0.00     0.041 C 
ATOM     16  O   UNL     1     156.846 140.340 164.984  1.00  0.00    -0.550 OA
ATOM     17  O   UNL     1     154.928 139.686 163.913  1.00  0.00    -0.550 OA
ENDBRANCH  14  15
ENDBRANCH  13  14
ENDBRANCH  12  13
ENDBRANCH  11  12
ENDBRANCH  10  11
ENDBRANCH   9  10
ENDBRANCH   8   9
ENDBRANCH   7   8
ENDBRANCH   6   7
ENDBRANCH   5   6
ENDBRANCH   4   5
ENDBRANCH   3   4
ENDBRANCH   2   3
ENDBRANCH   1   2
BRANCH   1  18
ATOM     18  C   UNL     1     151.789 133.301 168.218  1.00  0.00     0.000 C 
BRANCH  18  19
ATOM     19  C   UNL     1     151.136 132.301 167.254  1.00  0.00     0.000 C 
BRANCH  19  20
ATOM     20  C   UNL     1     150.440 132.987 166.067  1.00  0.00     0.000 C 
BRANCH  20  21
ATOM     21  C   UNL     1     150.677 132.316 164.700  1.00  0.00     0.000 C 
BRANCH  21  22
ATOM     22  C   UNL     1     150.605 133.294 163.508  1.00  0.00     0.000 C 
BRANCH  22  23
ATOM     23  C   UNL     1     149.327 133.118 162.671  1.00  0.00     0.000 C 
BRANCH  23  24
ATOM     24  C   UNL     1     148.260 132.257 163.370  1.00  0.00    -0.000 C 
BRANCH  24  25
ATOM     25  C   UNL     1     146.912 132.174 162.619  1.00  0.00    -0.000 C 
BRANCH  25  26
ATOM     26  C   UNL     1     146.907 132.774 161.196  1.00  0.00    -0.000 C 
BRANCH  26  27
ATOM     27  C   UNL     1     145.714 133.690 160.849  1.00  0.00    -0.000 C 
BRANCH  27  28
ATOM     28  C   UNL     1     144.816 134.077 162.037  1.00  0.00    -0.000 C 
BRANCH  28  29
ATOM     29  C   UNL     1     145.147 135.465 162.605  1.00  0.00    -0.000 C 
BRANCH  29  30
ATOM     30  C   UNL     1     145.193 135.433 164.138  1.00  0.00    -0.000 C 
BRANCH  30  31
ATOM     31  C   UNL     1     146.557 135.897 164.660  1.00  0.00    -0.003 C 
ATOM     32  C   UNL     1     147.542 136.111 163.513  1.00  0.00     0.004 C 
ENDBRANCH  30  31
ENDBRANCH  29  30
ENDBRANCH  28  29
ENDBRANCH  27  28
ENDBRANCH  26  27
ENDBRANCH  25  26
ENDBRANCH  24  25
ENDBRANCH  23  24
ENDBRANCH  22  23
ENDBRANCH  21  22
ENDBRANCH  20  21
ENDBRANCH  19  20
ENDBRANCH  18  19
ENDBRANCH   1  18
TORSDOF 28
ENDMDL
MODEL 6
REMARK VINA RESULT:    -3.406      1.723      8.122
REMARK INTER + INTRA:         -14.044
REMARK INTER:                  -8.594
REMARK INTRA:                  -5.450
REMARK UNBOUND:                -5.062
REMARK SMILES CCCCCCCCCCCCCCCCCCCCCCCCCCCCCC(=O)[O-]
REMARK SMILES IDX 16 1 17 2 18 3 19 4 20 5 21 6 22 7 23 8 24 9 25 10 26 11
REMARK SMILES IDX 27 12 28 13 29 14 30 15 31 16 32 17 15 18 14 19 13 20 12 21
REMARK SMILES IDX 11 22 10 23 9 24 8 25 7 26 6 27 5 28 4 29 3 30 2 31 1 32
REMARK H PARENT
REMARK Flexibility Score: inf
ROOT
ATOM      1  C   UNL     1     154.203 133.354 165.248  1.00  0.00     0.000 C 
ENDROOT
BRANCH   1   2
ATOM      2  C   UNL     1     153.390 132.080 165.511  1.00  0.00     0.000 C 
BRANCH   2   3
ATOM      3  C   UNL     1     151.888 132.391 165.609  1.00  0.00     0.000 C 
BRANCH   3   4
ATOM      4  C   UNL     1     151.510 133.757 165.006  1.00  0.00     0.000 C 
BRANCH   4   5
ATOM      5  C   UNL     1     150.574 133.698 163.784  1.00  0.00     0.000 C 
BRANCH   5   6
ATOM      6  C   UNL     1     150.020 132.290 163.515  1.00  0.00     0.000 C 
BRANCH   6   7
ATOM      7  C   UNL     1     148.489 132.309 163.431  1.00  0.00     0.000 C 
BRANCH   7   8
ATOM      8  C   UNL     1     147.931 133.694 163.791  1.00  0.00     0.000 C 
BRANCH   8   9
ATOM      9  C   UNL     1     147.171 133.704 165.129  1.00  0.00     0.000 C 
BRANCH   9  10
ATOM     10  C   UNL     1     147.910 133.031 166.299  1.00  0.00     0.000 C 
BRANCH  10  11
ATOM     11  C   UNL     1     148.276 134.014 167.419  1.00  0.00     0.000 C 
BRANCH  11  12
ATOM     12  C   UNL     1     148.196 135.464 166.920  1.00  0.00     0.000 C 
BRANCH  12  13
ATOM     13  C   UNL     1     149.576 136.140 166.817  1.00  0.00     0.006 C 
BRANCH  13  14
ATOM     14  C   UNL     1     149.574 137.469 166.044  1.00  0.00     0.053 C 
BRANCH  14  15
ATOM     15  C   UNL     1     149.705 137.267 164.565  1.00  0.00     0.041 C 
ATOM     16  O   UNL     1     148.681 137.090 163.855  1.00  0.00    -0.550 OA
ATOM     17  O   UNL     1     150.962 137.267 163.973  1.00  0.00    -0.550 OA
ENDBRANCH  14  15
ENDBRANCH  13  14
ENDBRANCH  12  13
ENDBRANCH  11  12
ENDBRANCH  10  11
ENDBRANCH   9  10
ENDBRANCH   8   9
ENDBRANCH   7   8
ENDBRANCH   6   7
ENDBRANCH   5   6
ENDBRANCH   4   5
ENDBRANCH   3   4
ENDBRANCH   2   3
ENDBRANCH   1   2
BRANCH   1  18
ATOM     18  C   UNL     1     155.287 133.544 166.317  1.00  0.00     0.000 C 
BRANCH  18  19
ATOM     19  C   UNL     1     155.812 132.192 166.820  1.00  0.00     0.000 C 
BRANCH  19  20
ATOM     20  C   UNL     1     157.338 132.180 167.010  1.00  0.00     0.000 C 
BRANCH  20  21
ATOM     21  C   UNL     1     157.878 133.245 167.985  1.00  0.00     0.000 C 
BRANCH  21  22
ATOM     22  C   UNL     1     157.402 133.052 169.440  1.00  0.00     0.000 C 
BRANCH  22  23
ATOM     23  C   UNL     1     156.679 134.289 169.998  1.00  0.00     0.000 C 
BRANCH  23  24
ATOM     24  C   UNL     1     156.683 135.482 169.026  1.00  0.00    -0.000 C 
BRANCH  24  25
ATOM     25  C   UNL     1     156.920 136.854 169.696  1.00  0.00    -0.000 C 
BRANCH  25  26
ATOM     26  C   UNL     1     157.224 138.020 168.730  1.00  0.00    -0.000 C 
BRANCH  26  27
ATOM     27  C   UNL     1     156.662 137.881 167.299  1.00  0.00    -0.000 C 
BRANCH  27  28
ATOM     28  C   UNL     1     155.160 138.182 167.151  1.00  0.00    -0.000 C 
BRANCH  28  29
ATOM     29  C   UNL     1     154.487 137.326 166.068  1.00  0.00    -0.000 C 
BRANCH  29  30
ATOM     30  C   UNL     1     153.196 136.689 166.598  1.00  0.00    -0.000 C 
BRANCH  30  31
ATOM     31  C   UNL     1     153.221 136.578 168.126  1.00  0.00    -0.003 C 
ATOM     32  C   UNL     1     152.924 135.150 168.579  1.00  0.00     0.004 C 
ENDBRANCH  30  31
ENDBRANCH  29  30
ENDBRANCH  28  29
ENDBRANCH  27  28
ENDBRANCH  26  27
ENDBRANCH  25  26
ENDBRANCH  24  25
ENDBRANCH  23  24
ENDBRANCH  22  23
ENDBRANCH  21  22
ENDBRANCH  20  21
ENDBRANCH  19  20
ENDBRANCH  18  19
ENDBRANCH   1  18
TORSDOF 28
ENDMDL
MODEL 7
REMARK VINA RESULT:    -3.393      2.821      8.141
REMARK INTER + INTRA:         -14.007
REMARK INTER:                  -9.307
REMARK INTRA:                  -4.700
REMARK UNBOUND:                -5.062
REMARK SMILES CCCCCCCCCCCCCCCCCCCCCCCCCCCCCC(=O)[O-]
REMARK SMILES IDX 16 1 17 2 18 3 19 4 20 5 21 6 22 7 23 8 24 9 25 10 26 11
REMARK SMILES IDX 27 12 28 13 29 14 30 15 31 16 32 17 15 18 14 19 13 20 12 21
REMARK SMILES IDX 11 22 10 23 9 24 8 25 7 26 6 27 5 28 4 29 3 30 2 31 1 32
REMARK H PARENT
REMARK Flexibility Score: inf
ROOT
ATOM      1  C   UNL     1     154.002 133.478 165.027  1.00  0.00     0.000 C 
ENDROOT
BRANCH   1   2
ATOM      2  C   UNL     1     153.634 132.007 164.797  1.00  0.00     0.000 C 
BRANCH   2   3
ATOM      3  C   UNL     1     152.465 131.875 163.809  1.00  0.00     0.000 C 
BRANCH   3   4
ATOM      4  C   UNL     1     151.404 132.981 163.972  1.00  0.00     0.000 C 
BRANCH   4   5
ATOM      5  C   UNL     1     150.245 132.642 164.928  1.00  0.00     0.000 C 
BRANCH   5   6
ATOM      6  C   UNL     1     150.367 133.333 166.294  1.00  0.00     0.000 C 
BRANCH   6   7
ATOM      7  C   UNL     1     151.136 132.454 167.289  1.00  0.00     0.000 C 
BRANCH   7   8
ATOM      8  C   UNL     1     151.358 133.187 168.619  1.00  0.00     0.000 C 
BRANCH   8   9
ATOM      9  C   UNL     1     152.535 134.178 168.568  1.00  0.00     0.000 C 
BRANCH   9  10
ATOM     10  C   UNL     1     152.272 135.532 169.248  1.00  0.00     0.000 C 
BRANCH  10  11
ATOM     11  C   UNL     1     152.201 136.698 168.251  1.00  0.00     0.000 C 
BRANCH  11  12
ATOM     12  C   UNL     1     152.891 136.328 166.929  1.00  0.00     0.000 C 
BRANCH  12  13
ATOM     13  C   UNL     1     152.395 137.170 165.739  1.00  0.00     0.006 C 
BRANCH  13  14
ATOM     14  C   UNL     1     151.138 136.614 165.050  1.00  0.00     0.053 C 
BRANCH  14  15
ATOM     15  C   UNL     1     150.540 137.591 164.084  1.00  0.00     0.041 C 
ATOM     16  O   UNL     1     149.290 137.689 163.972  1.00  0.00    -0.550 OA
ATOM     17  O   UNL     1     151.366 138.389 163.301  1.00  0.00    -0.550 OA
ENDBRANCH  14  15
ENDBRANCH  13  14
ENDBRANCH  12  13
ENDBRANCH  11  12
ENDBRANCH  10  11
ENDBRANCH   9  10
ENDBRANCH   8   9
ENDBRANCH   7   8
ENDBRANCH   6   7
ENDBRANCH   5   6
ENDBRANCH   4   5
ENDBRANCH   3   4
ENDBRANCH   2   3
ENDBRANCH   1   2
BRANCH   1  18
ATOM     18  C   UNL     1     155.087 133.612 166.103  1.00  0.00     0.000 C 
BRANCH  18  19
ATOM     19  C   UNL     1     155.520 132.235 166.627  1.00  0.00     0.000 C 
BRANCH  19  20
ATOM     20  C   UNL     1     157.047 132.094 166.737  1.00  0.00     0.000 C 
BRANCH  20  21
ATOM     21  C   UNL     1     157.716 133.053 167.741  1.00  0.00     0.000 C 
BRANCH  21  22
ATOM     22  C   UNL     1     157.150 132.946 169.173  1.00  0.00     0.000 C 
BRANCH  22  23
ATOM     23  C   UNL     1     156.887 134.319 169.813  1.00  0.00     0.000 C 
BRANCH  23  24
ATOM     24  C   UNL     1     156.053 135.254 168.919  1.00  0.00    -0.000 C 
BRANCH  24  25
ATOM     25  C   UNL     1     156.793 136.530 168.460  1.00  0.00    -0.000 C 
BRANCH  25  26
ATOM     26  C   UNL     1     156.327 137.119 167.110  1.00  0.00    -0.000 C 
BRANCH  26  27
ATOM     27  C   UNL     1     156.680 138.599 166.856  1.00  0.00    -0.000 C 
BRANCH  27  28
ATOM     28  C   UNL     1     155.784 139.323 165.837  1.00  0.00    -0.000 C 
BRANCH  28  29
ATOM     29  C   UNL     1     156.474 140.535 165.194  1.00  0.00    -0.000 C 
BRANCH  29  30
ATOM     30  C   UNL     1     155.442 141.488 164.575  1.00  0.00    -0.000 C 
BRANCH  30  31
ATOM     31  C   UNL     1     155.769 142.948 164.909  1.00  0.00    -0.003 C 
ATOM     32  C   UNL     1     156.389 143.071 166.298  1.00  0.00     0.004 C 
ENDBRANCH  30  31
ENDBRANCH  29  30
ENDBRANCH  28  29
ENDBRANCH  27  28
ENDBRANCH  26  27
ENDBRANCH  25  26
ENDBRANCH  24  25
ENDBRANCH  23  24
ENDBRANCH  22  23
ENDBRANCH  21  22
ENDBRANCH  20  21
ENDBRANCH  19  20
ENDBRANCH  18  19
ENDBRANCH   1  18
TORSDOF 28
ENDMDL
MODEL 8
REMARK VINA RESULT:    -3.369      2.261      5.320
REMARK INTER + INTRA:         -13.946
REMARK INTER:                  -8.152
REMARK INTRA:                  -5.794
REMARK UNBOUND:                -5.062
REMARK SMILES CCCCCCCCCCCCCCCCCCCCCCCCCCCCCC(=O)[O-]
REMARK SMILES IDX 16 1 17 2 18 3 19 4 20 5 21 6 22 7 23 8 24 9 25 10 26 11
REMARK SMILES IDX 27 12 28 13 29 14 30 15 31 16 32 17 15 18 14 19 13 20 12 21
REMARK SMILES IDX 11 22 10 23 9 24 8 25 7 26 6 27 5 28 4 29 3 30 2 31 1 32
REMARK H PARENT
REMARK Flexibility Score: inf
ROOT
ATOM      1  C   UNL     1     154.226 135.705 170.553  1.00  0.00     0.000 C 
ENDROOT
BRANCH   1   2
ATOM      2  C   UNL     1     155.225 134.605 170.931  1.00  0.00     0.000 C 
BRANCH   2   3
ATOM      3  C   UNL     1     156.395 134.552 169.937  1.00  0.00     0.000 C 
BRANCH   3   4
ATOM      4  C   UNL     1     156.600 133.158 169.314  1.00  0.00     0.000 C 
BRANCH   4   5
ATOM      5  C   UNL     1     157.458 133.131 168.034  1.00  0.00     0.000 C 
BRANCH   5   6
ATOM      6  C   UNL     1     156.800 132.356 166.883  1.00  0.00     0.000 C 
BRANCH   6   7
ATOM      7  C   UNL     1     155.281 132.267 167.078  1.00  0.00     0.000 C 
BRANCH   7   8
ATOM      8  C   UNL     1     154.541 132.426 165.741  1.00  0.00     0.000 C 
BRANCH   8   9
ATOM      9  C   UNL     1     154.437 133.893 165.285  1.00  0.00     0.000 C 
BRANCH   9  10
ATOM     10  C   UNL     1     153.516 134.775 166.146  1.00  0.00     0.000 C 
BRANCH  10  11
ATOM     11  C   UNL     1     154.278 135.872 166.904  1.00  0.00     0.000 C 
BRANCH  11  12
ATOM     12  C   UNL     1     155.731 135.964 166.416  1.00  0.00     0.000 C 
BRANCH  12  13
ATOM     13  C   UNL     1     156.621 136.815 167.341  1.00  0.00     0.006 C 
BRANCH  13  14
ATOM     14  C   UNL     1     155.980 138.136 167.796  1.00  0.00     0.053 C 
BRANCH  14  15
ATOM     15  C   UNL     1     156.020 139.185 166.727  1.00  0.00     0.041 C 
ATOM     16  O   UNL     1     154.951 139.650 166.252  1.00  0.00    -0.550 OA
ATOM     17  O   UNL     1     157.242 139.643 166.249  1.00  0.00    -0.550 OA
ENDBRANCH  14  15
ENDBRANCH  13  14
ENDBRANCH  12  13
ENDBRANCH  11  12
ENDBRANCH  10  11
ENDBRANCH   9  10
ENDBRANCH   8   9
ENDBRANCH   7   8
ENDBRANCH   6   7
ENDBRANCH   5   6
ENDBRANCH   4   5
ENDBRANCH   3   4
ENDBRANCH   2   3
ENDBRANCH   1   2
BRANCH   1  18
ATOM     18  C   UNL     1     152.860 135.107 170.194  1.00  0.00     0.000 C 
BRANCH  18  19
ATOM     19  C   UNL     1     152.843 133.589 170.421  1.00  0.00     0.000 C 
BRANCH  19  20
ATOM     20  C   UNL     1     152.383 132.807 169.180  1.00  0.00     0.000 C 
BRANCH  20  21
ATOM     21  C   UNL     1     151.218 133.450 168.403  1.00  0.00     0.000 C 
BRANCH  21  22
ATOM     22  C   UNL     1     150.266 132.424 167.751  1.00  0.00     0.000 C 
BRANCH  22  23
ATOM     23  C   UNL     1     149.835 132.831 166.333  1.00  0.00     0.000 C 
BRANCH  23  24
ATOM     24  C   UNL     1     150.901 132.526 165.265  1.00  0.00    -0.000 C 
BRANCH  24  25
ATOM     25  C   UNL     1     150.429 132.739 163.809  1.00  0.00    -0.000 C 
BRANCH  25  26
ATOM     26  C   UNL     1     148.942 132.421 163.541  1.00  0.00    -0.000 C 
BRANCH  26  27
ATOM     27  C   UNL     1     148.268 133.227 162.411  1.00  0.00    -0.000 C 
BRANCH  27  28
ATOM     28  C   UNL     1     147.585 134.533 162.853  1.00  0.00    -0.000 C 
BRANCH  28  29
ATOM     29  C   UNL     1     147.114 134.493 164.314  1.00  0.00    -0.000 C 
BRANCH  29  30
ATOM     30  C   UNL     1     147.873 135.520 165.163  1.00  0.00    -0.000 C 
BRANCH  30  31
ATOM     31  C   UNL     1     148.925 136.258 164.327  1.00  0.00    -0.003 C 
ATOM     32  C   UNL     1     150.266 136.315 165.055  1.00  0.00     0.004 C 
ENDBRANCH  30  31
ENDBRANCH  29  30
ENDBRANCH  28  29
ENDBRANCH  27  28
ENDBRANCH  26  27
ENDBRANCH  25  26
ENDBRANCH  24  25
ENDBRANCH  23  24
ENDBRANCH  22  23
ENDBRANCH  21  22
ENDBRANCH  20  21
ENDBRANCH  19  20
ENDBRANCH  18  19
ENDBRANCH   1  18
TORSDOF 28
ENDMDL
MODEL 9
REMARK VINA RESULT:    -3.362      4.202      7.816
REMARK INTER + INTRA:         -13.926
REMARK INTER:                  -7.685
REMARK INTRA:                  -6.241
REMARK UNBOUND:                -5.062
REMARK SMILES CCCCCCCCCCCCCCCCCCCCCCCCCCCCCC(=O)[O-]
REMARK SMILES IDX 16 1 17 2 18 3 19 4 20 5 21 6 22 7 23 8 24 9 25 10 26 11
REMARK SMILES IDX 27 12 28 13 29 14 30 15 31 16 32 17 15 18 14 19 13 20 12 21
REMARK SMILES IDX 11 22 10 23 9 24 8 25 7 26 6 27 5 28 4 29 3 30 2 31 1 32
REMARK H PARENT
REMARK Flexibility Score: inf
ROOT
ATOM      1  C   UNL     1     157.383 138.353 168.309  1.00  0.00     0.000 C 
ENDROOT
BRANCH   1   2
ATOM      2  C   UNL     1     156.922 139.452 169.274  1.00  0.00     0.000 C 
BRANCH   2   3
ATOM      3  C   UNL     1     156.925 140.828 168.589  1.00  0.00     0.000 C 
BRANCH   3   4
ATOM      4  C   UNL     1     157.799 140.873 167.321  1.00  0.00     0.000 C 
BRANCH   4   5
ATOM      5  C   UNL     1     157.272 141.783 166.194  1.00  0.00     0.000 C 
BRANCH   5   6
ATOM      6  C   UNL     1     156.019 141.224 165.504  1.00  0.00     0.000 C 
BRANCH   6   7
ATOM      7  C   UNL     1     156.239 139.774 165.055  1.00  0.00     0.000 C 
BRANCH   7   8
ATOM      8  C   UNL     1     155.025 138.898 165.395  1.00  0.00     0.000 C 
BRANCH   8   9
ATOM      9  C   UNL     1     154.253 139.397 166.630  1.00  0.00     0.000 C 
BRANCH   9  10
ATOM     10  C   UNL     1     152.992 138.587 166.977  1.00  0.00     0.000 C 
BRANCH  10  11
ATOM     11  C   UNL     1     151.731 139.120 166.282  1.00  0.00     0.000 C 
BRANCH  11  12
ATOM     12  C   UNL     1     151.337 138.219 165.101  1.00  0.00     0.000 C 
BRANCH  12  13
ATOM     13  C   UNL     1     151.676 138.842 163.734  1.00  0.00     0.006 C 
BRANCH  13  14
ATOM     14  C   UNL     1     151.999 140.344 163.786  1.00  0.00     0.053 C 
BRANCH  14  15
ATOM     15  C   UNL     1     152.671 140.825 162.536  1.00  0.00     0.041 C 
ATOM     16  O   UNL     1     152.021 140.919 161.461  1.00  0.00    -0.550 OA
ATOM     17  O   UNL     1     154.019 141.162 162.557  1.00  0.00    -0.550 OA
ENDBRANCH  14  15
ENDBRANCH  13  14
ENDBRANCH  12  13
ENDBRANCH  11  12
ENDBRANCH  10  11
ENDBRANCH   9  10
ENDBRANCH   8   9
ENDBRANCH   7   8
ENDBRANCH   6   7
ENDBRANCH   5   6
ENDBRANCH   4   5
ENDBRANCH   3   4
ENDBRANCH   2   3
ENDBRANCH   1   2
BRANCH   1  18
ATOM     18  C   UNL     1     156.823 136.986 168.725  1.00  0.00     0.000 C 
BRANCH  18  19
ATOM     19  C   UNL     1     156.541 136.107 167.498  1.00  0.00     0.000 C 
BRANCH  19  20
ATOM     20  C   UNL     1     156.995 134.651 167.693  1.00  0.00     0.000 C 
BRANCH  20  21
ATOM     21  C   UNL     1     156.258 133.887 168.810  1.00  0.00     0.000 C 
BRANCH  21  22
ATOM     22  C   UNL     1     155.433 132.686 168.301  1.00  0.00     0.000 C 
BRANCH  22  23
ATOM     23  C   UNL     1     155.749 132.324 166.841  1.00  0.00     0.000 C 
BRANCH  23  24
ATOM     24  C   UNL     1     154.496 132.258 165.949  1.00  0.00    -0.000 C 
BRANCH  24  25
ATOM     25  C   UNL     1     154.320 133.466 165.002  1.00  0.00    -0.000 C 
BRANCH  25  26
ATOM     26  C   UNL     1     153.787 134.756 165.665  1.00  0.00    -0.000 C 
BRANCH  26  27
ATOM     27  C   UNL     1     152.310 134.728 166.114  1.00  0.00    -0.000 C 
BRANCH  27  28
ATOM     28  C   UNL     1     152.088 134.566 167.628  1.00  0.00    -0.000 C 
BRANCH  28  29
ATOM     29  C   UNL     1     152.997 135.479 168.464  1.00  0.00    -0.000 C 
BRANCH  29  30
ATOM     30  C   UNL     1     152.932 135.105 169.950  1.00  0.00    -0.000 C 
BRANCH  30  31
ATOM     31  C   UNL     1     153.867 135.988 170.784  1.00  0.00    -0.003 C 
ATOM     32  C   UNL     1     153.668 137.466 170.456  1.00  0.00     0.004 C 
ENDBRANCH  30  31
ENDBRANCH  29  30
ENDBRANCH  28  29
ENDBRANCH  27  28
ENDBRANCH  26  27
ENDBRANCH  25  26
ENDBRANCH  24  25
ENDBRANCH  23  24
ENDBRANCH  22  23
ENDBRANCH  21  22
ENDBRANCH  20  21
ENDBRANCH  19  20
ENDBRANCH  18  19
ENDBRANCH   1  18
TORSDOF 28
ENDMDL
