MODEL 1
REMARK VINA RESULT:    -3.979      0.000      0.000
REMARK INTER + INTRA:         -11.540
REMARK INTER:                 -10.027
REMARK INTRA:                  -1.512
REMARK UNBOUND:                -1.512
REMARK SMILES CCCCCCCCCCCCCCCCCCCCCCCCCCCC(=O)[O-]
REMARK SMILES IDX 15 1 16 2 17 3 18 4 19 5 20 6 21 7 22 8 23 9 24 10 25 11
REMARK SMILES IDX 26 12 27 13 28 14 29 15 30 16 14 17 13 18 12 19 11 20 10 21
REMARK SMILES IDX 9 22 8 23 7 24 6 25 5 26 4 27 3 28 2 29 1 30
REMARK H PARENT
REMARK Flexibility Score: inf
ROOT
ATOM      1  C   UNL     1       7.607  15.421  31.416  1.00  0.00     0.000 C 
ENDROOT
BRANCH   1   2
ATOM      2  C   UNL     1       6.263  16.093  31.731  1.00  0.00     0.000 C 
BRANCH   2   3
ATOM      3  C   UNL     1       6.419  17.342  32.618  1.00  0.00     0.000 C 
BRANCH   3   4
ATOM      4  C   UNL     1       5.579  17.271  33.912  1.00  0.00     0.000 C 
BRANCH   4   5
ATOM      5  C   UNL     1       4.857  18.585  34.270  1.00  0.00     0.000 C 
BRANCH   5   6
ATOM      6  C   UNL     1       4.129  19.274  33.102  1.00  0.00     0.000 C 
BRANCH   6   7
ATOM      7  C   UNL     1       2.588  19.200  33.154  1.00  0.00     0.000 C 
BRANCH   7   8
ATOM      8  C   UNL     1       1.855  20.088  32.128  1.00  0.00     0.000 C 
BRANCH   8   9
ATOM      9  C   UNL     1       0.696  20.927  32.699  1.00  0.00     0.000 C 
BRANCH   9  10
ATOM     10  C   UNL     1      -0.403  21.214  31.661  1.00  0.00     0.000 C 
BRANCH  10  11
ATOM     11  C   UNL     1      -0.644  20.027  30.715  1.00  0.00     0.000 C 
BRANCH  11  12
ATOM     12  C   UNL     1      -1.576  20.385  29.543  1.00  0.00     0.006 C 
BRANCH  12  13
ATOM     13  C   UNL     1      -1.706  19.238  28.533  1.00  0.00     0.053 C 
BRANCH  13  14
ATOM     14  C   UNL     1      -2.808  19.481  27.548  1.00  0.00     0.041 C 
ATOM     15  O   UNL     1      -3.567  18.536  27.201  1.00  0.00    -0.550 OA
ATOM     16  O   UNL     1      -2.988  20.747  27.002  1.00  0.00    -0.550 OA
ENDBRANCH  13  14
ENDBRANCH  12  13
ENDBRANCH  11  12
ENDBRANCH  10  11
ENDBRANCH   9  10
ENDBRANCH   8   9
ENDBRANCH   7   8
ENDBRANCH   6   7
ENDBRANCH   5   6
ENDBRANCH   4   5
ENDBRANCH   3   4
ENDBRANCH   2   3
ENDBRANCH   1   2
BRANCH   1  17
ATOM     17  C   UNL     1       7.449  13.981  30.897  1.00  0.00     0.000 C 
BRANCH  17  18
ATOM     18  C   UNL     1       7.614  13.875  29.369  1.00  0.00     0.000 C 
BRANCH  18  19
ATOM     19  C   UNL     1       9.024  14.203  28.842  1.00  0.00     0.000 C 
BRANCH  19  20
ATOM     20  C   UNL     1       9.284  13.632  27.437  1.00  0.00     0.000 C 
BRANCH  20  21
ATOM     21  C   UNL     1      10.718  13.101  27.277  1.00  0.00     0.000 C 
BRANCH  21  22
ATOM     22  C   UNL     1      11.702  14.205  26.850  1.00  0.00    -0.000 C 
BRANCH  22  23
ATOM     23  C   UNL     1      12.883  13.659  26.030  1.00  0.00    -0.000 C 
BRANCH  23  24
ATOM     24  C   UNL     1      12.673  13.805  24.511  1.00  0.00    -0.000 C 
BRANCH  24  25
ATOM     25  C   UNL     1      11.550  14.802  24.157  1.00  0.00    -0.000 C 
BRANCH  25  26
ATOM     26  C   UNL     1      10.550  14.276  23.110  1.00  0.00    -0.000 C 
BRANCH  26  27
ATOM     27  C   UNL     1       9.184  14.986  23.090  1.00  0.00    -0.000 C 
BRANCH  27  28
ATOM     28  C   UNL     1       8.416  14.967  24.428  1.00  0.00    -0.000 C 
BRANCH  28  29
ATOM     29  C   UNL     1       6.984  14.407  24.348  1.00  0.00    -0.003 C 
ATOM     30  C   UNL     1       5.940  15.360  24.928  1.00  0.00     0.004 C 
ENDBRANCH  28  29
ENDBRANCH  27  28
ENDBRANCH  26  27
ENDBRANCH  25  26
ENDBRANCH  24  25
ENDBRANCH  23  24
ENDBRANCH  22  23
ENDBRANCH  21  22
ENDBRANCH  20  21
ENDBRANCH  19  20
ENDBRANCH  18  19
ENDBRANCH  17  18
ENDBRANCH   1  17
TORSDOF 26
ENDMDL
MODEL 2
REMARK VINA RESULT:    -3.874      2.843     11.392
REMARK INTER + INTRA:         -11.275
REMARK INTER:                  -9.643
REMARK INTRA:                  -1.632
REMARK UNBOUND:                -1.512
REMARK SMILES CCCCCCCCCCCCCCCCCCCCCCCCCCCC(=O)[O-]
REMARK SMILES IDX 15 1 16 2 17 3 18 4 19 5 20 6 21 7 22 8 23 9 24 10 25 11
REMARK SMILES IDX 26 12 27 13 28 14 29 15 30 16 14 17 13 18 12 19 11 20 10 21
REMARK SMILES IDX 9 22 8 23 7 24 6 25 5 26 4 27 3 28 2 29 1 30
REMARK H PARENT
REMARK Flexibility Score: inf
ROOT
ATOM      1  C   UNL     1       8.143  15.348  31.375  1.00  0.00     0.000 C 
ENDROOT
BRANCH   1   2
ATOM      2  C   UNL     1       7.073  14.425  30.773  1.00  0.00     0.000 C 
BRANCH   2   3
ATOM      3  C   UNL     1       7.547  13.734  29.480  1.00  0.00     0.000 C 
BRANCH   3   4
ATOM      4  C   UNL     1       8.928  14.232  29.002  1.00  0.00     0.000 C 
BRANCH   4   5
ATOM      5  C   UNL     1       9.220  13.954  27.515  1.00  0.00     0.000 C 
BRANCH   5   6
ATOM      6  C   UNL     1      10.494  13.136  27.236  1.00  0.00     0.000 C 
BRANCH   6   7
ATOM      7  C   UNL     1      11.763  13.970  26.961  1.00  0.00     0.000 C 
BRANCH   7   8
ATOM      8  C   UNL     1      12.569  13.546  25.716  1.00  0.00     0.000 C 
BRANCH   8   9
ATOM      9  C   UNL     1      12.454  14.493  24.508  1.00  0.00     0.000 C 
BRANCH   9  10
ATOM     10  C   UNL     1      11.355  14.071  23.519  1.00  0.00     0.000 C 
BRANCH  10  11
ATOM     11  C   UNL     1      10.167  15.046  23.506  1.00  0.00     0.000 C 
BRANCH  11  12
ATOM     12  C   UNL     1       8.859  14.392  23.989  1.00  0.00     0.006 C 
BRANCH  12  13
ATOM     13  C   UNL     1       7.900  15.411  24.619  1.00  0.00     0.053 C 
BRANCH  13  14
ATOM     14  C   UNL     1       6.503  14.878  24.714  1.00  0.00     0.041 C 
ATOM     15  O   UNL     1       5.678  15.402  25.512  1.00  0.00    -0.550 OA
ATOM     16  O   UNL     1       6.116  13.793  23.935  1.00  0.00    -0.550 OA
ENDBRANCH  13  14
ENDBRANCH  12  13
ENDBRANCH  11  12
ENDBRANCH  10  11
ENDBRANCH   9  10
ENDBRANCH   8   9
ENDBRANCH   7   8
ENDBRANCH   6   7
ENDBRANCH   5   6
ENDBRANCH   4   5
ENDBRANCH   3   4
ENDBRANCH   2   3
ENDBRANCH   1   2
BRANCH   1  17
ATOM     17  C   UNL     1       7.562  16.668  31.909  1.00  0.00     0.000 C 
BRANCH  17  18
ATOM     18  C   UNL     1       6.237  16.473  32.672  1.00  0.00     0.000 C 
BRANCH  18  19
ATOM     19  C   UNL     1       5.501  17.775  33.039  1.00  0.00     0.000 C 
BRANCH  19  20
ATOM     20  C   UNL     1       4.658  17.643  34.320  1.00  0.00     0.000 C 
BRANCH  20  21
ATOM     21  C   UNL     1       3.234  18.195  34.144  1.00  0.00     0.000 C 
BRANCH  21  22
ATOM     22  C   UNL     1       3.226  19.585  33.481  1.00  0.00    -0.000 C 
BRANCH  22  23
ATOM     23  C   UNL     1       2.080  19.751  32.470  1.00  0.00    -0.000 C 
BRANCH  23  24
ATOM     24  C   UNL     1       1.201  20.981  32.761  1.00  0.00    -0.000 C 
BRANCH  24  25
ATOM     25  C   UNL     1      -0.286  20.746  32.417  1.00  0.00    -0.000 C 
BRANCH  25  26
ATOM     26  C   UNL     1      -0.673  21.161  30.985  1.00  0.00    -0.000 C 
BRANCH  26  27
ATOM     27  C   UNL     1      -1.574  20.165  30.233  1.00  0.00    -0.000 C 
BRANCH  27  28
ATOM     28  C   UNL     1      -1.393  20.146  28.700  1.00  0.00    -0.000 C 
BRANCH  28  29
ATOM     29  C   UNL     1      -2.419  19.289  27.936  1.00  0.00    -0.003 C 
ATOM     30  C   UNL     1      -3.187  20.083  26.880  1.00  0.00     0.004 C 
ENDBRANCH  28  29
ENDBRANCH  27  28
ENDBRANCH  26  27
ENDBRANCH  25  26
ENDBRANCH  24  25
ENDBRANCH  23  24
ENDBRANCH  22  23
ENDBRANCH  21  22
ENDBRANCH  20  21
ENDBRANCH  19  20
ENDBRANCH  18  19
ENDBRANCH  17  18
ENDBRANCH   1  17
TORSDOF 26
ENDMDL
MODEL 3
REMARK VINA RESULT:    -3.857      3.643     11.848
REMARK INTER + INTRA:         -11.231
REMARK INTER:                  -9.843
REMARK INTRA:                  -1.389
REMARK UNBOUND:                -1.512
REMARK SMILES CCCCCCCCCCCCCCCCCCCCCCCCCCCC(=O)[O-]
REMARK SMILES IDX 15 1 16 2 17 3 18 4 19 5 20 6 21 7 22 8 23 9 24 10 25 11
REMARK SMILES IDX 26 12 27 13 28 14 29 15 30 16 14 17 13 18 12 19 11 20 10 21
REMARK SMILES IDX 9 22 8 23 7 24 6 25 5 26 4 27 3 28 2 29 1 30
REMARK H PARENT
REMARK Flexibility Score: inf
ROOT
ATOM      1  C   UNL     1       5.599  16.862  33.043  1.00  0.00     0.000 C 
ENDROOT
BRANCH   1   2
ATOM      2  C   UNL     1       6.947  17.389  32.529  1.00  0.00     0.000 C 
BRANCH   2   3
ATOM      3  C   UNL     1       7.749  16.318  31.765  1.00  0.00     0.000 C 
BRANCH   3   4
ATOM      4  C   UNL     1       6.854  15.223  31.145  1.00  0.00     0.000 C 
BRANCH   4   5
ATOM      5  C   UNL     1       7.622  13.977  30.662  1.00  0.00     0.000 C 
BRANCH   5   6
ATOM      6  C   UNL     1       7.800  13.864  29.137  1.00  0.00     0.000 C 
BRANCH   6   7
ATOM      7  C   UNL     1       9.182  14.293  28.604  1.00  0.00     0.000 C 
BRANCH   7   8
ATOM      8  C   UNL     1       9.602  13.640  27.271  1.00  0.00     0.000 C 
BRANCH   8   9
ATOM      9  C   UNL     1      11.088  13.250  27.173  1.00  0.00     0.000 C 
BRANCH   9  10
ATOM     10  C   UNL     1      11.938  14.306  26.446  1.00  0.00     0.000 C 
BRANCH  10  11
ATOM     11  C   UNL     1      12.650  13.738  25.207  1.00  0.00     0.000 C 
BRANCH  11  12
ATOM     12  C   UNL     1      11.866  13.993  23.907  1.00  0.00     0.006 C 
BRANCH  12  13
ATOM     13  C   UNL     1      10.851  15.134  24.056  1.00  0.00     0.053 C 
BRANCH  13  14
ATOM     14  C   UNL     1       9.540  14.803  23.412  1.00  0.00     0.041 C 
ATOM     15  O   UNL     1       9.467  14.658  22.161  1.00  0.00    -0.550 OA
ATOM     16  O   UNL     1       8.394  14.670  24.189  1.00  0.00    -0.550 OA
ENDBRANCH  13  14
ENDBRANCH  12  13
ENDBRANCH  11  12
ENDBRANCH  10  11
ENDBRANCH   9  10
ENDBRANCH   8   9
ENDBRANCH   7   8
ENDBRANCH   6   7
ENDBRANCH   5   6
ENDBRANCH   4   5
ENDBRANCH   3   4
ENDBRANCH   2   3
ENDBRANCH   1   2
BRANCH   1  17
ATOM     17  C   UNL     1       5.343  17.213  34.518  1.00  0.00     0.000 C 
BRANCH  17  18
ATOM     18  C   UNL     1       4.357  18.384  34.692  1.00  0.00     0.000 C 
BRANCH  18  19
ATOM     19  C   UNL     1       3.283  18.499  33.593  1.00  0.00     0.000 C 
BRANCH  19  20
ATOM     20  C   UNL     1       3.084  19.943  33.102  1.00  0.00     0.000 C 
BRANCH  20  21
ATOM     21  C   UNL     1       1.835  20.093  32.217  1.00  0.00     0.000 C 
BRANCH  21  22
ATOM     22  C   UNL     1       0.697  20.837  32.939  1.00  0.00    -0.000 C 
BRANCH  22  23
ATOM     23  C   UNL     1      -0.518  21.085  32.029  1.00  0.00    -0.000 C 
BRANCH  23  24
ATOM     24  C   UNL     1      -0.316  20.540  30.603  1.00  0.00    -0.000 C 
BRANCH  24  25
ATOM     25  C   UNL     1      -1.647  20.214  29.894  1.00  0.00    -0.000 C 
BRANCH  25  26
ATOM     26  C   UNL     1      -1.592  18.964  28.996  1.00  0.00    -0.000 C 
BRANCH  26  27
ATOM     27  C   UNL     1      -2.627  18.925  27.857  1.00  0.00    -0.000 C 
BRANCH  27  28
ATOM     28  C   UNL     1      -3.392  20.244  27.622  1.00  0.00    -0.000 C 
BRANCH  28  29
ATOM     29  C   UNL     1      -2.775  21.172  26.559  1.00  0.00    -0.003 C 
ATOM     30  C   UNL     1      -1.360  20.759  26.159  1.00  0.00     0.004 C 
ENDBRANCH  28  29
ENDBRANCH  27  28
ENDBRANCH  26  27
ENDBRANCH  25  26
ENDBRANCH  24  25
ENDBRANCH  23  24
ENDBRANCH  22  23
ENDBRANCH  21  22
ENDBRANCH  20  21
ENDBRANCH  19  20
ENDBRANCH  18  19
ENDBRANCH  17  18
ENDBRANCH   1  17
TORSDOF 26
ENDMDL
MODEL 4
REMARK VINA RESULT:    -3.626      0.985      2.440
REMARK INTER + INTRA:         -10.650
REMARK INTER:                  -9.284
REMARK INTRA:                  -1.366
REMARK UNBOUND:                -1.512
REMARK SMILES CCCCCCCCCCCCCCCCCCCCCCCCCCCC(=O)[O-]
REMARK SMILES IDX 15 1 16 2 17 3 18 4 19 5 20 6 21 7 22 8 23 9 24 10 25 11
REMARK SMILES IDX 26 12 27 13 28 14 29 15 30 16 14 17 13 18 12 19 11 20 10 21
REMARK SMILES IDX 9 22 8 23 7 24 6 25 5 26 4 27 3 28 2 29 1 30
REMARK H PARENT
REMARK Flexibility Score: inf
ROOT
ATOM      1  C   UNL     1       6.825  17.920  32.867  1.00  0.00     0.000 C 
ENDROOT
BRANCH   1   2
ATOM      2  C   UNL     1       5.366  18.344  33.093  1.00  0.00     0.000 C 
BRANCH   2   3
ATOM      3  C   UNL     1       4.615  17.398  34.049  1.00  0.00     0.000 C 
BRANCH   3   4
ATOM      4  C   UNL     1       3.277  17.984  34.550  1.00  0.00     0.000 C 
BRANCH   4   5
ATOM      5  C   UNL     1       2.882  19.316  33.884  1.00  0.00     0.000 C 
BRANCH   5   6
ATOM      6  C   UNL     1       2.344  20.395  34.840  1.00  0.00     0.000 C 
BRANCH   6   7
ATOM      7  C   UNL     1       0.875  20.805  34.607  1.00  0.00     0.000 C 
BRANCH   7   8
ATOM      8  C   UNL     1       0.629  21.688  33.366  1.00  0.00     0.000 C 
BRANCH   8   9
ATOM      9  C   UNL     1       0.545  20.929  32.030  1.00  0.00     0.000 C 
BRANCH   9  10
ATOM     10  C   UNL     1      -0.896  20.795  31.507  1.00  0.00     0.000 C 
BRANCH  10  11
ATOM     11  C   UNL     1      -0.958  20.674  29.976  1.00  0.00     0.000 C 
BRANCH  11  12
ATOM     12  C   UNL     1      -1.663  19.385  29.514  1.00  0.00     0.006 C 
BRANCH  12  13
ATOM     13  C   UNL     1      -1.703  19.264  27.985  1.00  0.00     0.053 C 
BRANCH  13  14
ATOM     14  C   UNL     1      -3.073  19.526  27.439  1.00  0.00     0.041 C 
ATOM     15  O   UNL     1      -3.799  20.421  27.952  1.00  0.00    -0.550 OA
ATOM     16  O   UNL     1      -3.555  18.773  26.373  1.00  0.00    -0.550 OA
ENDBRANCH  13  14
ENDBRANCH  12  13
ENDBRANCH  11  12
ENDBRANCH  10  11
ENDBRANCH   9  10
ENDBRANCH   8   9
ENDBRANCH   7   8
ENDBRANCH   6   7
ENDBRANCH   5   6
ENDBRANCH   4   5
ENDBRANCH   3   4
ENDBRANCH   2   3
ENDBRANCH   1   2
BRANCH   1  17
ATOM     17  C   UNL     1       6.971  16.420  32.563  1.00  0.00     0.000 C 
BRANCH  17  18
ATOM     18  C   UNL     1       7.909  16.140  31.373  1.00  0.00     0.000 C 
BRANCH  18  19
ATOM     19  C   UNL     1       8.187  14.649  31.101  1.00  0.00     0.000 C 
BRANCH  19  20
ATOM     20  C   UNL     1       7.146  14.009  30.167  1.00  0.00     0.000 C 
BRANCH  20  21
ATOM     21  C   UNL     1       7.754  13.575  28.822  1.00  0.00     0.000 C 
BRANCH  21  22
ATOM     22  C   UNL     1       9.150  14.182  28.592  1.00  0.00    -0.000 C 
BRANCH  22  23
ATOM     23  C   UNL     1       9.900  13.514  27.427  1.00  0.00    -0.000 C 
BRANCH  23  24
ATOM     24  C   UNL     1      11.260  14.174  27.137  1.00  0.00    -0.000 C 
BRANCH  24  25
ATOM     25  C   UNL     1      12.111  13.369  26.132  1.00  0.00    -0.000 C 
BRANCH  25  26
ATOM     26  C   UNL     1      12.590  14.187  24.917  1.00  0.00    -0.000 C 
BRANCH  26  27
ATOM     27  C   UNL     1      11.609  14.241  23.732  1.00  0.00    -0.000 C 
BRANCH  27  28
ATOM     28  C   UNL     1      10.475  15.278  23.867  1.00  0.00    -0.000 C 
BRANCH  28  29
ATOM     29  C   UNL     1       9.092  14.794  23.394  1.00  0.00    -0.003 C 
ATOM     30  C   UNL     1       8.072  14.707  24.529  1.00  0.00     0.004 C 
ENDBRANCH  28  29
ENDBRANCH  27  28
ENDBRANCH  26  27
ENDBRANCH  25  26
ENDBRANCH  24  25
ENDBRANCH  23  24
ENDBRANCH  22  23
ENDBRANCH  21  22
ENDBRANCH  20  21
ENDBRANCH  19  20
ENDBRANCH  18  19
ENDBRANCH  17  18
ENDBRANCH   1  17
TORSDOF 26
ENDMDL
MODEL 5
REMARK VINA RESULT:    -3.617      4.796     12.264
REMARK INTER + INTRA:         -10.627
REMARK INTER:                  -9.220
REMARK INTRA:                  -1.407
REMARK UNBOUND:                -1.512
REMARK SMILES CCCCCCCCCCCCCCCCCCCCCCCCCCCC(=O)[O-]
REMARK SMILES IDX 15 1 16 2 17 3 18 4 19 5 20 6 21 7 22 8 23 9 24 10 25 11
REMARK SMILES IDX 26 12 27 13 28 14 29 15 30 16 14 17 13 18 12 19 11 20 10 21
REMARK SMILES IDX 9 22 8 23 7 24 6 25 5 26 4 27 3 28 2 29 1 30
REMARK H PARENT
REMARK Flexibility Score: inf
ROOT
ATOM      1  C   UNL     1       4.279  18.921  32.885  1.00  0.00     0.000 C 
ENDROOT
BRANCH   1   2
ATOM      2  C   UNL     1       4.836  18.798  34.312  1.00  0.00     0.000 C 
BRANCH   2   3
ATOM      3  C   UNL     1       6.287  18.279  34.338  1.00  0.00     0.000 C 
BRANCH   3   4
ATOM      4  C   UNL     1       6.791  17.830  32.949  1.00  0.00     0.000 C 
BRANCH   4   5
ATOM      5  C   UNL     1       6.674  16.315  32.693  1.00  0.00     0.000 C 
BRANCH   5   6
ATOM      6  C   UNL     1       7.444  15.794  31.466  1.00  0.00     0.000 C 
BRANCH   6   7
ATOM      7  C   UNL     1       7.416  14.263  31.274  1.00  0.00     0.000 C 
BRANCH   7   8
ATOM      8  C   UNL     1       7.388  13.787  29.807  1.00  0.00     0.000 C 
BRANCH   8   9
ATOM      9  C   UNL     1       8.592  14.226  28.954  1.00  0.00     0.000 C 
BRANCH   9  10
ATOM     10  C   UNL     1       8.937  13.219  27.843  1.00  0.00     0.000 C 
BRANCH  10  11
ATOM     11  C   UNL     1       9.939  13.786  26.825  1.00  0.00     0.000 C 
BRANCH  11  12
ATOM     12  C   UNL     1      11.402  13.524  27.226  1.00  0.00     0.006 C 
BRANCH  12  13
ATOM     13  C   UNL     1      12.383  14.421  26.460  1.00  0.00     0.053 C 
BRANCH  13  14
ATOM     14  C   UNL     1      13.043  13.691  25.330  1.00  0.00     0.041 C 
ATOM     15  O   UNL     1      12.681  13.905  24.141  1.00  0.00    -0.550 OA
ATOM     16  O   UNL     1      14.046  12.764  25.590  1.00  0.00    -0.550 OA
ENDBRANCH  13  14
ENDBRANCH  12  13
ENDBRANCH  11  12
ENDBRANCH  10  11
ENDBRANCH   9  10
ENDBRANCH   8   9
ENDBRANCH   7   8
ENDBRANCH   6   7
ENDBRANCH   5   6
ENDBRANCH   4   5
ENDBRANCH   3   4
ENDBRANCH   2   3
ENDBRANCH   1   2
BRANCH   1  17
ATOM     17  C   UNL     1       3.176  19.986  32.765  1.00  0.00     0.000 C 
BRANCH  17  18
ATOM     18  C   UNL     1       2.634  20.443  34.133  1.00  0.00     0.000 C 
BRANCH  18  19
ATOM     19  C   UNL     1       1.306  19.787  34.558  1.00  0.00     0.000 C 
BRANCH  19  20
ATOM     20  C   UNL     1       0.137  20.786  34.610  1.00  0.00     0.000 C 
BRANCH  20  21
ATOM     21  C   UNL     1       0.369  22.007  33.705  1.00  0.00     0.000 C 
BRANCH  21  22
ATOM     22  C   UNL     1      -0.550  21.999  32.470  1.00  0.00    -0.000 C 
BRANCH  22  23
ATOM     23  C   UNL     1      -0.140  20.938  31.435  1.00  0.00    -0.000 C 
BRANCH  23  24
ATOM     24  C   UNL     1      -1.333  20.409  30.618  1.00  0.00    -0.000 C 
BRANCH  24  25
ATOM     25  C   UNL     1      -0.905  19.789  29.270  1.00  0.00    -0.000 C 
BRANCH  25  26
ATOM     26  C   UNL     1      -2.044  19.073  28.518  1.00  0.00    -0.000 C 
BRANCH  26  27
ATOM     27  C   UNL     1      -3.259  19.952  28.173  1.00  0.00    -0.000 C 
BRANCH  27  28
ATOM     28  C   UNL     1      -3.176  20.682  26.816  1.00  0.00    -0.000 C 
BRANCH  28  29
ATOM     29  C   UNL     1      -1.874  20.444  26.029  1.00  0.00    -0.003 C 
ATOM     30  C   UNL     1      -1.046  21.715  25.852  1.00  0.00     0.004 C 
ENDBRANCH  28  29
ENDBRANCH  27  28
ENDBRANCH  26  27
ENDBRANCH  25  26
ENDBRANCH  24  25
ENDBRANCH  23  24
ENDBRANCH  22  23
ENDBRANCH  21  22
ENDBRANCH  20  21
ENDBRANCH  19  20
ENDBRANCH  18  19
ENDBRANCH  17  18
ENDBRANCH   1  17
TORSDOF 26
ENDMDL
MODEL 6
REMARK VINA RESULT:    -3.598      8.607     14.602
REMARK INTER + INTRA:         -10.578
REMARK INTER:                  -9.065
REMARK INTRA:                  -1.513
REMARK UNBOUND:                -1.512
REMARK SMILES CCCCCCCCCCCCCCCCCCCCCCCCCCCC(=O)[O-]
REMARK SMILES IDX 15 1 16 2 17 3 18 4 19 5 20 6 21 7 22 8 23 9 24 10 25 11
REMARK SMILES IDX 26 12 27 13 28 14 29 15 30 16 14 17 13 18 12 19 11 20 10 21
REMARK SMILES IDX 9 22 8 23 7 24 6 25 5 26 4 27 3 28 2 29 1 30
REMARK H PARENT
REMARK Flexibility Score: inf
ROOT
ATOM      1  C   UNL     1       7.403  11.727  16.305  1.00  0.00     0.000 C 
ENDROOT
BRANCH   1   2
ATOM      2  C   UNL     1       8.875  11.889  16.715  1.00  0.00     0.000 C 
BRANCH   2   3
ATOM      3  C   UNL     1       9.087  11.735  18.233  1.00  0.00     0.000 C 
BRANCH   3   4
ATOM      4  C   UNL     1       9.579  13.033  18.908  1.00  0.00     0.000 C 
BRANCH   4   5
ATOM      5  C   UNL     1       8.471  14.075  19.156  1.00  0.00     0.000 C 
BRANCH   5   6
ATOM      6  C   UNL     1       8.703  15.008  20.359  1.00  0.00     0.000 C 
BRANCH   6   7
ATOM      7  C   UNL     1       9.252  14.319  21.627  1.00  0.00     0.000 C 
BRANCH   7   8
ATOM      8  C   UNL     1       9.001  15.079  22.946  1.00  0.00     0.000 C 
BRANCH   8   9
ATOM      9  C   UNL     1      10.262  15.388  23.773  1.00  0.00     0.000 C 
BRANCH   9  10
ATOM     10  C   UNL     1      11.495  14.599  23.301  1.00  0.00     0.000 C 
BRANCH  10  11
ATOM     11  C   UNL     1      12.536  14.409  24.417  1.00  0.00     0.000 C 
BRANCH  11  12
ATOM     12  C   UNL     1      12.117  13.335  25.439  1.00  0.00     0.006 C 
BRANCH  12  13
ATOM     13  C   UNL     1      12.007  13.900  26.861  1.00  0.00     0.053 C 
BRANCH  13  14
ATOM     14  C   UNL     1      10.583  13.993  27.318  1.00  0.00     0.041 C 
ATOM     15  O   UNL     1      10.317  14.397  28.482  1.00  0.00    -0.550 OA
ATOM     16  O   UNL     1       9.552  13.619  26.463  1.00  0.00    -0.550 OA
ENDBRANCH  13  14
ENDBRANCH  12  13
ENDBRANCH  11  12
ENDBRANCH  10  11
ENDBRANCH   9  10
ENDBRANCH   8   9
ENDBRANCH   7   8
ENDBRANCH   6   7
ENDBRANCH   5   6
ENDBRANCH   4   5
ENDBRANCH   3   4
ENDBRANCH   2   3
ENDBRANCH   1   2
BRANCH   1  17
ATOM     17  C   UNL     1       6.979  10.255  16.170  1.00  0.00     0.000 C 
BRANCH  17  18
ATOM     18  C   UNL     1       6.189   9.977  14.876  1.00  0.00     0.000 C 
BRANCH  18  19
ATOM     19  C   UNL     1       4.670   9.810  15.064  1.00  0.00     0.000 C 
BRANCH  19  20
ATOM     20  C   UNL     1       4.269   9.604  16.536  1.00  0.00     0.000 C 
BRANCH  20  21
ATOM     21  C   UNL     1       2.749   9.689  16.746  1.00  0.00     0.000 C 
BRANCH  21  22
ATOM     22  C   UNL     1       1.963   9.077  15.572  1.00  0.00    -0.000 C 
BRANCH  22  23
ATOM     23  C   UNL     1       0.535   8.666  15.967  1.00  0.00    -0.000 C 
BRANCH  23  24
ATOM     24  C   UNL     1       0.246   8.877  17.465  1.00  0.00    -0.000 C 
BRANCH  24  25
ATOM     25  C   UNL     1      -0.885   9.897  17.716  1.00  0.00    -0.000 C 
BRANCH  25  26
ATOM     26  C   UNL     1      -0.584  10.903  18.844  1.00  0.00    -0.000 C 
BRANCH  26  27
ATOM     27  C   UNL     1      -1.377  10.688  20.146  1.00  0.00    -0.000 C 
BRANCH  27  28
ATOM     28  C   UNL     1      -2.170   9.367  20.220  1.00  0.00    -0.000 C 
BRANCH  28  29
ATOM     29  C   UNL     1      -3.624   9.453  19.724  1.00  0.00    -0.003 C 
ATOM     30  C   UNL     1      -4.045  10.875  19.359  1.00  0.00     0.004 C 
ENDBRANCH  28  29
ENDBRANCH  27  28
ENDBRANCH  26  27
ENDBRANCH  25  26
ENDBRANCH  24  25
ENDBRANCH  23  24
ENDBRANCH  22  23
ENDBRANCH  21  22
ENDBRANCH  20  21
ENDBRANCH  19  20
ENDBRANCH  18  19
ENDBRANCH  17  18
ENDBRANCH   1  17
TORSDOF 26
ENDMDL
MODEL 7
REMARK VINA RESULT:    -3.547      8.190     13.375
REMARK INTER + INTRA:         -10.450
REMARK INTER:                  -8.773
REMARK INTRA:                  -1.677
REMARK UNBOUND:                -1.512
REMARK SMILES CCCCCCCCCCCCCCCCCCCCCCCCCCCC(=O)[O-]
REMARK SMILES IDX 15 1 16 2 17 3 18 4 19 5 20 6 21 7 22 8 23 9 24 10 25 11
REMARK SMILES IDX 26 12 27 13 28 14 29 15 30 16 14 17 13 18 12 19 11 20 10 21
REMARK SMILES IDX 9 22 8 23 7 24 6 25 5 26 4 27 3 28 2 29 1 30
REMARK H PARENT
REMARK Flexibility Score: inf
ROOT
ATOM      1  C   UNL     1       7.627  11.671  17.418  1.00  0.00     0.000 C 
ENDROOT
BRANCH   1   2
ATOM      2  C   UNL     1       7.655  11.912  15.901  1.00  0.00     0.000 C 
BRANCH   2   3
ATOM      3  C   UNL     1       7.086  10.724  15.102  1.00  0.00     0.000 C 
BRANCH   3   4
ATOM      4  C   UNL     1       5.555  10.581  15.243  1.00  0.00     0.000 C 
BRANCH   4   5
ATOM      5  C   UNL     1       5.107   9.726  16.444  1.00  0.00     0.000 C 
BRANCH   5   6
ATOM      6  C   UNL     1       3.602   9.406  16.499  1.00  0.00     0.000 C 
BRANCH   6   7
ATOM      7  C   UNL     1       2.845   9.582  15.167  1.00  0.00     0.000 C 
BRANCH   7   8
ATOM      8  C   UNL     1       1.626   8.656  14.979  1.00  0.00     0.000 C 
BRANCH   8   9
ATOM      9  C   UNL     1       0.909   8.245  16.278  1.00  0.00     0.000 C 
BRANCH   9  10
ATOM     10  C   UNL     1      -0.190   9.238  16.695  1.00  0.00     0.000 C 
BRANCH  10  11
ATOM     11  C   UNL     1       0.250  10.154  17.847  1.00  0.00     0.000 C 
BRANCH  11  12
ATOM     12  C   UNL     1      -0.923  10.948  18.452  1.00  0.00     0.006 C 
BRANCH  12  13
ATOM     13  C   UNL     1      -1.309  10.438  19.846  1.00  0.00     0.053 C 
BRANCH  13  14
ATOM     14  C   UNL     1      -2.668   9.806  19.854  1.00  0.00     0.041 C 
ATOM     15  O   UNL     1      -2.969   8.962  20.741  1.00  0.00    -0.550 OA
ATOM     16  O   UNL     1      -3.596  10.137  18.873  1.00  0.00    -0.550 OA
ENDBRANCH  13  14
ENDBRANCH  12  13
ENDBRANCH  11  12
ENDBRANCH  10  11
ENDBRANCH   9  10
ENDBRANCH   8   9
ENDBRANCH   7   8
ENDBRANCH   6   7
ENDBRANCH   5   6
ENDBRANCH   4   5
ENDBRANCH   3   4
ENDBRANCH   2   3
ENDBRANCH   1   2
BRANCH   1  17
ATOM     17  C   UNL     1       9.033  11.611  18.040  1.00  0.00     0.000 C 
BRANCH  17  18
ATOM     18  C   UNL     1       9.408  12.903  18.791  1.00  0.00     0.000 C 
BRANCH  18  19
ATOM     19  C   UNL     1       8.281  13.947  18.895  1.00  0.00     0.000 C 
BRANCH  19  20
ATOM     20  C   UNL     1       8.538  14.997  19.990  1.00  0.00     0.000 C 
BRANCH  20  21
ATOM     21  C   UNL     1       9.246  14.401  21.218  1.00  0.00     0.000 C 
BRANCH  21  22
ATOM     22  C   UNL     1       8.461  14.645  22.519  1.00  0.00    -0.000 C 
BRANCH  22  23
ATOM     23  C   UNL     1       9.363  14.641  23.764  1.00  0.00    -0.000 C 
BRANCH  23  24
ATOM     24  C   UNL     1      10.738  15.284  23.507  1.00  0.00    -0.000 C 
BRANCH  24  25
ATOM     25  C   UNL     1      11.889  14.256  23.520  1.00  0.00    -0.000 C 
BRANCH  25  26
ATOM     26  C   UNL     1      12.753  14.296  24.795  1.00  0.00    -0.000 C 
BRANCH  26  27
ATOM     27  C   UNL     1      12.366  13.280  25.885  1.00  0.00    -0.000 C 
BRANCH  27  28
ATOM     28  C   UNL     1      11.955  13.896  27.239  1.00  0.00    -0.000 C 
BRANCH  28  29
ATOM     29  C   UNL     1      10.455  14.210  27.382  1.00  0.00    -0.003 C 
ATOM     30  C   UNL     1       9.570  12.977  27.202  1.00  0.00     0.004 C 
ENDBRANCH  28  29
ENDBRANCH  27  28
ENDBRANCH  26  27
ENDBRANCH  25  26
ENDBRANCH  24  25
ENDBRANCH  23  24
ENDBRANCH  22  23
ENDBRANCH  21  22
ENDBRANCH  20  21
ENDBRANCH  19  20
ENDBRANCH  18  19
ENDBRANCH  17  18
ENDBRANCH   1  17
TORSDOF 26
ENDMDL
MODEL 8
REMARK VINA RESULT:    -3.541      4.673     12.218
REMARK INTER + INTRA:         -10.435
REMARK INTER:                  -9.135
REMARK INTRA:                  -1.300
REMARK UNBOUND:                -1.512
REMARK SMILES CCCCCCCCCCCCCCCCCCCCCCCCCCCC(=O)[O-]
REMARK SMILES IDX 15 1 16 2 17 3 18 4 19 5 20 6 21 7 22 8 23 9 24 10 25 11
REMARK SMILES IDX 26 12 27 13 28 14 29 15 30 16 14 17 13 18 12 19 11 20 10 21
REMARK SMILES IDX 9 22 8 23 7 24 6 25 5 26 4 27 3 28 2 29 1 30
REMARK H PARENT
REMARK Flexibility Score: inf
ROOT
ATOM      1  C   UNL     1       6.734  17.667  32.985  1.00  0.00     0.000 C 
ENDROOT
BRANCH   1   2
ATOM      2  C   UNL     1       7.550  16.891  31.940  1.00  0.00     0.000 C 
BRANCH   2   3
ATOM      3  C   UNL     1       7.034  15.454  31.735  1.00  0.00     0.000 C 
BRANCH   3   4
ATOM      4  C   UNL     1       7.927  14.623  30.788  1.00  0.00     0.000 C 
BRANCH   4   5
ATOM      5  C   UNL     1       7.162  13.930  29.644  1.00  0.00     0.000 C 
BRANCH   5   6
ATOM      6  C   UNL     1       8.043  13.211  28.605  1.00  0.00     0.000 C 
BRANCH   6   7
ATOM      7  C   UNL     1       9.224  14.040  28.060  1.00  0.00     0.000 C 
BRANCH   7   8
ATOM      8  C   UNL     1       9.483  13.895  26.546  1.00  0.00     0.000 C 
BRANCH   8   9
ATOM      9  C   UNL     1       8.435  14.560  25.636  1.00  0.00     0.000 C 
BRANCH   9  10
ATOM     10  C   UNL     1       8.656  14.253  24.145  1.00  0.00     0.000 C 
BRANCH  10  11
ATOM     11  C   UNL     1       9.814  15.063  23.542  1.00  0.00     0.000 C 
BRANCH  11  12
ATOM     12  C   UNL     1      11.144  14.287  23.549  1.00  0.00     0.006 C 
BRANCH  12  13
ATOM     13  C   UNL     1      12.241  15.024  24.329  1.00  0.00     0.053 C 
BRANCH  13  14
ATOM     14  C   UNL     1      12.988  14.105  25.247  1.00  0.00     0.041 C 
ATOM     15  O   UNL     1      12.698  14.062  26.474  1.00  0.00    -0.550 OA
ATOM     16  O   UNL     1      14.014  13.308  24.752  1.00  0.00    -0.550 OA
ENDBRANCH  13  14
ENDBRANCH  12  13
ENDBRANCH  11  12
ENDBRANCH  10  11
ENDBRANCH   9  10
ENDBRANCH   8   9
ENDBRANCH   7   8
ENDBRANCH   6   7
ENDBRANCH   5   6
ENDBRANCH   4   5
ENDBRANCH   3   4
ENDBRANCH   2   3
ENDBRANCH   1   2
BRANCH   1  17
ATOM     17  C   UNL     1       5.524  16.874  33.508  1.00  0.00     0.000 C 
BRANCH  17  18
ATOM     18  C   UNL     1       4.277  17.755  33.716  1.00  0.00     0.000 C 
BRANCH  18  19
ATOM     19  C   UNL     1       4.422  19.212  33.238  1.00  0.00     0.000 C 
BRANCH  19  20
ATOM     20  C   UNL     1       3.083  19.836  32.808  1.00  0.00     0.000 C 
BRANCH  20  21
ATOM     21  C   UNL     1       2.369  20.547  33.969  1.00  0.00     0.000 C 
BRANCH  21  22
ATOM     22  C   UNL     1       0.843  20.598  33.771  1.00  0.00    -0.000 C 
BRANCH  22  23
ATOM     23  C   UNL     1       0.356  21.974  33.288  1.00  0.00    -0.000 C 
BRANCH  23  24
ATOM     24  C   UNL     1      -0.734  21.876  32.205  1.00  0.00    -0.000 C 
BRANCH  24  25
ATOM     25  C   UNL     1      -0.499  20.704  31.228  1.00  0.00    -0.000 C 
BRANCH  25  26
ATOM     26  C   UNL     1      -1.536  20.617  30.091  1.00  0.00    -0.000 C 
BRANCH  26  27
ATOM     27  C   UNL     1      -1.274  19.520  29.044  1.00  0.00    -0.000 C 
BRANCH  27  28
ATOM     28  C   UNL     1      -2.466  19.199  28.118  1.00  0.00    -0.000 C 
BRANCH  28  29
ATOM     29  C   UNL     1      -2.616  20.135  26.905  1.00  0.00    -0.003 C 
ATOM     30  C   UNL     1      -1.282  20.704  26.425  1.00  0.00     0.004 C 
ENDBRANCH  28  29
ENDBRANCH  27  28
ENDBRANCH  26  27
ENDBRANCH  25  26
ENDBRANCH  24  25
ENDBRANCH  23  24
ENDBRANCH  22  23
ENDBRANCH  21  22
ENDBRANCH  20  21
ENDBRANCH  19  20
ENDBRANCH  18  19
ENDBRANCH  17  18
ENDBRANCH   1  17
TORSDOF 26
ENDMDL
MODEL 9
REMARK VINA RESULT:    -3.487      3.017     11.292
REMARK INTER + INTRA:         -10.300
REMARK INTER:                  -9.202
REMARK INTRA:                  -1.098
REMARK UNBOUND:                -1.512
REMARK SMILES CCCCCCCCCCCCCCCCCCCCCCCCCCCC(=O)[O-]
REMARK SMILES IDX 15 1 16 2 17 3 18 4 19 5 20 6 21 7 22 8 23 9 24 10 25 11
REMARK SMILES IDX 26 12 27 13 28 14 29 15 30 16 14 17 13 18 12 19 11 20 10 21
REMARK SMILES IDX 9 22 8 23 7 24 6 25 5 26 4 27 3 28 2 29 1 30
REMARK H PARENT
REMARK Flexibility Score: inf
ROOT
ATOM      1  C   UNL     1       4.694  18.613  32.832  1.00  0.00     0.000 C 
ENDROOT
BRANCH   1   2
ATOM      2  C   UNL     1       5.490  18.477  34.139  1.00  0.00     0.000 C 
BRANCH   2   3
ATOM      3  C   UNL     1       6.636  17.453  34.030  1.00  0.00     0.000 C 
BRANCH   3   4
ATOM      4  C   UNL     1       7.087  17.207  32.574  1.00  0.00     0.000 C 
BRANCH   4   5
ATOM      5  C   UNL     1       6.758  15.800  32.040  1.00  0.00     0.000 C 
BRANCH   5   6
ATOM      6  C   UNL     1       7.809  15.192  31.094  1.00  0.00     0.000 C 
BRANCH   6   7
ATOM      7  C   UNL     1       7.437  13.822  30.491  1.00  0.00     0.000 C 
BRANCH   7   8
ATOM      8  C   UNL     1       7.941  13.579  29.054  1.00  0.00     0.000 C 
BRANCH   8   9
ATOM      9  C   UNL     1       9.265  14.279  28.697  1.00  0.00     0.000 C 
BRANCH   9  10
ATOM     10  C   UNL     1       9.814  13.857  27.324  1.00  0.00     0.000 C 
BRANCH  10  11
ATOM     11  C   UNL     1       8.711  13.727  26.262  1.00  0.00     0.000 C 
BRANCH  11  12
ATOM     12  C   UNL     1       9.158  14.237  24.880  1.00  0.00     0.006 C 
BRANCH  12  13
ATOM     13  C   UNL     1       8.179  15.265  24.297  1.00  0.00     0.053 C 
BRANCH  13  14
ATOM     14  C   UNL     1       6.755  14.822  24.436  1.00  0.00     0.041 C 
ATOM     15  O   UNL     1       6.419  13.654  24.099  1.00  0.00    -0.550 OA
ATOM     16  O   UNL     1       5.795  15.703  24.922  1.00  0.00    -0.550 OA
ENDBRANCH  13  14
ENDBRANCH  12  13
ENDBRANCH  11  12
ENDBRANCH  10  11
ENDBRANCH   9  10
ENDBRANCH   8   9
ENDBRANCH   7   8
ENDBRANCH   6   7
ENDBRANCH   5   6
ENDBRANCH   4   5
ENDBRANCH   3   4
ENDBRANCH   2   3
ENDBRANCH   1   2
BRANCH   1  17
ATOM     17  C   UNL     1       3.670  19.760  32.873  1.00  0.00     0.000 C 
BRANCH  17  18
ATOM     18  C   UNL     1       3.283  20.165  34.308  1.00  0.00     0.000 C 
BRANCH  18  19
ATOM     19  C   UNL     1       2.060  19.428  34.885  1.00  0.00     0.000 C 
BRANCH  19  20
ATOM     20  C   UNL     1       0.788  20.292  34.889  1.00  0.00     0.000 C 
BRANCH  20  21
ATOM     21  C   UNL     1       1.052  21.724  34.393  1.00  0.00     0.000 C 
BRANCH  21  22
ATOM     22  C   UNL     1      -0.245  22.449  33.989  1.00  0.00    -0.000 C 
BRANCH  22  23
ATOM     23  C   UNL     1      -0.506  22.392  32.475  1.00  0.00    -0.000 C 
BRANCH  23  24
ATOM     24  C   UNL     1      -0.080  21.053  31.846  1.00  0.00    -0.000 C 
BRANCH  24  25
ATOM     25  C   UNL     1      -1.233  20.352  31.096  1.00  0.00    -0.000 C 
BRANCH  25  26
ATOM     26  C   UNL     1      -1.111  20.410  29.561  1.00  0.00    -0.000 C 
BRANCH  26  27
ATOM     27  C   UNL     1      -1.474  19.110  28.822  1.00  0.00    -0.000 C 
BRANCH  27  28
ATOM     28  C   UNL     1      -2.545  19.259  27.720  1.00  0.00    -0.000 C 
BRANCH  28  29
ATOM     29  C   UNL     1      -2.606  20.647  27.058  1.00  0.00    -0.003 C 
ATOM     30  C   UNL     1      -1.483  20.873  26.047  1.00  0.00     0.004 C 
ENDBRANCH  28  29
ENDBRANCH  27  28
ENDBRANCH  26  27
ENDBRANCH  25  26
ENDBRANCH  24  25
ENDBRANCH  23  24
ENDBRANCH  22  23
ENDBRANCH  21  22
ENDBRANCH  20  21
ENDBRANCH  19  20
ENDBRANCH  18  19
ENDBRANCH  17  18
ENDBRANCH   1  17
TORSDOF 26
ENDMDL
