MODEL 1
REMARK VINA RESULT:    -4.059      0.000      0.000
REMARK INTER + INTRA:          -4.899
REMARK INTER:                  -4.770
REMARK INTRA:                  -0.129
REMARK UNBOUND:                -0.129
REMARK SMILES O=C([O-])C=Cc1ccc(O)c(O)c1
REMARK SMILES IDX 6 1 13 2 7 3 11 4 8 5 9 6 5 7 4 8 2 9 1 10 3 11 12 12 10 14
REMARK H PARENT 12 13 10 15
REMARK Flexibility Score: inf
ROOT
ATOM      1  C   UNL     1      19.459  11.274  -8.969  1.00  0.00    -0.022 A 
ATOM      2  C   UNL     1      20.687  10.886  -9.532  1.00  0.00     0.058 A 
ATOM      3  C   UNL     1      19.061  10.700  -7.745  1.00  0.00     0.012 A 
ATOM      4  C   UNL     1      21.516   9.966  -8.881  1.00  0.00     0.157 A 
ATOM      5  C   UNL     1      19.888   9.781  -7.094  1.00  0.00     0.051 A 
ATOM      6  C   UNL     1      21.116   9.412  -7.654  1.00  0.00     0.157 A 
ENDROOT
BRANCH   1   7
ATOM      7  C   UNL     1      18.615  12.246  -9.707  1.00  0.00     0.010 C 
ATOM      8  C   UNL     1      19.000  13.497  -9.998  1.00  0.00     0.025 C 
BRANCH   8   9
ATOM      9  C   UNL     1      18.138  14.431 -10.743  1.00  0.00     0.064 C 
ATOM     10  O   UNL     1      16.986  14.092 -11.125  1.00  0.00    -0.545 OA
ATOM     11  O   UNL     1      18.603  15.708 -11.028  1.00  0.00    -0.545 OA
ENDBRANCH   8   9
ENDBRANCH   1   7
BRANCH   4  12
ATOM     12  O   UNL     1      22.731   9.616  -9.468  1.00  0.00    -0.504 OA
ATOM     13  H   UNL     1      23.250   8.794  -9.182  1.00  0.00     0.293 HD
ENDBRANCH   4  12
BRANCH   6  14
ATOM     14  O   UNL     1      21.939   8.495  -6.999  1.00  0.00    -0.504 OA
ATOM     15  H   UNL     1      22.651   7.973  -7.495  1.00  0.00     0.293 HD
ENDBRANCH   6  14
TORSDOF 4
ENDMDL
MODEL 2
REMARK VINA RESULT:    -3.924      0.888      2.063
REMARK INTER + INTRA:          -4.741
REMARK INTER:                  -4.606
REMARK INTRA:                  -0.134
REMARK UNBOUND:                -0.129
REMARK SMILES O=C([O-])C=Cc1ccc(O)c(O)c1
REMARK SMILES IDX 6 1 13 2 7 3 11 4 8 5 9 6 5 7 4 8 2 9 1 10 3 11 12 12 10 14
REMARK H PARENT 12 13 10 15
REMARK Flexibility Score: inf
ROOT
ATOM      1  C   UNL     1      19.642  11.581  -9.471  1.00  0.00    -0.022 A 
ATOM      2  C   UNL     1      19.261  10.782  -8.379  1.00  0.00     0.058 A 
ATOM      3  C   UNL     1      20.957  11.474  -9.964  1.00  0.00     0.012 A 
ATOM      4  C   UNL     1      20.160   9.877  -7.804  1.00  0.00     0.157 A 
ATOM      5  C   UNL     1      21.856  10.571  -9.391  1.00  0.00     0.051 A 
ATOM      6  C   UNL     1      21.464   9.768  -8.314  1.00  0.00     0.157 A 
ENDROOT
BRANCH   1   7
ATOM      7  C   UNL     1      18.652  12.531 -10.035  1.00  0.00     0.010 C 
ATOM      8  C   UNL     1      18.886  13.840 -10.200  1.00  0.00     0.025 C 
BRANCH   8   9
ATOM      9  C   UNL     1      17.881  14.752 -10.774  1.00  0.00     0.064 C 
ATOM     10  O   UNL     1      18.136  15.972 -10.955  1.00  0.00    -0.545 OA
ATOM     11  O   UNL     1      16.632  14.257 -11.125  1.00  0.00    -0.545 OA
ENDBRANCH   8   9
ENDBRANCH   1   7
BRANCH   4  12
ATOM     12  O   UNL     1      19.740   9.094  -6.729  1.00  0.00    -0.504 OA
ATOM     13  H   UNL     1      18.995   8.413  -6.818  1.00  0.00     0.293 HD
ENDBRANCH   4  12
BRANCH   6  14
ATOM     14  O   UNL     1      22.365   8.867  -7.747  1.00  0.00    -0.504 OA
ATOM     15  H   UNL     1      22.049   8.080  -7.191  1.00  0.00     0.293 HD
ENDBRANCH   6  14
TORSDOF 4
ENDMDL
MODEL 3
REMARK VINA RESULT:    -3.488      2.814      4.168
REMARK INTER + INTRA:          -4.229
REMARK INTER:                  -4.101
REMARK INTRA:                  -0.128
REMARK UNBOUND:                -0.129
REMARK SMILES O=C([O-])C=Cc1ccc(O)c(O)c1
REMARK SMILES IDX 6 1 13 2 7 3 11 4 8 5 9 6 5 7 4 8 2 9 1 10 3 11 12 12 10 14
REMARK H PARENT 12 13 10 15
REMARK Flexibility Score: inf
ROOT
ATOM      1  C   UNL     1      19.334  12.933 -10.254  1.00  0.00    -0.022 A 
ATOM      2  C   UNL     1      19.378  11.927  -9.274  1.00  0.00     0.058 A 
ATOM      3  C   UNL     1      18.227  12.985 -11.125  1.00  0.00     0.012 A 
ATOM      4  C   UNL     1      18.333  11.006  -9.143  1.00  0.00     0.157 A 
ATOM      5  C   UNL     1      17.182  12.066 -10.995  1.00  0.00     0.051 A 
ATOM      6  C   UNL     1      17.227  11.077 -10.006  1.00  0.00     0.157 A 
ENDROOT
BRANCH   1   7
ATOM      7  C   UNL     1      20.474  13.876 -10.355  1.00  0.00     0.010 C 
ATOM      8  C   UNL     1      20.362  15.201 -10.188  1.00  0.00     0.025 C 
BRANCH   8   9
ATOM      9  C   UNL     1      21.520  16.107 -10.284  1.00  0.00     0.064 C 
ATOM     10  O   UNL     1      21.507  17.103 -11.055  1.00  0.00    -0.545 OA
ATOM     11  O   UNL     1      22.645  15.860  -9.509  1.00  0.00    -0.545 OA
ENDBRANCH   8   9
ENDBRANCH   1   7
BRANCH   4  12
ATOM     12  O   UNL     1      18.409  10.030  -8.150  1.00  0.00    -0.504 OA
ATOM     13  H   UNL     1      19.178   9.991  -7.491  1.00  0.00     0.293 HD
ENDBRANCH   4  12
BRANCH   6  14
ATOM     14  O   UNL     1      16.181  10.163  -9.880  1.00  0.00    -0.504 OA
ATOM     15  H   UNL     1      15.342  10.236 -10.443  1.00  0.00     0.293 HD
ENDBRANCH   6  14
TORSDOF 4
ENDMDL
MODEL 4
REMARK VINA RESULT:    -3.021      1.233      6.004
REMARK INTER + INTRA:          -3.679
REMARK INTER:                  -3.551
REMARK INTRA:                  -0.128
REMARK UNBOUND:                -0.129
REMARK SMILES O=C([O-])C=Cc1ccc(O)c(O)c1
REMARK SMILES IDX 6 1 13 2 7 3 11 4 8 5 9 6 5 7 4 8 2 9 1 10 3 11 12 12 10 14
REMARK H PARENT 12 13 10 15
REMARK Flexibility Score: inf
ROOT
ATOM      1  C   UNL     1      19.120  12.071  -9.808  1.00  0.00    -0.022 A 
ATOM      2  C   UNL     1      17.898  11.543 -10.257  1.00  0.00     0.058 A 
ATOM      3  C   UNL     1      19.305  13.468  -9.827  1.00  0.00     0.012 A 
ATOM      4  C   UNL     1      16.869  12.385 -10.693  1.00  0.00     0.157 A 
ATOM      5  C   UNL     1      18.278  14.310 -10.263  1.00  0.00     0.051 A 
ATOM      6  C   UNL     1      17.058  13.777 -10.693  1.00  0.00     0.157 A 
ENDROOT
BRANCH   1   7
ATOM      7  C   UNL     1      20.180  11.132  -9.367  1.00  0.00     0.010 C 
ATOM      8  C   UNL     1      20.070  10.334  -8.295  1.00  0.00     0.025 C 
BRANCH   8   9
ATOM      9  C   UNL     1      21.140   9.405  -7.894  1.00  0.00     0.064 C 
ATOM     10  O   UNL     1      22.192   9.288  -8.576  1.00  0.00    -0.545 OA
ATOM     11  O   UNL     1      20.987   8.645  -6.741  1.00  0.00    -0.545 OA
ENDBRANCH   8   9
ENDBRANCH   1   7
BRANCH   4  12
ATOM     12  O   UNL     1      15.667  11.821 -11.121  1.00  0.00    -0.504 OA
ATOM     13  H   UNL     1      15.259  12.043 -12.021  1.00  0.00     0.293 HD
ENDBRANCH   4  12
BRANCH   6  14
ATOM     14  O   UNL     1      16.036  14.622 -11.125  1.00  0.00    -0.504 OA
ATOM     15  H   UNL     1      16.212  15.592 -11.357  1.00  0.00     0.293 HD
ENDBRANCH   6  14
TORSDOF 4
ENDMDL
MODEL 5
REMARK VINA RESULT:    -2.870      9.463     12.537
REMARK INTER + INTRA:          -3.503
REMARK INTER:                  -3.374
REMARK INTRA:                  -0.129
REMARK UNBOUND:                -0.129
REMARK SMILES O=C([O-])C=Cc1ccc(O)c(O)c1
REMARK SMILES IDX 6 1 13 2 7 3 11 4 8 5 9 6 5 7 4 8 2 9 1 10 3 11 12 12 10 14
REMARK H PARENT 12 13 10 15
REMARK Flexibility Score: inf
ROOT
ATOM      1  C   UNL     1      19.993   0.441  -9.717  1.00  0.00    -0.022 A 
ATOM      2  C   UNL     1      18.669   0.594  -9.269  1.00  0.00     0.058 A 
ATOM      3  C   UNL     1      20.500   1.354 -10.663  1.00  0.00     0.012 A 
ATOM      4  C   UNL     1      17.873   1.648  -9.731  1.00  0.00     0.157 A 
ATOM      5  C   UNL     1      19.706   2.407 -11.125  1.00  0.00     0.051 A 
ATOM      6  C   UNL     1      18.395   2.562 -10.662  1.00  0.00     0.157 A 
ENDROOT
BRANCH   1   7
ATOM      7  C   UNL     1      20.788  -0.700  -9.202  1.00  0.00     0.010 C 
ATOM      8  C   UNL     1      21.733  -0.584  -8.258  1.00  0.00     0.025 C 
BRANCH   8   9
ATOM      9  C   UNL     1      22.495  -1.743  -7.762  1.00  0.00     0.064 C 
ATOM     10  O   UNL     1      23.094  -2.517  -8.555  1.00  0.00    -0.545 OA
ATOM     11  O   UNL     1      22.557  -1.985  -6.397  1.00  0.00    -0.545 OA
ENDBRANCH   8   9
ENDBRANCH   1   7
BRANCH   4  12
ATOM     12  O   UNL     1      16.569   1.772  -9.254  1.00  0.00    -0.504 OA
ATOM     13  H   UNL     1      16.221   1.210  -8.487  1.00  0.00     0.293 HD
ENDBRANCH   4  12
BRANCH   6  14
ATOM     14  O   UNL     1      17.607   3.615 -11.125  1.00  0.00    -0.504 OA
ATOM     15  H   UNL     1      18.016   4.491 -11.428  1.00  0.00     0.293 HD
ENDBRANCH   6  14
TORSDOF 4
ENDMDL
MODEL 6
REMARK VINA RESULT:    -2.868      1.231      5.994
REMARK INTER + INTRA:          -3.500
REMARK INTER:                  -3.371
REMARK INTRA:                  -0.129
REMARK UNBOUND:                -0.129
REMARK SMILES O=C([O-])C=Cc1ccc(O)c(O)c1
REMARK SMILES IDX 6 1 13 2 7 3 11 4 8 5 9 6 5 7 4 8 2 9 1 10 3 11 12 12 10 14
REMARK H PARENT 12 13 10 15
REMARK Flexibility Score: inf
ROOT
ATOM      1  C   UNL     1      19.022  12.408  -9.760  1.00  0.00    -0.022 A 
ATOM      2  C   UNL     1      19.347  13.691  -9.287  1.00  0.00     0.058 A 
ATOM      3  C   UNL     1      17.962  12.271 -10.677  1.00  0.00     0.012 A 
ATOM      4  C   UNL     1      18.650  14.819  -9.734  1.00  0.00     0.157 A 
ATOM      5  C   UNL     1      17.264  13.396 -11.125  1.00  0.00     0.051 A 
ATOM      6  C   UNL     1      17.604  14.672 -10.661  1.00  0.00     0.157 A 
ENDROOT
BRANCH   1   7
ATOM      7  C   UNL     1      19.788  11.247  -9.244  1.00  0.00     0.010 C 
ATOM      8  C   UNL     1      19.665  10.769  -7.997  1.00  0.00     0.025 C 
BRANCH   8   9
ATOM      9  C   UNL     1      20.434   9.605  -7.523  1.00  0.00     0.064 C 
ATOM     10  O   UNL     1      21.235   8.999  -8.284  1.00  0.00    -0.545 OA
ATOM     11  O   UNL     1      20.276   9.170  -6.214  1.00  0.00    -0.545 OA
ENDBRANCH   8   9
ENDBRANCH   1   7
BRANCH   4  12
ATOM     12  O   UNL     1      19.010  16.075  -9.249  1.00  0.00    -0.504 OA
ATOM     13  H   UNL     1      19.417  16.786  -9.844  1.00  0.00     0.293 HD
ENDBRANCH   4  12
BRANCH   6  14
ATOM     14  O   UNL     1      16.906  15.792 -11.112  1.00  0.00    -0.504 OA
ATOM     15  H   UNL     1      16.041  16.088 -10.677  1.00  0.00     0.293 HD
ENDBRANCH   6  14
TORSDOF 4
ENDMDL
MODEL 7
REMARK VINA RESULT:    -2.848      3.226      4.561
REMARK INTER + INTRA:          -3.476
REMARK INTER:                  -3.338
REMARK INTRA:                  -0.138
REMARK UNBOUND:                -0.129
REMARK SMILES O=C([O-])C=Cc1ccc(O)c(O)c1
REMARK SMILES IDX 6 1 13 2 7 3 11 4 8 5 9 6 5 7 4 8 2 9 1 10 3 11 12 12 10 14
REMARK H PARENT 12 13 10 15
REMARK Flexibility Score: inf
ROOT
ATOM      1  C   UNL     1      18.951  13.343 -10.250  1.00  0.00    -0.022 A 
ATOM      2  C   UNL     1      17.642  13.336 -10.762  1.00  0.00     0.058 A 
ATOM      3  C   UNL     1      19.406  12.218  -9.535  1.00  0.00     0.012 A 
ATOM      4  C   UNL     1      16.811  12.224 -10.591  1.00  0.00     0.157 A 
ATOM      5  C   UNL     1      18.577  11.107  -9.363  1.00  0.00     0.051 A 
ATOM      6  C   UNL     1      17.280  11.101  -9.890  1.00  0.00     0.157 A 
ENDROOT
BRANCH   1   7
ATOM      7  C   UNL     1      19.786  14.553 -10.452  1.00  0.00     0.010 C 
ATOM      8  C   UNL     1      21.111  14.585 -10.252  1.00  0.00     0.025 C 
BRANCH   8   9
ATOM      9  C   UNL     1      21.910  15.802 -10.475  1.00  0.00     0.064 C 
ATOM     10  O   UNL     1      23.083  15.739 -10.929  1.00  0.00    -0.545 OA
ATOM     11  O   UNL     1      21.359  17.043 -10.181  1.00  0.00    -0.545 OA
ENDBRANCH   8   9
ENDBRANCH   1   7
BRANCH   4  12
ATOM     12  O   UNL     1      15.523  12.253 -11.125  1.00  0.00    -0.504 OA
ATOM     13  H   UNL     1      14.966  13.098 -11.143  1.00  0.00     0.293 HD
ENDBRANCH   4  12
BRANCH   6  14
ATOM     14  O   UNL     1      16.457   9.990  -9.717  1.00  0.00    -0.504 OA
ATOM     15  H   UNL     1      15.815   9.921  -8.936  1.00  0.00     0.293 HD
ENDBRANCH   6  14
TORSDOF 4
ENDMDL
MODEL 8
REMARK VINA RESULT:    -2.550      2.639      6.712
REMARK INTER + INTRA:          -3.126
REMARK INTER:                  -2.991
REMARK INTRA:                  -0.135
REMARK UNBOUND:                -0.129
REMARK SMILES O=C([O-])C=Cc1ccc(O)c(O)c1
REMARK SMILES IDX 6 1 13 2 7 3 11 4 8 5 9 6 5 7 4 8 2 9 1 10 3 11 12 12 10 14
REMARK H PARENT 12 13 10 15
REMARK Flexibility Score: inf
ROOT
ATOM      1  C   UNL     1      20.448   9.035  -6.622  1.00  0.00    -0.022 A 
ATOM      2  C   UNL     1      21.436   9.000  -7.621  1.00  0.00     0.058 A 
ATOM      3  C   UNL     1      19.380   9.946  -6.754  1.00  0.00     0.012 A 
ATOM      4  C   UNL     1      21.353   9.834  -8.741  1.00  0.00     0.157 A 
ATOM      5  C   UNL     1      19.297  10.779  -7.872  1.00  0.00     0.051 A 
ATOM      6  C   UNL     1      20.276  10.726  -8.870  1.00  0.00     0.157 A 
ENDROOT
BRANCH   1   7
ATOM      7  C   UNL     1      20.591   8.136  -5.450  1.00  0.00     0.010 C 
ATOM      8  C   UNL     1      21.447   7.106  -5.402  1.00  0.00     0.025 C 
BRANCH   8   9
ATOM      9  C   UNL     1      21.569   6.241  -4.216  1.00  0.00     0.064 C 
ATOM     10  O   UNL     1      20.931   6.490  -3.158  1.00  0.00    -0.545 OA
ATOM     11  O   UNL     1      22.401   5.131  -4.265  1.00  0.00    -0.545 OA
ENDBRANCH   8   9
ENDBRANCH   1   7
BRANCH   4  12
ATOM     12  O   UNL     1      22.348   9.760  -9.716  1.00  0.00    -0.504 OA
ATOM     13  H   UNL     1      22.138   9.808 -10.705  1.00  0.00     0.293 HD
ENDBRANCH   4  12
BRANCH   6  14
ATOM     14  O   UNL     1      20.188  11.559  -9.985  1.00  0.00    -0.504 OA
ATOM     15  H   UNL     1      20.989  11.738 -10.579  1.00  0.00     0.293 HD
ENDBRANCH   6  14
TORSDOF 4
ENDMDL
MODEL 9
REMARK VINA RESULT:    -2.470      3.056      7.085
REMARK INTER + INTRA:          -3.031
REMARK INTER:                  -2.900
REMARK INTRA:                  -0.132
REMARK UNBOUND:                -0.129
REMARK SMILES O=C([O-])C=Cc1ccc(O)c(O)c1
REMARK SMILES IDX 6 1 13 2 7 3 11 4 8 5 9 6 5 7 4 8 2 9 1 10 3 11 12 12 10 14
REMARK H PARENT 12 13 10 15
REMARK Flexibility Score: inf
ROOT
ATOM      1  C   UNL     1      20.693   9.065  -6.672  1.00  0.00    -0.022 A 
ATOM      2  C   UNL     1      19.914  10.006  -5.977  1.00  0.00     0.058 A 
ATOM      3  C   UNL     1      20.808   9.179  -8.072  1.00  0.00     0.012 A 
ATOM      4  C   UNL     1      19.282  11.055  -6.655  1.00  0.00     0.157 A 
ATOM      5  C   UNL     1      20.178  10.226  -8.749  1.00  0.00     0.051 A 
ATOM      6  C   UNL     1      19.417  11.168  -8.048  1.00  0.00     0.157 A 
ENDROOT
BRANCH   1   7
ATOM      7  C   UNL     1      21.331   7.967  -5.905  1.00  0.00     0.010 C 
ATOM      8  C   UNL     1      20.764   7.370  -4.847  1.00  0.00     0.025 C 
BRANCH   8   9
ATOM      9  C   UNL     1      21.424   6.275  -4.116  1.00  0.00     0.064 C 
ATOM     10  O   UNL     1      22.253   5.516  -4.686  1.00  0.00    -0.545 OA
ATOM     11  O   UNL     1      21.130   6.075  -2.774  1.00  0.00    -0.545 OA
ENDBRANCH   8   9
ENDBRANCH   1   7
BRANCH   4  12
ATOM     12  O   UNL     1      18.527  11.974  -5.927  1.00  0.00    -0.504 OA
ATOM     13  H   UNL     1      18.621  12.974  -6.061  1.00  0.00     0.293 HD
ENDBRANCH   4  12
BRANCH   6  14
ATOM     14  O   UNL     1      18.791  12.212  -8.729  1.00  0.00    -0.504 OA
ATOM     15  H   UNL     1      19.321  12.973  -9.137  1.00  0.00     0.293 HD
ENDBRANCH   6  14
TORSDOF 4
ENDMDL
