MODEL 1
REMARK VINA RESULT:    -4.476      0.000      0.000
REMARK INTER + INTRA:         -13.851
REMARK INTER:                 -10.232
REMARK INTRA:                  -3.618
REMARK UNBOUND:                -3.618
REMARK SMILES CCCCCCCCCCCCCCCCCCCCCCCC(=O)[O-]
REMARK SMILES IDX 13 1 14 2 15 3 16 4 17 5 18 6 19 7 20 8 21 9 22 10 23 11
REMARK SMILES IDX 24 12 25 13 26 14 12 15 11 16 10 17 9 18 8 19 7 20 6 21 5 22
REMARK SMILES IDX 4 23 3 24 2 25 1 26
REMARK H PARENT
REMARK Flexibility Score: inf
ROOT
ATOM      1  C   UNL     1      46.745   7.075  19.511  1.00  0.00     0.000 C 
ENDROOT
BRANCH   1   2
ATOM      2  C   UNL     1      46.518   7.087  21.031  1.00  0.00     0.000 C 
BRANCH   2   3
ATOM      3  C   UNL     1      47.805   6.799  21.824  1.00  0.00     0.000 C 
BRANCH   3   4
ATOM      4  C   UNL     1      48.322   8.039  22.571  1.00  0.00     0.000 C 
BRANCH   4   5
ATOM      5  C   UNL     1      47.199   8.792  23.305  1.00  0.00     0.000 C 
BRANCH   5   6
ATOM      6  C   UNL     1      47.181  10.297  22.984  1.00  0.00     0.000 C 
BRANCH   6   7
ATOM      7  C   UNL     1      46.332  10.688  21.757  1.00  0.00     0.000 C 
BRANCH   7   8
ATOM      8  C   UNL     1      44.840  10.942  22.048  1.00  0.00     0.000 C 
BRANCH   8   9
ATOM      9  C   UNL     1      43.935   9.698  21.954  1.00  0.00     0.000 C 
BRANCH   9  10
ATOM     10  C   UNL     1      43.792   8.898  23.260  1.00  0.00     0.006 C 
BRANCH  10  11
ATOM     11  C   UNL     1      43.196   9.728  24.404  1.00  0.00     0.053 C 
BRANCH  11  12
ATOM     12  C   UNL     1      44.110   9.716  25.589  1.00  0.00     0.041 C 
ATOM     13  O   UNL     1      45.064  10.535  25.661  1.00  0.00    -0.550 OA
ATOM     14  O   UNL     1      43.877   8.836  26.640  1.00  0.00    -0.550 OA
ENDBRANCH  11  12
ENDBRANCH  10  11
ENDBRANCH   9  10
ENDBRANCH   8   9
ENDBRANCH   7   8
ENDBRANCH   6   7
ENDBRANCH   5   6
ENDBRANCH   4   5
ENDBRANCH   3   4
ENDBRANCH   2   3
ENDBRANCH   1   2
BRANCH   1  15
ATOM     15  C   UNL     1      46.252   8.364  18.831  1.00  0.00     0.000 C 
BRANCH  15  16
ATOM     16  C   UNL     1      44.726   8.373  18.623  1.00  0.00     0.000 C 
BRANCH  16  17
ATOM     17  C   UNL     1      44.185   9.682  18.016  1.00  0.00     0.000 C 
BRANCH  17  18
ATOM     18  C   UNL     1      45.310  10.592  17.491  1.00  0.00    -0.000 C 
BRANCH  18  19
ATOM     19  C   UNL     1      45.425  10.565  15.959  1.00  0.00    -0.000 C 
BRANCH  19  20
ATOM     20  C   UNL     1      46.472   9.557  15.460  1.00  0.00    -0.000 C 
BRANCH  20  21
ATOM     21  C   UNL     1      45.886   8.654  14.368  1.00  0.00    -0.000 C 
BRANCH  21  22
ATOM     22  C   UNL     1      44.810   7.723  14.941  1.00  0.00    -0.000 C 
BRANCH  22  23
ATOM     23  C   UNL     1      45.246   6.247  14.968  1.00  0.00    -0.000 C 
BRANCH  23  24
ATOM     24  C   UNL     1      46.449   5.942  14.051  1.00  0.00    -0.000 C 
BRANCH  24  25
ATOM     25  C   UNL     1      47.587   5.233  14.801  1.00  0.00    -0.003 C 
ATOM     26  C   UNL     1      47.548   5.554  16.292  1.00  0.00     0.004 C 
ENDBRANCH  24  25
ENDBRANCH  23  24
ENDBRANCH  22  23
ENDBRANCH  21  22
ENDBRANCH  20  21
ENDBRANCH  19  20
ENDBRANCH  18  19
ENDBRANCH  17  18
ENDBRANCH  16  17
ENDBRANCH  15  16
ENDBRANCH   1  15
TORSDOF 22
ENDMDL
MODEL 2
REMARK VINA RESULT:    -4.004      3.571      8.053
REMARK INTER + INTRA:         -12.772
REMARK INTER:                  -9.403
REMARK INTRA:                  -3.369
REMARK UNBOUND:                -3.618
REMARK SMILES CCCCCCCCCCCCCCCCCCCCCCCC(=O)[O-]
REMARK SMILES IDX 13 1 14 2 15 3 16 4 17 5 18 6 19 7 20 8 21 9 22 10 23 11
REMARK SMILES IDX 24 12 25 13 26 14 12 15 11 16 10 17 9 18 8 19 7 20 6 21 5 22
REMARK SMILES IDX 4 23 3 24 2 25 1 26
REMARK H PARENT
REMARK Flexibility Score: inf
ROOT
ATOM      1  C   UNL     1      47.139   6.388  21.148  1.00  0.00     0.000 C 
ENDROOT
BRANCH   1   2
ATOM      2  C   UNL     1      46.519   7.479  20.262  1.00  0.00     0.000 C 
BRANCH   2   3
ATOM      3  C   UNL     1      46.753   7.226  18.762  1.00  0.00     0.000 C 
BRANCH   3   4
ATOM      4  C   UNL     1      45.471   7.400  17.932  1.00  0.00     0.000 C 
BRANCH   4   5
ATOM      5  C   UNL     1      44.567   8.520  18.475  1.00  0.00     0.000 C 
BRANCH   5   6
ATOM      6  C   UNL     1      44.621   9.798  17.620  1.00  0.00     0.000 C 
BRANCH   6   7
ATOM      7  C   UNL     1      45.973  10.538  17.644  1.00  0.00     0.000 C 
BRANCH   7   8
ATOM      8  C   UNL     1      46.644  10.720  16.268  1.00  0.00     0.000 C 
BRANCH   8   9
ATOM      9  C   UNL     1      45.853  10.147  15.075  1.00  0.00     0.000 C 
BRANCH   9  10
ATOM     10  C   UNL     1      46.347   8.782  14.564  1.00  0.00     0.006 C 
BRANCH  10  11
ATOM     11  C   UNL     1      45.199   7.835  14.193  1.00  0.00     0.053 C 
BRANCH  11  12
ATOM     12  C   UNL     1      45.598   6.413  14.430  1.00  0.00     0.041 C 
ATOM     13  O   UNL     1      44.729   5.502  14.421  1.00  0.00    -0.550 OA
ATOM     14  O   UNL     1      46.937   6.086  14.609  1.00  0.00    -0.550 OA
ENDBRANCH  11  12
ENDBRANCH  10  11
ENDBRANCH   9  10
ENDBRANCH   8   9
ENDBRANCH   7   8
ENDBRANCH   6   7
ENDBRANCH   5   6
ENDBRANCH   4   5
ENDBRANCH   3   4
ENDBRANCH   2   3
ENDBRANCH   1   2
BRANCH   1  15
ATOM     15  C   UNL     1      47.615   6.932  22.507  1.00  0.00     0.000 C 
BRANCH  15  16
ATOM     16  C   UNL     1      48.110   8.388  22.417  1.00  0.00     0.000 C 
BRANCH  16  17
ATOM     17  C   UNL     1      47.516   9.318  23.492  1.00  0.00     0.000 C 
BRANCH  17  18
ATOM     18  C   UNL     1      47.082  10.678  22.916  1.00  0.00    -0.000 C 
BRANCH  18  19
ATOM     19  C   UNL     1      46.336  10.542  21.579  1.00  0.00    -0.000 C 
BRANCH  19  20
ATOM     20  C   UNL     1      44.900  11.087  21.643  1.00  0.00    -0.000 C 
BRANCH  20  21
ATOM     21  C   UNL     1      43.880   9.943  21.615  1.00  0.00    -0.000 C 
BRANCH  21  22
ATOM     22  C   UNL     1      44.107   8.973  22.782  1.00  0.00    -0.000 C 
BRANCH  22  23
ATOM     23  C   UNL     1      43.265   9.319  24.023  1.00  0.00    -0.000 C 
BRANCH  23  24
ATOM     24  C   UNL     1      43.740  10.591  24.757  1.00  0.00    -0.000 C 
BRANCH  24  25
ATOM     25  C   UNL     1      44.802  10.283  25.824  1.00  0.00    -0.003 C 
ATOM     26  C   UNL     1      44.763   8.814  26.233  1.00  0.00     0.004 C 
ENDBRANCH  24  25
ENDBRANCH  23  24
ENDBRANCH  22  23
ENDBRANCH  21  22
ENDBRANCH  20  21
ENDBRANCH  19  20
ENDBRANCH  18  19
ENDBRANCH  17  18
ENDBRANCH  16  17
ENDBRANCH  15  16
ENDBRANCH   1  15
TORSDOF 22
ENDMDL
MODEL 3
REMARK VINA RESULT:    -3.735      1.040      2.836
REMARK INTER + INTRA:         -12.158
REMARK INTER:                  -9.712
REMARK INTRA:                  -2.446
REMARK UNBOUND:                -3.618
REMARK SMILES CCCCCCCCCCCCCCCCCCCCCCCC(=O)[O-]
REMARK SMILES IDX 13 1 14 2 15 3 16 4 17 5 18 6 19 7 20 8 21 9 22 10 23 11
REMARK SMILES IDX 24 12 25 13 26 14 12 15 11 16 10 17 9 18 8 19 7 20 6 21 5 22
REMARK SMILES IDX 4 23 3 24 2 25 1 26
REMARK H PARENT
REMARK Flexibility Score: inf
ROOT
ATOM      1  C   UNL     1      46.772   6.659  20.281  1.00  0.00     0.000 C 
ENDROOT
BRANCH   1   2
ATOM      2  C   UNL     1      46.630   7.340  21.651  1.00  0.00     0.000 C 
BRANCH   2   3
ATOM      3  C   UNL     1      47.973   7.464  22.392  1.00  0.00     0.000 C 
BRANCH   3   4
ATOM      4  C   UNL     1      48.266   8.905  22.838  1.00  0.00     0.000 C 
BRANCH   4   5
ATOM      5  C   UNL     1      47.065   9.556  23.546  1.00  0.00     0.000 C 
BRANCH   5   6
ATOM      6  C   UNL     1      46.559  10.817  22.825  1.00  0.00     0.000 C 
BRANCH   6   7
ATOM      7  C   UNL     1      45.858  10.556  21.476  1.00  0.00     0.000 C 
BRANCH   7   8
ATOM      8  C   UNL     1      44.323  10.690  21.501  1.00  0.00     0.000 C 
BRANCH   8   9
ATOM      9  C   UNL     1      43.705  10.870  22.902  1.00  0.00     0.000 C 
BRANCH   9  10
ATOM     10  C   UNL     1      43.487   9.566  23.688  1.00  0.00     0.006 C 
BRANCH  10  11
ATOM     11  C   UNL     1      43.189   9.809  25.173  1.00  0.00     0.053 C 
BRANCH  11  12
ATOM     12  C   UNL     1      44.445   9.709  25.980  1.00  0.00     0.041 C 
ATOM     13  O   UNL     1      44.882   8.583  26.334  1.00  0.00    -0.550 OA
ATOM     14  O   UNL     1      45.162  10.857  26.296  1.00  0.00    -0.550 OA
ENDBRANCH  11  12
ENDBRANCH  10  11
ENDBRANCH   9  10
ENDBRANCH   8   9
ENDBRANCH   7   8
ENDBRANCH   6   7
ENDBRANCH   5   6
ENDBRANCH   4   5
ENDBRANCH   3   4
ENDBRANCH   2   3
ENDBRANCH   1   2
BRANCH   1  15
ATOM     15  C   UNL     1      46.509   7.625  19.113  1.00  0.00     0.000 C 
BRANCH  15  16
ATOM     16  C   UNL     1      46.023   6.897  17.845  1.00  0.00     0.000 C 
BRANCH  16  17
ATOM     17  C   UNL     1      47.054   5.919  17.251  1.00  0.00     0.000 C 
BRANCH  17  18
ATOM     18  C   UNL     1      47.397   6.247  15.786  1.00  0.00    -0.000 C 
BRANCH  18  19
ATOM     19  C   UNL     1      47.016   5.111  14.823  1.00  0.00    -0.000 C 
BRANCH  19  20
ATOM     20  C   UNL     1      45.868   5.496  13.875  1.00  0.00    -0.000 C 
BRANCH  20  21
ATOM     21  C   UNL     1      44.515   5.404  14.590  1.00  0.00    -0.000 C 
BRANCH  21  22
ATOM     22  C   UNL     1      43.671   6.660  14.337  1.00  0.00    -0.000 C 
BRANCH  22  23
ATOM     23  C   UNL     1      44.478   7.962  14.473  1.00  0.00    -0.000 C 
BRANCH  23  24
ATOM     24  C   UNL     1      44.296   8.663  15.836  1.00  0.00    -0.000 C 
BRANCH  24  25
ATOM     25  C   UNL     1      45.192   9.903  15.976  1.00  0.00    -0.003 C 
ATOM     26  C   UNL     1      46.516   9.713  15.243  1.00  0.00     0.004 C 
ENDBRANCH  24  25
ENDBRANCH  23  24
ENDBRANCH  22  23
ENDBRANCH  21  22
ENDBRANCH  20  21
ENDBRANCH  19  20
ENDBRANCH  18  19
ENDBRANCH  17  18
ENDBRANCH  16  17
ENDBRANCH  15  16
ENDBRANCH   1  15
TORSDOF 22
ENDMDL
MODEL 4
REMARK VINA RESULT:    -3.645      3.500      8.742
REMARK INTER + INTRA:         -11.952
REMARK INTER:                  -9.353
REMARK INTRA:                  -2.598
REMARK UNBOUND:                -3.618
REMARK SMILES CCCCCCCCCCCCCCCCCCCCCCCC(=O)[O-]
REMARK SMILES IDX 13 1 14 2 15 3 16 4 17 5 18 6 19 7 20 8 21 9 22 10 23 11
REMARK SMILES IDX 24 12 25 13 26 14 12 15 11 16 10 17 9 18 8 19 7 20 6 21 5 22
REMARK SMILES IDX 4 23 3 24 2 25 1 26
REMARK H PARENT
REMARK Flexibility Score: inf
ROOT
ATOM      1  C   UNL     1      45.745   7.375  18.777  1.00  0.00     0.000 C 
ENDROOT
BRANCH   1   2
ATOM      2  C   UNL     1      45.058   8.724  19.039  1.00  0.00     0.000 C 
BRANCH   2   3
ATOM      3  C   UNL     1      46.037   9.909  18.976  1.00  0.00     0.000 C 
BRANCH   3   4
ATOM      4  C   UNL     1      45.924  10.693  17.659  1.00  0.00     0.000 C 
BRANCH   4   5
ATOM      5  C   UNL     1      46.464   9.900  16.456  1.00  0.00     0.000 C 
BRANCH   5   6
ATOM      6  C   UNL     1      45.401   9.670  15.367  1.00  0.00     0.000 C 
BRANCH   6   7
ATOM      7  C   UNL     1      44.112   8.980  15.855  1.00  0.00     0.000 C 
BRANCH   7   8
ATOM      8  C   UNL     1      44.127   7.440  15.785  1.00  0.00     0.000 C 
BRANCH   8   9
ATOM      9  C   UNL     1      44.136   6.852  14.361  1.00  0.00     0.000 C 
BRANCH   9  10
ATOM     10  C   UNL     1      45.043   5.623  14.172  1.00  0.00     0.006 C 
BRANCH  10  11
ATOM     11  C   UNL     1      46.501   5.999  13.876  1.00  0.00     0.053 C 
BRANCH  11  12
ATOM     12  C   UNL     1      47.408   5.439  14.926  1.00  0.00     0.041 C 
ATOM     13  O   UNL     1      47.093   5.519  16.142  1.00  0.00    -0.550 OA
ATOM     14  O   UNL     1      48.576   4.783  14.558  1.00  0.00    -0.550 OA
ENDBRANCH  11  12
ENDBRANCH  10  11
ENDBRANCH   9  10
ENDBRANCH   8   9
ENDBRANCH   7   8
ENDBRANCH   6   7
ENDBRANCH   5   6
ENDBRANCH   4   5
ENDBRANCH   3   4
ENDBRANCH   2   3
ENDBRANCH   1   2
BRANCH   1  15
ATOM     15  C   UNL     1      47.059   7.220  19.562  1.00  0.00     0.000 C 
BRANCH  15  16
ATOM     16  C   UNL     1      46.825   6.770  21.017  1.00  0.00     0.000 C 
BRANCH  16  17
ATOM     17  C   UNL     1      47.883   7.290  22.009  1.00  0.00     0.000 C 
BRANCH  17  18
ATOM     18  C   UNL     1      47.356   8.447  22.876  1.00  0.00    -0.000 C 
BRANCH  18  19
ATOM     19  C   UNL     1      45.873   8.756  22.611  1.00  0.00    -0.000 C 
BRANCH  19  20
ATOM     20  C   UNL     1      45.565  10.261  22.644  1.00  0.00    -0.000 C 
BRANCH  20  21
ATOM     21  C   UNL     1      46.138  10.909  23.910  1.00  0.00    -0.000 C 
BRANCH  21  22
ATOM     22  C   UNL     1      45.082  10.974  25.022  1.00  0.00    -0.000 C 
BRANCH  22  23
ATOM     23  C   UNL     1      45.008   9.682  25.854  1.00  0.00    -0.000 C 
BRANCH  23  24
ATOM     24  C   UNL     1      43.603   9.043  25.879  1.00  0.00    -0.000 C 
BRANCH  24  25
ATOM     25  C   UNL     1      42.681   9.624  24.796  1.00  0.00    -0.003 C 
ATOM     26  C   UNL     1      41.355  10.086  25.391  1.00  0.00     0.004 C 
ENDBRANCH  24  25
ENDBRANCH  23  24
ENDBRANCH  22  23
ENDBRANCH  21  22
ENDBRANCH  20  21
ENDBRANCH  19  20
ENDBRANCH  18  19
ENDBRANCH  17  18
ENDBRANCH  16  17
ENDBRANCH  15  16
ENDBRANCH   1  15
TORSDOF 22
ENDMDL
MODEL 5
REMARK VINA RESULT:    -3.516      2.339      4.137
REMARK INTER + INTRA:         -11.655
REMARK INTER:                  -9.100
REMARK INTRA:                  -2.556
REMARK UNBOUND:                -3.618
REMARK SMILES CCCCCCCCCCCCCCCCCCCCCCCC(=O)[O-]
REMARK SMILES IDX 13 1 14 2 15 3 16 4 17 5 18 6 19 7 20 8 21 9 22 10 23 11
REMARK SMILES IDX 24 12 25 13 26 14 12 15 11 16 10 17 9 18 8 19 7 20 6 21 5 22
REMARK SMILES IDX 4 23 3 24 2 25 1 26
REMARK H PARENT
REMARK Flexibility Score: inf
ROOT
ATOM      1  C   UNL     1      43.746   9.423  22.235  1.00  0.00     0.000 C 
ENDROOT
BRANCH   1   2
ATOM      2  C   UNL     1      43.564   9.256  23.751  1.00  0.00     0.000 C 
BRANCH   2   3
ATOM      3  C   UNL     1      43.355  10.598  24.474  1.00  0.00     0.000 C 
BRANCH   3   4
ATOM      4  C   UNL     1      44.558  10.987  25.347  1.00  0.00     0.000 C 
BRANCH   4   5
ATOM      5  C   UNL     1      45.829  10.203  24.979  1.00  0.00     0.000 C 
BRANCH   5   6
ATOM      6  C   UNL     1      46.740  10.968  24.003  1.00  0.00     0.000 C 
BRANCH   6   7
ATOM      7  C   UNL     1      47.279  10.130  22.826  1.00  0.00     0.000 C 
BRANCH   7   8
ATOM      8  C   UNL     1      48.377   9.114  23.195  1.00  0.00     0.000 C 
BRANCH   8   9
ATOM      9  C   UNL     1      48.123   7.673  22.710  1.00  0.00     0.000 C 
BRANCH   9  10
ATOM     10  C   UNL     1      46.842   7.484  21.879  1.00  0.00     0.006 C 
BRANCH  10  11
ATOM     11  C   UNL     1      47.060   6.608  20.638  1.00  0.00     0.053 C 
BRANCH  11  12
ATOM     12  C   UNL     1      46.616   7.331  19.405  1.00  0.00     0.041 C 
ATOM     13  O   UNL     1      46.307   8.550  19.463  1.00  0.00    -0.550 OA
ATOM     14  O   UNL     1      46.596   6.672  18.182  1.00  0.00    -0.550 OA
ENDBRANCH  11  12
ENDBRANCH  10  11
ENDBRANCH   9  10
ENDBRANCH   8   9
ENDBRANCH   7   8
ENDBRANCH   6   7
ENDBRANCH   5   6
ENDBRANCH   4   5
ENDBRANCH   3   4
ENDBRANCH   2   3
ENDBRANCH   1   2
BRANCH   1  15
ATOM     15  C   UNL     1      43.785  10.900  21.805  1.00  0.00     0.000 C 
BRANCH  15  16
ATOM     16  C   UNL     1      44.285  11.080  20.360  1.00  0.00     0.000 C 
BRANCH  16  17
ATOM     17  C   UNL     1      43.432  10.346  19.307  1.00  0.00     0.000 C 
BRANCH  17  18
ATOM     18  C   UNL     1      43.790  10.760  17.869  1.00  0.00    -0.000 C 
BRANCH  18  19
ATOM     19  C   UNL     1      44.142   9.558  16.978  1.00  0.00    -0.000 C 
BRANCH  19  20
ATOM     20  C   UNL     1      45.436   9.771  16.177  1.00  0.00    -0.000 C 
BRANCH  20  21
ATOM     21  C   UNL     1      45.538   8.763  15.026  1.00  0.00    -0.000 C 
BRANCH  21  22
ATOM     22  C   UNL     1      44.464   7.674  15.149  1.00  0.00    -0.000 C 
BRANCH  22  23
ATOM     23  C   UNL     1      45.050   6.252  15.160  1.00  0.00    -0.000 C 
BRANCH  23  24
ATOM     24  C   UNL     1      46.391   6.130  14.408  1.00  0.00    -0.000 C 
BRANCH  24  25
ATOM     25  C   UNL     1      47.353   5.144  15.089  1.00  0.00    -0.003 C 
ATOM     26  C   UNL     1      47.877   4.110  14.097  1.00  0.00     0.004 C 
ENDBRANCH  24  25
ENDBRANCH  23  24
ENDBRANCH  22  23
ENDBRANCH  21  22
ENDBRANCH  20  21
ENDBRANCH  19  20
ENDBRANCH  18  19
ENDBRANCH  17  18
ENDBRANCH  16  17
ENDBRANCH  15  16
ENDBRANCH   1  15
TORSDOF 22
ENDMDL
MODEL 6
REMARK VINA RESULT:    -3.489      2.051      3.934
REMARK INTER + INTRA:         -11.594
REMARK INTER:                  -8.764
REMARK INTRA:                  -2.830
REMARK UNBOUND:                -3.618
REMARK SMILES CCCCCCCCCCCCCCCCCCCCCCCC(=O)[O-]
REMARK SMILES IDX 13 1 14 2 15 3 16 4 17 5 18 6 19 7 20 8 21 9 22 10 23 11
REMARK SMILES IDX 24 12 25 13 26 14 12 15 11 16 10 17 9 18 8 19 7 20 6 21 5 22
REMARK SMILES IDX 4 23 3 24 2 25 1 26
REMARK H PARENT
REMARK Flexibility Score: inf
ROOT
ATOM      1  C   UNL     1      44.178   9.701  20.825  1.00  0.00     0.000 C 
ENDROOT
BRANCH   1   2
ATOM      2  C   UNL     1      43.612   9.702  22.254  1.00  0.00     0.000 C 
BRANCH   2   3
ATOM      3  C   UNL     1      43.293  11.119  22.763  1.00  0.00     0.000 C 
BRANCH   3   4
ATOM      4  C   UNL     1      42.814  11.123  24.223  1.00  0.00     0.000 C 
BRANCH   4   5
ATOM      5  C   UNL     1      42.574   9.704  24.766  1.00  0.00     0.000 C 
BRANCH   5   6
ATOM      6  C   UNL     1      43.597   9.295  25.840  1.00  0.00     0.000 C 
BRANCH   6   7
ATOM      7  C   UNL     1      44.905  10.112  25.834  1.00  0.00     0.000 C 
BRANCH   7   8
ATOM      8  C   UNL     1      46.011   9.568  24.909  1.00  0.00     0.000 C 
BRANCH   8   9
ATOM      9  C   UNL     1      46.534  10.567  23.858  1.00  0.00     0.000 C 
BRANCH   9  10
ATOM     10  C   UNL     1      47.447   9.957  22.779  1.00  0.00     0.006 C 
BRANCH  10  11
ATOM     11  C   UNL     1      47.987   8.575  23.169  1.00  0.00     0.053 C 
BRANCH  11  12
ATOM     12  C   UNL     1      47.621   7.560  22.132  1.00  0.00     0.041 C 
ATOM     13  O   UNL     1      46.757   7.832  21.258  1.00  0.00    -0.550 OA
ATOM     14  O   UNL     1      48.273   6.333  22.099  1.00  0.00    -0.550 OA
ENDBRANCH  11  12
ENDBRANCH  10  11
ENDBRANCH   9  10
ENDBRANCH   8   9
ENDBRANCH   7   8
ENDBRANCH   6   7
ENDBRANCH   5   6
ENDBRANCH   4   5
ENDBRANCH   3   4
ENDBRANCH   2   3
ENDBRANCH   1   2
BRANCH   1  15
ATOM     15  C   UNL     1      44.137  11.095  20.175  1.00  0.00     0.000 C 
BRANCH  15  16
ATOM     16  C   UNL     1      43.443  11.083  18.800  1.00  0.00     0.000 C 
BRANCH  16  17
ATOM     17  C   UNL     1      44.324  10.537  17.659  1.00  0.00     0.000 C 
BRANCH  17  18
ATOM     18  C   UNL     1      45.799  10.949  17.810  1.00  0.00    -0.000 C 
BRANCH  18  19
ATOM     19  C   UNL     1      46.557  10.931  16.472  1.00  0.00    -0.000 C 
BRANCH  19  20
ATOM     20  C   UNL     1      45.701  10.396  15.313  1.00  0.00    -0.000 C 
BRANCH  20  21
ATOM     21  C   UNL     1      46.345   9.153  14.687  1.00  0.00    -0.000 C 
BRANCH  21  22
ATOM     22  C   UNL     1      45.279   8.137  14.257  1.00  0.00    -0.000 C 
BRANCH  22  23
ATOM     23  C   UNL     1      45.302   6.850  15.100  1.00  0.00    -0.000 C 
BRANCH  23  24
ATOM     24  C   UNL     1      44.767   7.041  16.535  1.00  0.00    -0.000 C 
BRANCH  24  25
ATOM     25  C   UNL     1      45.900   7.149  17.567  1.00  0.00    -0.003 C 
ATOM     26  C   UNL     1      47.080   6.262  17.186  1.00  0.00     0.004 C 
ENDBRANCH  24  25
ENDBRANCH  23  24
ENDBRANCH  22  23
ENDBRANCH  21  22
ENDBRANCH  20  21
ENDBRANCH  19  20
ENDBRANCH  18  19
ENDBRANCH  17  18
ENDBRANCH  16  17
ENDBRANCH  15  16
ENDBRANCH   1  15
TORSDOF 22
ENDMDL
MODEL 7
REMARK VINA RESULT:    -3.467      4.804      7.262
REMARK INTER + INTRA:         -11.544
REMARK INTER:                 -10.371
REMARK INTRA:                  -1.172
REMARK UNBOUND:                -3.618
REMARK SMILES CCCCCCCCCCCCCCCCCCCCCCCC(=O)[O-]
REMARK SMILES IDX 13 1 14 2 15 3 16 4 17 5 18 6 19 7 20 8 21 9 22 10 23 11
REMARK SMILES IDX 24 12 25 13 26 14 12 15 11 16 10 17 9 18 8 19 7 20 6 21 5 22
REMARK SMILES IDX 4 23 3 24 2 25 1 26
REMARK H PARENT
REMARK Flexibility Score: inf
ROOT
ATOM      1  C   UNL     1      47.639   5.418  15.897  1.00  0.00     0.000 C 
ENDROOT
BRANCH   1   2
ATOM      2  C   UNL     1      46.395   6.276  16.175  1.00  0.00     0.000 C 
BRANCH   2   3
ATOM      3  C   UNL     1      46.739   7.755  16.421  1.00  0.00     0.000 C 
BRANCH   3   4
ATOM      4  C   UNL     1      46.188   8.676  15.320  1.00  0.00     0.000 C 
BRANCH   4   5
ATOM      5  C   UNL     1      44.734   9.103  15.587  1.00  0.00     0.000 C 
BRANCH   5   6
ATOM      6  C   UNL     1      44.562   9.828  16.933  1.00  0.00     0.000 C 
BRANCH   6   7
ATOM      7  C   UNL     1      44.140   8.923  18.108  1.00  0.00     0.000 C 
BRANCH   7   8
ATOM      8  C   UNL     1      43.945   9.648  19.454  1.00  0.00     0.000 C 
BRANCH   8   9
ATOM      9  C   UNL     1      44.536   8.922  20.679  1.00  0.00     0.000 C 
BRANCH   9  10
ATOM     10  C   UNL     1      46.055   8.680  20.619  1.00  0.00     0.006 C 
BRANCH  10  11
ATOM     11  C   UNL     1      46.476   7.371  21.300  1.00  0.00     0.053 C 
BRANCH  11  12
ATOM     12  C   UNL     1      47.548   7.630  22.312  1.00  0.00     0.041 C 
ATOM     13  O   UNL     1      48.486   6.805  22.464  1.00  0.00    -0.550 OA
ATOM     14  O   UNL     1      47.539   8.808  23.048  1.00  0.00    -0.550 OA
ENDBRANCH  11  12
ENDBRANCH  10  11
ENDBRANCH   9  10
ENDBRANCH   8   9
ENDBRANCH   7   8
ENDBRANCH   6   7
ENDBRANCH   5   6
ENDBRANCH   4   5
ENDBRANCH   3   4
ENDBRANCH   2   3
ENDBRANCH   1   2
BRANCH   1  15
ATOM     15  C   UNL     1      47.721   4.956  14.432  1.00  0.00     0.000 C 
BRANCH  15  16
ATOM     16  C   UNL     1      46.352   4.519  13.875  1.00  0.00     0.000 C 
BRANCH  16  17
ATOM     17  C   UNL     1      46.114   2.998  13.926  1.00  0.00     0.000 C 
BRANCH  17  18
ATOM     18  C   UNL     1      44.619   2.637  13.875  1.00  0.00    -0.000 C 
BRANCH  18  19
ATOM     19  C   UNL     1      44.377   1.119  13.890  1.00  0.00    -0.000 C 
BRANCH  19  20
ATOM     20  C   UNL     1      45.584   0.330  14.422  1.00  0.00    -0.000 C 
BRANCH  20  21
ATOM     21  C   UNL     1      45.128  -0.840  15.301  1.00  0.00    -0.000 C 
BRANCH  21  22
ATOM     22  C   UNL     1      46.274  -1.342  16.189  1.00  0.00    -0.000 C 
BRANCH  22  23
ATOM     23  C   UNL     1      46.613  -2.824  15.951  1.00  0.00    -0.000 C 
BRANCH  23  24
ATOM     24  C   UNL     1      48.095  -3.168  16.210  1.00  0.00    -0.000 C 
BRANCH  24  25
ATOM     25  C   UNL     1      48.256  -4.331  17.202  1.00  0.00    -0.003 C 
ATOM     26  C   UNL     1      48.998  -5.501  16.563  1.00  0.00     0.004 C 
ENDBRANCH  24  25
ENDBRANCH  23  24
ENDBRANCH  22  23
ENDBRANCH  21  22
ENDBRANCH  20  21
ENDBRANCH  19  20
ENDBRANCH  18  19
ENDBRANCH  17  18
ENDBRANCH  16  17
ENDBRANCH  15  16
ENDBRANCH   1  15
TORSDOF 22
ENDMDL
MODEL 8
REMARK VINA RESULT:    -3.371      4.249      6.258
REMARK INTER + INTRA:         -11.324
REMARK INTER:                 -10.082
REMARK INTRA:                  -1.243
REMARK UNBOUND:                -3.618
REMARK SMILES CCCCCCCCCCCCCCCCCCCCCCCC(=O)[O-]
REMARK SMILES IDX 13 1 14 2 15 3 16 4 17 5 18 6 19 7 20 8 21 9 22 10 23 11
REMARK SMILES IDX 24 12 25 13 26 14 12 15 11 16 10 17 9 18 8 19 7 20 6 21 5 22
REMARK SMILES IDX 4 23 3 24 2 25 1 26
REMARK H PARENT
REMARK Flexibility Score: inf
ROOT
ATOM      1  C   UNL     1      47.127   6.082  17.067  1.00  0.00     0.000 C 
ENDROOT
BRANCH   1   2
ATOM      2  C   UNL     1      46.885   7.407  16.327  1.00  0.00     0.000 C 
BRANCH   2   3
ATOM      3  C   UNL     1      46.279   8.490  17.237  1.00  0.00     0.000 C 
BRANCH   3   4
ATOM      4  C   UNL     1      44.809   8.208  17.586  1.00  0.00     0.000 C 
BRANCH   4   5
ATOM      5  C   UNL     1      44.261   9.177  18.647  1.00  0.00     0.000 C 
BRANCH   5   6
ATOM      6  C   UNL     1      44.859  10.590  18.529  1.00  0.00     0.000 C 
BRANCH   6   7
ATOM      7  C   UNL     1      45.753  11.017  19.711  1.00  0.00     0.000 C 
BRANCH   7   8
ATOM      8  C   UNL     1      45.148  10.777  21.108  1.00  0.00     0.000 C 
BRANCH   8   9
ATOM      9  C   UNL     1      45.854   9.694  21.948  1.00  0.00     0.000 C 
BRANCH   9  10
ATOM     10  C   UNL     1      44.917   8.649  22.579  1.00  0.00     0.006 C 
BRANCH  10  11
ATOM     11  C   UNL     1      43.766   9.283  23.371  1.00  0.00     0.053 C 
BRANCH  11  12
ATOM     12  C   UNL     1      44.000   9.133  24.841  1.00  0.00     0.041 C 
ATOM     13  O   UNL     1      43.060   9.336  25.655  1.00  0.00    -0.550 OA
ATOM     14  O   UNL     1      45.240   8.719  25.310  1.00  0.00    -0.550 OA
ENDBRANCH  11  12
ENDBRANCH  10  11
ENDBRANCH   9  10
ENDBRANCH   8   9
ENDBRANCH   7   8
ENDBRANCH   6   7
ENDBRANCH   5   6
ENDBRANCH   4   5
ENDBRANCH   3   4
ENDBRANCH   2   3
ENDBRANCH   1   2
BRANCH   1  15
ATOM     15  C   UNL     1      47.778   5.016  16.168  1.00  0.00     0.000 C 
BRANCH  15  16
ATOM     16  C   UNL     1      47.540   5.284  14.670  1.00  0.00     0.000 C 
BRANCH  16  17
ATOM     17  C   UNL     1      46.507   4.342  14.023  1.00  0.00     0.000 C 
BRANCH  17  18
ATOM     18  C   UNL     1      47.036   2.904  13.875  1.00  0.00    -0.000 C 
BRANCH  18  19
ATOM     19  C   UNL     1      45.916   1.853  13.939  1.00  0.00    -0.000 C 
BRANCH  19  20
ATOM     20  C   UNL     1      46.452   0.413  13.932  1.00  0.00    -0.000 C 
BRANCH  20  21
ATOM     21  C   UNL     1      45.300  -0.598  13.882  1.00  0.00    -0.000 C 
BRANCH  21  22
ATOM     22  C   UNL     1      45.106  -1.281  15.242  1.00  0.00    -0.000 C 
BRANCH  22  23
ATOM     23  C   UNL     1      45.825  -2.638  15.341  1.00  0.00    -0.000 C 
BRANCH  23  24
ATOM     24  C   UNL     1      47.199  -2.560  16.039  1.00  0.00    -0.000 C 
BRANCH  24  25
ATOM     25  C   UNL     1      47.501  -3.818  16.868  1.00  0.00    -0.003 C 
ATOM     26  C   UNL     1      48.979  -3.894  17.235  1.00  0.00     0.004 C 
ENDBRANCH  24  25
ENDBRANCH  23  24
ENDBRANCH  22  23
ENDBRANCH  21  22
ENDBRANCH  20  21
ENDBRANCH  19  20
ENDBRANCH  18  19
ENDBRANCH  17  18
ENDBRANCH  16  17
ENDBRANCH  15  16
ENDBRANCH   1  15
TORSDOF 22
ENDMDL
MODEL 9
REMARK VINA RESULT:    -3.351      3.605      7.702
REMARK INTER + INTRA:         -11.279
REMARK INTER:                  -8.471
REMARK INTRA:                  -2.808
REMARK UNBOUND:                -3.618
REMARK SMILES CCCCCCCCCCCCCCCCCCCCCCCC(=O)[O-]
REMARK SMILES IDX 13 1 14 2 15 3 16 4 17 5 18 6 19 7 20 8 21 9 22 10 23 11
REMARK SMILES IDX 24 12 25 13 26 14 12 15 11 16 10 17 9 18 8 19 7 20 6 21 5 22
REMARK SMILES IDX 4 23 3 24 2 25 1 26
REMARK H PARENT
REMARK Flexibility Score: inf
ROOT
ATOM      1  C   UNL     1      43.903   8.720  23.076  1.00  0.00     0.000 C 
ENDROOT
BRANCH   1   2
ATOM      2  C   UNL     1      43.743   9.219  21.632  1.00  0.00     0.000 C 
BRANCH   2   3
ATOM      3  C   UNL     1      44.279  10.649  21.437  1.00  0.00     0.000 C 
BRANCH   3   4
ATOM      4  C   UNL     1      44.702  10.923  19.985  1.00  0.00     0.000 C 
BRANCH   4   5
ATOM      5  C   UNL     1      44.049   9.949  18.990  1.00  0.00     0.000 C 
BRANCH   5   6
ATOM      6  C   UNL     1      43.472  10.659  17.752  1.00  0.00     0.000 C 
BRANCH   6   7
ATOM      7  C   UNL     1      43.898  10.053  16.400  1.00  0.00     0.000 C 
BRANCH   7   8
ATOM      8  C   UNL     1      45.369   9.601  16.321  1.00  0.00     0.000 C 
BRANCH   8   9
ATOM      9  C   UNL     1      46.022   9.740  14.931  1.00  0.00     0.000 C 
BRANCH   9  10
ATOM     10  C   UNL     1      45.759   8.567  13.970  1.00  0.00     0.006 C 
BRANCH  10  11
ATOM     11  C   UNL     1      45.750   7.207  14.680  1.00  0.00     0.053 C 
BRANCH  11  12
ATOM     12  C   UNL     1      44.486   6.466  14.374  1.00  0.00     0.041 C 
ATOM     13  O   UNL     1      43.408   7.096  14.209  1.00  0.00    -0.550 OA
ATOM     14  O   UNL     1      44.508   5.086  14.217  1.00  0.00    -0.550 OA
ENDBRANCH  11  12
ENDBRANCH  10  11
ENDBRANCH   9  10
ENDBRANCH   8   9
ENDBRANCH   7   8
ENDBRANCH   6   7
ENDBRANCH   5   6
ENDBRANCH   4   5
ENDBRANCH   3   4
ENDBRANCH   2   3
ENDBRANCH   1   2
BRANCH   1  15
ATOM     15  C   UNL     1      43.227   9.650  24.099  1.00  0.00     0.000 C 
BRANCH  15  16
ATOM     16  C   UNL     1      43.865   9.549  25.498  1.00  0.00     0.000 C 
BRANCH  16  17
ATOM     17  C   UNL     1      44.845  10.692  25.821  1.00  0.00     0.000 C 
BRANCH  17  18
ATOM     18  C   UNL     1      45.777  11.017  24.641  1.00  0.00    -0.000 C 
BRANCH  18  19
ATOM     19  C   UNL     1      46.863   9.949  24.434  1.00  0.00    -0.000 C 
BRANCH  19  20
ATOM     20  C   UNL     1      47.385   9.904  22.989  1.00  0.00    -0.000 C 
BRANCH  20  21
ATOM     21  C   UNL     1      48.412   8.780  22.813  1.00  0.00    -0.000 C 
BRANCH  21  22
ATOM     22  C   UNL     1      47.730   7.405  22.813  1.00  0.00    -0.000 C 
BRANCH  22  23
ATOM     23  C   UNL     1      47.590   6.805  21.404  1.00  0.00    -0.000 C 
BRANCH  23  24
ATOM     24  C   UNL     1      46.316   7.262  20.662  1.00  0.00    -0.000 C 
BRANCH  24  25
ATOM     25  C   UNL     1      46.615   7.730  19.229  1.00  0.00    -0.003 C 
ATOM     26  C   UNL     1      46.566   6.564  18.246  1.00  0.00     0.004 C 
ENDBRANCH  24  25
ENDBRANCH  23  24
ENDBRANCH  22  23
ENDBRANCH  21  22
ENDBRANCH  20  21
ENDBRANCH  19  20
ENDBRANCH  18  19
ENDBRANCH  17  18
ENDBRANCH  16  17
ENDBRANCH  15  16
ENDBRANCH   1  15
TORSDOF 22
ENDMDL
