MODEL 1
REMARK VINA RESULT:    -4.291      0.000      0.000
REMARK INTER + INTRA:          -4.291
REMARK INTER:                  -4.291
REMARK INTRA:                   0.000
REMARK UNBOUND:                 0.000
REMARK SMILES C=C1CC[C@H]2C[C@@H]1C2(C)C
REMARK SMILES IDX 9 1 8 2 5 3 4 4 3 5 2 6 1 7 7 8 6 9 10 10
REMARK H PARENT
REMARK Flexibility Score: inf
ROOT
ATOM      1  C   UNL     1       1.556  -3.223  17.045  1.00  0.00     0.012 C 
ATOM      2  C   UNL     1       2.568  -2.176  16.506  1.00  0.00    -0.026 C 
ATOM      3  C   UNL     1       3.196  -2.400  15.107  1.00  0.00    -0.004 C 
ATOM      4  C   UNL     1       2.160  -3.031  14.122  1.00  0.00     0.008 C 
ATOM      5  C   UNL     1       0.799  -2.238  14.084  1.00  0.00     0.031 C 
ATOM      6  C   UNL     1       0.740  -1.128  15.148  1.00  0.00    -0.074 C 
ATOM      7  C   UNL     1      -0.381  -0.436  15.370  1.00  0.00     0.008 C 
ATOM      8  C   UNL     1       2.019  -0.849  15.931  1.00  0.00     0.021 C 
ATOM      9  C   UNL     1       3.142  -0.879  14.882  1.00  0.00     0.012 C 
ATOM     10  C   UNL     1       3.647  -1.935  17.592  1.00  0.00     0.012 C 
ENDROOT
TORSDOF 0
ENDMDL
MODEL 2
REMARK VINA RESULT:    -4.127      2.985      5.224
REMARK INTER + INTRA:          -4.127
REMARK INTER:                  -4.127
REMARK INTRA:                   0.000
REMARK UNBOUND:                 0.000
REMARK SMILES C=C1CC[C@H]2C[C@@H]1C2(C)C
REMARK SMILES IDX 9 1 8 2 5 3 4 4 3 5 2 6 1 7 7 8 6 9 10 10
REMARK H PARENT
REMARK Flexibility Score: inf
ROOT
ATOM      1  C   UNL     1       0.018  -2.242  19.668  1.00  0.00     0.012 C 
ATOM      2  C   UNL     1       1.008  -2.885  18.660  1.00  0.00    -0.026 C 
ATOM      3  C   UNL     1       2.480  -3.101  19.098  1.00  0.00    -0.004 C 
ATOM      4  C   UNL     1       2.563  -3.503  20.606  1.00  0.00     0.008 C 
ATOM      5  C   UNL     1       1.614  -4.708  20.965  1.00  0.00     0.031 C 
ATOM      6  C   UNL     1       0.699  -5.100  19.793  1.00  0.00    -0.074 C 
ATOM      7  C   UNL     1      -0.273  -6.005  19.942  1.00  0.00     0.008 C 
ATOM      8  C   UNL     1       0.956  -4.417  18.453  1.00  0.00     0.021 C 
ATOM      9  C   UNL     1       2.485  -4.414  18.295  1.00  0.00     0.012 C 
ATOM     10  C   UNL     1       0.911  -2.115  17.320  1.00  0.00     0.012 C 
ENDROOT
TORSDOF 0
ENDMDL
MODEL 3
REMARK VINA RESULT:    -4.060      0.964      3.307
REMARK INTER + INTRA:          -4.060
REMARK INTER:                  -4.060
REMARK INTRA:                   0.000
REMARK UNBOUND:                 0.000
REMARK SMILES C=C1CC[C@H]2C[C@@H]1C2(C)C
REMARK SMILES IDX 9 1 8 2 5 3 4 4 3 5 2 6 1 7 7 8 6 9 10 10
REMARK H PARENT
REMARK Flexibility Score: inf
ROOT
ATOM      1  C   UNL     1       0.017  -0.618  15.833  1.00  0.00     0.012 C 
ATOM      2  C   UNL     1       0.523  -1.555  14.703  1.00  0.00    -0.026 C 
ATOM      3  C   UNL     1       1.823  -1.176  13.949  1.00  0.00    -0.004 C 
ATOM      4  C   UNL     1       2.863  -0.525  14.917  1.00  0.00     0.008 C 
ATOM      5  C   UNL     1       3.111  -1.389  16.210  1.00  0.00     0.031 C 
ATOM      6  C   UNL     1       2.151  -2.587  16.305  1.00  0.00    -0.074 C 
ATOM      7  C   UNL     1       2.108  -3.359  17.395  1.00  0.00     0.008 C 
ATOM      8  C   UNL     1       1.257  -2.857  15.100  1.00  0.00     0.021 C 
ATOM      9  C   UNL     1       2.171  -2.673  13.877  1.00  0.00     0.012 C 
ATOM     10  C   UNL     1      -0.652  -1.824  13.730  1.00  0.00     0.012 C 
ENDROOT
TORSDOF 0
ENDMDL
MODEL 4
REMARK VINA RESULT:    -4.029      1.138      2.782
REMARK INTER + INTRA:          -4.029
REMARK INTER:                  -4.029
REMARK INTRA:                   0.000
REMARK UNBOUND:                 0.000
REMARK SMILES C=C1CC[C@H]2C[C@@H]1C2(C)C
REMARK SMILES IDX 9 1 8 2 5 3 4 4 3 5 2 6 1 7 7 8 6 9 10 10
REMARK H PARENT
REMARK Flexibility Score: inf
ROOT
ATOM      1  C   UNL     1       3.024  -0.373  14.877  1.00  0.00     0.012 C 
ATOM      2  C   UNL     1       2.227  -1.451  14.094  1.00  0.00    -0.026 C 
ATOM      3  C   UNL     1       2.144  -2.885  14.678  1.00  0.00    -0.004 C 
ATOM      4  C   UNL     1       2.046  -2.851  16.238  1.00  0.00     0.008 C 
ATOM      5  C   UNL     1       0.906  -1.892  16.752  1.00  0.00     0.031 C 
ATOM      6  C   UNL     1       0.266  -1.083  15.612  1.00  0.00    -0.074 C 
ATOM      7  C   UNL     1      -0.622  -0.115  15.859  1.00  0.00     0.008 C 
ATOM      8  C   UNL     1       0.683  -1.438  14.188  1.00  0.00     0.021 C 
ATOM      9  C   UNL     1       0.702  -2.974  14.151  1.00  0.00     0.012 C 
ATOM     10  C   UNL     1       2.719  -1.452  12.625  1.00  0.00     0.012 C 
ENDROOT
TORSDOF 0
ENDMDL
MODEL 5
REMARK VINA RESULT:    -4.029      1.029      2.531
REMARK INTER + INTRA:          -4.029
REMARK INTER:                  -4.029
REMARK INTRA:                   0.000
REMARK UNBOUND:                 0.000
REMARK SMILES C=C1CC[C@H]2C[C@@H]1C2(C)C
REMARK SMILES IDX 9 1 8 2 5 3 4 4 3 5 2 6 1 7 7 8 6 9 10 10
REMARK H PARENT
REMARK Flexibility Score: inf
ROOT
ATOM      1  C   UNL     1       2.981  -2.961  16.502  1.00  0.00     0.012 C 
ATOM      2  C   UNL     1       1.715  -2.085  16.295  1.00  0.00    -0.026 C 
ATOM      3  C   UNL     1       1.890  -0.636  15.772  1.00  0.00    -0.004 C 
ATOM      4  C   UNL     1       3.050  -0.553  14.728  1.00  0.00     0.008 C 
ATOM      5  C   UNL     1       2.911  -1.626  13.582  1.00  0.00     0.031 C 
ATOM      6  C   UNL     1       1.765  -2.616  13.846  1.00  0.00    -0.074 C 
ATOM      7  C   UNL     1       1.574  -3.683  13.063  1.00  0.00     0.008 C 
ATOM      8  C   UNL     1       0.853  -2.324  15.033  1.00  0.00     0.021 C 
ATOM      9  C   UNL     1       0.590  -0.811  14.969  1.00  0.00     0.012 C 
ATOM     10  C   UNL     1       0.870  -2.134  17.593  1.00  0.00     0.012 C 
ENDROOT
TORSDOF 0
ENDMDL
MODEL 6
REMARK VINA RESULT:    -4.011      1.198      3.086
REMARK INTER + INTRA:          -4.011
REMARK INTER:                  -4.011
REMARK INTRA:                   0.000
REMARK UNBOUND:                 0.000
REMARK SMILES C=C1CC[C@H]2C[C@@H]1C2(C)C
REMARK SMILES IDX 9 1 8 2 5 3 4 4 3 5 2 6 1 7 7 8 6 9 10 10
REMARK H PARENT
REMARK Flexibility Score: inf
ROOT
ATOM      1  C   UNL     1       1.818  -3.355  13.586  1.00  0.00     0.012 C 
ATOM      2  C   UNL     1       2.630  -2.040  13.741  1.00  0.00    -0.026 C 
ATOM      3  C   UNL     1       1.867  -0.727  14.053  1.00  0.00    -0.004 C 
ATOM      4  C   UNL     1       0.662  -0.993  15.012  1.00  0.00     0.008 C 
ATOM      5  C   UNL     1       1.079  -1.802  16.298  1.00  0.00     0.031 C 
ATOM      6  C   UNL     1       2.535  -2.291  16.233  1.00  0.00    -0.074 C 
ATOM      7  C   UNL     1       3.035  -3.112  17.162  1.00  0.00     0.008 C 
ATOM      8  C   UNL     1       3.384  -1.793  15.068  1.00  0.00     0.021 C 
ATOM      9  C   UNL     1       3.047  -0.299  14.941  1.00  0.00     0.012 C 
ATOM     10  C   UNL     1       3.558  -1.892  12.509  1.00  0.00     0.012 C 
ENDROOT
TORSDOF 0
ENDMDL
MODEL 7
REMARK VINA RESULT:    -3.980      0.968      2.656
REMARK INTER + INTRA:          -3.980
REMARK INTER:                  -3.980
REMARK INTRA:                   0.000
REMARK UNBOUND:                 0.000
REMARK SMILES C=C1CC[C@H]2C[C@@H]1C2(C)C
REMARK SMILES IDX 9 1 8 2 5 3 4 4 3 5 2 6 1 7 7 8 6 9 10 10
REMARK H PARENT
REMARK Flexibility Score: inf
ROOT
ATOM      1  C   UNL     1       3.337  -0.699  14.521  1.00  0.00     0.012 C 
ATOM      2  C   UNL     1       2.874  -1.788  15.526  1.00  0.00    -0.026 C 
ATOM      3  C   UNL     1       1.656  -1.488  16.437  1.00  0.00    -0.004 C 
ATOM      4  C   UNL     1       0.579  -0.649  15.677  1.00  0.00     0.008 C 
ATOM      5  C   UNL     1       0.188  -1.282  14.287  1.00  0.00     0.031 C 
ATOM      6  C   UNL     1       1.076  -2.483  13.923  1.00  0.00    -0.074 C 
ATOM      7  C   UNL     1       0.996  -3.069  12.724  1.00  0.00     0.008 C 
ATOM      8  C   UNL     1       2.046  -2.980  14.990  1.00  0.00     0.021 C 
ATOM      9  C   UNL     1       1.239  -2.963  16.299  1.00  0.00     0.012 C 
ATOM     10  C   UNL     1       4.105  -2.256  16.342  1.00  0.00     0.012 C 
ENDROOT
TORSDOF 0
ENDMDL
MODEL 8
REMARK VINA RESULT:    -3.855     12.977     14.813
REMARK INTER + INTRA:          -3.855
REMARK INTER:                  -3.855
REMARK INTRA:                   0.000
REMARK UNBOUND:                 0.000
REMARK SMILES C=C1CC[C@H]2C[C@@H]1C2(C)C
REMARK SMILES IDX 9 1 8 2 5 3 4 4 3 5 2 6 1 7 7 8 6 9 10 10
REMARK H PARENT
REMARK Flexibility Score: inf
ROOT
ATOM      1  C   UNL     1      12.482   1.571  27.646  1.00  0.00     0.012 C 
ATOM      2  C   UNL     1      12.768   0.678  26.409  1.00  0.00    -0.026 C 
ATOM      3  C   UNL     1      12.708  -0.863  26.573  1.00  0.00    -0.004 C 
ATOM      4  C   UNL     1      11.572  -1.277  27.562  1.00  0.00     0.008 C 
ATOM      5  C   UNL     1      10.184  -0.627  27.197  1.00  0.00     0.031 C 
ATOM      6  C   UNL     1      10.302   0.398  26.057  1.00  0.00    -0.074 C 
ATOM      7  C   UNL     1       9.264   1.160  25.696  1.00  0.00     0.008 C 
ATOM      8  C   UNL     1      11.651   0.502  25.353  1.00  0.00     0.021 C 
ATOM      9  C   UNL     1      12.111  -0.951  25.158  1.00  0.00     0.012 C 
ATOM     10  C   UNL     1      14.102   1.140  25.771  1.00  0.00     0.012 C 
ENDROOT
TORSDOF 0
ENDMDL
MODEL 9
REMARK VINA RESULT:    -3.757     13.263     15.054
REMARK INTER + INTRA:          -3.757
REMARK INTER:                  -3.757
REMARK INTRA:                   0.000
REMARK UNBOUND:                 0.000
REMARK SMILES C=C1CC[C@H]2C[C@@H]1C2(C)C
REMARK SMILES IDX 9 1 8 2 5 3 4 4 3 5 2 6 1 7 7 8 6 9 10 10
REMARK H PARENT
REMARK Flexibility Score: inf
ROOT
ATOM      1  C   UNL     1      10.778   0.683  24.961  1.00  0.00     0.012 C 
ATOM      2  C   UNL     1      11.819  -0.212  25.687  1.00  0.00    -0.026 C 
ATOM      3  C   UNL     1      12.790   0.447  26.699  1.00  0.00    -0.004 C 
ATOM      4  C   UNL     1      12.080   1.587  27.498  1.00  0.00     0.008 C 
ATOM      5  C   UNL     1      10.720   1.119  28.141  1.00  0.00     0.031 C 
ATOM      6  C   UNL     1      10.321  -0.298  27.696  1.00  0.00    -0.074 C 
ATOM      7  C   UNL     1       9.134  -0.820  28.020  1.00  0.00     0.008 C 
ATOM      8  C   UNL     1      11.340  -1.081  26.874  1.00  0.00     0.021 C 
ATOM      9  C   UNL     1      12.689  -0.821  27.563  1.00  0.00     0.012 C 
ATOM     10  C   UNL     1      12.572  -1.049  24.622  1.00  0.00     0.012 C 
ENDROOT
TORSDOF 0
ENDMDL
