MODEL 1
REMARK VINA RESULT:     5.331      0.000      0.000
REMARK INTER + INTRA:           7.845
REMARK INTER:                   8.447
REMARK INTRA:                  -0.602
REMARK UNBOUND:                -0.602
REMARK SMILES CCCCCCCCCCCC(=O)[O-]
REMARK SMILES IDX 7 1 8 2 9 3 10 4 11 5 12 6 13 7 14 8 6 9 5 10 4 11 3 12 2 13
REMARK SMILES IDX 1 14
REMARK H PARENT
REMARK Flexibility Score: inf
ROOT
ATOM      1  C   UNL     1      35.255  12.861  41.346  1.00  0.00     0.000 C 
ENDROOT
BRANCH   1   2
ATOM      2  C   UNL     1      35.012  13.581  42.685  1.00  0.00     0.000 C 
BRANCH   2   3
ATOM      3  C   UNL     1      36.318  14.020  43.371  1.00  0.00     0.000 C 
BRANCH   3   4
ATOM      4  C   UNL     1      36.173  15.371  44.102  1.00  0.00     0.006 C 
BRANCH   4   5
ATOM      5  C   UNL     1      34.743  15.931  44.079  1.00  0.00     0.053 C 
BRANCH   5   6
ATOM      6  C   UNL     1      34.643  17.212  43.311  1.00  0.00     0.041 C 
ATOM      7  O   UNL     1      33.746  17.359  42.440  1.00  0.00    -0.550 OA
ATOM      8  O   UNL     1      35.558  18.233  43.537  1.00  0.00    -0.550 OA
ENDBRANCH   5   6
ENDBRANCH   4   5
ENDBRANCH   3   4
ENDBRANCH   2   3
ENDBRANCH   1   2
BRANCH   1   9
ATOM      9  C   UNL     1      34.266  13.226  40.222  1.00  0.00     0.000 C 
BRANCH   9  10
ATOM     10  C   UNL     1      33.039  12.299  40.100  1.00  0.00    -0.000 C 
BRANCH  10  11
ATOM     11  C   UNL     1      33.054  11.070  41.028  1.00  0.00    -0.000 C 
BRANCH  11  12
ATOM     12  C   UNL     1      32.690   9.767  40.297  1.00  0.00    -0.000 C 
BRANCH  12  13
ATOM     13  C   UNL     1      33.897   9.131  39.591  1.00  0.00    -0.003 C 
ATOM     14  C   UNL     1      35.229   9.499  40.247  1.00  0.00     0.004 C 
ENDBRANCH  12  13
ENDBRANCH  11  12
ENDBRANCH  10  11
ENDBRANCH   9  10
ENDBRANCH   1   9
TORSDOF 10
ENDMDL
MODEL 2
REMARK VINA RESULT:     5.455      3.984      6.530
REMARK INTER + INTRA:           8.042
REMARK INTER:                   8.496
REMARK INTRA:                  -0.455
REMARK UNBOUND:                -0.602
REMARK SMILES CCCCCCCCCCCC(=O)[O-]
REMARK SMILES IDX 7 1 8 2 9 3 10 4 11 5 12 6 13 7 14 8 6 9 5 10 4 11 3 12 2 13
REMARK SMILES IDX 1 14
REMARK H PARENT
REMARK Flexibility Score: inf
ROOT
ATOM      1  C   UNL     1      35.068  16.325  43.440  1.00  0.00     0.000 C 
ENDROOT
BRANCH   1   2
ATOM      2  C   UNL     1      35.285  14.825  43.704  1.00  0.00     0.000 C 
BRANCH   2   3
ATOM      3  C   UNL     1      35.468  14.013  42.410  1.00  0.00     0.000 C 
BRANCH   3   4
ATOM      4  C   UNL     1      34.568  12.760  42.369  1.00  0.00     0.006 C 
BRANCH   4   5
ATOM      5  C   UNL     1      34.234  12.290  40.945  1.00  0.00     0.053 C 
BRANCH   5   6
ATOM      6  C   UNL     1      33.391  11.055  40.934  1.00  0.00     0.041 C 
ATOM      7  O   UNL     1      32.398  10.959  41.702  1.00  0.00    -0.550 OA
ATOM      8  O   UNL     1      33.716   9.996  40.095  1.00  0.00    -0.550 OA
ENDBRANCH   5   6
ENDBRANCH   4   5
ENDBRANCH   3   4
ENDBRANCH   2   3
ENDBRANCH   1   2
BRANCH   1   9
ATOM      9  C   UNL     1      33.801  16.667  42.630  1.00  0.00     0.000 C 
BRANCH   9  10
ATOM     10  C   UNL     1      33.983  17.759  41.557  1.00  0.00    -0.000 C 
BRANCH  10  11
ATOM     11  C   UNL     1      33.713  17.307  40.110  1.00  0.00    -0.000 C 
BRANCH  11  12
ATOM     12  C   UNL     1      33.293  18.466  39.191  1.00  0.00    -0.000 C 
BRANCH  12  13
ATOM     13  C   UNL     1      32.192  18.061  38.199  1.00  0.00    -0.003 C 
ATOM     14  C   UNL     1      31.307  19.238  37.783  1.00  0.00     0.004 C 
ENDBRANCH  12  13
ENDBRANCH  11  12
ENDBRANCH  10  11
ENDBRANCH   9  10
ENDBRANCH   1   9
TORSDOF 10
ENDMDL
MODEL 3
REMARK VINA RESULT:     5.604      3.466      6.537
REMARK INTER + INTRA:           8.278
REMARK INTER:                   8.940
REMARK INTRA:                  -0.662
REMARK UNBOUND:                -0.602
REMARK SMILES CCCCCCCCCCCC(=O)[O-]
REMARK SMILES IDX 7 1 8 2 9 3 10 4 11 5 12 6 13 7 14 8 6 9 5 10 4 11 3 12 2 13
REMARK SMILES IDX 1 14
REMARK H PARENT
REMARK Flexibility Score: inf
ROOT
ATOM      1  C   UNL     1      36.080  13.982  43.350  1.00  0.00     0.000 C 
ENDROOT
BRANCH   1   2
ATOM      2  C   UNL     1      34.852  13.415  42.615  1.00  0.00     0.000 C 
BRANCH   2   3
ATOM      3  C   UNL     1      35.127  13.134  41.127  1.00  0.00     0.000 C 
BRANCH   3   4
ATOM      4  C   UNL     1      33.896  12.553  40.401  1.00  0.00     0.006 C 
BRANCH   4   5
ATOM      5  C   UNL     1      33.244  11.375  41.141  1.00  0.00     0.053 C 
BRANCH   5   6
ATOM      6  C   UNL     1      33.302  10.104  40.355  1.00  0.00     0.041 C 
ATOM      7  O   UNL     1      32.240   9.503  40.044  1.00  0.00    -0.550 OA
ATOM      8  O   UNL     1      34.529   9.565  39.988  1.00  0.00    -0.550 OA
ENDBRANCH   5   6
ENDBRANCH   4   5
ENDBRANCH   3   4
ENDBRANCH   2   3
ENDBRANCH   1   2
BRANCH   1   9
ATOM      9  C   UNL     1      35.880  15.381  43.967  1.00  0.00     0.000 C 
BRANCH   9  10
ATOM     10  C   UNL     1      34.518  16.040  43.670  1.00  0.00    -0.000 C 
BRANCH  10  11
ATOM     11  C   UNL     1      34.593  17.434  43.019  1.00  0.00    -0.000 C 
BRANCH  11  12
ATOM     12  C   UNL     1      33.543  17.634  41.914  1.00  0.00    -0.000 C 
BRANCH  12  13
ATOM     13  C   UNL     1      34.090  17.303  40.517  1.00  0.00    -0.003 C 
ATOM     14  C   UNL     1      33.342  18.033  39.399  1.00  0.00     0.004 C 
ENDBRANCH  12  13
ENDBRANCH  11  12
ENDBRANCH  10  11
ENDBRANCH   9  10
ENDBRANCH   1   9
TORSDOF 10
ENDMDL
MODEL 4
REMARK VINA RESULT:     5.745      3.390      6.887
REMARK INTER + INTRA:           8.501
REMARK INTER:                   9.179
REMARK INTRA:                  -0.678
REMARK UNBOUND:                -0.602
REMARK SMILES CCCCCCCCCCCC(=O)[O-]
REMARK SMILES IDX 7 1 8 2 9 3 10 4 11 5 12 6 13 7 14 8 6 9 5 10 4 11 3 12 2 13
REMARK SMILES IDX 1 14
REMARK H PARENT
REMARK Flexibility Score: inf
ROOT
ATOM      1  C   UNL     1      35.141  12.713  41.378  1.00  0.00     0.000 C 
ENDROOT
BRANCH   1   2
ATOM      2  C   UNL     1      34.261  13.137  40.189  1.00  0.00     0.000 C 
BRANCH   2   3
ATOM      3  C   UNL     1      33.029  12.232  40.007  1.00  0.00     0.000 C 
BRANCH   3   4
ATOM      4  C   UNL     1      32.994  11.075  41.027  1.00  0.00     0.006 C 
BRANCH   4   5
ATOM      5  C   UNL     1      32.954   9.684  40.377  1.00  0.00     0.053 C 
BRANCH   5   6
ATOM      6  C   UNL     1      34.269   9.295  39.779  1.00  0.00     0.041 C 
ATOM      7  O   UNL     1      35.335   9.470  40.426  1.00  0.00    -0.550 OA
ATOM      8  O   UNL     1      34.323   8.765  38.496  1.00  0.00    -0.550 OA
ENDBRANCH   5   6
ENDBRANCH   4   5
ENDBRANCH   3   4
ENDBRANCH   2   3
ENDBRANCH   1   2
BRANCH   1   9
ATOM      9  C   UNL     1      34.968  13.564  42.652  1.00  0.00     0.000 C 
BRANCH   9  10
ATOM     10  C   UNL     1      36.279  13.957  43.361  1.00  0.00    -0.000 C 
BRANCH  10  11
ATOM     11  C   UNL     1      36.241  15.303  44.109  1.00  0.00    -0.000 C 
BRANCH  11  12
ATOM     12  C   UNL     1      34.839  15.936  44.125  1.00  0.00    -0.000 C 
BRANCH  12  13
ATOM     13  C   UNL     1      34.797  17.290  43.398  1.00  0.00    -0.003 C 
ATOM     14  C   UNL     1      33.618  17.407  42.431  1.00  0.00     0.004 C 
ENDBRANCH  12  13
ENDBRANCH  11  12
ENDBRANCH  10  11
ENDBRANCH   9  10
ENDBRANCH   1   9
TORSDOF 10
ENDMDL
MODEL 5
REMARK VINA RESULT:     6.457      2.024      3.191
REMARK INTER + INTRA:           9.630
REMARK INTER:                  10.239
REMARK INTRA:                  -0.609
REMARK UNBOUND:                -0.602
REMARK SMILES CCCCCCCCCCCC(=O)[O-]
REMARK SMILES IDX 7 1 8 2 9 3 10 4 11 5 12 6 13 7 14 8 6 9 5 10 4 11 3 12 2 13
REMARK SMILES IDX 1 14
REMARK H PARENT
REMARK Flexibility Score: inf
ROOT
ATOM      1  C   UNL     1      35.775  14.791  43.704  1.00  0.00     0.000 C 
ENDROOT
BRANCH   1   2
ATOM      2  C   UNL     1      34.551  15.725  43.710  1.00  0.00     0.000 C 
BRANCH   2   3
ATOM      3  C   UNL     1      34.825  17.069  43.014  1.00  0.00     0.000 C 
BRANCH   3   4
ATOM      4  C   UNL     1      33.694  17.470  42.043  1.00  0.00     0.006 C 
BRANCH   4   5
ATOM      5  C   UNL     1      33.925  16.992  40.601  1.00  0.00     0.053 C 
BRANCH   5   6
ATOM      6  C   UNL     1      33.827  18.105  39.607  1.00  0.00     0.041 C 
ATOM      7  O   UNL     1      34.856  18.754  39.280  1.00  0.00    -0.550 OA
ATOM      8  O   UNL     1      32.596  18.448  39.062  1.00  0.00    -0.550 OA
ENDBRANCH   5   6
ENDBRANCH   4   5
ENDBRANCH   3   4
ENDBRANCH   2   3
ENDBRANCH   1   2
BRANCH   1   9
ATOM      9  C   UNL     1      35.594  13.486  42.903  1.00  0.00     0.000 C 
BRANCH   9  10
ATOM     10  C   UNL     1      34.749  13.617  41.620  1.00  0.00    -0.000 C 
BRANCH  10  11
ATOM     11  C   UNL     1      34.493  12.297  40.869  1.00  0.00    -0.000 C 
BRANCH  11  12
ATOM     12  C   UNL     1      33.273  11.530  41.409  1.00  0.00    -0.000 C 
BRANCH  12  13
ATOM     13  C   UNL     1      32.806  10.421  40.454  1.00  0.00    -0.003 C 
ATOM     14  C   UNL     1      33.947   9.506  40.005  1.00  0.00     0.004 C 
ENDBRANCH  12  13
ENDBRANCH  11  12
ENDBRANCH  10  11
ENDBRANCH   9  10
ENDBRANCH   1   9
TORSDOF 10
ENDMDL
MODEL 6
REMARK VINA RESULT:     6.543     13.650     15.093
REMARK INTER + INTRA:           9.765
REMARK INTER:                   8.882
REMARK INTRA:                   0.883
REMARK UNBOUND:                -0.602
REMARK SMILES CCCCCCCCCCCC(=O)[O-]
REMARK SMILES IDX 7 1 8 2 9 3 10 4 11 5 12 6 13 7 14 8 6 9 5 10 4 11 3 12 2 13
REMARK SMILES IDX 1 14
REMARK H PARENT
REMARK Flexibility Score: inf
ROOT
ATOM      1  C   UNL     1      32.247  23.398  30.104  1.00  0.00     0.000 C 
ENDROOT
BRANCH   1   2
ATOM      2  C   UNL     1      32.153  24.124  31.458  1.00  0.00     0.000 C 
BRANCH   2   3
ATOM      3  C   UNL     1      30.749  24.043  32.081  1.00  0.00     0.000 C 
BRANCH   3   4
ATOM      4  C   UNL     1      30.785  23.583  33.554  1.00  0.00     0.006 C 
BRANCH   4   5
ATOM      5  C   UNL     1      32.168  23.729  34.209  1.00  0.00     0.053 C 
BRANCH   5   6
ATOM      6  C   UNL     1      32.083  23.873  35.696  1.00  0.00     0.041 C 
ATOM      7  O   UNL     1      30.965  24.035  36.253  1.00  0.00    -0.550 OA
ATOM      8  O   UNL     1      33.240  23.857  36.465  1.00  0.00    -0.550 OA
ENDBRANCH   5   6
ENDBRANCH   4   5
ENDBRANCH   3   4
ENDBRANCH   2   3
ENDBRANCH   1   2
BRANCH   1   9
ATOM      9  C   UNL     1      30.937  22.740  29.627  1.00  0.00     0.000 C 
BRANCH   9  10
ATOM     10  C   UNL     1      31.081  21.791  28.420  1.00  0.00    -0.000 C 
BRANCH  10  11
ATOM     11  C   UNL     1      31.897  22.352  27.240  1.00  0.00    -0.000 C 
BRANCH  11  12
ATOM     12  C   UNL     1      33.416  22.270  27.473  1.00  0.00    -0.000 C 
BRANCH  12  13
ATOM     13  C   UNL     1      33.984  23.551  28.102  1.00  0.00    -0.003 C 
ATOM     14  C   UNL     1      35.489  23.707  27.873  1.00  0.00     0.004 C 
ENDBRANCH  12  13
ENDBRANCH  11  12
ENDBRANCH  10  11
ENDBRANCH   9  10
ENDBRANCH   1   9
TORSDOF 10
ENDMDL
MODEL 7
REMARK VINA RESULT:     6.646     13.435     14.848
REMARK INTER + INTRA:           9.929
REMARK INTER:                  10.447
REMARK INTRA:                  -0.518
REMARK UNBOUND:                -0.602
REMARK SMILES CCCCCCCCCCCC(=O)[O-]
REMARK SMILES IDX 7 1 8 2 9 3 10 4 11 5 12 6 13 7 14 8 6 9 5 10 4 11 3 12 2 13
REMARK SMILES IDX 1 14
REMARK H PARENT
REMARK Flexibility Score: inf
ROOT
ATOM      1  C   UNL     1      30.987  23.301  32.586  1.00  0.00     0.000 C 
ENDROOT
BRANCH   1   2
ATOM      2  C   UNL     1      30.594  23.983  33.908  1.00  0.00     0.000 C 
BRANCH   2   3
ATOM      3  C   UNL     1      31.755  24.042  34.916  1.00  0.00     0.000 C 
BRANCH   3   4
ATOM      4  C   UNL     1      33.038  23.378  34.373  1.00  0.00     0.006 C 
BRANCH   4   5
ATOM      5  C   UNL     1      34.326  24.122  34.760  1.00  0.00     0.053 C 
BRANCH   5   6
ATOM      6  C   UNL     1      35.413  23.948  33.747  1.00  0.00     0.041 C 
ATOM      7  O   UNL     1      35.128  23.640  32.559  1.00  0.00    -0.550 OA
ATOM      8  O   UNL     1      36.743  24.097  34.118  1.00  0.00    -0.550 OA
ENDBRANCH   5   6
ENDBRANCH   4   5
ENDBRANCH   3   4
ENDBRANCH   2   3
ENDBRANCH   1   2
BRANCH   1   9
ATOM      9  C   UNL     1      30.684  24.121  31.316  1.00  0.00     0.000 C 
BRANCH   9  10
ATOM     10  C   UNL     1      29.683  23.471  30.339  1.00  0.00    -0.000 C 
BRANCH  10  11
ATOM     11  C   UNL     1      30.074  23.552  28.852  1.00  0.00    -0.000 C 
BRANCH  11  12
ATOM     12  C   UNL     1      31.277  22.660  28.502  1.00  0.00    -0.000 C 
BRANCH  12  13
ATOM     13  C   UNL     1      32.540  23.474  28.184  1.00  0.00    -0.003 C 
ATOM     14  C   UNL     1      33.294  22.946  26.963  1.00  0.00     0.004 C 
ENDBRANCH  12  13
ENDBRANCH  11  12
ENDBRANCH  10  11
ENDBRANCH   9  10
ENDBRANCH   1   9
TORSDOF 10
ENDMDL
