MODEL 1
REMARK VINA RESULT:    -4.104      0.000      0.000
REMARK INTER + INTRA:         -12.945
REMARK INTER:                  -8.903
REMARK INTRA:                  -4.042
REMARK UNBOUND:                -4.042
REMARK SMILES CCCCCCCCCCCCCCCCCCCCCC(=O)[O-]
REMARK SMILES IDX 12 1 11 2 10 3 9 4 8 5 7 6 6 7 5 8 4 9 3 10 2 11 1 12 13 13
REMARK SMILES IDX 14 14 15 15 16 16 17 17 18 18 19 19 20 20 21 21 22 22 23 23
REMARK SMILES IDX 24 24
REMARK H PARENT
REMARK Flexibility Score: inf
ROOT
ATOM      1  C   UNL     1       6.731 -20.449  21.383  1.00  0.00     0.000 C 
ENDROOT
BRANCH   1   2
ATOM      2  C   UNL     1       7.577 -21.725  21.539  1.00  0.00     0.000 C 
BRANCH   2   3
ATOM      3  C   UNL     1       8.705 -21.827  20.495  1.00  0.00     0.000 C 
BRANCH   3   4
ATOM      4  C   UNL     1      10.125 -21.958  21.077  1.00  0.00    -0.000 C 
BRANCH   4   5
ATOM      5  C   UNL     1      10.532 -20.754  21.942  1.00  0.00    -0.000 C 
BRANCH   5   6
ATOM      6  C   UNL     1      10.628 -19.442  21.140  1.00  0.00    -0.000 C 
BRANCH   6   7
ATOM      7  C   UNL     1       9.661 -18.326  21.580  1.00  0.00    -0.000 C 
BRANCH   7   8
ATOM      8  C   UNL     1       8.980 -17.619  20.396  1.00  0.00    -0.000 C 
BRANCH   8   9
ATOM      9  C   UNL     1       8.940 -18.493  19.131  1.00  0.00    -0.000 C 
BRANCH   9  10
ATOM     10  C   UNL     1       9.721 -17.870  17.961  1.00  0.00    -0.000 C 
BRANCH  10  11
ATOM     11  C   UNL     1      10.701 -18.860  17.314  1.00  0.00    -0.003 C 
ATOM     12  C   UNL     1      10.347 -20.319  17.601  1.00  0.00     0.004 C 
ENDBRANCH  10  11
ENDBRANCH   9  10
ENDBRANCH   8   9
ENDBRANCH   7   8
ENDBRANCH   6   7
ENDBRANCH   5   6
ENDBRANCH   4   5
ENDBRANCH   3   4
ENDBRANCH   2   3
ENDBRANCH   1   2
BRANCH   1  13
ATOM     13  C   UNL     1       6.108 -19.989  22.710  1.00  0.00     0.000 C 
BRANCH  13  14
ATOM     14  C   UNL     1       7.132 -19.928  23.854  1.00  0.00     0.000 C 
BRANCH  14  15
ATOM     15  C   UNL     1       7.308 -18.490  24.358  1.00  0.00     0.000 C 
BRANCH  15  16
ATOM     16  C   UNL     1       6.207 -17.574  23.802  1.00  0.00     0.000 C 
BRANCH  16  17
ATOM     17  C   UNL     1       6.749 -16.210  23.347  1.00  0.00     0.000 C 
BRANCH  17  18
ATOM     18  C   UNL     1       7.926 -15.722  24.210  1.00  0.00     0.000 C 
BRANCH  18  19
ATOM     19  C   UNL     1       9.099 -15.180  23.372  1.00  0.00     0.000 C 
BRANCH  19  20
ATOM     20  C   UNL     1      10.488 -15.363  24.009  1.00  0.00     0.006 C 
BRANCH  20  21
ATOM     21  C   UNL     1      10.468 -16.284  25.235  1.00  0.00     0.053 C 
BRANCH  21  22
ATOM     22  C   UNL     1      11.360 -17.465  25.016  1.00  0.00     0.041 C 
ATOM     23  O   UNL     1      12.610 -17.319  24.987  1.00  0.00    -0.550 OA
ATOM     24  O   UNL     1      10.812 -18.735  24.894  1.00  0.00    -0.550 OA
ENDBRANCH  21  22
ENDBRANCH  20  21
ENDBRANCH  19  20
ENDBRANCH  18  19
ENDBRANCH  17  18
ENDBRANCH  16  17
ENDBRANCH  15  16
ENDBRANCH  14  15
ENDBRANCH  13  14
ENDBRANCH   1  13
TORSDOF 20
ENDMDL
MODEL 2
REMARK VINA RESULT:    -4.048      1.648      4.323
REMARK INTER + INTRA:         -12.823
REMARK INTER:                  -8.966
REMARK INTRA:                  -3.857
REMARK UNBOUND:                -4.042
REMARK SMILES CCCCCCCCCCCCCCCCCCCCCC(=O)[O-]
REMARK SMILES IDX 12 1 11 2 10 3 9 4 8 5 7 6 6 7 5 8 4 9 3 10 2 11 1 12 13 13
REMARK SMILES IDX 14 14 15 15 16 16 17 17 18 18 19 19 20 20 21 21 22 22 23 23
REMARK SMILES IDX 24 24
REMARK H PARENT
REMARK Flexibility Score: inf
ROOT
ATOM      1  C   UNL     1       7.297 -17.103  20.795  1.00  0.00     0.000 C 
ENDROOT
BRANCH   1   2
ATOM      2  C   UNL     1       8.738 -17.590  20.563  1.00  0.00     0.000 C 
BRANCH   2   3
ATOM      3  C   UNL     1       9.519 -17.797  21.874  1.00  0.00     0.000 C 
BRANCH   3   4
ATOM      4  C   UNL     1       9.996 -19.239  22.130  1.00  0.00    -0.000 C 
BRANCH   4   5
ATOM      5  C   UNL     1      10.183 -20.048  20.836  1.00  0.00    -0.000 C 
BRANCH   5   6
ATOM      6  C   UNL     1       9.231 -21.257  20.739  1.00  0.00    -0.000 C 
BRANCH   6   7
ATOM      7  C   UNL     1       8.135 -21.322  21.819  1.00  0.00    -0.000 C 
BRANCH   7   8
ATOM      8  C   UNL     1       6.786 -20.760  21.342  1.00  0.00    -0.000 C 
BRANCH   8   9
ATOM      9  C   UNL     1       6.019 -20.036  22.461  1.00  0.00    -0.000 C 
BRANCH   9  10
ATOM     10  C   UNL     1       6.745 -20.109  23.816  1.00  0.00    -0.000 C 
BRANCH  10  11
ATOM     11  C   UNL     1       6.955 -18.725  24.447  1.00  0.00    -0.003 C 
ATOM     12  C   UNL     1       7.315 -18.798  25.930  1.00  0.00     0.004 C 
ENDBRANCH  10  11
ENDBRANCH   9  10
ENDBRANCH   8   9
ENDBRANCH   7   8
ENDBRANCH   6   7
ENDBRANCH   5   6
ENDBRANCH   4   5
ENDBRANCH   3   4
ENDBRANCH   2   3
ENDBRANCH   1   2
BRANCH   1  13
ATOM     13  C   UNL     1       7.151 -15.584  20.617  1.00  0.00     0.000 C 
BRANCH  13  14
ATOM     14  C   UNL     1       6.326 -14.935  21.738  1.00  0.00     0.000 C 
BRANCH  14  15
ATOM     15  C   UNL     1       6.816 -15.393  23.117  1.00  0.00     0.000 C 
BRANCH  15  16
ATOM     16  C   UNL     1       8.136 -14.701  23.490  1.00  0.00     0.000 C 
BRANCH  16  17
ATOM     17  C   UNL     1       8.657 -15.129  24.871  1.00  0.00     0.000 C 
BRANCH  17  18
ATOM     18  C   UNL     1      10.082 -15.708  24.813  1.00  0.00     0.000 C 
BRANCH  18  19
ATOM     19  C   UNL     1      10.375 -16.689  25.962  1.00  0.00     0.000 C 
BRANCH  19  20
ATOM     20  C   UNL     1      10.895 -18.068  25.519  1.00  0.00     0.006 C 
BRANCH  20  21
ATOM     21  C   UNL     1      12.372 -18.047  25.104  1.00  0.00     0.053 C 
BRANCH  21  22
ATOM     22  C   UNL     1      13.164 -18.998  25.945  1.00  0.00     0.041 C 
ATOM     23  O   UNL     1      14.374 -19.221  25.678  1.00  0.00    -0.550 OA
ATOM     24  O   UNL     1      12.580 -19.598  27.052  1.00  0.00    -0.550 OA
ENDBRANCH  21  22
ENDBRANCH  20  21
ENDBRANCH  19  20
ENDBRANCH  18  19
ENDBRANCH  17  18
ENDBRANCH  16  17
ENDBRANCH  15  16
ENDBRANCH  14  15
ENDBRANCH  13  14
ENDBRANCH   1  13
TORSDOF 20
ENDMDL
MODEL 3
REMARK VINA RESULT:    -3.995      1.410      4.651
REMARK INTER + INTRA:         -12.708
REMARK INTER:                  -8.466
REMARK INTRA:                  -4.243
REMARK UNBOUND:                -4.042
REMARK SMILES CCCCCCCCCCCCCCCCCCCCCC(=O)[O-]
REMARK SMILES IDX 12 1 11 2 10 3 9 4 8 5 7 6 6 7 5 8 4 9 3 10 2 11 1 12 13 13
REMARK SMILES IDX 14 14 15 15 16 16 17 17 18 18 19 19 20 20 21 21 22 22 23 23
REMARK SMILES IDX 24 24
REMARK H PARENT
REMARK Flexibility Score: inf
ROOT
ATOM      1  C   UNL     1       9.014 -15.054  23.441  1.00  0.00     0.000 C 
ENDROOT
BRANCH   1   2
ATOM      2  C   UNL     1       9.491 -15.527  24.825  1.00  0.00     0.000 C 
BRANCH   2   3
ATOM      3  C   UNL     1       8.443 -16.384  25.559  1.00  0.00     0.000 C 
BRANCH   3   4
ATOM      4  C   UNL     1       8.878 -17.829  25.866  1.00  0.00    -0.000 C 
BRANCH   4   5
ATOM      5  C   UNL     1       7.992 -18.882  25.181  1.00  0.00    -0.000 C 
BRANCH   5   6
ATOM      6  C   UNL     1       6.745 -18.274  24.511  1.00  0.00    -0.000 C 
BRANCH   6   7
ATOM      7  C   UNL     1       6.208 -19.045  23.290  1.00  0.00    -0.000 C 
BRANCH   7   8
ATOM      8  C   UNL     1       7.060 -20.276  22.935  1.00  0.00    -0.000 C 
BRANCH   8   9
ATOM      9  C   UNL     1       7.010 -20.614  21.436  1.00  0.00    -0.000 C 
BRANCH   9  10
ATOM     10  C   UNL     1       7.783 -21.902  21.097  1.00  0.00    -0.000 C 
BRANCH  10  11
ATOM     11  C   UNL     1       9.005 -21.637  20.205  1.00  0.00    -0.003 C 
ATOM     12  C   UNL     1       8.633 -21.024  18.856  1.00  0.00     0.004 C 
ENDBRANCH  10  11
ENDBRANCH   9  10
ENDBRANCH   8   9
ENDBRANCH   7   8
ENDBRANCH   6   7
ENDBRANCH   5   6
ENDBRANCH   4   5
ENDBRANCH   3   4
ENDBRANCH   2   3
ENDBRANCH   1   2
BRANCH   1  13
ATOM     13  C   UNL     1       7.496 -14.819  23.387  1.00  0.00     0.000 C 
BRANCH  13  14
ATOM     14  C   UNL     1       6.831 -15.521  22.195  1.00  0.00     0.000 C 
BRANCH  14  15
ATOM     15  C   UNL     1       7.850 -15.799  21.082  1.00  0.00     0.000 C 
BRANCH  15  16
ATOM     16  C   UNL     1       8.056 -17.309  20.888  1.00  0.00     0.000 C 
BRANCH  16  17
ATOM     17  C   UNL     1       9.269 -17.629  20.002  1.00  0.00     0.000 C 
BRANCH  17  18
ATOM     18  C   UNL     1      10.412 -18.300  20.784  1.00  0.00     0.000 C 
BRANCH  18  19
ATOM     19  C   UNL     1      10.202 -18.252  22.309  1.00  0.00     0.000 C 
BRANCH  19  20
ATOM     20  C   UNL     1      11.019 -19.283  23.108  1.00  0.00     0.006 C 
BRANCH  20  21
ATOM     21  C   UNL     1      12.480 -18.863  23.310  1.00  0.00     0.053 C 
BRANCH  21  22
ATOM     22  C   UNL     1      12.556 -17.619  24.137  1.00  0.00     0.041 C 
ATOM     23  O   UNL     1      12.331 -17.666  25.375  1.00  0.00    -0.550 OA
ATOM     24  O   UNL     1      12.926 -16.416  23.549  1.00  0.00    -0.550 OA
ENDBRANCH  21  22
ENDBRANCH  20  21
ENDBRANCH  19  20
ENDBRANCH  18  19
ENDBRANCH  17  18
ENDBRANCH  16  17
ENDBRANCH  15  16
ENDBRANCH  14  15
ENDBRANCH  13  14
ENDBRANCH   1  13
TORSDOF 20
ENDMDL
MODEL 4
REMARK VINA RESULT:    -3.984      1.554      4.919
REMARK INTER + INTRA:         -12.684
REMARK INTER:                  -8.746
REMARK INTRA:                  -3.937
REMARK UNBOUND:                -4.042
REMARK SMILES CCCCCCCCCCCCCCCCCCCCCC(=O)[O-]
REMARK SMILES IDX 12 1 11 2 10 3 9 4 8 5 7 6 6 7 5 8 4 9 3 10 2 11 1 12 13 13
REMARK SMILES IDX 14 14 15 15 16 16 17 17 18 18 19 19 20 20 21 21 22 22 23 23
REMARK SMILES IDX 24 24
REMARK H PARENT
REMARK Flexibility Score: inf
ROOT
ATOM      1  C   UNL     1       8.638 -20.934  18.796  1.00  0.00     0.000 C 
ENDROOT
BRANCH   1   2
ATOM      2  C   UNL     1       9.067 -21.526  20.150  1.00  0.00     0.000 C 
BRANCH   2   3
ATOM      3  C   UNL     1       7.871 -21.917  21.039  1.00  0.00     0.000 C 
BRANCH   3   4
ATOM      4  C   UNL     1       6.927 -20.758  21.412  1.00  0.00    -0.000 C 
BRANCH   4   5
ATOM      5  C   UNL     1       7.107 -20.281  22.863  1.00  0.00    -0.000 C 
BRANCH   5   6
ATOM      6  C   UNL     1       6.190 -19.097  23.224  1.00  0.00    -0.000 C 
BRANCH   6   7
ATOM      7  C   UNL     1       6.798 -18.061  24.188  1.00  0.00    -0.000 C 
BRANCH   7   8
ATOM      8  C   UNL     1       8.027 -18.593  24.945  1.00  0.00    -0.000 C 
BRANCH   8   9
ATOM      9  C   UNL     1       8.968 -17.467  25.407  1.00  0.00    -0.000 C 
BRANCH   9  10
ATOM     10  C   UNL     1       8.206 -16.193  25.815  1.00  0.00    -0.000 C 
BRANCH  10  11
ATOM     11  C   UNL     1       8.576 -14.982  24.945  1.00  0.00    -0.003 C 
ATOM     12  C   UNL     1       9.972 -15.095  24.334  1.00  0.00     0.004 C 
ENDBRANCH  10  11
ENDBRANCH   9  10
ENDBRANCH   8   9
ENDBRANCH   7   8
ENDBRANCH   6   7
ENDBRANCH   5   6
ENDBRANCH   4   5
ENDBRANCH   3   4
ENDBRANCH   2   3
ENDBRANCH   1   2
BRANCH   1  13
ATOM     13  C   UNL     1       9.612 -19.862  18.285  1.00  0.00     0.000 C 
BRANCH  13  14
ATOM     14  C   UNL     1       8.947 -18.487  18.125  1.00  0.00     0.000 C 
BRANCH  14  15
ATOM     15  C   UNL     1       7.512 -18.505  18.664  1.00  0.00     0.000 C 
BRANCH  15  16
ATOM     16  C   UNL     1       7.329 -17.464  19.779  1.00  0.00     0.000 C 
BRANCH  16  17
ATOM     17  C   UNL     1       8.639 -16.745  20.134  1.00  0.00     0.000 C 
BRANCH  17  18
ATOM     18  C   UNL     1       9.095 -17.023  21.578  1.00  0.00     0.000 C 
BRANCH  18  19
ATOM     19  C   UNL     1       9.943 -18.302  21.701  1.00  0.00     0.000 C 
BRANCH  19  20
ATOM     20  C   UNL     1      11.414 -18.147  21.277  1.00  0.00     0.006 C 
BRANCH  20  21
ATOM     21  C   UNL     1      12.015 -16.796  21.685  1.00  0.00     0.053 C 
BRANCH  21  22
ATOM     22  C   UNL     1      13.111 -16.992  22.685  1.00  0.00     0.041 C 
ATOM     23  O   UNL     1      12.854 -16.978  23.918  1.00  0.00    -0.550 OA
ATOM     24  O   UNL     1      14.407 -17.241  22.254  1.00  0.00    -0.550 OA
ENDBRANCH  21  22
ENDBRANCH  20  21
ENDBRANCH  19  20
ENDBRANCH  18  19
ENDBRANCH  17  18
ENDBRANCH  16  17
ENDBRANCH  15  16
ENDBRANCH  14  15
ENDBRANCH  13  14
ENDBRANCH   1  13
TORSDOF 20
ENDMDL
MODEL 5
REMARK VINA RESULT:    -3.978      1.785      5.385
REMARK INTER + INTRA:         -12.671
REMARK INTER:                  -8.627
REMARK INTRA:                  -4.045
REMARK UNBOUND:                -4.042
REMARK SMILES CCCCCCCCCCCCCCCCCCCCCC(=O)[O-]
REMARK SMILES IDX 12 1 11 2 10 3 9 4 8 5 7 6 6 7 5 8 4 9 3 10 2 11 1 12 13 13
REMARK SMILES IDX 14 14 15 15 16 16 17 17 18 18 19 19 20 20 21 21 22 22 23 23
REMARK SMILES IDX 24 24
REMARK H PARENT
REMARK Flexibility Score: inf
ROOT
ATOM      1  C   UNL     1       6.035 -19.974  23.144  1.00  0.00     0.000 C 
ENDROOT
BRANCH   1   2
ATOM      2  C   UNL     1       7.211 -19.584  24.057  1.00  0.00     0.000 C 
BRANCH   2   3
ATOM      3  C   UNL     1       7.078 -18.160  24.630  1.00  0.00     0.000 C 
BRANCH   3   4
ATOM      4  C   UNL     1       6.071 -17.253  23.900  1.00  0.00    -0.000 C 
BRANCH   4   5
ATOM      5  C   UNL     1       6.749 -16.185  23.026  1.00  0.00    -0.000 C 
BRANCH   5   6
ATOM      6  C   UNL     1       7.090 -16.693  21.612  1.00  0.00    -0.000 C 
BRANCH   6   7
ATOM      7  C   UNL     1       8.548 -16.478  21.167  1.00  0.00    -0.000 C 
BRANCH   7   8
ATOM      8  C   UNL     1       9.572 -16.952  22.212  1.00  0.00    -0.000 C 
BRANCH   8   9
ATOM      9  C   UNL     1      10.751 -15.977  22.368  1.00  0.00    -0.000 C 
BRANCH   9  10
ATOM     10  C   UNL     1      10.573 -15.022  23.561  1.00  0.00    -0.000 C 
BRANCH  10  11
ATOM     11  C   UNL     1       9.788 -15.664  24.716  1.00  0.00    -0.003 C 
ATOM     12  C   UNL     1      10.671 -16.504  25.638  1.00  0.00     0.004 C 
ENDBRANCH  10  11
ENDBRANCH   9  10
ENDBRANCH   8   9
ENDBRANCH   7   8
ENDBRANCH   6   7
ENDBRANCH   5   6
ENDBRANCH   4   5
ENDBRANCH   3   4
ENDBRANCH   2   3
ENDBRANCH   1   2
BRANCH   1  13
ATOM     13  C   UNL     1       6.494 -20.398  21.740  1.00  0.00     0.000 C 
BRANCH  13  14
ATOM     14  C   UNL     1       8.022 -20.379  21.587  1.00  0.00     0.000 C 
BRANCH  14  15
ATOM     15  C   UNL     1       8.500 -21.544  20.710  1.00  0.00     0.000 C 
BRANCH  15  16
ATOM     16  C   UNL     1       8.658 -21.103  19.247  1.00  0.00     0.000 C 
BRANCH  16  17
ATOM     17  C   UNL     1       8.784 -19.579  19.101  1.00  0.00     0.000 C 
BRANCH  17  18
ATOM     18  C   UNL     1       9.965 -19.165  18.204  1.00  0.00     0.000 C 
BRANCH  18  19
ATOM     19  C   UNL     1      10.961 -18.234  18.919  1.00  0.00     0.000 C 
BRANCH  19  20
ATOM     20  C   UNL     1      12.237 -18.924  19.433  1.00  0.00     0.006 C 
BRANCH  20  21
ATOM     21  C   UNL     1      12.231 -19.139  20.952  1.00  0.00     0.053 C 
BRANCH  21  22
ATOM     22  C   UNL     1      12.021 -20.584  21.275  1.00  0.00     0.041 C 
ATOM     23  O   UNL     1      11.793 -20.943  22.460  1.00  0.00    -0.550 OA
ATOM     24  O   UNL     1      12.028 -21.530  20.258  1.00  0.00    -0.550 OA
ENDBRANCH  21  22
ENDBRANCH  20  21
ENDBRANCH  19  20
ENDBRANCH  18  19
ENDBRANCH  17  18
ENDBRANCH  16  17
ENDBRANCH  15  16
ENDBRANCH  14  15
ENDBRANCH  13  14
ENDBRANCH   1  13
TORSDOF 20
ENDMDL
MODEL 6
REMARK VINA RESULT:    -3.977      2.807      5.417
REMARK INTER + INTRA:         -12.669
REMARK INTER:                  -8.900
REMARK INTRA:                  -3.769
REMARK UNBOUND:                -4.042
REMARK SMILES CCCCCCCCCCCCCCCCCCCCCC(=O)[O-]
REMARK SMILES IDX 12 1 11 2 10 3 9 4 8 5 7 6 6 7 5 8 4 9 3 10 2 11 1 12 13 13
REMARK SMILES IDX 14 14 15 15 16 16 17 17 18 18 19 19 20 20 21 21 22 22 23 23
REMARK SMILES IDX 24 24
REMARK H PARENT
REMARK Flexibility Score: inf
ROOT
ATOM      1  C   UNL     1       7.820 -18.727  25.727  1.00  0.00     0.000 C 
ENDROOT
BRANCH   1   2
ATOM      2  C   UNL     1       9.317 -18.380  25.807  1.00  0.00     0.000 C 
BRANCH   2   3
ATOM      3  C   UNL     1       9.578 -16.864  25.883  1.00  0.00     0.000 C 
BRANCH   3   4
ATOM      4  C   UNL     1      10.756 -16.359  25.030  1.00  0.00    -0.000 C 
BRANCH   4   5
ATOM      5  C   UNL     1      10.344 -15.279  24.017  1.00  0.00    -0.000 C 
BRANCH   5   6
ATOM      6  C   UNL     1      11.392 -15.064  22.907  1.00  0.00    -0.000 C 
BRANCH   6   7
ATOM      7  C   UNL     1      12.829 -15.487  23.266  1.00  0.00    -0.000 C 
BRANCH   7   8
ATOM      8  C   UNL     1      13.358 -16.628  22.381  1.00  0.00    -0.000 C 
BRANCH   8   9
ATOM      9  C   UNL     1      13.629 -17.915  23.178  1.00  0.00    -0.000 C 
BRANCH   9  10
ATOM     10  C   UNL     1      13.792 -19.147  22.269  1.00  0.00    -0.000 C 
BRANCH  10  11
ATOM     11  C   UNL     1      15.264 -19.540  22.069  1.00  0.00    -0.003 C 
ATOM     12  C   UNL     1      15.634 -20.836  22.789  1.00  0.00     0.004 C 
ENDBRANCH  10  11
ENDBRANCH   9  10
ENDBRANCH   8   9
ENDBRANCH   7   8
ENDBRANCH   6   7
ENDBRANCH   5   6
ENDBRANCH   4   5
ENDBRANCH   3   4
ENDBRANCH   2   3
ENDBRANCH   1   2
BRANCH   1  13
ATOM     13  C   UNL     1       6.952 -17.512  25.364  1.00  0.00     0.000 C 
BRANCH  13  14
ATOM     14  C   UNL     1       6.506 -17.523  23.894  1.00  0.00     0.000 C 
BRANCH  14  15
ATOM     15  C   UNL     1       6.545 -16.110  23.298  1.00  0.00     0.000 C 
BRANCH  15  16
ATOM     16  C   UNL     1       7.417 -16.070  22.034  1.00  0.00     0.000 C 
BRANCH  16  17
ATOM     17  C   UNL     1       7.816 -17.472  21.548  1.00  0.00     0.000 C 
BRANCH  17  18
ATOM     18  C   UNL     1       9.311 -17.572  21.194  1.00  0.00     0.000 C 
BRANCH  18  19
ATOM     19  C   UNL     1      10.073 -18.561  22.094  1.00  0.00     0.000 C 
BRANCH  19  20
ATOM     20  C   UNL     1       9.318 -19.866  22.407  1.00  0.00     0.006 C 
BRANCH  20  21
ATOM     21  C   UNL     1       9.715 -21.024  21.482  1.00  0.00     0.053 C 
BRANCH  21  22
ATOM     22  C   UNL     1       8.653 -21.260  20.455  1.00  0.00     0.041 C 
ATOM     23  O   UNL     1       8.679 -20.637  19.361  1.00  0.00    -0.550 OA
ATOM     24  O   UNL     1       7.662 -22.205  20.686  1.00  0.00    -0.550 OA
ENDBRANCH  21  22
ENDBRANCH  20  21
ENDBRANCH  19  20
ENDBRANCH  18  19
ENDBRANCH  17  18
ENDBRANCH  16  17
ENDBRANCH  15  16
ENDBRANCH  14  15
ENDBRANCH  13  14
ENDBRANCH   1  13
TORSDOF 20
ENDMDL
MODEL 7
REMARK VINA RESULT:    -3.972      2.031      5.551
REMARK INTER + INTRA:         -12.658
REMARK INTER:                  -8.358
REMARK INTRA:                  -4.300
REMARK UNBOUND:                -4.042
REMARK SMILES CCCCCCCCCCCCCCCCCCCCCC(=O)[O-]
REMARK SMILES IDX 12 1 11 2 10 3 9 4 8 5 7 6 6 7 5 8 4 9 3 10 2 11 1 12 13 13
REMARK SMILES IDX 14 14 15 15 16 16 17 17 18 18 19 19 20 20 21 21 22 22 23 23
REMARK SMILES IDX 24 24
REMARK H PARENT
REMARK Flexibility Score: inf
ROOT
ATOM      1  C   UNL     1       7.085 -20.374  22.911  1.00  0.00     0.000 C 
ENDROOT
BRANCH   1   2
ATOM      2  C   UNL     1       6.297 -19.091  23.229  1.00  0.00     0.000 C 
BRANCH   2   3
ATOM      3  C   UNL     1       7.188 -17.959  23.775  1.00  0.00     0.000 C 
BRANCH   3   4
ATOM      4  C   UNL     1       7.452 -16.803  22.792  1.00  0.00    -0.000 C 
BRANCH   4   5
ATOM      5  C   UNL     1       8.206 -17.249  21.528  1.00  0.00    -0.000 C 
BRANCH   5   6
ATOM      6  C   UNL     1       9.674 -16.782  21.507  1.00  0.00    -0.000 C 
BRANCH   6   7
ATOM      7  C   UNL     1      10.720 -17.898  21.328  1.00  0.00    -0.000 C 
BRANCH   7   8
ATOM      8  C   UNL     1      10.403 -19.157  22.154  1.00  0.00    -0.000 C 
BRANCH   8   9
ATOM      9  C   UNL     1      11.264 -19.261  23.424  1.00  0.00    -0.000 C 
BRANCH   9  10
ATOM     10  C   UNL     1      10.607 -18.582  24.639  1.00  0.00    -0.000 C 
BRANCH  10  11
ATOM     11  C   UNL     1      11.225 -17.211  24.953  1.00  0.00    -0.003 C 
ATOM     12  C   UNL     1      10.175 -16.144  25.261  1.00  0.00     0.004 C 
ENDBRANCH  10  11
ENDBRANCH   9  10
ENDBRANCH   8   9
ENDBRANCH   7   8
ENDBRANCH   6   7
ENDBRANCH   5   6
ENDBRANCH   4   5
ENDBRANCH   3   4
ENDBRANCH   2   3
ENDBRANCH   1   2
BRANCH   1  13
ATOM     13  C   UNL     1       6.971 -20.787  21.436  1.00  0.00     0.000 C 
BRANCH  13  14
ATOM     14  C   UNL     1       7.953 -21.906  21.057  1.00  0.00     0.000 C 
BRANCH  14  15
ATOM     15  C   UNL     1       8.757 -21.531  19.807  1.00  0.00     0.000 C 
BRANCH  15  16
ATOM     16  C   UNL     1       8.263 -20.203  19.212  1.00  0.00     0.000 C 
BRANCH  16  17
ATOM     17  C   UNL     1       9.331 -19.508  18.353  1.00  0.00     0.000 C 
BRANCH  17  18
ATOM     18  C   UNL     1      10.510 -20.437  18.008  1.00  0.00     0.000 C 
BRANCH  18  19
ATOM     19  C   UNL     1      11.873 -19.848  18.415  1.00  0.00     0.000 C 
BRANCH  19  20
ATOM     20  C   UNL     1      12.594 -20.606  19.544  1.00  0.00     0.006 C 
BRANCH  20  21
ATOM     21  C   UNL     1      14.024 -20.103  19.784  1.00  0.00     0.053 C 
BRANCH  21  22
ATOM     22  C   UNL     1      14.182 -19.635  21.196  1.00  0.00     0.041 C 
ATOM     23  O   UNL     1      14.151 -18.404  21.463  1.00  0.00    -0.550 OA
ATOM     24  O   UNL     1      14.313 -20.559  22.224  1.00  0.00    -0.550 OA
ENDBRANCH  21  22
ENDBRANCH  20  21
ENDBRANCH  19  20
ENDBRANCH  18  19
ENDBRANCH  17  18
ENDBRANCH  16  17
ENDBRANCH  15  16
ENDBRANCH  14  15
ENDBRANCH  13  14
ENDBRANCH   1  13
TORSDOF 20
ENDMDL
MODEL 8
REMARK VINA RESULT:    -3.969      2.615      5.145
REMARK INTER + INTRA:         -12.652
REMARK INTER:                  -8.483
REMARK INTRA:                  -4.168
REMARK UNBOUND:                -4.042
REMARK SMILES CCCCCCCCCCCCCCCCCCCCCC(=O)[O-]
REMARK SMILES IDX 12 1 11 2 10 3 9 4 8 5 7 6 6 7 5 8 4 9 3 10 2 11 1 12 13 13
REMARK SMILES IDX 14 14 15 15 16 16 17 17 18 18 19 19 20 20 21 21 22 22 23 23
REMARK SMILES IDX 24 24
REMARK H PARENT
REMARK Flexibility Score: inf
ROOT
ATOM      1  C   UNL     1      10.068 -17.277  19.325  1.00  0.00     0.000 C 
ENDROOT
BRANCH   1   2
ATOM      2  C   UNL     1      11.176 -17.953  20.150  1.00  0.00     0.000 C 
BRANCH   2   3
ATOM      3  C   UNL     1      10.624 -18.849  21.275  1.00  0.00     0.000 C 
BRANCH   3   4
ATOM      4  C   UNL     1      11.681 -19.673  22.033  1.00  0.00    -0.000 C 
BRANCH   4   5
ATOM      5  C   UNL     1      11.743 -19.336  23.532  1.00  0.00    -0.000 C 
BRANCH   5   6
ATOM      6  C   UNL     1      10.667 -18.322  23.965  1.00  0.00    -0.000 C 
BRANCH   6   7
ATOM      7  C   UNL     1      11.197 -16.950  24.421  1.00  0.00    -0.000 C 
BRANCH   7   8
ATOM      8  C   UNL     1      10.823 -15.811  23.457  1.00  0.00    -0.000 C 
BRANCH   8   9
ATOM      9  C   UNL     1      12.055 -15.167  22.799  1.00  0.00    -0.000 C 
BRANCH   9  10
ATOM     10  C   UNL     1      13.360 -15.908  23.139  1.00  0.00    -0.000 C 
BRANCH  10  11
ATOM     11  C   UNL     1      13.976 -16.607  21.917  1.00  0.00    -0.003 C 
ATOM     12  C   UNL     1      14.901 -17.762  22.298  1.00  0.00     0.004 C 
ENDBRANCH  10  11
ENDBRANCH   9  10
ENDBRANCH   8   9
ENDBRANCH   7   8
ENDBRANCH   6   7
ENDBRANCH   5   6
ENDBRANCH   4   5
ENDBRANCH   3   4
ENDBRANCH   2   3
ENDBRANCH   1   2
BRANCH   1  13
ATOM     13  C   UNL     1       8.795 -18.132  19.233  1.00  0.00     0.000 C 
BRANCH  13  14
ATOM     14  C   UNL     1       7.549 -17.395  19.747  1.00  0.00     0.000 C 
BRANCH  14  15
ATOM     15  C   UNL     1       7.926 -16.351  20.805  1.00  0.00     0.000 C 
BRANCH  15  16
ATOM     16  C   UNL     1       6.996 -16.442  22.024  1.00  0.00     0.000 C 
BRANCH  16  17
ATOM     17  C   UNL     1       7.510 -17.428  23.085  1.00  0.00     0.000 C 
BRANCH  17  18
ATOM     18  C   UNL     1       6.377 -18.239  23.738  1.00  0.00     0.000 C 
BRANCH  18  19
ATOM     19  C   UNL     1       6.568 -19.759  23.592  1.00  0.00     0.000 C 
BRANCH  19  20
ATOM     20  C   UNL     1       7.589 -20.183  22.521  1.00  0.00     0.006 C 
BRANCH  20  21
ATOM     21  C   UNL     1       6.932 -20.791  21.275  1.00  0.00     0.053 C 
BRANCH  21  22
ATOM     22  C   UNL     1       7.816 -21.839  20.677  1.00  0.00     0.041 C 
ATOM     23  O   UNL     1       7.949 -22.956  21.245  1.00  0.00    -0.550 OA
ATOM     24  O   UNL     1       8.454 -21.602  19.467  1.00  0.00    -0.550 OA
ENDBRANCH  21  22
ENDBRANCH  20  21
ENDBRANCH  19  20
ENDBRANCH  18  19
ENDBRANCH  17  18
ENDBRANCH  16  17
ENDBRANCH  15  16
ENDBRANCH  14  15
ENDBRANCH  13  14
ENDBRANCH   1  13
TORSDOF 20
ENDMDL
MODEL 9
REMARK VINA RESULT:    -3.922      2.169      5.055
REMARK INTER + INTRA:         -12.550
REMARK INTER:                  -8.384
REMARK INTRA:                  -4.165
REMARK UNBOUND:                -4.042
REMARK SMILES CCCCCCCCCCCCCCCCCCCCCC(=O)[O-]
REMARK SMILES IDX 12 1 11 2 10 3 9 4 8 5 7 6 6 7 5 8 4 9 3 10 2 11 1 12 13 13
REMARK SMILES IDX 14 14 15 15 16 16 17 17 18 18 19 19 20 20 21 21 22 22 23 23
REMARK SMILES IDX 24 24
REMARK H PARENT
REMARK Flexibility Score: inf
ROOT
ATOM      1  C   UNL     1       8.255 -15.346  24.611  1.00  0.00     0.000 C 
ENDROOT
BRANCH   1   2
ATOM      2  C   UNL     1       9.776 -15.543  24.743  1.00  0.00     0.000 C 
BRANCH   2   3
ATOM      3  C   UNL     1      10.160 -16.491  25.895  1.00  0.00     0.000 C 
BRANCH   3   4
ATOM      4  C   UNL     1      10.951 -17.743  25.476  1.00  0.00    -0.000 C 
BRANCH   4   5
ATOM      5  C   UNL     1      10.300 -18.501  24.307  1.00  0.00    -0.000 C 
BRANCH   5   6
ATOM      6  C   UNL     1      11.330 -19.070  23.311  1.00  0.00    -0.000 C 
BRANCH   6   7
ATOM      7  C   UNL     1      12.348 -18.055  22.762  1.00  0.00    -0.000 C 
BRANCH   7   8
ATOM      8  C   UNL     1      12.021 -17.588  21.333  1.00  0.00    -0.000 C 
BRANCH   8   9
ATOM      9  C   UNL     1      10.980 -16.457  21.306  1.00  0.00    -0.000 C 
BRANCH   9  10
ATOM     10  C   UNL     1       9.884 -16.691  20.251  1.00  0.00    -0.000 C 
BRANCH  10  11
ATOM     11  C   UNL     1       8.928 -17.830  20.638  1.00  0.00    -0.003 C 
ATOM     12  C   UNL     1       7.564 -17.715  19.959  1.00  0.00     0.004 C 
ENDBRANCH  10  11
ENDBRANCH   9  10
ENDBRANCH   8   9
ENDBRANCH   7   8
ENDBRANCH   6   7
ENDBRANCH   5   6
ENDBRANCH   4   5
ENDBRANCH   3   4
ENDBRANCH   2   3
ENDBRANCH   1   2
BRANCH   1  13
ATOM     13  C   UNL     1       7.678 -16.029  23.362  1.00  0.00     0.000 C 
BRANCH  13  14
ATOM     14  C   UNL     1       6.516 -16.978  23.691  1.00  0.00     0.000 C 
BRANCH  14  15
ATOM     15  C   UNL     1       6.800 -17.771  24.973  1.00  0.00     0.000 C 
BRANCH  15  16
ATOM     16  C   UNL     1       6.808 -19.282  24.695  1.00  0.00     0.000 C 
BRANCH  16  17
ATOM     17  C   UNL     1       6.532 -19.611  23.220  1.00  0.00     0.000 C 
BRANCH  17  18
ATOM     18  C   UNL     1       7.658 -20.442  22.579  1.00  0.00     0.000 C 
BRANCH  18  19
ATOM     19  C   UNL     1       7.221 -21.138  21.277  1.00  0.00     0.000 C 
BRANCH  19  20
ATOM     20  C   UNL     1       8.334 -21.918  20.554  1.00  0.00     0.006 C 
BRANCH  20  21
ATOM     21  C   UNL     1       9.724 -21.672  21.155  1.00  0.00     0.053 C 
BRANCH  21  22
ATOM     22  C   UNL     1      10.654 -21.132  20.116  1.00  0.00     0.041 C 
ATOM     23  O   UNL     1      11.899 -21.167  20.299  1.00  0.00    -0.550 OA
ATOM     24  O   UNL     1      10.148 -20.635  18.922  1.00  0.00    -0.550 OA
ENDBRANCH  21  22
ENDBRANCH  20  21
ENDBRANCH  19  20
ENDBRANCH  18  19
ENDBRANCH  17  18
ENDBRANCH  16  17
ENDBRANCH  15  16
ENDBRANCH  14  15
ENDBRANCH  13  14
ENDBRANCH   1  13
TORSDOF 20
ENDMDL
