MODEL 1
REMARK VINA RESULT:    -3.517      0.000      0.000
REMARK INTER + INTRA:         -14.622
REMARK INTER:                  -9.273
REMARK INTRA:                  -5.350
REMARK UNBOUND:                -5.350
REMARK SMILES CCCCCCCCCCCCCCCCCCCCCCCCCCCCCC(=O)[O-]
REMARK SMILES IDX 16 1 17 2 18 3 19 4 20 5 21 6 22 7 23 8 24 9 25 10 26 11
REMARK SMILES IDX 27 12 28 13 29 14 30 15 31 16 32 17 15 18 14 19 13 20 12 21
REMARK SMILES IDX 11 22 10 23 9 24 8 25 7 26 6 27 5 28 4 29 3 30 2 31 1 32
REMARK H PARENT
REMARK Flexibility Score: inf
ROOT
ATOM      1  C   UNL     1      29.421   0.166 -35.769  1.00  0.00     0.000 C 
ENDROOT
BRANCH   1   2
ATOM      2  C   UNL     1      29.922  -1.281 -35.898  1.00  0.00     0.000 C 
BRANCH   2   3
ATOM      3  C   UNL     1      29.528  -2.153 -34.697  1.00  0.00     0.000 C 
BRANCH   3   4
ATOM      4  C   UNL     1      29.920  -3.617 -34.933  1.00  0.00     0.000 C 
BRANCH   4   5
ATOM      5  C   UNL     1      31.159  -3.720 -35.833  1.00  0.00     0.000 C 
BRANCH   5   6
ATOM      6  C   UNL     1      30.915  -4.574 -37.091  1.00  0.00     0.000 C 
BRANCH   6   7
ATOM      7  C   UNL     1      31.929  -4.311 -38.224  1.00  0.00     0.000 C 
BRANCH   7   8
ATOM      8  C   UNL     1      31.244  -3.899 -39.539  1.00  0.00     0.000 C 
BRANCH   8   9
ATOM      9  C   UNL     1      29.711  -4.091 -39.486  1.00  0.00     0.000 C 
BRANCH   9  10
ATOM     10  C   UNL     1      28.922  -2.833 -39.894  1.00  0.00     0.000 C 
BRANCH  10  11
ATOM     11  C   UNL     1      28.038  -2.239 -38.782  1.00  0.00     0.000 C 
BRANCH  11  12
ATOM     12  C   UNL     1      27.536  -3.252 -37.732  1.00  0.00     0.000 C 
BRANCH  12  13
ATOM     13  C   UNL     1      26.482  -2.712 -36.751  1.00  0.00     0.006 C 
BRANCH  13  14
ATOM     14  C   UNL     1      25.543  -3.803 -36.219  1.00  0.00     0.053 C 
BRANCH  14  15
ATOM     15  C   UNL     1      25.834  -4.095 -34.781  1.00  0.00     0.041 C 
ATOM     16  O   UNL     1      26.635  -5.017 -34.470  1.00  0.00    -0.550 OA
ATOM     17  O   UNL     1      25.202  -3.366 -33.781  1.00  0.00    -0.550 OA
ENDBRANCH  14  15
ENDBRANCH  13  14
ENDBRANCH  12  13
ENDBRANCH  11  12
ENDBRANCH  10  11
ENDBRANCH   9  10
ENDBRANCH   8   9
ENDBRANCH   7   8
ENDBRANCH   6   7
ENDBRANCH   5   6
ENDBRANCH   4   5
ENDBRANCH   3   4
ENDBRANCH   2   3
ENDBRANCH   1   2
BRANCH   1  18
ATOM     18  C   UNL     1      29.889   1.064 -36.926  1.00  0.00     0.000 C 
BRANCH  18  19
ATOM     19  C   UNL     1      30.610   0.241 -37.999  1.00  0.00     0.000 C 
BRANCH  19  20
ATOM     20  C   UNL     1      32.119   0.532 -37.999  1.00  0.00     0.000 C 
BRANCH  20  21
ATOM     21  C   UNL     1      32.967  -0.741 -38.160  1.00  0.00     0.000 C 
BRANCH  21  22
ATOM     22  C   UNL     1      33.518  -1.259 -36.819  1.00  0.00     0.000 C 
BRANCH  22  23
ATOM     23  C   UNL     1      33.464  -0.201 -35.706  1.00  0.00     0.000 C 
BRANCH  23  24
ATOM     24  C   UNL     1      33.019  -0.789 -34.357  1.00  0.00    -0.000 C 
BRANCH  24  25
ATOM     25  C   UNL     1      32.377   0.260 -33.429  1.00  0.00    -0.000 C 
BRANCH  25  26
ATOM     26  C   UNL     1      32.320   1.689 -34.002  1.00  0.00    -0.000 C 
BRANCH  26  27
ATOM     27  C   UNL     1      33.445   2.593 -33.474  1.00  0.00    -0.000 C 
BRANCH  27  28
ATOM     28  C   UNL     1      32.981   3.388 -32.244  1.00  0.00    -0.000 C 
BRANCH  28  29
ATOM     29  C   UNL     1      32.876   4.901 -32.513  1.00  0.00    -0.000 C 
BRANCH  29  30
ATOM     30  C   UNL     1      32.967   5.792 -31.260  1.00  0.00    -0.000 C 
BRANCH  30  31
ATOM     31  C   UNL     1      34.116   6.809 -31.333  1.00  0.00    -0.003 C 
ATOM     32  C   UNL     1      35.445   6.166 -30.948  1.00  0.00     0.004 C 
ENDBRANCH  30  31
ENDBRANCH  29  30
ENDBRANCH  28  29
ENDBRANCH  27  28
ENDBRANCH  26  27
ENDBRANCH  25  26
ENDBRANCH  24  25
ENDBRANCH  23  24
ENDBRANCH  22  23
ENDBRANCH  21  22
ENDBRANCH  20  21
ENDBRANCH  19  20
ENDBRANCH  18  19
ENDBRANCH   1  18
TORSDOF 28
ENDMDL
MODEL 2
REMARK VINA RESULT:    -3.513      3.184      4.906
REMARK INTER + INTRA:         -14.613
REMARK INTER:                  -8.922
REMARK INTRA:                  -5.691
REMARK UNBOUND:                -5.350
REMARK SMILES CCCCCCCCCCCCCCCCCCCCCCCCCCCCCC(=O)[O-]
REMARK SMILES IDX 16 1 17 2 18 3 19 4 20 5 21 6 22 7 23 8 24 9 25 10 26 11
REMARK SMILES IDX 27 12 28 13 29 14 30 15 31 16 32 17 15 18 14 19 13 20 12 21
REMARK SMILES IDX 11 22 10 23 9 24 8 25 7 26 6 27 5 28 4 29 3 30 2 31 1 32
REMARK H PARENT
REMARK Flexibility Score: inf
ROOT
ATOM      1  C   UNL     1      31.537   0.498 -38.424  1.00  0.00     0.000 C 
ENDROOT
BRANCH   1   2
ATOM      2  C   UNL     1      32.800  -0.359 -38.245  1.00  0.00     0.000 C 
BRANCH   2   3
ATOM      3  C   UNL     1      33.379  -0.273 -36.826  1.00  0.00     0.000 C 
BRANCH   3   4
ATOM      4  C   UNL     1      33.483  -1.666 -36.193  1.00  0.00     0.000 C 
BRANCH   4   5
ATOM      5  C   UNL     1      32.256  -2.523 -36.535  1.00  0.00     0.000 C 
BRANCH   5   6
ATOM      6  C   UNL     1      32.596  -4.015 -36.697  1.00  0.00     0.000 C 
BRANCH   6   7
ATOM      7  C   UNL     1      31.443  -4.852 -37.292  1.00  0.00     0.000 C 
BRANCH   7   8
ATOM      8  C   UNL     1      30.441  -3.990 -38.080  1.00  0.00     0.000 C 
BRANCH   8   9
ATOM      9  C   UNL     1      29.060  -4.671 -38.214  1.00  0.00     0.000 C 
BRANCH   9  10
ATOM     10  C   UNL     1      27.918  -3.874 -37.558  1.00  0.00     0.000 C 
BRANCH  10  11
ATOM     11  C   UNL     1      27.005  -4.700 -36.634  1.00  0.00     0.000 C 
BRANCH  11  12
ATOM     12  C   UNL     1      25.667  -4.028 -36.263  1.00  0.00     0.000 C 
BRANCH  12  13
ATOM     13  C   UNL     1      25.511  -3.652 -34.780  1.00  0.00     0.006 C 
BRANCH  13  14
ATOM     14  C   UNL     1      25.552  -4.869 -33.846  1.00  0.00     0.053 C 
BRANCH  14  15
ATOM     15  C   UNL     1      24.436  -4.810 -32.852  1.00  0.00     0.041 C 
ATOM     16  O   UNL     1      24.287  -5.735 -32.009  1.00  0.00    -0.550 OA
ATOM     17  O   UNL     1      23.543  -3.745 -32.869  1.00  0.00    -0.550 OA
ENDBRANCH  14  15
ENDBRANCH  13  14
ENDBRANCH  12  13
ENDBRANCH  11  12
ENDBRANCH  10  11
ENDBRANCH   9  10
ENDBRANCH   8   9
ENDBRANCH   7   8
ENDBRANCH   6   7
ENDBRANCH   5   6
ENDBRANCH   4   5
ENDBRANCH   3   4
ENDBRANCH   2   3
ENDBRANCH   1   2
BRANCH   1  18
ATOM     18  C   UNL     1      30.332  -0.313 -38.925  1.00  0.00     0.000 C 
BRANCH  18  19
ATOM     19  C   UNL     1      29.390   0.564 -39.757  1.00  0.00     0.000 C 
BRANCH  19  20
ATOM     20  C   UNL     1      29.897   2.013 -39.824  1.00  0.00     0.000 C 
BRANCH  20  21
ATOM     21  C   UNL     1      28.770   3.043 -39.642  1.00  0.00     0.000 C 
BRANCH  21  22
ATOM     22  C   UNL     1      27.847   2.708 -38.456  1.00  0.00     0.000 C 
BRANCH  22  23
ATOM     23  C   UNL     1      28.545   2.867 -37.096  1.00  0.00     0.000 C 
BRANCH  23  24
ATOM     24  C   UNL     1      28.553   1.561 -36.283  1.00  0.00    -0.000 C 
BRANCH  24  25
ATOM     25  C   UNL     1      29.769   1.448 -35.344  1.00  0.00    -0.000 C 
BRANCH  25  26
ATOM     26  C   UNL     1      30.162   0.009 -34.960  1.00  0.00    -0.000 C 
BRANCH  26  27
ATOM     27  C   UNL     1      29.172  -1.044 -35.482  1.00  0.00    -0.000 C 
BRANCH  27  28
ATOM     28  C   UNL     1      28.667  -1.940 -34.339  1.00  0.00    -0.000 C 
BRANCH  28  29
ATOM     29  C   UNL     1      29.463  -3.252 -34.210  1.00  0.00    -0.000 C 
BRANCH  29  30
ATOM     30  C   UNL     1      30.240  -3.413 -32.889  1.00  0.00    -0.000 C 
BRANCH  30  31
ATOM     31  C   UNL     1      31.611  -2.720 -32.916  1.00  0.00    -0.003 C 
ATOM     32  C   UNL     1      31.757  -1.744 -31.751  1.00  0.00     0.004 C 
ENDBRANCH  30  31
ENDBRANCH  29  30
ENDBRANCH  28  29
ENDBRANCH  27  28
ENDBRANCH  26  27
ENDBRANCH  25  26
ENDBRANCH  24  25
ENDBRANCH  23  24
ENDBRANCH  22  23
ENDBRANCH  21  22
ENDBRANCH  20  21
ENDBRANCH  19  20
ENDBRANCH  18  19
ENDBRANCH   1  18
TORSDOF 28
ENDMDL
MODEL 3
REMARK VINA RESULT:    -3.512      3.187      5.605
REMARK INTER + INTRA:         -14.609
REMARK INTER:                  -7.747
REMARK INTRA:                  -6.862
REMARK UNBOUND:                -5.350
REMARK SMILES CCCCCCCCCCCCCCCCCCCCCCCCCCCCCC(=O)[O-]
REMARK SMILES IDX 16 1 17 2 18 3 19 4 20 5 21 6 22 7 23 8 24 9 25 10 26 11
REMARK SMILES IDX 27 12 28 13 29 14 30 15 31 16 32 17 15 18 14 19 13 20 12 21
REMARK SMILES IDX 11 22 10 23 9 24 8 25 7 26 6 27 5 28 4 29 3 30 2 31 1 32
REMARK H PARENT
REMARK Flexibility Score: inf
ROOT
ATOM      1  C   UNL     1      33.209  -0.788 -37.372  1.00  0.00     0.000 C 
ENDROOT
BRANCH   1   2
ATOM      2  C   UNL     1      32.280   0.160 -38.146  1.00  0.00     0.000 C 
BRANCH   2   3
ATOM      3  C   UNL     1      31.147  -0.581 -38.871  1.00  0.00     0.000 C 
BRANCH   3   4
ATOM      4  C   UNL     1      31.478  -2.071 -39.023  1.00  0.00     0.000 C 
BRANCH   4   5
ATOM      5  C   UNL     1      30.219  -2.887 -39.347  1.00  0.00     0.000 C 
BRANCH   5   6
ATOM      6  C   UNL     1      28.942  -2.027 -39.384  1.00  0.00     0.000 C 
BRANCH   6   7
ATOM      7  C   UNL     1      27.893  -2.430 -38.327  1.00  0.00     0.000 C 
BRANCH   7   8
ATOM      8  C   UNL     1      28.038  -3.899 -37.889  1.00  0.00     0.000 C 
BRANCH   8   9
ATOM      9  C   UNL     1      27.014  -4.289 -36.799  1.00  0.00     0.000 C 
BRANCH   9  10
ATOM     10  C   UNL     1      26.088  -3.132 -36.386  1.00  0.00     0.000 C 
BRANCH  10  11
ATOM     11  C   UNL     1      25.241  -3.402 -35.129  1.00  0.00     0.000 C 
BRANCH  11  12
ATOM     12  C   UNL     1      25.242  -2.270 -34.081  1.00  0.00     0.000 C 
BRANCH  12  13
ATOM     13  C   UNL     1      25.842  -2.641 -32.714  1.00  0.00     0.006 C 
BRANCH  13  14
ATOM     14  C   UNL     1      26.131  -4.141 -32.574  1.00  0.00     0.053 C 
BRANCH  14  15
ATOM     15  C   UNL     1      25.077  -4.807 -31.747  1.00  0.00     0.041 C 
ATOM     16  O   UNL     1      24.319  -5.673 -32.262  1.00  0.00    -0.550 OA
ATOM     17  O   UNL     1      24.913  -4.456 -30.413  1.00  0.00    -0.550 OA
ENDBRANCH  14  15
ENDBRANCH  13  14
ENDBRANCH  12  13
ENDBRANCH  11  12
ENDBRANCH  10  11
ENDBRANCH   9  10
ENDBRANCH   8   9
ENDBRANCH   7   8
ENDBRANCH   6   7
ENDBRANCH   5   6
ENDBRANCH   4   5
ENDBRANCH   3   4
ENDBRANCH   2   3
ENDBRANCH   1   2
BRANCH   1  18
ATOM     18  C   UNL     1      33.464  -0.326 -35.929  1.00  0.00     0.000 C 
BRANCH  18  19
ATOM     19  C   UNL     1      33.154  -1.448 -34.931  1.00  0.00     0.000 C 
BRANCH  19  20
ATOM     20  C   UNL     1      33.339  -2.830 -35.578  1.00  0.00     0.000 C 
BRANCH  20  21
ATOM     21  C   UNL     1      32.212  -3.810 -35.212  1.00  0.00     0.000 C 
BRANCH  21  22
ATOM     22  C   UNL     1      30.827  -3.315 -35.667  1.00  0.00     0.000 C 
BRANCH  22  23
ATOM     23  C   UNL     1      29.803  -3.277 -34.520  1.00  0.00     0.000 C 
BRANCH  23  24
ATOM     24  C   UNL     1      29.069  -1.929 -34.433  1.00  0.00    -0.000 C 
BRANCH  24  25
ATOM     25  C   UNL     1      29.477  -0.950 -35.550  1.00  0.00    -0.000 C 
BRANCH  25  26
ATOM     26  C   UNL     1      29.956   0.431 -35.063  1.00  0.00    -0.000 C 
BRANCH  26  27
ATOM     27  C   UNL     1      29.668   1.555 -36.071  1.00  0.00    -0.000 C 
BRANCH  27  28
ATOM     28  C   UNL     1      28.550   1.150 -37.044  1.00  0.00    -0.000 C 
BRANCH  28  29
ATOM     29  C   UNL     1      27.174   1.718 -36.648  1.00  0.00    -0.000 C 
BRANCH  29  30
ATOM     30  C   UNL     1      26.182   0.683 -36.084  1.00  0.00    -0.000 C 
BRANCH  30  31
ATOM     31  C   UNL     1      24.867   0.626 -36.876  1.00  0.00    -0.003 C 
ATOM     32  C   UNL     1      25.064  -0.068 -38.221  1.00  0.00     0.004 C 
ENDBRANCH  30  31
ENDBRANCH  29  30
ENDBRANCH  28  29
ENDBRANCH  27  28
ENDBRANCH  26  27
ENDBRANCH  25  26
ENDBRANCH  24  25
ENDBRANCH  23  24
ENDBRANCH  22  23
ENDBRANCH  21  22
ENDBRANCH  20  21
ENDBRANCH  19  20
ENDBRANCH  18  19
ENDBRANCH   1  18
TORSDOF 28
ENDMDL
MODEL 4
REMARK VINA RESULT:    -3.437      3.127      5.195
REMARK INTER + INTRA:         -14.411
REMARK INTER:                  -8.266
REMARK INTRA:                  -6.146
REMARK UNBOUND:                -5.350
REMARK SMILES CCCCCCCCCCCCCCCCCCCCCCCCCCCCCC(=O)[O-]
REMARK SMILES IDX 16 1 17 2 18 3 19 4 20 5 21 6 22 7 23 8 24 9 25 10 26 11
REMARK SMILES IDX 27 12 28 13 29 14 30 15 31 16 32 17 15 18 14 19 13 20 12 21
REMARK SMILES IDX 11 22 10 23 9 24 8 25 7 26 6 27 5 28 4 29 3 30 2 31 1 32
REMARK H PARENT
REMARK Flexibility Score: inf
ROOT
ATOM      1  C   UNL     1      29.006   3.134 -35.986  1.00  0.00     0.000 C 
ENDROOT
BRANCH   1   2
ATOM      2  C   UNL     1      29.702   1.782 -35.759  1.00  0.00     0.000 C 
BRANCH   2   3
ATOM      3  C   UNL     1      28.823   0.784 -34.993  1.00  0.00     0.000 C 
BRANCH   3   4
ATOM      4  C   UNL     1      28.439  -0.403 -35.884  1.00  0.00     0.000 C 
BRANCH   4   5
ATOM      5  C   UNL     1      26.917  -0.483 -36.074  1.00  0.00     0.000 C 
BRANCH   5   6
ATOM      6  C   UNL     1      26.503  -1.477 -37.174  1.00  0.00     0.000 C 
BRANCH   6   7
ATOM      7  C   UNL     1      27.698  -2.129 -37.900  1.00  0.00     0.000 C 
BRANCH   7   8
ATOM      8  C   UNL     1      27.722  -3.659 -37.732  1.00  0.00     0.000 C 
BRANCH   8   9
ATOM      9  C   UNL     1      27.707  -4.085 -36.247  1.00  0.00     0.000 C 
BRANCH   9  10
ATOM     10  C   UNL     1      26.493  -4.954 -35.871  1.00  0.00     0.000 C 
BRANCH  10  11
ATOM     11  C   UNL     1      26.268  -5.124 -34.357  1.00  0.00     0.000 C 
BRANCH  11  12
ATOM     12  C   UNL     1      24.995  -4.452 -33.804  1.00  0.00     0.000 C 
BRANCH  12  13
ATOM     13  C   UNL     1      24.932  -2.924 -33.976  1.00  0.00     0.006 C 
BRANCH  13  14
ATOM     14  C   UNL     1      23.818  -2.474 -34.929  1.00  0.00     0.053 C 
BRANCH  14  15
ATOM     15  C   UNL     1      23.288  -1.134 -34.529  1.00  0.00     0.041 C 
ATOM     16  O   UNL     1      23.278  -0.182 -35.355  1.00  0.00    -0.550 OA
ATOM     17  O   UNL     1      22.827  -0.925 -33.234  1.00  0.00    -0.550 OA
ENDBRANCH  14  15
ENDBRANCH  13  14
ENDBRANCH  12  13
ENDBRANCH  11  12
ENDBRANCH  10  11
ENDBRANCH   9  10
ENDBRANCH   8   9
ENDBRANCH   7   8
ENDBRANCH   6   7
ENDBRANCH   5   6
ENDBRANCH   4   5
ENDBRANCH   3   4
ENDBRANCH   2   3
ENDBRANCH   1   2
BRANCH   1  18
ATOM     18  C   UNL     1      27.752   3.017 -36.866  1.00  0.00     0.000 C 
BRANCH  18  19
ATOM     19  C   UNL     1      28.124   3.034 -38.353  1.00  0.00     0.000 C 
BRANCH  19  20
ATOM     20  C   UNL     1      27.697   1.730 -39.046  1.00  0.00     0.000 C 
BRANCH  20  21
ATOM     21  C   UNL     1      28.892   0.833 -39.407  1.00  0.00     0.000 C 
BRANCH  21  22
ATOM     22  C   UNL     1      30.220   1.610 -39.464  1.00  0.00     0.000 C 
BRANCH  22  23
ATOM     23  C   UNL     1      31.344   0.926 -38.669  1.00  0.00     0.000 C 
BRANCH  23  24
ATOM     24  C   UNL     1      31.121  -0.587 -38.517  1.00  0.00    -0.000 C 
BRANCH  24  25
ATOM     25  C   UNL     1      32.388  -1.412 -38.811  1.00  0.00    -0.000 C 
BRANCH  25  26
ATOM     26  C   UNL     1      32.412  -2.816 -38.177  1.00  0.00    -0.000 C 
BRANCH  26  27
ATOM     27  C   UNL     1      31.194  -3.092 -37.282  1.00  0.00    -0.000 C 
BRANCH  27  28
ATOM     28  C   UNL     1      31.628  -3.410 -35.843  1.00  0.00    -0.000 C 
BRANCH  28  29
ATOM     29  C   UNL     1      32.619  -2.378 -35.274  1.00  0.00    -0.000 C 
BRANCH  29  30
ATOM     30  C   UNL     1      31.970  -1.197 -34.528  1.00  0.00    -0.000 C 
BRANCH  30  31
ATOM     31  C   UNL     1      32.796   0.095 -34.624  1.00  0.00    -0.003 C 
ATOM     32  C   UNL     1      33.805   0.020 -35.767  1.00  0.00     0.004 C 
ENDBRANCH  30  31
ENDBRANCH  29  30
ENDBRANCH  28  29
ENDBRANCH  27  28
ENDBRANCH  26  27
ENDBRANCH  25  26
ENDBRANCH  24  25
ENDBRANCH  23  24
ENDBRANCH  22  23
ENDBRANCH  21  22
ENDBRANCH  20  21
ENDBRANCH  19  20
ENDBRANCH  18  19
ENDBRANCH   1  18
TORSDOF 28
ENDMDL
MODEL 5
REMARK VINA RESULT:    -3.415      3.184      6.054
REMARK INTER + INTRA:         -14.355
REMARK INTER:                  -7.649
REMARK INTRA:                  -6.706
REMARK UNBOUND:                -5.350
REMARK SMILES CCCCCCCCCCCCCCCCCCCCCCCCCCCCCC(=O)[O-]
REMARK SMILES IDX 16 1 17 2 18 3 19 4 20 5 21 6 22 7 23 8 24 9 25 10 26 11
REMARK SMILES IDX 27 12 28 13 29 14 30 15 31 16 32 17 15 18 14 19 13 20 12 21
REMARK SMILES IDX 11 22 10 23 9 24 8 25 7 26 6 27 5 28 4 29 3 30 2 31 1 32
REMARK H PARENT
REMARK Flexibility Score: inf
ROOT
ATOM      1  C   UNL     1      29.883   0.091 -35.414  1.00  0.00     0.000 C 
ENDROOT
BRANCH   1   2
ATOM      2  C   UNL     1      31.157  -0.710 -35.726  1.00  0.00     0.000 C 
BRANCH   2   3
ATOM      3  C   UNL     1      32.297   0.172 -36.256  1.00  0.00     0.000 C 
BRANCH   3   4
ATOM      4  C   UNL     1      33.044  -0.527 -37.397  1.00  0.00     0.000 C 
BRANCH   4   5
ATOM      5  C   UNL     1      32.581  -1.982 -37.553  1.00  0.00     0.000 C 
BRANCH   5   6
ATOM      6  C   UNL     1      32.388  -2.395 -39.023  1.00  0.00     0.000 C 
BRANCH   6   7
ATOM      7  C   UNL     1      31.402  -3.567 -39.214  1.00  0.00     0.000 C 
BRANCH   7   8
ATOM      8  C   UNL     1      30.455  -3.736 -38.012  1.00  0.00     0.000 C 
BRANCH   8   9
ATOM      9  C   UNL     1      29.080  -4.308 -38.426  1.00  0.00     0.000 C 
BRANCH   9  10
ATOM     10  C   UNL     1      27.931  -3.870 -37.499  1.00  0.00     0.000 C 
BRANCH  10  11
ATOM     11  C   UNL     1      28.382  -3.240 -36.169  1.00  0.00     0.000 C 
BRANCH  11  12
ATOM     12  C   UNL     1      27.675  -3.786 -34.911  1.00  0.00     0.000 C 
BRANCH  12  13
ATOM     13  C   UNL     1      26.225  -4.252 -35.125  1.00  0.00     0.006 C 
BRANCH  13  14
ATOM     14  C   UNL     1      25.587  -4.827 -33.854  1.00  0.00     0.053 C 
BRANCH  14  15
ATOM     15  C   UNL     1      24.519  -3.914 -33.340  1.00  0.00     0.041 C 
ATOM     16  O   UNL     1      23.303  -4.210 -33.491  1.00  0.00    -0.550 OA
ATOM     17  O   UNL     1      24.863  -2.722 -32.713  1.00  0.00    -0.550 OA
ENDBRANCH  14  15
ENDBRANCH  13  14
ENDBRANCH  12  13
ENDBRANCH  11  12
ENDBRANCH  10  11
ENDBRANCH   9  10
ENDBRANCH   8   9
ENDBRANCH   7   8
ENDBRANCH   6   7
ENDBRANCH   5   6
ENDBRANCH   4   5
ENDBRANCH   3   4
ENDBRANCH   2   3
ENDBRANCH   1   2
BRANCH   1  18
ATOM     18  C   UNL     1      30.057   1.600 -35.644  1.00  0.00     0.000 C 
BRANCH  18  19
ATOM     19  C   UNL     1      28.794   2.365 -35.232  1.00  0.00     0.000 C 
BRANCH  19  20
ATOM     20  C   UNL     1      27.889   2.635 -36.445  1.00  0.00     0.000 C 
BRANCH  20  21
ATOM     21  C   UNL     1      28.620   3.378 -37.575  1.00  0.00     0.000 C 
BRANCH  21  22
ATOM     22  C   UNL     1      28.042   3.058 -38.965  1.00  0.00     0.000 C 
BRANCH  22  23
ATOM     23  C   UNL     1      29.091   2.477 -39.927  1.00  0.00     0.000 C 
BRANCH  23  24
ATOM     24  C   UNL     1      30.173   1.665 -39.195  1.00  0.00    -0.000 C 
BRANCH  24  25
ATOM     25  C   UNL     1      29.989   0.144 -39.353  1.00  0.00    -0.000 C 
BRANCH  25  26
ATOM     26  C   UNL     1      28.735  -0.435 -38.670  1.00  0.00    -0.000 C 
BRANCH  26  27
ATOM     27  C   UNL     1      27.699  -0.969 -39.671  1.00  0.00    -0.000 C 
BRANCH  27  28
ATOM     28  C   UNL     1      26.340  -0.278 -39.480  1.00  0.00    -0.000 C 
BRANCH  28  29
ATOM     29  C   UNL     1      26.024   0.024 -38.003  1.00  0.00    -0.000 C 
BRANCH  29  30
ATOM     30  C   UNL     1      24.784  -0.697 -37.443  1.00  0.00    -0.000 C 
BRANCH  30  31
ATOM     31  C   UNL     1      24.885  -0.975 -35.935  1.00  0.00    -0.003 C 
ATOM     32  C   UNL     1      26.177  -0.404 -35.356  1.00  0.00     0.004 C 
ENDBRANCH  30  31
ENDBRANCH  29  30
ENDBRANCH  28  29
ENDBRANCH  27  28
ENDBRANCH  26  27
ENDBRANCH  25  26
ENDBRANCH  24  25
ENDBRANCH  23  24
ENDBRANCH  22  23
ENDBRANCH  21  22
ENDBRANCH  20  21
ENDBRANCH  19  20
ENDBRANCH  18  19
ENDBRANCH   1  18
TORSDOF 28
ENDMDL
MODEL 6
REMARK VINA RESULT:    -3.413      3.590      8.008
REMARK INTER + INTRA:         -14.350
REMARK INTER:                  -8.278
REMARK INTRA:                  -6.072
REMARK UNBOUND:                -5.350
REMARK SMILES CCCCCCCCCCCCCCCCCCCCCCCCCCCCCC(=O)[O-]
REMARK SMILES IDX 16 1 17 2 18 3 19 4 20 5 21 6 22 7 23 8 24 9 25 10 26 11
REMARK SMILES IDX 27 12 28 13 29 14 30 15 31 16 32 17 15 18 14 19 13 20 12 21
REMARK SMILES IDX 11 22 10 23 9 24 8 25 7 26 6 27 5 28 4 29 3 30 2 31 1 32
REMARK H PARENT
REMARK Flexibility Score: inf
ROOT
ATOM      1  C   UNL     1      32.890  -0.340 -37.910  1.00  0.00     0.000 C 
ENDROOT
BRANCH   1   2
ATOM      2  C   UNL     1      31.716   0.644 -38.027  1.00  0.00     0.000 C 
BRANCH   2   3
ATOM      3  C   UNL     1      30.674   0.201 -39.064  1.00  0.00     0.000 C 
BRANCH   3   4
ATOM      4  C   UNL     1      29.814   1.388 -39.517  1.00  0.00     0.000 C 
BRANCH   4   5
ATOM      5  C   UNL     1      28.329   1.004 -39.577  1.00  0.00     0.000 C 
BRANCH   5   6
ATOM      6  C   UNL     1      27.486   1.705 -38.497  1.00  0.00     0.000 C 
BRANCH   6   7
ATOM      7  C   UNL     1      28.317   2.235 -37.309  1.00  0.00     0.000 C 
BRANCH   7   8
ATOM      8  C   UNL     1      27.547   2.164 -35.979  1.00  0.00     0.000 C 
BRANCH   8   9
ATOM      9  C   UNL     1      28.463   1.791 -34.791  1.00  0.00     0.000 C 
BRANCH   9  10
ATOM     10  C   UNL     1      29.957   1.756 -35.157  1.00  0.00     0.000 C 
BRANCH  10  11
ATOM     11  C   UNL     1      30.901   1.445 -33.980  1.00  0.00     0.000 C 
BRANCH  11  12
ATOM     12  C   UNL     1      32.320   2.039 -34.103  1.00  0.00     0.000 C 
BRANCH  12  13
ATOM     13  C   UNL     1      32.546   3.359 -33.347  1.00  0.00     0.006 C 
BRANCH  13  14
ATOM     14  C   UNL     1      33.871   3.388 -32.576  1.00  0.00     0.053 C 
BRANCH  14  15
ATOM     15  C   UNL     1      34.433   4.774 -32.541  1.00  0.00     0.041 C 
ATOM     16  O   UNL     1      34.592   5.422 -33.611  1.00  0.00    -0.550 OA
ATOM     17  O   UNL     1      34.804   5.346 -31.330  1.00  0.00    -0.550 OA
ENDBRANCH  14  15
ENDBRANCH  13  14
ENDBRANCH  12  13
ENDBRANCH  11  12
ENDBRANCH  10  11
ENDBRANCH   9  10
ENDBRANCH   8   9
ENDBRANCH   7   8
ENDBRANCH   6   7
ENDBRANCH   5   6
ENDBRANCH   4   5
ENDBRANCH   3   4
ENDBRANCH   2   3
ENDBRANCH   1   2
BRANCH   1  18
ATOM     18  C   UNL     1      33.458  -0.423 -36.484  1.00  0.00     0.000 C 
BRANCH  18  19
ATOM     19  C   UNL     1      33.349  -1.849 -35.934  1.00  0.00     0.000 C 
BRANCH  19  20
ATOM     20  C   UNL     1      33.472  -2.888 -37.059  1.00  0.00     0.000 C 
BRANCH  20  21
ATOM     21  C   UNL     1      32.501  -4.068 -36.884  1.00  0.00     0.000 C 
BRANCH  21  22
ATOM     22  C   UNL     1      31.908  -4.551 -38.219  1.00  0.00     0.000 C 
BRANCH  22  23
ATOM     23  C   UNL     1      31.332  -3.403 -39.065  1.00  0.00     0.000 C 
BRANCH  23  24
ATOM     24  C   UNL     1      29.892  -3.678 -39.527  1.00  0.00    -0.000 C 
BRANCH  24  25
ATOM     25  C   UNL     1      29.134  -4.635 -38.587  1.00  0.00    -0.000 C 
BRANCH  25  26
ATOM     26  C   UNL     1      28.447  -3.960 -37.385  1.00  0.00    -0.000 C 
BRANCH  26  27
ATOM     27  C   UNL     1      27.801  -2.612 -37.742  1.00  0.00    -0.000 C 
BRANCH  27  28
ATOM     28  C   UNL     1      28.275  -1.504 -36.789  1.00  0.00    -0.000 C 
BRANCH  28  29
ATOM     29  C   UNL     1      29.630  -1.819 -36.130  1.00  0.00    -0.000 C 
BRANCH  29  30
ATOM     30  C   UNL     1      29.582  -2.003 -34.601  1.00  0.00    -0.000 C 
BRANCH  30  31
ATOM     31  C   UNL     1      30.108  -3.374 -34.148  1.00  0.00    -0.003 C 
ATOM     32  C   UNL     1      31.276  -3.222 -33.177  1.00  0.00     0.004 C 
ENDBRANCH  30  31
ENDBRANCH  29  30
ENDBRANCH  28  29
ENDBRANCH  27  28
ENDBRANCH  26  27
ENDBRANCH  25  26
ENDBRANCH  24  25
ENDBRANCH  23  24
ENDBRANCH  22  23
ENDBRANCH  21  22
ENDBRANCH  20  21
ENDBRANCH  19  20
ENDBRANCH  18  19
ENDBRANCH   1  18
TORSDOF 28
ENDMDL
MODEL 7
REMARK VINA RESULT:    -3.383      3.165      7.706
REMARK INTER + INTRA:         -14.269
REMARK INTER:                  -8.180
REMARK INTRA:                  -6.090
REMARK UNBOUND:                -5.350
REMARK SMILES CCCCCCCCCCCCCCCCCCCCCCCCCCCCCC(=O)[O-]
REMARK SMILES IDX 16 1 17 2 18 3 19 4 20 5 21 6 22 7 23 8 24 9 25 10 26 11
REMARK SMILES IDX 27 12 28 13 29 14 30 15 31 16 32 17 15 18 14 19 13 20 12 21
REMARK SMILES IDX 11 22 10 23 9 24 8 25 7 26 6 27 5 28 4 29 3 30 2 31 1 32
REMARK H PARENT
REMARK Flexibility Score: inf
ROOT
ATOM      1  C   UNL     1      31.309  -3.107 -35.714  1.00  0.00     0.000 C 
ENDROOT
BRANCH   1   2
ATOM      2  C   UNL     1      32.218  -3.781 -36.754  1.00  0.00     0.000 C 
BRANCH   2   3
ATOM      3  C   UNL     1      33.286  -2.830 -37.311  1.00  0.00     0.000 C 
BRANCH   3   4
ATOM      4  C   UNL     1      32.695  -1.916 -38.391  1.00  0.00     0.000 C 
BRANCH   4   5
ATOM      5  C   UNL     1      32.990  -0.440 -38.088  1.00  0.00     0.000 C 
BRANCH   5   6
ATOM      6  C   UNL     1      31.767   0.470 -38.302  1.00  0.00     0.000 C 
BRANCH   6   7
ATOM      7  C   UNL     1      30.453  -0.304 -38.541  1.00  0.00     0.000 C 
BRANCH   7   8
ATOM      8  C   UNL     1      29.368   0.052 -37.509  1.00  0.00     0.000 C 
BRANCH   8   9
ATOM      9  C   UNL     1      29.630   1.415 -36.829  1.00  0.00     0.000 C 
BRANCH   9  10
ATOM     10  C   UNL     1      29.579   1.352 -35.292  1.00  0.00     0.000 C 
BRANCH  10  11
ATOM     11  C   UNL     1      30.583   0.375 -34.654  1.00  0.00     0.000 C 
BRANCH  11  12
ATOM     12  C   UNL     1      32.057   0.829 -34.696  1.00  0.00     0.000 C 
BRANCH  12  13
ATOM     13  C   UNL     1      32.756   0.915 -33.328  1.00  0.00     0.006 C 
BRANCH  13  14
ATOM     14  C   UNL     1      32.273   2.099 -32.481  1.00  0.00     0.053 C 
BRANCH  14  15
ATOM     15  C   UNL     1      32.457   3.386 -33.220  1.00  0.00     0.041 C 
ATOM     16  O   UNL     1      31.457   4.012 -33.664  1.00  0.00    -0.550 OA
ATOM     17  O   UNL     1      33.735   3.887 -33.440  1.00  0.00    -0.550 OA
ENDBRANCH  14  15
ENDBRANCH  13  14
ENDBRANCH  12  13
ENDBRANCH  11  12
ENDBRANCH  10  11
ENDBRANCH   9  10
ENDBRANCH   8   9
ENDBRANCH   7   8
ENDBRANCH   6   7
ENDBRANCH   5   6
ENDBRANCH   4   5
ENDBRANCH   3   4
ENDBRANCH   2   3
ENDBRANCH   1   2
BRANCH   1  18
ATOM     18  C   UNL     1      29.815  -3.260 -36.040  1.00  0.00     0.000 C 
BRANCH  18  19
ATOM     19  C   UNL     1      29.618  -3.948 -37.395  1.00  0.00     0.000 C 
BRANCH  19  20
ATOM     20  C   UNL     1      28.334  -3.459 -38.084  1.00  0.00     0.000 C 
BRANCH  20  21
ATOM     21  C   UNL     1      27.215  -3.129 -37.083  1.00  0.00     0.000 C 
BRANCH  21  22
ATOM     22  C   UNL     1      26.406  -4.371 -36.668  1.00  0.00     0.000 C 
BRANCH  22  23
ATOM     23  C   UNL     1      25.569  -4.140 -35.400  1.00  0.00     0.000 C 
BRANCH  23  24
ATOM     24  C   UNL     1      26.067  -4.972 -34.206  1.00  0.00    -0.000 C 
BRANCH  24  25
ATOM     25  C   UNL     1      27.308  -4.362 -33.528  1.00  0.00    -0.000 C 
BRANCH  25  26
ATOM     26  C   UNL     1      27.054  -3.046 -32.768  1.00  0.00    -0.000 C 
BRANCH  26  27
ATOM     27  C   UNL     1      27.899  -1.875 -33.295  1.00  0.00    -0.000 C 
BRANCH  27  28
ATOM     28  C   UNL     1      27.055  -0.596 -33.414  1.00  0.00    -0.000 C 
BRANCH  28  29
ATOM     29  C   UNL     1      26.236  -0.538 -34.716  1.00  0.00    -0.000 C 
BRANCH  29  30
ATOM     30  C   UNL     1      24.776  -0.076 -34.545  1.00  0.00    -0.000 C 
BRANCH  30  31
ATOM     31  C   UNL     1      23.777  -1.243 -34.547  1.00  0.00    -0.003 C 
ATOM     32  C   UNL     1      23.551  -1.777 -33.136  1.00  0.00     0.004 C 
ENDBRANCH  30  31
ENDBRANCH  29  30
ENDBRANCH  28  29
ENDBRANCH  27  28
ENDBRANCH  26  27
ENDBRANCH  25  26
ENDBRANCH  24  25
ENDBRANCH  23  24
ENDBRANCH  22  23
ENDBRANCH  21  22
ENDBRANCH  20  21
ENDBRANCH  19  20
ENDBRANCH  18  19
ENDBRANCH   1  18
TORSDOF 28
ENDMDL
MODEL 8
REMARK VINA RESULT:    -3.365      2.419      3.860
REMARK INTER + INTRA:         -14.222
REMARK INTER:                  -7.421
REMARK INTRA:                  -6.801
REMARK UNBOUND:                -5.350
REMARK SMILES CCCCCCCCCCCCCCCCCCCCCCCCCCCCCC(=O)[O-]
REMARK SMILES IDX 16 1 17 2 18 3 19 4 20 5 21 6 22 7 23 8 24 9 25 10 26 11
REMARK SMILES IDX 27 12 28 13 29 14 30 15 31 16 32 17 15 18 14 19 13 20 12 21
REMARK SMILES IDX 11 22 10 23 9 24 8 25 7 26 6 27 5 28 4 29 3 30 2 31 1 32
REMARK H PARENT
REMARK Flexibility Score: inf
ROOT
ATOM      1  C   UNL     1      29.167  -0.113 -35.962  1.00  0.00     0.000 C 
ENDROOT
BRANCH   1   2
ATOM      2  C   UNL     1      30.006  -1.387 -35.780  1.00  0.00     0.000 C 
BRANCH   2   3
ATOM      3  C   UNL     1      29.510  -2.264 -34.621  1.00  0.00     0.000 C 
BRANCH   3   4
ATOM      4  C   UNL     1      30.200  -3.633 -34.637  1.00  0.00     0.000 C 
BRANCH   4   5
ATOM      5  C   UNL     1      31.337  -3.668 -35.667  1.00  0.00     0.000 C 
BRANCH   5   6
ATOM      6  C   UNL     1      31.119  -4.726 -36.764  1.00  0.00     0.000 C 
BRANCH   6   7
ATOM      7  C   UNL     1      31.446  -4.221 -38.185  1.00  0.00     0.000 C 
BRANCH   7   8
ATOM      8  C   UNL     1      30.197  -3.719 -38.930  1.00  0.00     0.000 C 
BRANCH   8   9
ATOM      9  C   UNL     1      28.886  -4.223 -38.284  1.00  0.00     0.000 C 
BRANCH   9  10
ATOM     10  C   UNL     1      27.841  -3.113 -38.072  1.00  0.00     0.000 C 
BRANCH  10  11
ATOM     11  C   UNL     1      26.930  -3.313 -36.847  1.00  0.00     0.000 C 
BRANCH  11  12
ATOM     12  C   UNL     1      26.863  -4.757 -36.308  1.00  0.00     0.000 C 
BRANCH  12  13
ATOM     13  C   UNL     1      26.259  -4.904 -34.900  1.00  0.00     0.006 C 
BRANCH  13  14
ATOM     14  C   UNL     1      25.984  -3.555 -34.223  1.00  0.00     0.053 C 
BRANCH  14  15
ATOM     15  C   UNL     1      24.821  -3.661 -33.288  1.00  0.00     0.041 C 
ATOM     16  O   UNL     1      23.692  -4.023 -33.717  1.00  0.00    -0.550 OA
ATOM     17  O   UNL     1      24.974  -3.337 -31.945  1.00  0.00    -0.550 OA
ENDBRANCH  14  15
ENDBRANCH  13  14
ENDBRANCH  12  13
ENDBRANCH  11  12
ENDBRANCH  10  11
ENDBRANCH   9  10
ENDBRANCH   8   9
ENDBRANCH   7   8
ENDBRANCH   6   7
ENDBRANCH   5   6
ENDBRANCH   4   5
ENDBRANCH   3   4
ENDBRANCH   2   3
ENDBRANCH   1   2
BRANCH   1  18
ATOM     18  C   UNL     1      29.666   0.770 -37.116  1.00  0.00     0.000 C 
BRANCH  18  19
ATOM     19  C   UNL     1      30.253  -0.085 -38.244  1.00  0.00     0.000 C 
BRANCH  19  20
ATOM     20  C   UNL     1      31.696   0.335 -38.564  1.00  0.00     0.000 C 
BRANCH  20  21
ATOM     21  C   UNL     1      32.659  -0.862 -38.633  1.00  0.00     0.000 C 
BRANCH  21  22
ATOM     22  C   UNL     1      33.339  -1.155 -37.284  1.00  0.00     0.000 C 
BRANCH  22  23
ATOM     23  C   UNL     1      33.450   0.092 -36.392  1.00  0.00     0.000 C 
BRANCH  23  24
ATOM     24  C   UNL     1      33.399  -0.250 -34.893  1.00  0.00    -0.000 C 
BRANCH  24  25
ATOM     25  C   UNL     1      32.647   0.808 -34.063  1.00  0.00    -0.000 C 
BRANCH  25  26
ATOM     26  C   UNL     1      31.681   0.240 -33.006  1.00  0.00    -0.000 C 
BRANCH  26  27
ATOM     27  C   UNL     1      32.405  -0.480 -31.857  1.00  0.00    -0.000 C 
BRANCH  27  28
ATOM     28  C   UNL     1      31.937  -1.940 -31.740  1.00  0.00    -0.000 C 
BRANCH  28  29
ATOM     29  C   UNL     1      30.840  -2.133 -30.676  1.00  0.00    -0.000 C 
BRANCH  29  30
ATOM     30  C   UNL     1      29.792  -3.211 -31.012  1.00  0.00    -0.000 C 
BRANCH  30  31
ATOM     31  C   UNL     1      28.353  -2.675 -30.976  1.00  0.00    -0.003 C 
ATOM     32  C   UNL     1      28.300  -1.210 -31.400  1.00  0.00     0.004 C 
ENDBRANCH  30  31
ENDBRANCH  29  30
ENDBRANCH  28  29
ENDBRANCH  27  28
ENDBRANCH  26  27
ENDBRANCH  25  26
ENDBRANCH  24  25
ENDBRANCH  23  24
ENDBRANCH  22  23
ENDBRANCH  21  22
ENDBRANCH  20  21
ENDBRANCH  19  20
ENDBRANCH  18  19
ENDBRANCH   1  18
TORSDOF 28
ENDMDL
MODEL 9
REMARK VINA RESULT:    -3.349      3.432      6.789
REMARK INTER + INTRA:         -14.179
REMARK INTER:                  -7.539
REMARK INTRA:                  -6.641
REMARK UNBOUND:                -5.350
REMARK SMILES CCCCCCCCCCCCCCCCCCCCCCCCCCCCCC(=O)[O-]
REMARK SMILES IDX 16 1 17 2 18 3 19 4 20 5 21 6 22 7 23 8 24 9 25 10 26 11
REMARK SMILES IDX 27 12 28 13 29 14 30 15 31 16 32 17 15 18 14 19 13 20 12 21
REMARK SMILES IDX 11 22 10 23 9 24 8 25 7 26 6 27 5 28 4 29 3 30 2 31 1 32
REMARK H PARENT
REMARK Flexibility Score: inf
ROOT
ATOM      1  C   UNL     1      31.996   0.349 -35.446  1.00  0.00     0.000 C 
ENDROOT
BRANCH   1   2
ATOM      2  C   UNL     1      33.005  -0.291 -36.412  1.00  0.00     0.000 C 
BRANCH   2   3
ATOM      3  C   UNL     1      32.668  -0.020 -37.885  1.00  0.00     0.000 C 
BRANCH   3   4
ATOM      4  C   UNL     1      32.372  -1.329 -38.628  1.00  0.00     0.000 C 
BRANCH   4   5
ATOM      5  C   UNL     1      30.907  -1.388 -39.082  1.00  0.00     0.000 C 
BRANCH   5   6
ATOM      6  C   UNL     1      30.533  -2.739 -39.718  1.00  0.00     0.000 C 
BRANCH   6   7
ATOM      7  C   UNL     1      29.221  -3.339 -39.171  1.00  0.00     0.000 C 
BRANCH   7   8
ATOM      8  C   UNL     1      29.471  -4.430 -38.115  1.00  0.00     0.000 C 
BRANCH   8   9
ATOM      9  C   UNL     1      30.946  -4.892 -38.088  1.00  0.00     0.000 C 
BRANCH   9  10
ATOM     10  C   UNL     1      31.596  -4.785 -36.697  1.00  0.00     0.000 C 
BRANCH  10  11
ATOM     11  C   UNL     1      31.257  -3.496 -35.926  1.00  0.00     0.000 C 
BRANCH  11  12
ATOM     12  C   UNL     1      30.555  -3.709 -34.568  1.00  0.00     0.000 C 
BRANCH  12  13
ATOM     13  C   UNL     1      30.965  -2.727 -33.457  1.00  0.00     0.006 C 
BRANCH  13  14
ATOM     14  C   UNL     1      32.453  -2.819 -33.096  1.00  0.00     0.053 C 
BRANCH  14  15
ATOM     15  C   UNL     1      32.837  -4.233 -32.795  1.00  0.00     0.041 C 
ATOM     16  O   UNL     1      32.337  -4.830 -31.804  1.00  0.00    -0.550 OA
ATOM     17  O   UNL     1      33.766  -4.888 -33.596  1.00  0.00    -0.550 OA
ENDBRANCH  14  15
ENDBRANCH  13  14
ENDBRANCH  12  13
ENDBRANCH  11  12
ENDBRANCH  10  11
ENDBRANCH   9  10
ENDBRANCH   8   9
ENDBRANCH   7   8
ENDBRANCH   6   7
ENDBRANCH   5   6
ENDBRANCH   4   5
ENDBRANCH   3   4
ENDBRANCH   2   3
ENDBRANCH   1   2
BRANCH   1  18
ATOM     18  C   UNL     1      30.660   0.693 -36.121  1.00  0.00     0.000 C 
BRANCH  18  19
ATOM     19  C   UNL     1      29.482   0.106 -35.333  1.00  0.00     0.000 C 
BRANCH  19  20
ATOM     20  C   UNL     1      28.742  -0.961 -36.156  1.00  0.00     0.000 C 
BRANCH  20  21
ATOM     21  C   UNL     1      27.845  -0.351 -37.245  1.00  0.00     0.000 C 
BRANCH  21  22
ATOM     22  C   UNL     1      26.592  -1.200 -37.525  1.00  0.00     0.000 C 
BRANCH  22  23
ATOM     23  C   UNL     1      25.735  -1.427 -36.268  1.00  0.00     0.000 C 
BRANCH  23  24
ATOM     24  C   UNL     1      25.128  -2.838 -36.218  1.00  0.00    -0.000 C 
BRANCH  24  25
ATOM     25  C   UNL     1      26.128  -3.936 -36.627  1.00  0.00    -0.000 C 
BRANCH  25  26
ATOM     26  C   UNL     1      27.049  -4.432 -35.495  1.00  0.00    -0.000 C 
BRANCH  26  27
ATOM     27  C   UNL     1      26.274  -5.001 -34.296  1.00  0.00    -0.000 C 
BRANCH  27  28
ATOM     28  C   UNL     1      26.808  -4.429 -32.974  1.00  0.00    -0.000 C 
BRANCH  28  29
ATOM     29  C   UNL     1      25.743  -3.644 -32.186  1.00  0.00    -0.000 C 
BRANCH  29  30
ATOM     30  C   UNL     1      25.867  -2.111 -32.277  1.00  0.00    -0.000 C 
BRANCH  30  31
ATOM     31  C   UNL     1      27.191  -1.656 -32.908  1.00  0.00    -0.003 C 
ATOM     32  C   UNL     1      28.106  -1.016 -31.868  1.00  0.00     0.004 C 
ENDBRANCH  30  31
ENDBRANCH  29  30
ENDBRANCH  28  29
ENDBRANCH  27  28
ENDBRANCH  26  27
ENDBRANCH  25  26
ENDBRANCH  24  25
ENDBRANCH  23  24
ENDBRANCH  22  23
ENDBRANCH  21  22
ENDBRANCH  20  21
ENDBRANCH  19  20
ENDBRANCH  18  19
ENDBRANCH   1  18
TORSDOF 28
ENDMDL
