MODEL 1
REMARK VINA RESULT:    -2.405      0.000      0.000
REMARK INTER + INTRA:          -4.682
REMARK INTER:                  -3.811
REMARK INTRA:                  -0.871
REMARK UNBOUND:                -0.871
REMARK SMILES CCCCCCCCCCCC(=O)[O-]
REMARK SMILES IDX 7 1 8 2 9 3 10 4 11 5 12 6 13 7 14 8 6 9 5 10 4 11 3 12 2 13
REMARK SMILES IDX 1 14
REMARK H PARENT
REMARK Flexibility Score: inf
ROOT
ATOM      1  C   UNL     1      36.324  38.805  20.458  1.00  0.00     0.000 C 
ENDROOT
BRANCH   1   2
ATOM      2  C   UNL     1      36.872  39.985  19.647  1.00  0.00     0.000 C 
BRANCH   2   3
ATOM      3  C   UNL     1      37.767  39.497  18.501  1.00  0.00     0.000 C 
BRANCH   3   4
ATOM      4  C   UNL     1      39.250  39.703  18.835  1.00  0.00     0.006 C 
BRANCH   4   5
ATOM      5  C   UNL     1      40.125  38.680  18.106  1.00  0.00     0.053 C 
BRANCH   5   6
ATOM      6  C   UNL     1      39.952  38.804  16.626  1.00  0.00     0.041 C 
ATOM      7  O   UNL     1      39.718  37.783  15.927  1.00  0.00    -0.550 OA
ATOM      8  O   UNL     1      40.001  40.053  16.022  1.00  0.00    -0.550 OA
ENDBRANCH   5   6
ENDBRANCH   4   5
ENDBRANCH   3   4
ENDBRANCH   2   3
ENDBRANCH   1   2
BRANCH   1   9
ATOM      9  C   UNL     1      37.433  37.787  20.764  1.00  0.00     0.000 C 
BRANCH   9  10
ATOM     10  C   UNL     1      36.923  36.337  20.755  1.00  0.00    -0.000 C 
BRANCH  10  11
ATOM     11  C   UNL     1      37.883  35.377  20.031  1.00  0.00    -0.000 C 
BRANCH  11  12
ATOM     12  C   UNL     1      37.516  35.178  18.552  1.00  0.00    -0.000 C 
BRANCH  12  13
ATOM     13  C   UNL     1      38.747  34.946  17.664  1.00  0.00    -0.003 C 
ATOM     14  C   UNL     1      40.038  35.137  18.454  1.00  0.00     0.004 C 
ENDBRANCH  12  13
ENDBRANCH  11  12
ENDBRANCH  10  11
ENDBRANCH   9  10
ENDBRANCH   1   9
TORSDOF 10
ENDMDL
MODEL 2
REMARK VINA RESULT:    -2.163     13.758     15.340
REMARK INTER + INTRA:          -4.300
REMARK INTER:                  -3.831
REMARK INTRA:                  -0.469
REMARK UNBOUND:                -0.871
REMARK SMILES CCCCCCCCCCCC(=O)[O-]
REMARK SMILES IDX 7 1 8 2 9 3 10 4 11 5 12 6 13 7 14 8 6 9 5 10 4 11 3 12 2 13
REMARK SMILES IDX 1 14
REMARK H PARENT
REMARK Flexibility Score: inf
ROOT
ATOM      1  C   UNL     1      24.121  35.096  17.237  1.00  0.00     0.000 C 
ENDROOT
BRANCH   1   2
ATOM      2  C   UNL     1      25.599  35.250  17.613  1.00  0.00     0.000 C 
BRANCH   2   3
ATOM      3  C   UNL     1      25.835  34.875  19.081  1.00  0.00     0.000 C 
BRANCH   3   4
ATOM      4  C   UNL     1      26.973  35.707  19.686  1.00  0.00     0.006 C 
BRANCH   4   5
ATOM      5  C   UNL     1      27.718  34.917  20.765  1.00  0.00     0.053 C 
BRANCH   5   6
ATOM      6  C   UNL     1      27.218  35.286  22.124  1.00  0.00     0.041 C 
ATOM      7  O   UNL     1      27.961  35.150  23.132  1.00  0.00    -0.550 OA
ATOM      8  O   UNL     1      25.948  35.828  22.275  1.00  0.00    -0.550 OA
ENDBRANCH   5   6
ENDBRANCH   4   5
ENDBRANCH   3   4
ENDBRANCH   2   3
ENDBRANCH   1   2
BRANCH   1   9
ATOM      9  C   UNL     1      23.296  36.285  17.751  1.00  0.00     0.000 C 
BRANCH   9  10
ATOM     10  C   UNL     1      21.901  36.360  17.110  1.00  0.00    -0.000 C 
BRANCH  10  11
ATOM     11  C   UNL     1      21.151  35.018  17.168  1.00  0.00    -0.000 C 
BRANCH  11  12
ATOM     12  C   UNL     1      19.911  35.074  18.073  1.00  0.00    -0.000 C 
BRANCH  12  13
ATOM     13  C   UNL     1      20.033  36.133  19.178  1.00  0.00    -0.003 C 
ATOM     14  C   UNL     1      20.096  35.483  20.558  1.00  0.00     0.004 C 
ENDBRANCH  12  13
ENDBRANCH  11  12
ENDBRANCH  10  11
ENDBRANCH   9  10
ENDBRANCH   1   9
TORSDOF 10
ENDMDL
MODEL 3
REMARK VINA RESULT:    -2.008      2.228      4.493
REMARK INTER + INTRA:          -4.053
REMARK INTER:                  -3.464
REMARK INTRA:                  -0.589
REMARK UNBOUND:                -0.871
REMARK SMILES CCCCCCCCCCCC(=O)[O-]
REMARK SMILES IDX 7 1 8 2 9 3 10 4 11 5 12 6 13 7 14 8 6 9 5 10 4 11 3 12 2 13
REMARK SMILES IDX 1 14
REMARK H PARENT
REMARK Flexibility Score: inf
ROOT
ATOM      1  C   UNL     1      37.373  35.293  18.854  1.00  0.00     0.000 C 
ENDROOT
BRANCH   1   2
ATOM      2  C   UNL     1      37.524  34.875  20.322  1.00  0.00     0.000 C 
BRANCH   2   3
ATOM      3  C   UNL     1      37.656  36.102  21.233  1.00  0.00     0.000 C 
BRANCH   3   4
ATOM      4  C   UNL     1      36.742  37.239  20.761  1.00  0.00     0.006 C 
BRANCH   4   5
ATOM      5  C   UNL     1      37.549  38.506  20.463  1.00  0.00     0.053 C 
BRANCH   5   6
ATOM      6  C   UNL     1      36.660  39.576  19.914  1.00  0.00     0.041 C 
ATOM      7  O   UNL     1      35.490  39.717  20.356  1.00  0.00    -0.550 OA
ATOM      8  O   UNL     1      37.141  40.452  18.949  1.00  0.00    -0.550 OA
ENDBRANCH   5   6
ENDBRANCH   4   5
ENDBRANCH   3   4
ENDBRANCH   2   3
ENDBRANCH   1   2
BRANCH   1   9
ATOM      9  C   UNL     1      38.743  35.412  18.173  1.00  0.00     0.000 C 
BRANCH   9  10
ATOM     10  C   UNL     1      38.634  35.579  16.648  1.00  0.00    -0.000 C 
BRANCH  10  11
ATOM     11  C   UNL     1      39.576  36.666  16.103  1.00  0.00    -0.000 C 
BRANCH  11  12
ATOM     12  C   UNL     1      40.121  37.584  17.208  1.00  0.00    -0.000 C 
BRANCH  12  13
ATOM     13  C   UNL     1      40.124  39.064  16.798  1.00  0.00    -0.003 C 
ATOM     14  C   UNL     1      40.026  39.973  18.020  1.00  0.00     0.004 C 
ENDBRANCH  12  13
ENDBRANCH  11  12
ENDBRANCH  10  11
ENDBRANCH   9  10
ENDBRANCH   1   9
TORSDOF 10
ENDMDL
MODEL 4
REMARK VINA RESULT:    -1.948      2.195      4.216
REMARK INTER + INTRA:          -3.959
REMARK INTER:                  -3.477
REMARK INTRA:                  -0.482
REMARK UNBOUND:                -0.871
REMARK SMILES CCCCCCCCCCCC(=O)[O-]
REMARK SMILES IDX 7 1 8 2 9 3 10 4 11 5 12 6 13 7 14 8 6 9 5 10 4 11 3 12 2 13
REMARK SMILES IDX 1 14
REMARK H PARENT
REMARK Flexibility Score: inf
ROOT
ATOM      1  C   UNL     1      37.750  40.054  19.152  1.00  0.00     0.000 C 
ENDROOT
BRANCH   1   2
ATOM      2  C   UNL     1      37.578  39.069  20.314  1.00  0.00     0.000 C 
BRANCH   2   3
ATOM      3  C   UNL     1      37.506  37.624  19.804  1.00  0.00     0.000 C 
BRANCH   3   4
ATOM      4  C   UNL     1      37.051  36.670  20.916  1.00  0.00     0.006 C 
BRANCH   4   5
ATOM      5  C   UNL     1      37.323  35.213  20.535  1.00  0.00     0.053 C 
BRANCH   5   6
ATOM      6  C   UNL     1      38.191  35.142  19.319  1.00  0.00     0.041 C 
ATOM      7  O   UNL     1      37.688  34.879  18.195  1.00  0.00    -0.550 OA
ATOM      8  O   UNL     1      39.549  35.417  19.417  1.00  0.00    -0.550 OA
ENDBRANCH   5   6
ENDBRANCH   4   5
ENDBRANCH   3   4
ENDBRANCH   2   3
ENDBRANCH   1   2
BRANCH   1   9
ATOM      9  C   UNL     1      39.154  40.676  19.162  1.00  0.00     0.000 C 
BRANCH   9  10
ATOM     10  C   UNL     1      40.125  39.960  18.209  1.00  0.00    -0.000 C 
BRANCH  10  11
ATOM     11  C   UNL     1      39.578  39.858  16.774  1.00  0.00    -0.000 C 
BRANCH  11  12
ATOM     12  C   UNL     1      40.124  38.636  16.019  1.00  0.00    -0.000 C 
BRANCH  12  13
ATOM     13  C   UNL     1      39.259  37.383  16.220  1.00  0.00    -0.003 C 
ATOM     14  C   UNL     1      40.076  36.112  16.004  1.00  0.00     0.004 C 
ENDBRANCH  12  13
ENDBRANCH  11  12
ENDBRANCH  10  11
ENDBRANCH   9  10
ENDBRANCH   1   9
TORSDOF 10
ENDMDL
MODEL 5
REMARK VINA RESULT:    -1.202      1.980      4.288
REMARK INTER + INTRA:          -2.775
REMARK INTER:                  -3.004
REMARK INTRA:                   0.229
REMARK UNBOUND:                -0.871
REMARK SMILES CCCCCCCCCCCC(=O)[O-]
REMARK SMILES IDX 7 1 8 2 9 3 10 4 11 5 12 6 13 7 14 8 6 9 5 10 4 11 3 12 2 13
REMARK SMILES IDX 1 14
REMARK H PARENT
REMARK Flexibility Score: inf
ROOT
ATOM      1  C   UNL     1      36.365  39.355  19.981  1.00  0.00     0.000 C 
ENDROOT
BRANCH   1   2
ATOM      2  C   UNL     1      36.856  38.248  20.921  1.00  0.00     0.000 C 
BRANCH   2   3
ATOM      3  C   UNL     1      36.961  36.907  20.185  1.00  0.00     0.000 C 
BRANCH   3   4
ATOM      4  C   UNL     1      37.234  35.760  21.166  1.00  0.00     0.006 C 
BRANCH   4   5
ATOM      5  C   UNL     1      38.381  34.875  20.671  1.00  0.00     0.053 C 
BRANCH   5   6
ATOM      6  C   UNL     1      39.056  35.502  19.493  1.00  0.00     0.041 C 
ATOM      7  O   UNL     1      40.024  36.290  19.661  1.00  0.00    -0.550 OA
ATOM      8  O   UNL     1      38.648  35.179  18.205  1.00  0.00    -0.550 OA
ENDBRANCH   5   6
ENDBRANCH   4   5
ENDBRANCH   3   4
ENDBRANCH   2   3
ENDBRANCH   1   2
BRANCH   1   9
ATOM      9  C   UNL     1      37.501  40.330  19.640  1.00  0.00     0.000 C 
BRANCH   9  10
ATOM     10  C   UNL     1      38.193  39.990  18.310  1.00  0.00    -0.000 C 
BRANCH  10  11
ATOM     11  C   UNL     1      39.601  39.403  18.509  1.00  0.00    -0.000 C 
BRANCH  11  12
ATOM     12  C   UNL     1      40.024  38.478  17.358  1.00  0.00    -0.000 C 
BRANCH  12  13
ATOM     13  C   UNL     1      39.849  39.133  15.980  1.00  0.00    -0.003 C 
ATOM     14  C   UNL     1      40.104  40.636  16.048  1.00  0.00     0.004 C 
ENDBRANCH  12  13
ENDBRANCH  11  12
ENDBRANCH  10  11
ENDBRANCH   9  10
ENDBRANCH   1   9
TORSDOF 10
ENDMDL
MODEL 6
REMARK VINA RESULT:    -0.569     23.892     26.378
REMARK INTER + INTRA:          -1.773
REMARK INTER:                  -1.063
REMARK INTRA:                  -0.711
REMARK UNBOUND:                -0.871
REMARK SMILES CCCCCCCCCCCC(=O)[O-]
REMARK SMILES IDX 7 1 8 2 9 3 10 4 11 5 12 6 13 7 14 8 6 9 5 10 4 11 3 12 2 13
REMARK SMILES IDX 1 14
REMARK H PARENT
REMARK Flexibility Score: inf
ROOT
ATOM      1  C   UNL     1      23.490  54.375  31.670  1.00  0.00     0.000 C 
ENDROOT
BRANCH   1   2
ATOM      2  C   UNL     1      21.966  54.481  31.789  1.00  0.00     0.000 C 
BRANCH   2   3
ATOM      3  C   UNL     1      21.274  53.855  30.571  1.00  0.00     0.000 C 
BRANCH   3   4
ATOM      4  C   UNL     1      22.254  52.993  29.764  1.00  0.00     0.006 C 
BRANCH   4   5
ATOM      5  C   UNL     1      21.670  52.633  28.396  1.00  0.00     0.053 C 
BRANCH   5   6
ATOM      6  C   UNL     1      22.751  52.185  27.466  1.00  0.00     0.041 C 
ATOM      7  O   UNL     1      23.248  51.033  27.578  1.00  0.00    -0.550 OA
ATOM      8  O   UNL     1      23.178  53.021  26.442  1.00  0.00    -0.550 OA
ENDBRANCH   5   6
ENDBRANCH   4   5
ENDBRANCH   3   4
ENDBRANCH   2   3
ENDBRANCH   1   2
BRANCH   1   9
ATOM      9  C   UNL     1      24.184  55.125  32.817  1.00  0.00     0.000 C 
BRANCH   9  10
ATOM     10  C   UNL     1      24.063  54.391  34.162  1.00  0.00    -0.000 C 
BRANCH  10  11
ATOM     11  C   UNL     1      23.093  55.089  35.131  1.00  0.00    -0.000 C 
BRANCH  11  12
ATOM     12  C   UNL     1      22.207  54.095  35.898  1.00  0.00    -0.000 C 
BRANCH  12  13
ATOM     13  C   UNL     1      20.709  54.365  35.700  1.00  0.00    -0.003 C 
ATOM     14  C   UNL     1      20.084  53.339  34.759  1.00  0.00     0.004 C 
ENDBRANCH  12  13
ENDBRANCH  11  12
ENDBRANCH  10  11
ENDBRANCH   9  10
ENDBRANCH   1   9
TORSDOF 10
ENDMDL
MODEL 7
REMARK VINA RESULT:    -0.526      1.487      4.215
REMARK INTER + INTRA:          -1.706
REMARK INTER:                  -1.690
REMARK INTRA:                  -0.016
REMARK UNBOUND:                -0.871
REMARK SMILES CCCCCCCCCCCC(=O)[O-]
REMARK SMILES IDX 7 1 8 2 9 3 10 4 11 5 12 6 13 7 14 8 6 9 5 10 4 11 3 12 2 13
REMARK SMILES IDX 1 14
REMARK H PARENT
REMARK Flexibility Score: inf
ROOT
ATOM      1  C   UNL     1      36.974  38.043  20.725  1.00  0.00     0.000 C 
ENDROOT
BRANCH   1   2
ATOM      2  C   UNL     1      38.095  36.998  20.699  1.00  0.00     0.000 C 
BRANCH   2   3
ATOM      3  C   UNL     1      37.806  35.906  19.661  1.00  0.00     0.000 C 
BRANCH   3   4
ATOM      4  C   UNL     1      38.966  34.905  19.577  1.00  0.00     0.006 C 
BRANCH   4   5
ATOM      5  C   UNL     1      39.596  34.912  18.182  1.00  0.00     0.053 C 
BRANCH   5   6
ATOM      6  C   UNL     1      38.656  35.509  17.185  1.00  0.00     0.041 C 
ATOM      7  O   UNL     1      37.543  34.967  16.958  1.00  0.00    -0.550 OA
ATOM      8  O   UNL     1      38.988  36.694  16.540  1.00  0.00    -0.550 OA
ENDBRANCH   5   6
ENDBRANCH   4   5
ENDBRANCH   3   4
ENDBRANCH   2   3
ENDBRANCH   1   2
BRANCH   1   9
ATOM      9  C   UNL     1      37.484  39.409  20.246  1.00  0.00     0.000 C 
BRANCH   9  10
ATOM     10  C   UNL     1      37.998  39.375  18.798  1.00  0.00    -0.000 C 
BRANCH  10  11
ATOM     11  C   UNL     1      39.535  39.354  18.717  1.00  0.00    -0.000 C 
BRANCH  11  12
ATOM     12  C   UNL     1      40.125  40.723  18.343  1.00  0.00    -0.000 C 
BRANCH  12  13
ATOM     13  C   UNL     1      39.767  41.149  16.912  1.00  0.00    -0.003 C 
ATOM     14  C   UNL     1      39.801  39.958  15.958  1.00  0.00     0.004 C 
ENDBRANCH  12  13
ENDBRANCH  11  12
ENDBRANCH  10  11
ENDBRANCH   9  10
ENDBRANCH   1   9
TORSDOF 10
ENDMDL
MODEL 8
REMARK VINA RESULT:    -0.251     24.511     26.891
REMARK INTER + INTRA:          -1.268
REMARK INTER:                  -0.745
REMARK INTRA:                  -0.523
REMARK UNBOUND:                -0.871
REMARK SMILES CCCCCCCCCCCC(=O)[O-]
REMARK SMILES IDX 7 1 8 2 9 3 10 4 11 5 12 6 13 7 14 8 6 9 5 10 4 11 3 12 2 13
REMARK SMILES IDX 1 14
REMARK H PARENT
REMARK Flexibility Score: inf
ROOT
ATOM      1  C   UNL     1      21.017  54.401  31.759  1.00  0.00     0.000 C 
ENDROOT
BRANCH   1   2
ATOM      2  C   UNL     1      20.573  54.838  33.160  1.00  0.00     0.000 C 
BRANCH   2   3
ATOM      3  C   UNL     1      20.508  53.640  34.116  1.00  0.00     0.000 C 
BRANCH   3   4
ATOM      4  C   UNL     1      21.728  53.610  35.045  1.00  0.00     0.006 C 
BRANCH   4   5
ATOM      5  C   UNL     1      22.442  54.964  35.059  1.00  0.00     0.053 C 
BRANCH   5   6
ATOM      6  C   UNL     1      23.869  54.808  34.640  1.00  0.00     0.041 C 
ATOM      7  O   UNL     1      24.770  54.650  35.505  1.00  0.00    -0.550 OA
ATOM      8  O   UNL     1      24.200  54.786  33.291  1.00  0.00    -0.550 OA
ENDBRANCH   5   6
ENDBRANCH   4   5
ENDBRANCH   3   4
ENDBRANCH   2   3
ENDBRANCH   1   2
BRANCH   1   9
ATOM      9  C   UNL     1      20.086  54.980  30.683  1.00  0.00     0.000 C 
BRANCH   9  10
ATOM     10  C   UNL     1      20.250  54.283  29.323  1.00  0.00    -0.000 C 
BRANCH  10  11
ATOM     11  C   UNL     1      21.427  53.292  29.304  1.00  0.00    -0.000 C 
BRANCH  11  12
ATOM     12  C   UNL     1      21.462  52.442  28.024  1.00  0.00    -0.000 C 
BRANCH  12  13
ATOM     13  C   UNL     1      22.885  52.010  27.641  1.00  0.00    -0.003 C 
ATOM     14  C   UNL     1      23.349  52.713  26.368  1.00  0.00     0.004 C 
ENDBRANCH  12  13
ENDBRANCH  11  12
ENDBRANCH  10  11
ENDBRANCH   9  10
ENDBRANCH   1   9
TORSDOF 10
ENDMDL
MODEL 9
REMARK VINA RESULT:    -0.129     23.793     26.248
REMARK INTER + INTRA:          -1.077
REMARK INTER:                  -0.799
REMARK INTRA:                  -0.278
REMARK UNBOUND:                -0.871
REMARK SMILES CCCCCCCCCCCC(=O)[O-]
REMARK SMILES IDX 7 1 8 2 9 3 10 4 11 5 12 6 13 7 14 8 6 9 5 10 4 11 3 12 2 13
REMARK SMILES IDX 1 14
REMARK H PARENT
REMARK Flexibility Score: inf
ROOT
ATOM      1  C   UNL     1      20.910  54.503  30.938  1.00  0.00     0.000 C 
ENDROOT
BRANCH   1   2
ATOM      2  C   UNL     1      19.875  54.713  29.826  1.00  0.00     0.000 C 
BRANCH   2   3
ATOM      3  C   UNL     1      20.495  54.470  28.444  1.00  0.00     0.000 C 
BRANCH   3   4
ATOM      4  C   UNL     1      20.734  52.975  28.202  1.00  0.00     0.006 C 
BRANCH   4   5
ATOM      5  C   UNL     1      22.164  52.578  28.579  1.00  0.00     0.053 C 
BRANCH   5   6
ATOM      6  C   UNL     1      22.906  52.087  27.377  1.00  0.00     0.041 C 
ATOM      7  O   UNL     1      23.262  52.894  26.479  1.00  0.00    -0.550 OA
ATOM      8  O   UNL     1      23.249  50.746  27.272  1.00  0.00    -0.550 OA
ENDBRANCH   5   6
ENDBRANCH   4   5
ENDBRANCH   3   4
ENDBRANCH   2   3
ENDBRANCH   1   2
BRANCH   1   9
ATOM      9  C   UNL     1      20.369  54.988  32.290  1.00  0.00     0.000 C 
BRANCH   9  10
ATOM     10  C   UNL     1      21.427  54.934  33.404  1.00  0.00    -0.000 C 
BRANCH  10  11
ATOM     11  C   UNL     1      22.862  55.066  32.864  1.00  0.00    -0.000 C 
BRANCH  11  12
ATOM     12  C   UNL     1      23.897  54.369  33.761  1.00  0.00    -0.000 C 
BRANCH  12  13
ATOM     13  C   UNL     1      23.718  54.714  35.247  1.00  0.00    -0.003 C 
ATOM     14  C   UNL     1      25.067  54.869  35.942  1.00  0.00     0.004 C 
ENDBRANCH  12  13
ENDBRANCH  11  12
ENDBRANCH  10  11
ENDBRANCH   9  10
ENDBRANCH   1   9
TORSDOF 10
ENDMDL
