MODEL 1
REMARK VINA RESULT:    -3.567      0.000      0.000
REMARK INTER + INTRA:         -11.434
REMARK INTER:                  -8.155
REMARK INTRA:                  -3.279
REMARK UNBOUND:                -3.279
REMARK SMILES CCCCCCCCCCCCCCCCCCCCCCCC(=O)[O-]
REMARK SMILES IDX 13 1 14 2 15 3 16 4 17 5 18 6 19 7 20 8 21 9 22 10 23 11
REMARK SMILES IDX 24 12 25 13 26 14 12 15 11 16 10 17 9 18 8 19 7 20 6 21 5 22
REMARK SMILES IDX 4 23 3 24 2 25 1 26
REMARK H PARENT
REMARK Flexibility Score: inf
ROOT
ATOM      1  C   UNL     1      -2.224  -5.419  63.951  1.00  0.00     0.000 C 
ENDROOT
BRANCH   1   2
ATOM      2  C   UNL     1      -3.142  -4.386  63.274  1.00  0.00     0.000 C 
BRANCH   2   3
ATOM      3  C   UNL     1      -3.984  -4.989  62.137  1.00  0.00     0.000 C 
BRANCH   3   4
ATOM      4  C   UNL     1      -5.485  -5.065  62.475  1.00  0.00     0.000 C 
BRANCH   4   5
ATOM      5  C   UNL     1      -5.886  -4.429  63.819  1.00  0.00     0.000 C 
BRANCH   5   6
ATOM      6  C   UNL     1      -6.605  -5.413  64.758  1.00  0.00     0.000 C 
BRANCH   6   7
ATOM      7  C   UNL     1      -6.506  -6.868  64.275  1.00  0.00     0.000 C 
BRANCH   7   8
ATOM      8  C   UNL     1      -6.542  -7.878  65.435  1.00  0.00     0.000 C 
BRANCH   8   9
ATOM      9  C   UNL     1      -5.616  -9.081  65.199  1.00  0.00     0.000 C 
BRANCH   9  10
ATOM     10  C   UNL     1      -4.842  -9.488  66.465  1.00  0.00     0.006 C 
BRANCH  10  11
ATOM     11  C   UNL     1      -3.780 -10.558  66.177  1.00  0.00     0.053 C 
BRANCH  11  12
ATOM     12  C   UNL     1      -3.587 -10.765  64.706  1.00  0.00     0.041 C 
ATOM     13  O   UNL     1      -4.130 -11.742  64.126  1.00  0.00    -0.550 OA
ATOM     14  O   UNL     1      -2.780  -9.896  63.982  1.00  0.00    -0.550 OA
ENDBRANCH  11  12
ENDBRANCH  10  11
ENDBRANCH   9  10
ENDBRANCH   8   9
ENDBRANCH   7   8
ENDBRANCH   6   7
ENDBRANCH   5   6
ENDBRANCH   4   5
ENDBRANCH   3   4
ENDBRANCH   2   3
ENDBRANCH   1   2
BRANCH   1  15
ATOM     15  C   UNL     1      -2.949  -6.514  64.761  1.00  0.00     0.000 C 
BRANCH  15  16
ATOM     16  C   UNL     1      -2.643  -6.520  66.269  1.00  0.00     0.000 C 
BRANCH  16  17
ATOM     17  C   UNL     1      -3.612  -5.637  67.074  1.00  0.00     0.000 C 
BRANCH  17  18
ATOM     18  C   UNL     1      -2.915  -4.418  67.698  1.00  0.00    -0.000 C 
BRANCH  18  19
ATOM     19  C   UNL     1      -2.930  -3.193  66.766  1.00  0.00    -0.000 C 
BRANCH  19  20
ATOM     20  C   UNL     1      -1.523  -2.630  66.496  1.00  0.00    -0.000 C 
BRANCH  20  21
ATOM     21  C   UNL     1      -0.377  -3.643  66.668  1.00  0.00    -0.000 C 
BRANCH  21  22
ATOM     22  C   UNL     1       0.833  -3.058  67.418  1.00  0.00    -0.000 C 
BRANCH  22  23
ATOM     23  C   UNL     1       1.908  -2.508  66.455  1.00  0.00    -0.000 C 
BRANCH  23  24
ATOM     24  C   UNL     1       3.095  -3.466  66.237  1.00  0.00    -0.000 C 
BRANCH  24  25
ATOM     25  C   UNL     1       4.387  -3.064  66.967  1.00  0.00    -0.003 C 
ATOM     26  C   UNL     1       4.477  -3.642  68.378  1.00  0.00     0.004 C 
ENDBRANCH  24  25
ENDBRANCH  23  24
ENDBRANCH  22  23
ENDBRANCH  21  22
ENDBRANCH  20  21
ENDBRANCH  19  20
ENDBRANCH  18  19
ENDBRANCH  17  18
ENDBRANCH  16  17
ENDBRANCH  15  16
ENDBRANCH   1  15
TORSDOF 22
ENDMDL
MODEL 2
REMARK VINA RESULT:    -3.542      8.324     11.722
REMARK INTER + INTRA:         -11.375
REMARK INTER:                  -8.499
REMARK INTRA:                  -2.877
REMARK UNBOUND:                -3.279
REMARK SMILES CCCCCCCCCCCCCCCCCCCCCCCC(=O)[O-]
REMARK SMILES IDX 13 1 14 2 15 3 16 4 17 5 18 6 19 7 20 8 21 9 22 10 23 11
REMARK SMILES IDX 24 12 25 13 26 14 12 15 11 16 10 17 9 18 8 19 7 20 6 21 5 22
REMARK SMILES IDX 4 23 3 24 2 25 1 26
REMARK H PARENT
REMARK Flexibility Score: inf
ROOT
ATOM      1  C   UNL     1       4.563  -4.110  70.404  1.00  0.00     0.000 C 
ENDROOT
BRANCH   1   2
ATOM      2  C   UNL     1       4.065  -3.308  69.187  1.00  0.00     0.000 C 
BRANCH   2   3
ATOM      3  C   UNL     1       4.688  -3.782  67.864  1.00  0.00     0.000 C 
BRANCH   3   4
ATOM      4  C   UNL     1       3.945  -3.250  66.624  1.00  0.00     0.000 C 
BRANCH   4   5
ATOM      5  C   UNL     1       2.420  -3.116  66.783  1.00  0.00     0.000 C 
BRANCH   5   6
ATOM      6  C   UNL     1       1.944  -1.652  66.794  1.00  0.00     0.000 C 
BRANCH   6   7
ATOM      7  C   UNL     1       2.923  -0.710  66.076  1.00  0.00     0.000 C 
BRANCH   7   8
ATOM      8  C   UNL     1       2.934   0.704  66.685  1.00  0.00     0.000 C 
BRANCH   8   9
ATOM      9  C   UNL     1       3.475   0.723  68.123  1.00  0.00     0.000 C 
BRANCH   9  10
ATOM     10  C   UNL     1       4.857   0.057  68.243  1.00  0.00     0.006 C 
BRANCH  10  11
ATOM     11  C   UNL     1       5.680   0.634  69.403  1.00  0.00     0.053 C 
BRANCH  11  12
ATOM     12  C   UNL     1       6.507   1.804  68.966  1.00  0.00     0.041 C 
ATOM     13  O   UNL     1       7.668   1.627  68.515  1.00  0.00    -0.550 OA
ATOM     14  O   UNL     1       6.004   3.094  69.090  1.00  0.00    -0.550 OA
ENDBRANCH  11  12
ENDBRANCH  10  11
ENDBRANCH   9  10
ENDBRANCH   8   9
ENDBRANCH   7   8
ENDBRANCH   6   7
ENDBRANCH   5   6
ENDBRANCH   4   5
ENDBRANCH   3   4
ENDBRANCH   2   3
ENDBRANCH   1   2
BRANCH   1  15
ATOM     15  C   UNL     1       4.260  -3.479  71.779  1.00  0.00     0.000 C 
BRANCH  15  16
ATOM     16  C   UNL     1       5.072  -2.215  72.109  1.00  0.00     0.000 C 
BRANCH  16  17
ATOM     17  C   UNL     1       5.876  -2.351  73.413  1.00  0.00     0.000 C 
BRANCH  17  18
ATOM     18  C   UNL     1       7.388  -2.457  73.161  1.00  0.00    -0.000 C 
BRANCH  18  19
ATOM     19  C   UNL     1       7.991  -3.747  73.746  1.00  0.00    -0.000 C 
BRANCH  19  20
ATOM     20  C   UNL     1       7.487  -5.017  73.037  1.00  0.00    -0.000 C 
BRANCH  20  21
ATOM     21  C   UNL     1       8.405  -6.245  73.179  1.00  0.00    -0.000 C 
BRANCH  21  22
ATOM     22  C   UNL     1       8.753  -6.893  71.827  1.00  0.00    -0.000 C 
BRANCH  22  23
ATOM     23  C   UNL     1       7.553  -6.897  70.855  1.00  0.00    -0.000 C 
BRANCH  23  24
ATOM     24  C   UNL     1       6.706  -8.181  70.921  1.00  0.00    -0.000 C 
BRANCH  24  25
ATOM     25  C   UNL     1       5.188  -7.947  70.995  1.00  0.00    -0.003 C 
ATOM     26  C   UNL     1       4.749  -7.309  72.312  1.00  0.00     0.004 C 
ENDBRANCH  24  25
ENDBRANCH  23  24
ENDBRANCH  22  23
ENDBRANCH  21  22
ENDBRANCH  20  21
ENDBRANCH  19  20
ENDBRANCH  18  19
ENDBRANCH  17  18
ENDBRANCH  16  17
ENDBRANCH  15  16
ENDBRANCH   1  15
TORSDOF 22
ENDMDL
MODEL 3
REMARK VINA RESULT:    -3.498      3.760      8.052
REMARK INTER + INTRA:         -11.275
REMARK INTER:                  -7.005
REMARK INTRA:                  -4.270
REMARK UNBOUND:                -3.279
REMARK SMILES CCCCCCCCCCCCCCCCCCCCCCCC(=O)[O-]
REMARK SMILES IDX 13 1 14 2 15 3 16 4 17 5 18 6 19 7 20 8 21 9 22 10 23 11
REMARK SMILES IDX 24 12 25 13 26 14 12 15 11 16 10 17 9 18 8 19 7 20 6 21 5 22
REMARK SMILES IDX 4 23 3 24 2 25 1 26
REMARK H PARENT
REMARK Flexibility Score: inf
ROOT
ATOM      1  C   UNL     1      -6.521  -8.668  65.163  1.00  0.00     0.000 C 
ENDROOT
BRANCH   1   2
ATOM      2  C   UNL     1      -6.374  -7.267  64.542  1.00  0.00     0.000 C 
BRANCH   2   3
ATOM      3  C   UNL     1      -6.143  -6.169  65.594  1.00  0.00     0.000 C 
BRANCH   3   4
ATOM      4  C   UNL     1      -5.899  -6.731  67.007  1.00  0.00     0.000 C 
BRANCH   4   5
ATOM      5  C   UNL     1      -4.533  -6.379  67.624  1.00  0.00     0.000 C 
BRANCH   5   6
ATOM      6  C   UNL     1      -3.349  -6.969  66.837  1.00  0.00     0.000 C 
BRANCH   6   7
ATOM      7  C   UNL     1      -2.184  -5.978  66.695  1.00  0.00     0.000 C 
BRANCH   7   8
ATOM      8  C   UNL     1      -2.183  -5.260  65.333  1.00  0.00     0.000 C 
BRANCH   8   9
ATOM      9  C   UNL     1      -2.583  -6.188  64.176  1.00  0.00     0.000 C 
BRANCH   9  10
ATOM     10  C   UNL     1      -3.463  -5.484  63.130  1.00  0.00     0.006 C 
BRANCH  10  11
ATOM     11  C   UNL     1      -3.199  -3.973  63.072  1.00  0.00     0.053 C 
BRANCH  11  12
ATOM     12  C   UNL     1      -3.306  -3.446  61.675  1.00  0.00     0.041 C 
ATOM     13  O   UNL     1      -2.281  -3.357  60.950  1.00  0.00    -0.550 OA
ATOM     14  O   UNL     1      -4.535  -3.021  61.185  1.00  0.00    -0.550 OA
ENDBRANCH  11  12
ENDBRANCH  10  11
ENDBRANCH   9  10
ENDBRANCH   8   9
ENDBRANCH   7   8
ENDBRANCH   6   7
ENDBRANCH   5   6
ENDBRANCH   4   5
ENDBRANCH   3   4
ENDBRANCH   2   3
ENDBRANCH   1   2
BRANCH   1  15
ATOM     15  C   UNL     1      -5.677  -9.776  64.499  1.00  0.00     0.000 C 
BRANCH  15  16
ATOM     16  C   UNL     1      -4.170  -9.717  64.803  1.00  0.00     0.000 C 
BRANCH  16  17
ATOM     17  C   UNL     1      -3.507 -11.105  64.786  1.00  0.00     0.000 C 
BRANCH  17  18
ATOM     18  C   UNL     1      -4.421 -12.185  64.187  1.00  0.00    -0.000 C 
BRANCH  18  19
ATOM     19  C   UNL     1      -4.561 -13.412  65.106  1.00  0.00    -0.000 C 
BRANCH  19  20
ATOM     20  C   UNL     1      -6.014 -13.906  65.225  1.00  0.00    -0.000 C 
BRANCH  20  21
ATOM     21  C   UNL     1      -6.649 -13.720  66.615  1.00  0.00    -0.000 C 
BRANCH  21  22
ATOM     22  C   UNL     1      -6.836 -12.240  66.995  1.00  0.00    -0.000 C 
BRANCH  22  23
ATOM     23  C   UNL     1      -5.913 -11.815  68.158  1.00  0.00    -0.000 C 
BRANCH  23  24
ATOM     24  C   UNL     1      -5.714 -10.291  68.268  1.00  0.00    -0.000 C 
BRANCH  24  25
ATOM     25  C   UNL     1      -4.462  -9.861  69.049  1.00  0.00    -0.003 C 
ATOM     26  C   UNL     1      -3.174 -10.461  68.487  1.00  0.00     0.004 C 
ENDBRANCH  24  25
ENDBRANCH  23  24
ENDBRANCH  22  23
ENDBRANCH  21  22
ENDBRANCH  20  21
ENDBRANCH  19  20
ENDBRANCH  18  19
ENDBRANCH  17  18
ENDBRANCH  16  17
ENDBRANCH  15  16
ENDBRANCH   1  15
TORSDOF 22
ENDMDL
MODEL 4
REMARK VINA RESULT:    -3.494      6.870      9.694
REMARK INTER + INTRA:         -11.266
REMARK INTER:                  -6.885
REMARK INTRA:                  -4.381
REMARK UNBOUND:                -3.279
REMARK SMILES CCCCCCCCCCCCCCCCCCCCCCCC(=O)[O-]
REMARK SMILES IDX 13 1 14 2 15 3 16 4 17 5 18 6 19 7 20 8 21 9 22 10 23 11
REMARK SMILES IDX 24 12 25 13 26 14 12 15 11 16 10 17 9 18 8 19 7 20 6 21 5 22
REMARK SMILES IDX 4 23 3 24 2 25 1 26
REMARK H PARENT
REMARK Flexibility Score: inf
ROOT
ATOM      1  C   UNL     1       1.516  -1.339  57.825  1.00  0.00     0.000 C 
ENDROOT
BRANCH   1   2
ATOM      2  C   UNL     1       0.092  -1.671  57.345  1.00  0.00     0.000 C 
BRANCH   2   3
ATOM      3  C   UNL     1      -0.881  -1.940  58.505  1.00  0.00     0.000 C 
BRANCH   3   4
ATOM      4  C   UNL     1      -2.305  -1.421  58.229  1.00  0.00     0.000 C 
BRANCH   4   5
ATOM      5  C   UNL     1      -3.128  -2.264  57.238  1.00  0.00     0.000 C 
BRANCH   5   6
ATOM      6  C   UNL     1      -4.519  -2.637  57.779  1.00  0.00     0.000 C 
BRANCH   6   7
ATOM      7  C   UNL     1      -5.012  -1.664  58.861  1.00  0.00     0.000 C 
BRANCH   7   8
ATOM      8  C   UNL     1      -5.294  -2.365  60.201  1.00  0.00     0.000 C 
BRANCH   8   9
ATOM      9  C   UNL     1      -4.756  -1.577  61.405  1.00  0.00     0.000 C 
BRANCH   9  10
ATOM     10  C   UNL     1      -3.270  -1.864  61.683  1.00  0.00     0.006 C 
BRANCH  10  11
ATOM     11  C   UNL     1      -2.902  -3.330  61.415  1.00  0.00     0.053 C 
BRANCH  11  12
ATOM     12  C   UNL     1      -3.148  -4.191  62.616  1.00  0.00     0.041 C 
ATOM     13  O   UNL     1      -2.897  -3.757  63.770  1.00  0.00    -0.550 OA
ATOM     14  O   UNL     1      -3.625  -5.486  62.456  1.00  0.00    -0.550 OA
ENDBRANCH  11  12
ENDBRANCH  10  11
ENDBRANCH   9  10
ENDBRANCH   8   9
ENDBRANCH   7   8
ENDBRANCH   6   7
ENDBRANCH   5   6
ENDBRANCH   4   5
ENDBRANCH   3   4
ENDBRANCH   2   3
ENDBRANCH   1   2
BRANCH   1  15
ATOM     15  C   UNL     1       1.902   0.154  57.761  1.00  0.00     0.000 C 
BRANCH  15  16
ATOM     16  C   UNL     1       0.726   1.122  57.545  1.00  0.00     0.000 C 
BRANCH  16  17
ATOM     17  C   UNL     1       0.970   2.502  58.179  1.00  0.00     0.000 C 
BRANCH  17  18
ATOM     18  C   UNL     1      -0.152   2.911  59.145  1.00  0.00    -0.000 C 
BRANCH  18  19
ATOM     19  C   UNL     1      -0.442   1.828  60.199  1.00  0.00    -0.000 C 
BRANCH  19  20
ATOM     20  C   UNL     1      -1.929   1.433  60.257  1.00  0.00    -0.000 C 
BRANCH  20  21
ATOM     21  C   UNL     1      -2.894   2.450  59.622  1.00  0.00    -0.000 C 
BRANCH  21  22
ATOM     22  C   UNL     1      -3.958   1.788  58.728  1.00  0.00    -0.000 C 
BRANCH  22  23
ATOM     23  C   UNL     1      -3.878   2.276  57.264  1.00  0.00    -0.000 C 
BRANCH  23  24
ATOM     24  C   UNL     1      -2.579   1.867  56.544  1.00  0.00    -0.000 C 
BRANCH  24  25
ATOM     25  C   UNL     1      -2.770   0.865  55.394  1.00  0.00    -0.003 C 
ATOM     26  C   UNL     1      -1.484   0.605  54.611  1.00  0.00     0.004 C 
ENDBRANCH  24  25
ENDBRANCH  23  24
ENDBRANCH  22  23
ENDBRANCH  21  22
ENDBRANCH  20  21
ENDBRANCH  19  20
ENDBRANCH  18  19
ENDBRANCH  17  18
ENDBRANCH  16  17
ENDBRANCH  15  16
ENDBRANCH   1  15
TORSDOF 22
ENDMDL
MODEL 5
REMARK VINA RESULT:    -3.478      3.317      8.147
REMARK INTER + INTRA:         -11.230
REMARK INTER:                  -7.439
REMARK INTRA:                  -3.791
REMARK UNBOUND:                -3.279
REMARK SMILES CCCCCCCCCCCCCCCCCCCCCCCC(=O)[O-]
REMARK SMILES IDX 13 1 14 2 15 3 16 4 17 5 18 6 19 7 20 8 21 9 22 10 23 11
REMARK SMILES IDX 24 12 25 13 26 14 12 15 11 16 10 17 9 18 8 19 7 20 6 21 5 22
REMARK SMILES IDX 4 23 3 24 2 25 1 26
REMARK H PARENT
REMARK Flexibility Score: inf
ROOT
ATOM      1  C   UNL     1      -4.446 -10.577  64.264  1.00  0.00     0.000 C 
ENDROOT
BRANCH   1   2
ATOM      2  C   UNL     1      -3.246  -9.616  64.344  1.00  0.00     0.000 C 
BRANCH   2   3
ATOM      3  C   UNL     1      -3.576  -8.308  65.082  1.00  0.00     0.000 C 
BRANCH   3   4
ATOM      4  C   UNL     1      -5.089  -8.081  65.258  1.00  0.00     0.000 C 
BRANCH   4   5
ATOM      5  C   UNL     1      -5.536  -6.608  65.241  1.00  0.00     0.000 C 
BRANCH   5   6
ATOM      6  C   UNL     1      -6.191  -6.196  63.911  1.00  0.00     0.000 C 
BRANCH   6   7
ATOM      7  C   UNL     1      -5.492  -4.994  63.257  1.00  0.00     0.000 C 
BRANCH   7   8
ATOM      8  C   UNL     1      -4.135  -5.367  62.637  1.00  0.00     0.000 C 
BRANCH   8   9
ATOM      9  C   UNL     1      -2.990  -4.474  63.140  1.00  0.00     0.000 C 
BRANCH   9  10
ATOM     10  C   UNL     1      -2.205  -5.114  64.298  1.00  0.00     0.006 C 
BRANCH  10  11
ATOM     11  C   UNL     1      -2.463  -4.405  65.634  1.00  0.00     0.053 C 
BRANCH  11  12
ATOM     12  C   UNL     1      -2.236  -5.319  66.799  1.00  0.00     0.041 C 
ATOM     13  O   UNL     1      -1.133  -5.911  66.935  1.00  0.00    -0.550 OA
ATOM     14  O   UNL     1      -3.255  -5.543  67.716  1.00  0.00    -0.550 OA
ENDBRANCH  11  12
ENDBRANCH  10  11
ENDBRANCH   9  10
ENDBRANCH   8   9
ENDBRANCH   7   8
ENDBRANCH   6   7
ENDBRANCH   5   6
ENDBRANCH   4   5
ENDBRANCH   3   4
ENDBRANCH   2   3
ENDBRANCH   1   2
BRANCH   1  15
ATOM     15  C   UNL     1      -4.124 -12.060  64.541  1.00  0.00     0.000 C 
BRANCH  15  16
ATOM     16  C   UNL     1      -4.832 -13.064  63.615  1.00  0.00     0.000 C 
BRANCH  16  17
ATOM     17  C   UNL     1      -4.888 -14.482  64.210  1.00  0.00     0.000 C 
BRANCH  17  18
ATOM     18  C   UNL     1      -4.538 -14.505  65.706  1.00  0.00    -0.000 C 
BRANCH  18  19
ATOM     19  C   UNL     1      -5.756 -14.831  66.589  1.00  0.00    -0.000 C 
BRANCH  19  20
ATOM     20  C   UNL     1      -6.948 -13.892  66.333  1.00  0.00    -0.000 C 
BRANCH  20  21
ATOM     21  C   UNL     1      -6.820 -12.494  66.965  1.00  0.00    -0.000 C 
BRANCH  21  22
ATOM     22  C   UNL     1      -6.709 -12.539  68.500  1.00  0.00    -0.000 C 
BRANCH  22  23
ATOM     23  C   UNL     1      -5.703 -11.501  69.044  1.00  0.00    -0.000 C 
BRANCH  23  24
ATOM     24  C   UNL     1      -4.962 -10.719  67.943  1.00  0.00    -0.000 C 
BRANCH  24  25
ATOM     25  C   UNL     1      -3.435 -10.899  67.944  1.00  0.00    -0.003 C 
ATOM     26  C   UNL     1      -3.006 -12.335  68.238  1.00  0.00     0.004 C 
ENDBRANCH  24  25
ENDBRANCH  23  24
ENDBRANCH  22  23
ENDBRANCH  21  22
ENDBRANCH  20  21
ENDBRANCH  19  20
ENDBRANCH  18  19
ENDBRANCH  17  18
ENDBRANCH  16  17
ENDBRANCH  15  16
ENDBRANCH   1  15
TORSDOF 22
ENDMDL
MODEL 6
REMARK VINA RESULT:    -3.468      6.691      9.205
REMARK INTER + INTRA:         -11.208
REMARK INTER:                  -6.984
REMARK INTRA:                  -4.224
REMARK UNBOUND:                -3.279
REMARK SMILES CCCCCCCCCCCCCCCCCCCCCCCC(=O)[O-]
REMARK SMILES IDX 13 1 14 2 15 3 16 4 17 5 18 6 19 7 20 8 21 9 22 10 23 11
REMARK SMILES IDX 24 12 25 13 26 14 12 15 11 16 10 17 9 18 8 19 7 20 6 21 5 22
REMARK SMILES IDX 4 23 3 24 2 25 1 26
REMARK H PARENT
REMARK Flexibility Score: inf
ROOT
ATOM      1  C   UNL     1      -0.465  -1.989  58.321  1.00  0.00     0.000 C 
ENDROOT
BRANCH   1   2
ATOM      2  C   UNL     1      -1.938  -1.544  58.375  1.00  0.00     0.000 C 
BRANCH   2   3
ATOM      3  C   UNL     1      -2.806  -2.220  57.300  1.00  0.00     0.000 C 
BRANCH   3   4
ATOM      4  C   UNL     1      -4.292  -2.308  57.694  1.00  0.00     0.000 C 
BRANCH   4   5
ATOM      5  C   UNL     1      -4.779  -1.210  58.656  1.00  0.00     0.000 C 
BRANCH   5   6
ATOM      6  C   UNL     1      -5.215  -1.761  60.025  1.00  0.00     0.000 C 
BRANCH   6   7
ATOM      7  C   UNL     1      -4.680  -0.923  61.196  1.00  0.00     0.000 C 
BRANCH   7   8
ATOM      8  C   UNL     1      -3.357  -1.473  61.758  1.00  0.00     0.000 C 
BRANCH   8   9
ATOM      9  C   UNL     1      -3.172  -2.971  61.472  1.00  0.00     0.000 C 
BRANCH   9  10
ATOM     10  C   UNL     1      -3.399  -3.844  62.719  1.00  0.00     0.006 C 
BRANCH  10  11
ATOM     11  C   UNL     1      -4.137  -5.147  62.388  1.00  0.00     0.053 C 
BRANCH  11  12
ATOM     12  C   UNL     1      -5.509  -4.885  61.849  1.00  0.00     0.041 C 
ATOM     13  O   UNL     1      -6.407  -4.420  62.599  1.00  0.00    -0.550 OA
ATOM     14  O   UNL     1      -5.805  -5.187  60.525  1.00  0.00    -0.550 OA
ENDBRANCH  11  12
ENDBRANCH  10  11
ENDBRANCH   9  10
ENDBRANCH   8   9
ENDBRANCH   7   8
ENDBRANCH   6   7
ENDBRANCH   5   6
ENDBRANCH   4   5
ENDBRANCH   3   4
ENDBRANCH   2   3
ENDBRANCH   1   2
BRANCH   1  15
ATOM     15  C   UNL     1       0.403  -1.270  57.268  1.00  0.00     0.000 C 
BRANCH  15  16
ATOM     16  C   UNL     1       1.854  -0.993  57.699  1.00  0.00     0.000 C 
BRANCH  16  17
ATOM     17  C   UNL     1       2.185   0.509  57.736  1.00  0.00     0.000 C 
BRANCH  17  18
ATOM     18  C   UNL     1       0.957   1.388  57.455  1.00  0.00    -0.000 C 
BRANCH  18  19
ATOM     19  C   UNL     1       1.036   2.751  58.165  1.00  0.00    -0.000 C 
BRANCH  19  20
ATOM     20  C   UNL     1      -0.103   2.964  59.179  1.00  0.00    -0.000 C 
BRANCH  20  21
ATOM     21  C   UNL     1      -0.556   1.693  59.920  1.00  0.00    -0.000 C 
BRANCH  21  22
ATOM     22  C   UNL     1      -2.062   1.415  59.767  1.00  0.00    -0.000 C 
BRANCH  22  23
ATOM     23  C   UNL     1      -2.758   2.451  58.857  1.00  0.00    -0.000 C 
BRANCH  23  24
ATOM     24  C   UNL     1      -3.299   1.859  57.543  1.00  0.00    -0.000 C 
BRANCH  24  25
ATOM     25  C   UNL     1      -2.421   2.122  56.309  1.00  0.00    -0.003 C 
ATOM     26  C   UNL     1      -2.148   0.860  55.492  1.00  0.00     0.004 C 
ENDBRANCH  24  25
ENDBRANCH  23  24
ENDBRANCH  22  23
ENDBRANCH  21  22
ENDBRANCH  20  21
ENDBRANCH  19  20
ENDBRANCH  18  19
ENDBRANCH  17  18
ENDBRANCH  16  17
ENDBRANCH  15  16
ENDBRANCH   1  15
TORSDOF 22
ENDMDL
MODEL 7
REMARK VINA RESULT:    -3.421      5.834      8.258
REMARK INTER + INTRA:         -11.101
REMARK INTER:                  -7.289
REMARK INTRA:                  -3.812
REMARK UNBOUND:                -3.279
REMARK SMILES CCCCCCCCCCCCCCCCCCCCCCCC(=O)[O-]
REMARK SMILES IDX 13 1 14 2 15 3 16 4 17 5 18 6 19 7 20 8 21 9 22 10 23 11
REMARK SMILES IDX 24 12 25 13 26 14 12 15 11 16 10 17 9 18 8 19 7 20 6 21 5 22
REMARK SMILES IDX 4 23 3 24 2 25 1 26
REMARK H PARENT
REMARK Flexibility Score: inf
ROOT
ATOM      1  C   UNL     1       0.306  -1.961  57.884  1.00  0.00     0.000 C 
ENDROOT
BRANCH   1   2
ATOM      2  C   UNL     1      -1.182  -1.747  58.214  1.00  0.00     0.000 C 
BRANCH   2   3
ATOM      3  C   UNL     1      -1.933  -0.975  57.115  1.00  0.00     0.000 C 
BRANCH   3   4
ATOM      4  C   UNL     1      -3.463  -1.023  57.284  1.00  0.00     0.000 C 
BRANCH   4   5
ATOM      5  C   UNL     1      -4.071  -2.436  57.338  1.00  0.00     0.000 C 
BRANCH   5   6
ATOM      6  C   UNL     1      -4.957  -2.661  58.577  1.00  0.00     0.000 C 
BRANCH   6   7
ATOM      7  C   UNL     1      -4.797  -1.550  59.625  1.00  0.00     0.000 C 
BRANCH   7   8
ATOM      8  C   UNL     1      -4.551  -2.104  61.040  1.00  0.00     0.000 C 
BRANCH   8   9
ATOM      9  C   UNL     1      -3.083  -2.493  61.274  1.00  0.00     0.000 C 
BRANCH   9  10
ATOM     10  C   UNL     1      -2.933  -3.898  61.882  1.00  0.00     0.006 C 
BRANCH  10  11
ATOM     11  C   UNL     1      -3.279  -3.924  63.376  1.00  0.00     0.053 C 
BRANCH  11  12
ATOM     12  C   UNL     1      -2.565  -5.030  64.091  1.00  0.00     0.041 C 
ATOM     13  O   UNL     1      -1.770  -4.768  65.031  1.00  0.00    -0.550 OA
ATOM     14  O   UNL     1      -2.752  -6.348  63.694  1.00  0.00    -0.550 OA
ENDBRANCH  11  12
ENDBRANCH  10  11
ENDBRANCH   9  10
ENDBRANCH   8   9
ENDBRANCH   7   8
ENDBRANCH   6   7
ENDBRANCH   5   6
ENDBRANCH   4   5
ENDBRANCH   3   4
ENDBRANCH   2   3
ENDBRANCH   1   2
BRANCH   1  15
ATOM     15  C   UNL     1       0.977  -0.819  57.092  1.00  0.00     0.000 C 
BRANCH  15  16
ATOM     16  C   UNL     1       1.769   0.187  57.944  1.00  0.00     0.000 C 
BRANCH  16  17
ATOM     17  C   UNL     1       1.486   1.648  57.553  1.00  0.00     0.000 C 
BRANCH  17  18
ATOM     18  C   UNL     1       0.045   2.073  57.877  1.00  0.00    -0.000 C 
BRANCH  18  19
ATOM     19  C   UNL     1      -0.142   2.430  59.362  1.00  0.00    -0.000 C 
BRANCH  19  20
ATOM     20  C   UNL     1      -0.838   1.313  60.161  1.00  0.00    -0.000 C 
BRANCH  20  21
ATOM     21  C   UNL     1      -2.371   1.278  60.025  1.00  0.00    -0.000 C 
BRANCH  21  22
ATOM     22  C   UNL     1      -3.095   1.345  61.381  1.00  0.00    -0.000 C 
BRANCH  22  23
ATOM     23  C   UNL     1      -2.163   1.816  62.519  1.00  0.00    -0.000 C 
BRANCH  23  24
ATOM     24  C   UNL     1      -2.626   1.380  63.922  1.00  0.00    -0.000 C 
BRANCH  24  25
ATOM     25  C   UNL     1      -3.138  -0.067  64.009  1.00  0.00    -0.003 C 
ATOM     26  C   UNL     1      -2.608  -0.813  65.232  1.00  0.00     0.004 C 
ENDBRANCH  24  25
ENDBRANCH  23  24
ENDBRANCH  22  23
ENDBRANCH  21  22
ENDBRANCH  20  21
ENDBRANCH  19  20
ENDBRANCH  18  19
ENDBRANCH  17  18
ENDBRANCH  16  17
ENDBRANCH  15  16
ENDBRANCH   1  15
TORSDOF 22
ENDMDL
MODEL 8
REMARK VINA RESULT:    -3.402      3.340      6.352
REMARK INTER + INTRA:         -11.056
REMARK INTER:                  -6.718
REMARK INTRA:                  -4.338
REMARK UNBOUND:                -3.279
REMARK SMILES CCCCCCCCCCCCCCCCCCCCCCCC(=O)[O-]
REMARK SMILES IDX 13 1 14 2 15 3 16 4 17 5 18 6 19 7 20 8 21 9 22 10 23 11
REMARK SMILES IDX 24 12 25 13 26 14 12 15 11 16 10 17 9 18 8 19 7 20 6 21 5 22
REMARK SMILES IDX 4 23 3 24 2 25 1 26
REMARK H PARENT
REMARK Flexibility Score: inf
ROOT
ATOM      1  C   UNL     1      -3.948 -11.222  64.765  1.00  0.00     0.000 C 
ENDROOT
BRANCH   1   2
ATOM      2  C   UNL     1      -4.858 -12.203  64.003  1.00  0.00     0.000 C 
BRANCH   2   3
ATOM      3  C   UNL     1      -4.356 -13.656  64.068  1.00  0.00     0.000 C 
BRANCH   3   4
ATOM      4  C   UNL     1      -4.170 -14.164  65.509  1.00  0.00     0.000 C 
BRANCH   4   5
ATOM      5  C   UNL     1      -5.472 -14.504  66.256  1.00  0.00     0.000 C 
BRANCH   5   6
ATOM      6  C   UNL     1      -5.773 -13.533  67.412  1.00  0.00     0.000 C 
BRANCH   6   7
ATOM      7  C   UNL     1      -6.900 -12.545  67.073  1.00  0.00     0.000 C 
BRANCH   7   8
ATOM      8  C   UNL     1      -6.680 -11.160  67.706  1.00  0.00     0.000 C 
BRANCH   8   9
ATOM      9  C   UNL     1      -5.720 -11.205  68.905  1.00  0.00     0.000 C 
BRANCH   9  10
ATOM     10  C   UNL     1      -4.703 -10.052  68.892  1.00  0.00     0.006 C 
BRANCH  10  11
ATOM     11  C   UNL     1      -3.354 -10.475  68.294  1.00  0.00     0.053 C 
BRANCH  11  12
ATOM     12  C   UNL     1      -2.721 -11.579  69.082  1.00  0.00     0.041 C 
ATOM     13  O   UNL     1      -2.310 -11.369  70.253  1.00  0.00    -0.550 OA
ATOM     14  O   UNL     1      -2.555 -12.834  68.509  1.00  0.00    -0.550 OA
ENDBRANCH  11  12
ENDBRANCH  10  11
ENDBRANCH   9  10
ENDBRANCH   8   9
ENDBRANCH   7   8
ENDBRANCH   6   7
ENDBRANCH   5   6
ENDBRANCH   4   5
ENDBRANCH   3   4
ENDBRANCH   2   3
ENDBRANCH   1   2
BRANCH   1  15
ATOM     15  C   UNL     1      -4.463  -9.770  64.844  1.00  0.00     0.000 C 
BRANCH  15  16
ATOM     16  C   UNL     1      -5.930  -9.576  64.423  1.00  0.00     0.000 C 
BRANCH  16  17
ATOM     17  C   UNL     1      -6.653  -8.511  65.267  1.00  0.00     0.000 C 
BRANCH  17  18
ATOM     18  C   UNL     1      -6.405  -7.086  64.751  1.00  0.00    -0.000 C 
BRANCH  18  19
ATOM     19  C   UNL     1      -5.971  -6.123  65.870  1.00  0.00    -0.000 C 
BRANCH  19  20
ATOM     20  C   UNL     1      -5.293  -6.845  67.049  1.00  0.00    -0.000 C 
BRANCH  20  21
ATOM     21  C   UNL     1      -3.762  -6.965  66.940  1.00  0.00    -0.000 C 
BRANCH  21  22
ATOM     22  C   UNL     1      -3.058  -5.599  66.849  1.00  0.00    -0.000 C 
BRANCH  22  23
ATOM     23  C   UNL     1      -2.206  -5.465  65.567  1.00  0.00    -0.000 C 
BRANCH  23  24
ATOM     24  C   UNL     1      -2.585  -6.470  64.462  1.00  0.00    -0.000 C 
BRANCH  24  25
ATOM     25  C   UNL     1      -3.288  -5.850  63.243  1.00  0.00    -0.003 C 
ATOM     26  C   UNL     1      -3.092  -4.337  63.149  1.00  0.00     0.004 C 
ENDBRANCH  24  25
ENDBRANCH  23  24
ENDBRANCH  22  23
ENDBRANCH  21  22
ENDBRANCH  20  21
ENDBRANCH  19  20
ENDBRANCH  18  19
ENDBRANCH  17  18
ENDBRANCH  16  17
ENDBRANCH  15  16
ENDBRANCH   1  15
TORSDOF 22
ENDMDL
MODEL 9
REMARK VINA RESULT:    -3.391      3.267      7.803
REMARK INTER + INTRA:         -11.032
REMARK INTER:                  -7.611
REMARK INTRA:                  -3.421
REMARK UNBOUND:                -3.279
REMARK SMILES CCCCCCCCCCCCCCCCCCCCCCCC(=O)[O-]
REMARK SMILES IDX 13 1 14 2 15 3 16 4 17 5 18 6 19 7 20 8 21 9 22 10 23 11
REMARK SMILES IDX 24 12 25 13 26 14 12 15 11 16 10 17 9 18 8 19 7 20 6 21 5 22
REMARK SMILES IDX 4 23 3 24 2 25 1 26
REMARK H PARENT
REMARK Flexibility Score: inf
ROOT
ATOM      1  C   UNL     1      -4.448  -9.528  64.821  1.00  0.00     0.000 C 
ENDROOT
BRANCH   1   2
ATOM      2  C   UNL     1      -5.938  -9.620  65.196  1.00  0.00     0.000 C 
BRANCH   2   3
ATOM      3  C   UNL     1      -6.729  -8.357  64.814  1.00  0.00     0.000 C 
BRANCH   3   4
ATOM      4  C   UNL     1      -5.848  -7.096  64.737  1.00  0.00     0.000 C 
BRANCH   4   5
ATOM      5  C   UNL     1      -6.563  -5.777  65.080  1.00  0.00     0.000 C 
BRANCH   5   6
ATOM      6  C   UNL     1      -6.763  -4.866  63.856  1.00  0.00     0.000 C 
BRANCH   6   7
ATOM      7  C   UNL     1      -6.254  -5.506  62.555  1.00  0.00     0.000 C 
BRANCH   7   8
ATOM      8  C   UNL     1      -5.144  -4.678  61.885  1.00  0.00     0.000 C 
BRANCH   8   9
ATOM      9  C   UNL     1      -3.737  -5.108  62.327  1.00  0.00     0.000 C 
BRANCH   9  10
ATOM     10  C   UNL     1      -3.021  -4.029  63.157  1.00  0.00     0.006 C 
BRANCH  10  11
ATOM     11  C   UNL     1      -3.260  -4.201  64.663  1.00  0.00     0.053 C 
BRANCH  11  12
ATOM     12  C   UNL     1      -2.131  -4.929  65.323  1.00  0.00     0.041 C 
ATOM     13  O   UNL     1      -2.175  -6.179  65.460  1.00  0.00    -0.550 OA
ATOM     14  O   UNL     1      -1.042  -4.220  65.818  1.00  0.00    -0.550 OA
ENDBRANCH  11  12
ENDBRANCH  10  11
ENDBRANCH   9  10
ENDBRANCH   8   9
ENDBRANCH   7   8
ENDBRANCH   6   7
ENDBRANCH   5   6
ENDBRANCH   4   5
ENDBRANCH   3   4
ENDBRANCH   2   3
ENDBRANCH   1   2
BRANCH   1  15
ATOM     15  C   UNL     1      -3.803 -10.851  64.356  1.00  0.00     0.000 C 
BRANCH  15  16
ATOM     16  C   UNL     1      -4.796 -11.970  63.999  1.00  0.00     0.000 C 
BRANCH  16  17
ATOM     17  C   UNL     1      -4.095 -13.289  63.629  1.00  0.00     0.000 C 
BRANCH  17  18
ATOM     18  C   UNL     1      -4.654 -14.489  64.408  1.00  0.00    -0.000 C 
BRANCH  18  19
ATOM     19  C   UNL     1      -5.939 -14.141  65.179  1.00  0.00    -0.000 C 
BRANCH  19  20
ATOM     20  C   UNL     1      -5.885 -14.572  66.656  1.00  0.00    -0.000 C 
BRANCH  20  21
ATOM     21  C   UNL     1      -4.670 -14.044  67.440  1.00  0.00    -0.000 C 
BRANCH  21  22
ATOM     22  C   UNL     1      -4.708 -12.519  67.649  1.00  0.00    -0.000 C 
BRANCH  22  23
ATOM     23  C   UNL     1      -3.294 -11.898  67.681  1.00  0.00    -0.000 C 
BRANCH  23  24
ATOM     24  C   UNL     1      -3.206 -10.596  68.499  1.00  0.00    -0.000 C 
BRANCH  24  25
ATOM     25  C   UNL     1      -4.523  -9.809  68.599  1.00  0.00    -0.003 C 
ATOM     26  C   UNL     1      -4.348  -8.318  68.314  1.00  0.00     0.004 C 
ENDBRANCH  24  25
ENDBRANCH  23  24
ENDBRANCH  22  23
ENDBRANCH  21  22
ENDBRANCH  20  21
ENDBRANCH  19  20
ENDBRANCH  18  19
ENDBRANCH  17  18
ENDBRANCH  16  17
ENDBRANCH  15  16
ENDBRANCH   1  15
TORSDOF 22
ENDMDL
