MODEL 1
REMARK VINA RESULT:    -8.660      0.000      0.000
REMARK INTER + INTRA:         -10.683
REMARK INTER:                 -10.432
REMARK INTRA:                  -0.251
REMARK UNBOUND:                -0.251
REMARK SMILES O=c1c(O)c(-c2ccc(O)c(O)c2)oc2cc(O)cc(O)c12
REMARK SMILES IDX 5 1 3 2 2 3 1 4 22 5 20 6 19 7 17 8 16 9 15 10 14 11 6 12
REMARK SMILES IDX 7 13 8 14 9 15 13 16 11 17 10 18 12 20 4 22 21 24 18 26
REMARK H PARENT 10 19 12 21 4 23 21 25 18 27
REMARK Flexibility Score: inf
ROOT
ATOM      1  C   UNL     1     -24.725   6.478  13.536  1.00  0.00     0.180 A 
ATOM      2  C   UNL     1     -24.165   6.985  14.722  1.00  0.00     0.208 A 
ATOM      3  C   UNL     1     -24.397   8.326  15.065  1.00  0.00     0.238 A 
ATOM      4  O   UNL     1     -23.847   8.788  16.100  1.00  0.00    -0.285 OA
ATOM      5  C   UNL     1     -25.198   9.139  14.228  1.00  0.00     0.111 A 
ATOM      6  C   UNL     1     -25.531  10.501  14.499  1.00  0.00     0.134 A 
ATOM      7  C   UNL     1     -26.222  11.247  13.538  1.00  0.00     0.093 A 
ATOM      8  C   UNL     1     -26.648  10.666  12.344  1.00  0.00     0.123 A 
ATOM      9  C   UNL     1     -26.380   9.319  12.094  1.00  0.00     0.094 A 
ATOM     10  C   UNL     1     -25.660   8.559  13.019  1.00  0.00     0.146 A 
ATOM     11  O   UNL     1     -25.417   7.284  12.739  1.00  0.00    -0.452 OA
ENDROOT
BRANCH   1  12
ATOM     12  C   UNL     1     -24.547   5.068  13.120  1.00  0.00     0.025 A 
ATOM     13  C   UNL     1     -25.602   4.158  13.290  1.00  0.00     0.016 A 
ATOM     14  C   UNL     1     -25.448   2.819  12.923  1.00  0.00     0.051 A 
ATOM     15  C   UNL     1     -24.236   2.366  12.394  1.00  0.00     0.157 A 
ATOM     16  C   UNL     1     -23.322   4.606  12.608  1.00  0.00     0.062 A 
ATOM     17  C   UNL     1     -23.165   3.261  12.240  1.00  0.00     0.158 A 
BRANCH  15  18
ATOM     18  O   UNL     1     -24.113   1.024  12.034  1.00  0.00    -0.504 OA
ATOM     19  H   UNL     1     -24.446   0.672  11.145  1.00  0.00     0.293 HD
ENDBRANCH  15  18
BRANCH  17  20
ATOM     20  O   UNL     1     -21.948   2.812  11.726  1.00  0.00    -0.504 OA
ATOM     21  H   UNL     1     -21.134   3.414  11.686  1.00  0.00     0.293 HD
ENDBRANCH  17  20
ENDBRANCH   1  12
BRANCH   2  22
ATOM     22  O   UNL     1     -23.359   6.170  15.521  1.00  0.00    -0.502 OA
ATOM     23  H   UNL     1     -23.378   6.212  16.534  1.00  0.00     0.293 HD
ENDBRANCH   2  22
BRANCH   6  24
ATOM     24  O   UNL     1     -25.233  11.152  15.700  1.00  0.00    -0.507 OA
ATOM     25  H   UNL     1     -24.316  11.199  16.117  1.00  0.00     0.293 HD
ENDBRANCH   6  24
BRANCH   8  26
ATOM     26  O   UNL     1     -27.347  11.435  11.416  1.00  0.00    -0.508 OA
ATOM     27  H   UNL     1     -28.321  11.676  11.555  1.00  0.00     0.293 HD
ENDBRANCH   8  26
TORSDOF 6
ENDMDL
MODEL 2
REMARK VINA RESULT:    -8.516      1.595      7.048
REMARK INTER + INTRA:         -10.509
REMARK INTER:                 -10.264
REMARK INTRA:                  -0.245
REMARK UNBOUND:                -0.251
REMARK SMILES O=c1c(O)c(-c2ccc(O)c(O)c2)oc2cc(O)cc(O)c12
REMARK SMILES IDX 5 1 3 2 2 3 1 4 22 5 20 6 19 7 17 8 16 9 15 10 14 11 6 12
REMARK SMILES IDX 7 13 8 14 9 15 13 16 11 17 10 18 12 20 4 22 21 24 18 26
REMARK H PARENT 10 19 12 21 4 23 21 25 18 27
REMARK Flexibility Score: inf
ROOT
ATOM      1  C   UNL     1     -25.605   7.021  12.700  1.00  0.00     0.180 A 
ATOM      2  C   UNL     1     -26.480   5.943  12.923  1.00  0.00     0.208 A 
ATOM      3  C   UNL     1     -25.966   4.637  12.912  1.00  0.00     0.238 A 
ATOM      4  O   UNL     1     -26.764   3.673  13.057  1.00  0.00    -0.285 OA
ATOM      5  C   UNL     1     -24.584   4.425  12.695  1.00  0.00     0.111 A 
ATOM      6  C   UNL     1     -23.949   3.146  12.703  1.00  0.00     0.134 A 
ATOM      7  C   UNL     1     -22.598   3.043  12.348  1.00  0.00     0.093 A 
ATOM      8  C   UNL     1     -21.844   4.177  12.049  1.00  0.00     0.123 A 
ATOM      9  C   UNL     1     -22.440   5.439  12.096  1.00  0.00     0.094 A 
ATOM     10  C   UNL     1     -23.794   5.569  12.411  1.00  0.00     0.146 A 
ATOM     11  O   UNL     1     -24.325   6.786  12.435  1.00  0.00    -0.452 OA
ENDROOT
BRANCH   1  12
ATOM     12  C   UNL     1     -26.066   8.428  12.722  1.00  0.00     0.025 A 
ATOM     13  C   UNL     1     -26.797   8.932  11.634  1.00  0.00     0.016 A 
ATOM     14  C   UNL     1     -27.224  10.263  11.624  1.00  0.00     0.051 A 
ATOM     15  C   UNL     1     -26.916  11.112  12.691  1.00  0.00     0.157 A 
ATOM     16  C   UNL     1     -25.740   9.289  13.784  1.00  0.00     0.062 A 
ATOM     17  C   UNL     1     -26.166  10.626  13.775  1.00  0.00     0.158 A 
BRANCH  15  18
ATOM     18  O   UNL     1     -27.358  12.434  12.655  1.00  0.00    -0.504 OA
ATOM     19  H   UNL     1     -27.042  13.126  13.323  1.00  0.00     0.293 HD
ENDBRANCH  15  18
BRANCH  17  20
ATOM     20  O   UNL     1     -25.844  11.471  14.836  1.00  0.00    -0.504 OA
ATOM     21  H   UNL     1     -25.078  11.264  15.466  1.00  0.00     0.293 HD
ENDBRANCH  17  20
ENDBRANCH   1  12
BRANCH   2  22
ATOM     22  O   UNL     1     -27.844   6.175  13.112  1.00  0.00    -0.502 OA
ATOM     23  H   UNL     1     -28.487   6.301  12.339  1.00  0.00     0.293 HD
ENDBRANCH   2  22
BRANCH   6  24
ATOM     24  O   UNL     1     -24.588   1.960  13.077  1.00  0.00    -0.507 OA
ATOM     25  H   UNL     1     -25.575   1.781  12.972  1.00  0.00     0.293 HD
ENDBRANCH   6  24
BRANCH   8  26
ATOM     26  O   UNL     1     -20.498   4.039  11.714  1.00  0.00    -0.508 OA
ATOM     27  H   UNL     1     -19.819   3.697  12.384  1.00  0.00     0.293 HD
ENDBRANCH   8  26
TORSDOF 6
ENDMDL
MODEL 3
REMARK VINA RESULT:    -8.338      0.775      1.489
REMARK INTER + INTRA:         -10.295
REMARK INTER:                  -9.966
REMARK INTRA:                  -0.329
REMARK UNBOUND:                -0.251
REMARK SMILES O=c1c(O)c(-c2ccc(O)c(O)c2)oc2cc(O)cc(O)c12
REMARK SMILES IDX 5 1 3 2 2 3 1 4 22 5 20 6 19 7 17 8 16 9 15 10 14 11 6 12
REMARK SMILES IDX 7 13 8 14 9 15 13 16 11 17 10 18 12 20 4 22 21 24 18 26
REMARK H PARENT 10 19 12 21 4 23 21 25 18 27
REMARK Flexibility Score: inf
ROOT
ATOM      1  C   UNL     1     -24.269   6.905  13.646  1.00  0.00     0.180 A 
ATOM      2  C   UNL     1     -23.919   7.453  14.892  1.00  0.00     0.208 A 
ATOM      3  C   UNL     1     -24.369   8.742  15.220  1.00  0.00     0.238 A 
ATOM      4  O   UNL     1     -24.007   9.248  16.314  1.00  0.00    -0.285 OA
ATOM      5  C   UNL     1     -25.176   9.460  14.305  1.00  0.00     0.111 A 
ATOM      6  C   UNL     1     -25.721  10.757  14.550  1.00  0.00     0.134 A 
ATOM      7  C   UNL     1     -26.396  11.427  13.523  1.00  0.00     0.093 A 
ATOM      8  C   UNL     1     -26.604  10.823  12.283  1.00  0.00     0.123 A 
ATOM      9  C   UNL     1     -26.127   9.532  12.052  1.00  0.00     0.094 A 
ATOM     10  C   UNL     1     -25.417   8.853  13.046  1.00  0.00     0.146 A 
ATOM     11  O   UNL     1     -24.972   7.630  12.783  1.00  0.00    -0.452 OA
ENDROOT
BRANCH   1  12
ATOM     12  C   UNL     1     -23.854   5.544  13.238  1.00  0.00     0.025 A 
ATOM     13  C   UNL     1     -22.651   5.369  12.534  1.00  0.00     0.016 A 
ATOM     14  C   UNL     1     -22.251   4.095  12.122  1.00  0.00     0.051 A 
ATOM     15  C   UNL     1     -23.050   2.981  12.394  1.00  0.00     0.157 A 
ATOM     16  C   UNL     1     -24.666   4.424  13.492  1.00  0.00     0.062 A 
ATOM     17  C   UNL     1     -24.267   3.145  13.078  1.00  0.00     0.158 A 
BRANCH  15  18
ATOM     18  O   UNL     1     -22.623   1.722  11.972  1.00  0.00    -0.504 OA
ATOM     19  H   UNL     1     -23.090   1.216  11.230  1.00  0.00     0.293 HD
ENDBRANCH  15  18
BRANCH  17  20
ATOM     20  O   UNL     1     -25.075   2.039  13.339  1.00  0.00    -0.504 OA
ATOM     21  H   UNL     1     -26.085   2.094  13.279  1.00  0.00     0.293 HD
ENDBRANCH  17  20
ENDBRANCH   1  12
BRANCH   2  22
ATOM     22  O   UNL     1     -23.103   6.735  15.770  1.00  0.00    -0.502 OA
ATOM     23  H   UNL     1     -22.093   6.811  15.758  1.00  0.00     0.293 HD
ENDBRANCH   2  22
BRANCH   6  24
ATOM     24  O   UNL     1     -25.651  11.412  15.783  1.00  0.00    -0.507 OA
ATOM     25  H   UNL     1     -25.152  11.068  16.589  1.00  0.00     0.293 HD
ENDBRANCH   6  24
BRANCH   8  26
ATOM     26  O   UNL     1     -27.294  11.514  11.289  1.00  0.00    -0.508 OA
ATOM     27  H   UNL     1     -27.117  12.495  11.107  1.00  0.00     0.293 HD
ENDBRANCH   8  26
TORSDOF 6
ENDMDL
MODEL 4
REMARK VINA RESULT:    -8.148      1.398      3.155
REMARK INTER + INTRA:         -10.067
REMARK INTER:                  -9.853
REMARK INTRA:                  -0.214
REMARK UNBOUND:                -0.251
REMARK SMILES O=c1c(O)c(-c2ccc(O)c(O)c2)oc2cc(O)cc(O)c12
REMARK SMILES IDX 5 1 3 2 2 3 1 4 22 5 20 6 19 7 17 8 16 9 15 10 14 11 6 12
REMARK SMILES IDX 7 13 8 14 9 15 13 16 11 17 10 18 12 20 4 22 21 24 18 26
REMARK H PARENT 10 19 12 21 4 23 21 25 18 27
REMARK Flexibility Score: inf
ROOT
ATOM      1  C   UNL     1     -24.649   6.834  13.375  1.00  0.00     0.180 A 
ATOM      2  C   UNL     1     -25.710   7.395  12.643  1.00  0.00     0.208 A 
ATOM      3  C   UNL     1     -26.153   8.687  12.968  1.00  0.00     0.238 A 
ATOM      4  O   UNL     1     -27.139   9.162  12.346  1.00  0.00    -0.285 OA
ATOM      5  C   UNL     1     -25.519   9.408  14.008  1.00  0.00     0.111 A 
ATOM      6  C   UNL     1     -25.859  10.740  14.395  1.00  0.00     0.134 A 
ATOM      7  C   UNL     1     -25.254  11.307  15.523  1.00  0.00     0.093 A 
ATOM      8  C   UNL     1     -24.275  10.618  16.238  1.00  0.00     0.123 A 
ATOM      9  C   UNL     1     -23.892   9.339  15.833  1.00  0.00     0.094 A 
ATOM     10  C   UNL     1     -24.504   8.732  14.734  1.00  0.00     0.146 A 
ATOM     11  O   UNL     1     -24.118   7.510  14.387  1.00  0.00    -0.452 OA
ENDROOT
BRANCH   1  12
ATOM     12  C   UNL     1     -24.110   5.488  13.076  1.00  0.00     0.025 A 
ATOM     13  C   UNL     1     -22.853   5.367  12.462  1.00  0.00     0.016 A 
ATOM     14  C   UNL     1     -22.334   4.107  12.152  1.00  0.00     0.051 A 
ATOM     15  C   UNL     1     -23.068   2.951  12.436  1.00  0.00     0.157 A 
ATOM     16  C   UNL     1     -24.855   4.325  13.341  1.00  0.00     0.062 A 
ATOM     17  C   UNL     1     -24.337   3.060  13.029  1.00  0.00     0.158 A 
BRANCH  15  18
ATOM     18  O   UNL     1     -22.524   1.708  12.118  1.00  0.00    -0.504 OA
ATOM     19  H   UNL     1     -22.782   0.864  12.615  1.00  0.00     0.293 HD
ENDBRANCH  15  18
BRANCH  17  20
ATOM     20  O   UNL     1     -25.080   1.911  13.302  1.00  0.00    -0.504 OA
ATOM     21  H   UNL     1     -26.016   1.964  13.688  1.00  0.00     0.293 HD
ENDBRANCH  17  20
ENDBRANCH   1  12
BRANCH   2  22
ATOM     22  O   UNL     1     -26.336   6.656  11.636  1.00  0.00    -0.502 OA
ATOM     23  H   UNL     1     -25.928   5.815  11.245  1.00  0.00     0.293 HD
ENDBRANCH   2  22
BRANCH   6  24
ATOM     24  O   UNL     1     -26.757  11.551  13.694  1.00  0.00    -0.507 OA
ATOM     25  H   UNL     1     -27.139  11.334  12.786  1.00  0.00     0.293 HD
ENDBRANCH   6  24
BRANCH   8  26
ATOM     26  O   UNL     1     -23.683  11.220  17.347  1.00  0.00    -0.508 OA
ATOM     27  H   UNL     1     -23.028  11.987  17.245  1.00  0.00     0.293 HD
ENDBRANCH   8  26
TORSDOF 6
ENDMDL
MODEL 5
REMARK VINA RESULT:    -7.831      2.442      6.946
REMARK INTER + INTRA:          -9.685
REMARK INTER:                  -9.431
REMARK INTRA:                  -0.253
REMARK UNBOUND:                -0.251
REMARK SMILES O=c1c(O)c(-c2ccc(O)c(O)c2)oc2cc(O)cc(O)c12
REMARK SMILES IDX 5 1 3 2 2 3 1 4 22 5 20 6 19 7 17 8 16 9 15 10 14 11 6 12
REMARK SMILES IDX 7 13 8 14 9 15 13 16 11 17 10 18 12 20 4 22 21 24 18 26
REMARK H PARENT 10 19 12 21 4 23 21 25 18 27
REMARK Flexibility Score: inf
ROOT
ATOM      1  C   UNL     1     -24.885   8.084  12.214  1.00  0.00     0.180 A 
ATOM      2  C   UNL     1     -26.231   7.855  12.552  1.00  0.00     0.208 A 
ATOM      3  C   UNL     1     -26.675   6.534  12.722  1.00  0.00     0.238 A 
ATOM      4  O   UNL     1     -27.893   6.333  12.971  1.00  0.00    -0.285 OA
ATOM      5  C   UNL     1     -25.765   5.460  12.569  1.00  0.00     0.111 A 
ATOM      6  C   UNL     1     -26.097   4.084  12.758  1.00  0.00     0.134 A 
ATOM      7  C   UNL     1     -25.152   3.098  12.453  1.00  0.00     0.093 A 
ATOM      8  C   UNL     1     -23.867   3.437  12.029  1.00  0.00     0.123 A 
ATOM      9  C   UNL     1     -23.513   4.781  11.898  1.00  0.00     0.094 A 
ATOM     10  C   UNL     1     -24.447   5.787  12.160  1.00  0.00     0.146 A 
ATOM     11  O   UNL     1     -24.073   7.053  12.013  1.00  0.00    -0.452 OA
ENDROOT
BRANCH   1  12
ATOM     12  C   UNL     1     -24.337   9.448  12.042  1.00  0.00     0.025 A 
ATOM     13  C   UNL     1     -24.628  10.168  10.872  1.00  0.00     0.016 A 
ATOM     14  C   UNL     1     -24.104  11.449  10.680  1.00  0.00     0.051 A 
ATOM     15  C   UNL     1     -23.271  12.024  11.645  1.00  0.00     0.157 A 
ATOM     16  C   UNL     1     -23.482  10.020  13.001  1.00  0.00     0.062 A 
ATOM     17  C   UNL     1     -22.953  11.305  12.809  1.00  0.00     0.158 A 
BRANCH  15  18
ATOM     18  O   UNL     1     -22.765  13.305  11.427  1.00  0.00    -0.504 OA
ATOM     19  H   UNL     1     -23.152  13.925  10.726  1.00  0.00     0.293 HD
ENDBRANCH  15  18
BRANCH  17  20
ATOM     20  O   UNL     1     -22.111  11.867  13.769  1.00  0.00    -0.504 OA
ATOM     21  H   UNL     1     -21.574  11.291  14.406  1.00  0.00     0.293 HD
ENDBRANCH  17  20
ENDBRANCH   1  12
BRANCH   2  22
ATOM     22  O   UNL     1     -27.116   8.929  12.676  1.00  0.00    -0.502 OA
ATOM     23  H   UNL     1     -27.087   9.569  13.461  1.00  0.00     0.293 HD
ENDBRANCH   2  22
BRANCH   6  24
ATOM     24  O   UNL     1     -27.322   3.640  13.266  1.00  0.00    -0.507 OA
ATOM     25  H   UNL     1     -27.638   3.784  14.213  1.00  0.00     0.293 HD
ENDBRANCH   6  24
BRANCH   8  26
ATOM     26  O   UNL     1     -22.947   2.429  11.749  1.00  0.00    -0.508 OA
ATOM     27  H   UNL     1     -22.019   2.642  11.404  1.00  0.00     0.293 HD
ENDBRANCH   8  26
TORSDOF 6
ENDMDL
MODEL 6
REMARK VINA RESULT:    -7.778      1.549      3.041
REMARK INTER + INTRA:          -9.620
REMARK INTER:                  -9.301
REMARK INTRA:                  -0.319
REMARK UNBOUND:                -0.251
REMARK SMILES O=c1c(O)c(-c2ccc(O)c(O)c2)oc2cc(O)cc(O)c12
REMARK SMILES IDX 5 1 3 2 2 3 1 4 22 5 20 6 19 7 17 8 16 9 15 10 14 11 6 12
REMARK SMILES IDX 7 13 8 14 9 15 13 16 11 17 10 18 12 20 4 22 21 24 18 26
REMARK H PARENT 10 19 12 21 4 23 21 25 18 27
REMARK Flexibility Score: inf
ROOT
ATOM      1  C   UNL     1     -24.418   6.911  13.539  1.00  0.00     0.180 A 
ATOM      2  C   UNL     1     -24.452   7.961  12.604  1.00  0.00     0.208 A 
ATOM      3  C   UNL     1     -24.405   9.286  13.065  1.00  0.00     0.238 A 
ATOM      4  O   UNL     1     -24.491  10.221  12.227  1.00  0.00    -0.285 OA
ATOM      5  C   UNL     1     -24.307   9.545  14.453  1.00  0.00     0.111 A 
ATOM      6  C   UNL     1     -24.212  10.848  15.029  1.00  0.00     0.134 A 
ATOM      7  C   UNL     1     -24.252  10.992  16.421  1.00  0.00     0.093 A 
ATOM      8  C   UNL     1     -24.317   9.879  17.259  1.00  0.00     0.123 A 
ATOM      9  C   UNL     1     -24.351   8.598  16.708  1.00  0.00     0.094 A 
ATOM     10  C   UNL     1     -24.350   8.424  15.322  1.00  0.00     0.146 A 
ATOM     11  O   UNL     1     -24.393   7.189  14.838  1.00  0.00    -0.452 OA
ENDROOT
BRANCH   1  12
ATOM     12  C   UNL     1     -24.439   5.489  13.129  1.00  0.00     0.025 A 
ATOM     13  C   UNL     1     -25.639   4.765  13.208  1.00  0.00     0.016 A 
ATOM     14  C   UNL     1     -25.676   3.415  12.845  1.00  0.00     0.051 A 
ATOM     15  C   UNL     1     -24.515   2.767  12.414  1.00  0.00     0.157 A 
ATOM     16  C   UNL     1     -23.268   4.829  12.715  1.00  0.00     0.062 A 
ATOM     17  C   UNL     1     -23.303   3.475  12.352  1.00  0.00     0.158 A 
BRANCH  15  18
ATOM     18  O   UNL     1     -24.584   1.421  12.056  1.00  0.00    -0.504 OA
ATOM     19  H   UNL     1     -24.207   0.688  12.644  1.00  0.00     0.293 HD
ENDBRANCH  15  18
BRANCH  17  20
ATOM     20  O   UNL     1     -22.139   2.830  11.937  1.00  0.00    -0.504 OA
ATOM     21  H   UNL     1     -21.442   3.303  11.373  1.00  0.00     0.293 HD
ENDBRANCH  17  20
ENDBRANCH   1  12
BRANCH   2  22
ATOM     22  O   UNL     1     -24.571   7.682  11.240  1.00  0.00    -0.502 OA
ATOM     23  H   UNL     1     -25.066   8.293  10.601  1.00  0.00     0.293 HD
ENDBRANCH   2  22
BRANCH   6  24
ATOM     24  O   UNL     1     -24.050  12.021  14.284  1.00  0.00    -0.507 OA
ATOM     25  H   UNL     1     -23.434  12.779  14.533  1.00  0.00     0.293 HD
ENDBRANCH   6  24
BRANCH   8  26
ATOM     26  O   UNL     1     -24.339  10.060  18.641  1.00  0.00    -0.508 OA
ATOM     27  H   UNL     1     -23.885  10.853  19.078  1.00  0.00     0.293 HD
ENDBRANCH   8  26
TORSDOF 6
ENDMDL
MODEL 7
REMARK VINA RESULT:    -7.707      2.061      6.878
REMARK INTER + INTRA:          -9.535
REMARK INTER:                  -9.974
REMARK INTRA:                   0.439
REMARK UNBOUND:                -0.251
REMARK SMILES O=c1c(O)c(-c2ccc(O)c(O)c2)oc2cc(O)cc(O)c12
REMARK SMILES IDX 5 1 3 2 2 3 1 4 22 5 20 6 19 7 17 8 16 9 15 10 14 11 6 12
REMARK SMILES IDX 7 13 8 14 9 15 13 16 11 17 10 18 12 20 4 22 21 24 18 26
REMARK H PARENT 10 19 12 21 4 23 21 25 18 27
REMARK Flexibility Score: inf
ROOT
ATOM      1  C   UNL     1     -24.988   7.000  11.936  1.00  0.00     0.180 A 
ATOM      2  C   UNL     1     -23.640   7.337  12.147  1.00  0.00     0.208 A 
ATOM      3  C   UNL     1     -22.689   6.310  12.254  1.00  0.00     0.238 A 
ATOM      4  O   UNL     1     -21.493   6.617  12.498  1.00  0.00    -0.285 OA
ATOM      5  C   UNL     1     -23.095   4.960  12.133  1.00  0.00     0.111 A 
ATOM      6  C   UNL     1     -22.210   3.840  12.185  1.00  0.00     0.134 A 
ATOM      7  C   UNL     1     -22.737   2.543  12.184  1.00  0.00     0.093 A 
ATOM      8  C   UNL     1     -24.109   2.323  12.067  1.00  0.00     0.123 A 
ATOM      9  C   UNL     1     -24.978   3.409  11.955  1.00  0.00     0.094 A 
ATOM     10  C   UNL     1     -24.485   4.716  11.990  1.00  0.00     0.146 A 
ATOM     11  O   UNL     1     -25.346   5.721  11.892  1.00  0.00    -0.452 OA
ENDROOT
BRANCH   1  12
ATOM     12  C   UNL     1     -26.044   8.026  11.787  1.00  0.00     0.025 A 
ATOM     13  C   UNL     1     -27.287   7.665  11.244  1.00  0.00     0.016 A 
ATOM     14  C   UNL     1     -28.291   8.623  11.076  1.00  0.00     0.051 A 
ATOM     15  C   UNL     1     -28.065   9.955  11.433  1.00  0.00     0.157 A 
ATOM     16  C   UNL     1     -25.811   9.371  12.126  1.00  0.00     0.062 A 
ATOM     17  C   UNL     1     -26.817  10.333  11.957  1.00  0.00     0.158 A 
BRANCH  15  18
ATOM     18  O   UNL     1     -29.086  10.887  11.256  1.00  0.00    -0.504 OA
ATOM     19  H   UNL     1     -29.280  11.610  11.939  1.00  0.00     0.293 HD
ENDBRANCH  15  18
BRANCH  17  20
ATOM     20  O   UNL     1     -26.580  11.664  12.302  1.00  0.00    -0.504 OA
ATOM     21  H   UNL     1     -27.337  12.293  12.541  1.00  0.00     0.293 HD
ENDBRANCH  17  20
ENDBRANCH   1  12
BRANCH   2  22
ATOM     22  O   UNL     1     -23.266   8.676  12.287  1.00  0.00    -0.502 OA
ATOM     23  H   UNL     1     -22.753   9.017  13.092  1.00  0.00     0.293 HD
ENDBRANCH   2  22
BRANCH   6  24
ATOM     24  O   UNL     1     -20.816   3.948  12.210  1.00  0.00    -0.507 OA
ATOM     25  H   UNL     1     -20.202   3.342  12.732  1.00  0.00     0.293 HD
ENDBRANCH   6  24
BRANCH   8  26
ATOM     26  O   UNL     1     -24.597   1.018  12.054  1.00  0.00    -0.508 OA
ATOM     27  H   UNL     1     -24.118   0.279  11.553  1.00  0.00     0.293 HD
ENDBRANCH   8  26
TORSDOF 6
ENDMDL
MODEL 8
REMARK VINA RESULT:    -7.567      2.055      7.052
REMARK INTER + INTRA:          -9.367
REMARK INTER:                  -9.046
REMARK INTRA:                  -0.320
REMARK UNBOUND:                -0.251
REMARK SMILES O=c1c(O)c(-c2ccc(O)c(O)c2)oc2cc(O)cc(O)c12
REMARK SMILES IDX 5 1 3 2 2 3 1 4 22 5 20 6 19 7 17 8 16 9 15 10 14 11 6 12
REMARK SMILES IDX 7 13 8 14 9 15 13 16 11 17 10 18 12 20 4 22 21 24 18 26
REMARK H PARENT 10 19 12 21 4 23 21 25 18 27
REMARK Flexibility Score: inf
ROOT
ATOM      1  C   UNL     1     -25.139   8.785  12.827  1.00  0.00     0.180 A 
ATOM      2  C   UNL     1     -23.834   8.346  12.543  1.00  0.00     0.208 A 
ATOM      3  C   UNL     1     -23.589   6.968  12.431  1.00  0.00     0.238 A 
ATOM      4  O   UNL     1     -22.408   6.580  12.230  1.00  0.00    -0.285 OA
ATOM      5  C   UNL     1     -24.653   6.048  12.588  1.00  0.00     0.111 A 
ATOM      6  C   UNL     1     -24.526   4.632  12.455  1.00  0.00     0.134 A 
ATOM      7  C   UNL     1     -25.616   3.809  12.760  1.00  0.00     0.093 A 
ATOM      8  C   UNL     1     -26.847   4.352  13.129  1.00  0.00     0.123 A 
ATOM      9  C   UNL     1     -26.999   5.737  13.204  1.00  0.00     0.094 A 
ATOM     10  C   UNL     1     -25.918   6.582  12.941  1.00  0.00     0.146 A 
ATOM     11  O   UNL     1     -26.102   7.894  13.034  1.00  0.00    -0.452 OA
ENDROOT
BRANCH   1  12
ATOM     12  C   UNL     1     -25.482  10.221  12.936  1.00  0.00     0.025 A 
ATOM     13  C   UNL     1     -25.607  10.807  14.205  1.00  0.00     0.016 A 
ATOM     14  C   UNL     1     -25.950  12.157  14.331  1.00  0.00     0.051 A 
ATOM     15  C   UNL     1     -26.187  12.935  13.194  1.00  0.00     0.157 A 
ATOM     16  C   UNL     1     -25.741  11.000  11.795  1.00  0.00     0.062 A 
ATOM     17  C   UNL     1     -26.087  12.354  11.919  1.00  0.00     0.158 A 
BRANCH  15  18
ATOM     18  O   UNL     1     -26.525  14.279  13.351  1.00  0.00    -0.504 OA
ATOM     19  H   UNL     1     -25.831  14.988  13.554  1.00  0.00     0.293 HD
ENDBRANCH  15  18
BRANCH  17  20
ATOM     20  O   UNL     1     -26.335  13.121  10.781  1.00  0.00    -0.504 OA
ATOM     21  H   UNL     1     -25.982  12.851   9.871  1.00  0.00     0.293 HD
ENDBRANCH  17  20
ENDBRANCH   1  12
BRANCH   2  22
ATOM     22  O   UNL     1     -22.795   9.271  12.414  1.00  0.00    -0.502 OA
ATOM     23  H   UNL     1     -22.908  10.251  12.646  1.00  0.00     0.293 HD
ENDBRANCH   2  22
BRANCH   6  24
ATOM     24  O   UNL     1     -23.367   3.992  12.004  1.00  0.00    -0.507 OA
ATOM     25  H   UNL     1     -22.663   4.420  11.423  1.00  0.00     0.293 HD
ENDBRANCH   6  24
BRANCH   8  26
ATOM     26  O   UNL     1     -27.916   3.503  13.410  1.00  0.00    -0.508 OA
ATOM     27  H   UNL     1     -28.617   3.286  12.712  1.00  0.00     0.293 HD
ENDBRANCH   8  26
TORSDOF 6
ENDMDL
MODEL 9
REMARK VINA RESULT:    -7.334      2.449      7.243
REMARK INTER + INTRA:          -9.086
REMARK INTER:                  -8.769
REMARK INTRA:                  -0.316
REMARK UNBOUND:                -0.251
REMARK SMILES O=c1c(O)c(-c2ccc(O)c(O)c2)oc2cc(O)cc(O)c12
REMARK SMILES IDX 5 1 3 2 2 3 1 4 22 5 20 6 19 7 17 8 16 9 15 10 14 11 6 12
REMARK SMILES IDX 7 13 8 14 9 15 13 16 11 17 10 18 12 20 4 22 21 24 18 26
REMARK H PARENT 10 19 12 21 4 23 21 25 18 27
REMARK Flexibility Score: inf
ROOT
ATOM      1  C   UNL     1     -25.953   8.807  12.126  1.00  0.00     0.180 A 
ATOM      2  C   UNL     1     -27.320   8.593  11.878  1.00  0.00     0.208 A 
ATOM      3  C   UNL     1     -27.860   7.316  12.097  1.00  0.00     0.238 A 
ATOM      4  O   UNL     1     -29.072   7.117  11.821  1.00  0.00    -0.285 OA
ATOM      5  C   UNL     1     -27.031   6.274  12.577  1.00  0.00     0.111 A 
ATOM      6  C   UNL     1     -27.482   4.951  12.873  1.00  0.00     0.134 A 
ATOM      7  C   UNL     1     -26.550   3.965  13.217  1.00  0.00     0.093 A 
ATOM      8  C   UNL     1     -25.194   4.267  13.341  1.00  0.00     0.123 A 
ATOM      9  C   UNL     1     -24.750   5.571  13.112  1.00  0.00     0.094 A 
ATOM     10  C   UNL     1     -25.652   6.567  12.731  1.00  0.00     0.146 A 
ATOM     11  O   UNL     1     -25.188   7.792  12.513  1.00  0.00    -0.452 OA
ENDROOT
BRANCH   1  12
ATOM     12  C   UNL     1     -25.316  10.131  11.943  1.00  0.00     0.025 A 
ATOM     13  C   UNL     1     -24.555  10.378  10.789  1.00  0.00     0.016 A 
ATOM     14  C   UNL     1     -23.928  11.613  10.605  1.00  0.00     0.051 A 
ATOM     15  C   UNL     1     -24.039  12.613  11.576  1.00  0.00     0.157 A 
ATOM     16  C   UNL     1     -25.408  11.130  12.927  1.00  0.00     0.062 A 
ATOM     17  C   UNL     1     -24.778  12.370  12.746  1.00  0.00     0.158 A 
BRANCH  15  18
ATOM     18  O   UNL     1     -23.405  13.837  11.364  1.00  0.00    -0.504 OA
ATOM     19  H   UNL     1     -23.480  14.603  12.022  1.00  0.00     0.293 HD
ENDBRANCH  15  18
BRANCH  17  20
ATOM     20  O   UNL     1     -24.881  13.359  13.724  1.00  0.00    -0.504 OA
ATOM     21  H   UNL     1     -24.789  13.142  14.710  1.00  0.00     0.293 HD
ENDBRANCH  17  20
ENDBRANCH   1  12
BRANCH   2  22
ATOM     22  O   UNL     1     -28.114   9.631  11.383  1.00  0.00    -0.502 OA
ATOM     23  H   UNL     1     -28.529  10.332  11.985  1.00  0.00     0.293 HD
ENDBRANCH   2  22
BRANCH   6  24
ATOM     24  O   UNL     1     -28.826   4.566  12.869  1.00  0.00    -0.507 OA
ATOM     25  H   UNL     1     -29.156   3.631  13.052  1.00  0.00     0.293 HD
ENDBRANCH   6  24
BRANCH   8  26
ATOM     26  O   UNL     1     -24.296   3.264  13.701  1.00  0.00    -0.508 OA
ATOM     27  H   UNL     1     -24.554   2.285  13.663  1.00  0.00     0.293 HD
ENDBRANCH   8  26
TORSDOF 6
ENDMDL
