MODEL 1
REMARK VINA RESULT:    -4.347      0.000      0.000
REMARK INTER + INTRA:          -8.711
REMARK INTER:                  -7.904
REMARK INTRA:                  -0.807
REMARK UNBOUND:                -0.807
REMARK SMILES CCCCCCCCCCCCCCCC(=O)[O-]
REMARK SMILES IDX 9 1 10 2 11 3 12 4 13 5 14 6 15 7 16 8 17 9 18 10 8 11 7 12
REMARK SMILES IDX 6 13 5 14 4 15 3 16 2 17 1 18
REMARK H PARENT
REMARK Flexibility Score: inf
ROOT
ATOM      1  C   UNL     1      -6.500 -14.735   0.661  1.00  0.00     0.000 C 
ENDROOT
BRANCH   1   2
ATOM      2  C   UNL     1      -5.863 -13.410   0.217  1.00  0.00     0.000 C 
BRANCH   2   3
ATOM      3  C   UNL     1      -6.180 -12.248   1.175  1.00  0.00     0.000 C 
BRANCH   3   4
ATOM      4  C   UNL     1      -5.638 -10.900   0.653  1.00  0.00     0.000 C 
BRANCH   4   5
ATOM      5  C   UNL     1      -6.437 -10.331  -0.532  1.00  0.00     0.000 C 
BRANCH   5   6
ATOM      6  C   UNL     1      -7.634  -9.474  -0.091  1.00  0.00     0.006 C 
BRANCH   6   7
ATOM      7  C   UNL     1      -7.259  -8.485   1.021  1.00  0.00     0.053 C 
BRANCH   7   8
ATOM      8  C   UNL     1      -7.226  -7.072   0.524  1.00  0.00     0.041 C 
ATOM      9  O   UNL     1      -8.060  -6.231   0.949  1.00  0.00    -0.550 OA
ATOM     10  O   UNL     1      -6.254  -6.678  -0.387  1.00  0.00    -0.550 OA
ENDBRANCH   7   8
ENDBRANCH   6   7
ENDBRANCH   5   6
ENDBRANCH   4   5
ENDBRANCH   3   4
ENDBRANCH   2   3
ENDBRANCH   1   2
BRANCH   1  11
ATOM     11  C   UNL     1      -6.074 -15.152   2.077  1.00  0.00     0.000 C 
BRANCH  11  12
ATOM     12  C   UNL     1      -5.900 -16.672   2.172  1.00  0.00    -0.000 C 
BRANCH  12  13
ATOM     13  C   UNL     1      -6.381 -17.363   0.887  1.00  0.00    -0.000 C 
BRANCH  13  14
ATOM     14  C   UNL     1      -5.262 -18.150   0.186  1.00  0.00    -0.000 C 
BRANCH  14  15
ATOM     15  C   UNL     1      -5.602 -19.641   0.021  1.00  0.00    -0.000 C 
BRANCH  15  16
ATOM     16  C   UNL     1      -7.112 -19.894  -0.138  1.00  0.00    -0.000 C 
BRANCH  16  17
ATOM     17  C   UNL     1      -7.499 -20.731  -1.370  1.00  0.00    -0.003 C 
ATOM     18  C   UNL     1      -6.303 -21.074  -2.259  1.00  0.00     0.004 C 
ENDBRANCH  16  17
ENDBRANCH  15  16
ENDBRANCH  14  15
ENDBRANCH  13  14
ENDBRANCH  12  13
ENDBRANCH  11  12
ENDBRANCH   1  11
TORSDOF 14
ENDMDL
MODEL 2
REMARK VINA RESULT:    -4.279      4.220     10.222
REMARK INTER + INTRA:          -8.589
REMARK INTER:                  -7.437
REMARK INTRA:                  -1.152
REMARK UNBOUND:                -0.807
REMARK SMILES CCCCCCCCCCCCCCCC(=O)[O-]
REMARK SMILES IDX 9 1 10 2 11 3 12 4 13 5 14 6 15 7 16 8 17 9 18 10 8 11 7 12
REMARK SMILES IDX 6 13 5 14 4 15 3 16 2 17 1 18
REMARK H PARENT
REMARK Flexibility Score: inf
ROOT
ATOM      1  C   UNL     1      -7.957  -9.138  -0.270  1.00  0.00     0.000 C 
ENDROOT
BRANCH   1   2
ATOM      2  C   UNL     1      -6.611  -9.829  -0.539  1.00  0.00     0.000 C 
BRANCH   2   3
ATOM      3  C   UNL     1      -6.268 -10.895   0.517  1.00  0.00     0.000 C 
BRANCH   3   4
ATOM      4  C   UNL     1      -6.500 -10.385   1.955  1.00  0.00     0.000 C 
BRANCH   4   5
ATOM      5  C   UNL     1      -6.674 -11.512   2.988  1.00  0.00     0.000 C 
BRANCH   5   6
ATOM      6  C   UNL     1      -5.788 -12.733   2.696  1.00  0.00     0.006 C 
BRANCH   6   7
ATOM      7  C   UNL     1      -6.614 -13.999   2.430  1.00  0.00     0.053 C 
BRANCH   7   8
ATOM      8  C   UNL     1      -6.155 -14.716   1.197  1.00  0.00     0.041 C 
ATOM      9  O   UNL     1      -5.211 -14.249   0.508  1.00  0.00    -0.550 OA
ATOM     10  O   UNL     1      -6.752 -15.914   0.826  1.00  0.00    -0.550 OA
ENDBRANCH   7   8
ENDBRANCH   6   7
ENDBRANCH   5   6
ENDBRANCH   4   5
ENDBRANCH   3   4
ENDBRANCH   2   3
ENDBRANCH   1   2
BRANCH   1  11
ATOM     11  C   UNL     1      -7.850  -7.606  -0.282  1.00  0.00     0.000 C 
BRANCH  11  12
ATOM     12  C   UNL     1      -6.431  -7.153   0.084  1.00  0.00    -0.000 C 
BRANCH  12  13
ATOM     13  C   UNL     1      -6.433  -6.341   1.389  1.00  0.00    -0.000 C 
BRANCH  13  14
ATOM     14  C   UNL     1      -7.819  -6.288   2.050  1.00  0.00    -0.000 C 
BRANCH  14  15
ATOM     15  C   UNL     1      -8.345  -4.851   2.207  1.00  0.00    -0.000 C 
BRANCH  15  16
ATOM     16  C   UNL     1      -9.782  -4.799   2.757  1.00  0.00    -0.000 C 
BRANCH  16  17
ATOM     17  C   UNL     1     -10.864  -4.507   1.703  1.00  0.00    -0.003 C 
ATOM     18  C   UNL     1     -12.160  -3.971   2.310  1.00  0.00     0.004 C 
ENDBRANCH  16  17
ENDBRANCH  15  16
ENDBRANCH  14  15
ENDBRANCH  13  14
ENDBRANCH  12  13
ENDBRANCH  11  12
ENDBRANCH   1  11
TORSDOF 14
ENDMDL
MODEL 3
REMARK VINA RESULT:    -4.250      3.344      6.474
REMARK INTER + INTRA:          -8.536
REMARK INTER:                  -7.332
REMARK INTRA:                  -1.204
REMARK UNBOUND:                -0.807
REMARK SMILES CCCCCCCCCCCCCCCC(=O)[O-]
REMARK SMILES IDX 9 1 10 2 11 3 12 4 13 5 14 6 15 7 16 8 17 9 18 10 8 11 7 12
REMARK SMILES IDX 6 13 5 14 4 15 3 16 2 17 1 18
REMARK H PARENT
REMARK Flexibility Score: inf
ROOT
ATOM      1  C   UNL     1      -7.568  -8.055   0.249  1.00  0.00     0.000 C 
ENDROOT
BRANCH   1   2
ATOM      2  C   UNL     1      -6.650  -6.972  -0.339  1.00  0.00     0.000 C 
BRANCH   2   3
ATOM      3  C   UNL     1      -6.016  -6.080   0.744  1.00  0.00     0.000 C 
BRANCH   3   4
ATOM      4  C   UNL     1      -6.788  -6.147   2.078  1.00  0.00     0.000 C 
BRANCH   4   5
ATOM      5  C   UNL     1      -7.717  -4.944   2.315  1.00  0.00     0.000 C 
BRANCH   5   6
ATOM      6  C   UNL     1      -9.174  -5.356   2.579  1.00  0.00     0.006 C 
BRANCH   6   7
ATOM      7  C   UNL     1     -10.098  -4.142   2.750  1.00  0.00     0.053 C 
BRANCH   7   8
ATOM      8  C   UNL     1     -11.337  -4.262   1.917  1.00  0.00     0.041 C 
ATOM      9  O   UNL     1     -11.267  -4.696   0.737  1.00  0.00    -0.550 OA
ATOM     10  O   UNL     1     -12.572  -3.921   2.453  1.00  0.00    -0.550 OA
ENDBRANCH   7   8
ENDBRANCH   6   7
ENDBRANCH   5   6
ENDBRANCH   4   5
ENDBRANCH   3   4
ENDBRANCH   2   3
ENDBRANCH   1   2
BRANCH   1  11
ATOM     11  C   UNL     1      -7.258  -9.455  -0.299  1.00  0.00     0.000 C 
BRANCH  11  12
ATOM     12  C   UNL     1      -6.073 -10.085   0.443  1.00  0.00    -0.000 C 
BRANCH  12  13
ATOM     13  C   UNL     1      -6.232  -9.932   1.964  1.00  0.00    -0.000 C 
BRANCH  13  14
ATOM     14  C   UNL     1      -6.608 -11.253   2.653  1.00  0.00    -0.000 C 
BRANCH  14  15
ATOM     15  C   UNL     1      -5.385 -12.145   2.928  1.00  0.00    -0.000 C 
BRANCH  15  16
ATOM     16  C   UNL     1      -5.624 -13.617   2.544  1.00  0.00    -0.000 C 
BRANCH  16  17
ATOM     17  C   UNL     1      -5.978 -13.847   1.064  1.00  0.00    -0.003 C 
ATOM     18  C   UNL     1      -6.737 -15.153   0.827  1.00  0.00     0.004 C 
ENDBRANCH  16  17
ENDBRANCH  15  16
ENDBRANCH  14  15
ENDBRANCH  13  14
ENDBRANCH  12  13
ENDBRANCH  11  12
ENDBRANCH   1  11
TORSDOF 14
ENDMDL
MODEL 4
REMARK VINA RESULT:    -4.074      4.234     10.647
REMARK INTER + INTRA:          -8.215
REMARK INTER:                  -7.341
REMARK INTRA:                  -0.874
REMARK UNBOUND:                -0.807
REMARK SMILES CCCCCCCCCCCCCCCC(=O)[O-]
REMARK SMILES IDX 9 1 10 2 11 3 12 4 13 5 14 6 15 7 16 8 17 9 18 10 8 11 7 12
REMARK SMILES IDX 6 13 5 14 4 15 3 16 2 17 1 18
REMARK H PARENT
REMARK Flexibility Score: inf
ROOT
ATOM      1  C   UNL     1      -7.719  -8.266  -0.328  1.00  0.00     0.000 C 
ENDROOT
BRANCH   1   2
ATOM      2  C   UNL     1      -7.371  -9.513   0.500  1.00  0.00     0.000 C 
BRANCH   2   3
ATOM      3  C   UNL     1      -6.559 -10.549  -0.298  1.00  0.00     0.000 C 
BRANCH   3   4
ATOM      4  C   UNL     1      -5.362 -11.096   0.508  1.00  0.00     0.000 C 
BRANCH   4   5
ATOM      5  C   UNL     1      -5.671 -12.401   1.261  1.00  0.00     0.000 C 
BRANCH   5   6
ATOM      6  C   UNL     1      -5.584 -13.645   0.363  1.00  0.00     0.006 C 
BRANCH   6   7
ATOM      7  C   UNL     1      -6.606 -14.719   0.759  1.00  0.00     0.053 C 
BRANCH   7   8
ATOM      8  C   UNL     1      -6.022 -15.723   1.704  1.00  0.00     0.041 C 
ATOM      9  O   UNL     1      -5.430 -16.741   1.260  1.00  0.00    -0.550 OA
ATOM     10  O   UNL     1      -6.108 -15.520   3.076  1.00  0.00    -0.550 OA
ENDBRANCH   7   8
ENDBRANCH   6   7
ENDBRANCH   5   6
ENDBRANCH   4   5
ENDBRANCH   3   4
ENDBRANCH   2   3
ENDBRANCH   1   2
BRANCH   1  11
ATOM     11  C   UNL     1      -7.161  -6.973   0.284  1.00  0.00     0.000 C 
BRANCH  11  12
ATOM     12  C   UNL     1      -6.214  -7.283   1.450  1.00  0.00    -0.000 C 
BRANCH  12  13
ATOM     13  C   UNL     1      -5.583  -5.996   2.003  1.00  0.00    -0.000 C 
BRANCH  13  14
ATOM     14  C   UNL     1      -6.017  -4.744   1.225  1.00  0.00    -0.000 C 
BRANCH  14  15
ATOM     15  C   UNL     1      -4.875  -4.145   0.385  1.00  0.00    -0.000 C 
BRANCH  15  16
ATOM     16  C   UNL     1      -4.900  -4.620  -1.079  1.00  0.00    -0.000 C 
BRANCH  16  17
ATOM     17  C   UNL     1      -4.949  -3.489  -2.122  1.00  0.00    -0.003 C 
ATOM     18  C   UNL     1      -5.120  -2.105  -1.496  1.00  0.00     0.004 C 
ENDBRANCH  16  17
ENDBRANCH  15  16
ENDBRANCH  14  15
ENDBRANCH  13  14
ENDBRANCH  12  13
ENDBRANCH  11  12
ENDBRANCH   1  11
TORSDOF 14
ENDMDL
MODEL 5
REMARK VINA RESULT:    -4.049     20.428     23.162
REMARK INTER + INTRA:          -8.169
REMARK INTER:                  -5.850
REMARK INTRA:                  -2.320
REMARK UNBOUND:                -0.807
REMARK SMILES CCCCCCCCCCCCCCCC(=O)[O-]
REMARK SMILES IDX 9 1 10 2 11 3 12 4 13 5 14 6 15 7 16 8 17 9 18 10 8 11 7 12
REMARK SMILES IDX 6 13 5 14 4 15 3 16 2 17 1 18
REMARK H PARENT
REMARK Flexibility Score: inf
ROOT
ATOM      1  C   UNL     1     -20.843  -1.800 -15.282  1.00  0.00     0.000 C 
ENDROOT
BRANCH   1   2
ATOM      2  C   UNL     1     -22.053  -2.060 -16.193  1.00  0.00     0.000 C 
BRANCH   2   3
ATOM      3  C   UNL     1     -23.330  -2.395 -15.403  1.00  0.00     0.000 C 
BRANCH   3   4
ATOM      4  C   UNL     1     -23.685  -3.895 -15.480  1.00  0.00     0.000 C 
BRANCH   4   5
ATOM      5  C   UNL     1     -23.363  -4.671 -14.191  1.00  0.00     0.000 C 
BRANCH   5   6
ATOM      6  C   UNL     1     -23.507  -3.813 -12.924  1.00  0.00     0.006 C 
BRANCH   6   7
ATOM      7  C   UNL     1     -22.166  -3.607 -12.208  1.00  0.00     0.053 C 
BRANCH   7   8
ATOM      8  C   UNL     1     -22.076  -2.256 -11.568  1.00  0.00     0.041 C 
ATOM      9  O   UNL     1     -22.443  -1.231 -12.199  1.00  0.00    -0.550 OA
ATOM     10  O   UNL     1     -21.615  -2.133 -10.263  1.00  0.00    -0.550 OA
ENDBRANCH   7   8
ENDBRANCH   6   7
ENDBRANCH   5   6
ENDBRANCH   4   5
ENDBRANCH   3   4
ENDBRANCH   2   3
ENDBRANCH   1   2
BRANCH   1  11
ATOM     11  C   UNL     1     -19.839  -2.962 -15.285  1.00  0.00     0.000 C 
BRANCH  11  12
ATOM     12  C   UNL     1     -20.014  -3.834 -16.534  1.00  0.00    -0.000 C 
BRANCH  12  13
ATOM     13  C   UNL     1     -20.265  -5.301 -16.151  1.00  0.00    -0.000 C 
BRANCH  13  14
ATOM     14  C   UNL     1     -19.976  -5.581 -14.668  1.00  0.00    -0.000 C 
BRANCH  14  15
ATOM     15  C   UNL     1     -20.384  -7.003 -14.244  1.00  0.00    -0.000 C 
BRANCH  15  16
ATOM     16  C   UNL     1     -20.710  -7.107 -12.744  1.00  0.00    -0.000 C 
BRANCH  16  17
ATOM     17  C   UNL     1     -20.489  -8.502 -12.132  1.00  0.00    -0.003 C 
ATOM     18  C   UNL     1     -20.189  -9.574 -13.180  1.00  0.00     0.004 C 
ENDBRANCH  16  17
ENDBRANCH  15  16
ENDBRANCH  14  15
ENDBRANCH  13  14
ENDBRANCH  12  13
ENDBRANCH  11  12
ENDBRANCH   1  11
TORSDOF 14
ENDMDL
MODEL 6
REMARK VINA RESULT:    -3.976     20.753     23.887
REMARK INTER + INTRA:          -8.037
REMARK INTER:                  -5.601
REMARK INTRA:                  -2.436
REMARK UNBOUND:                -0.807
REMARK SMILES CCCCCCCCCCCCCCCC(=O)[O-]
REMARK SMILES IDX 9 1 10 2 11 3 12 4 13 5 14 6 15 7 16 8 17 9 18 10 8 11 7 12
REMARK SMILES IDX 6 13 5 14 4 15 3 16 2 17 1 18
REMARK H PARENT
REMARK Flexibility Score: inf
ROOT
ATOM      1  C   UNL     1     -20.846  -5.953 -16.953  1.00  0.00     0.000 C 
ENDROOT
BRANCH   1   2
ATOM      2  C   UNL     1     -21.024  -4.427 -16.950  1.00  0.00     0.000 C 
BRANCH   2   3
ATOM      3  C   UNL     1     -20.356  -3.754 -15.737  1.00  0.00     0.000 C 
BRANCH   3   4
ATOM      4  C   UNL     1     -19.600  -4.768 -14.852  1.00  0.00     0.000 C 
BRANCH   4   5
ATOM      5  C   UNL     1     -20.050  -4.757 -13.381  1.00  0.00     0.000 C 
BRANCH   5   6
ATOM      6  C   UNL     1     -20.749  -6.060 -12.960  1.00  0.00     0.006 C 
BRANCH   6   7
ATOM      7  C   UNL     1     -20.084  -7.299 -13.574  1.00  0.00     0.053 C 
BRANCH   7   8
ATOM      8  C   UNL     1     -20.517  -8.560 -12.891  1.00  0.00     0.041 C 
ATOM      9  O   UNL     1     -20.581  -9.640 -13.537  1.00  0.00    -0.550 OA
ATOM     10  O   UNL     1     -20.822  -8.550 -11.536  1.00  0.00    -0.550 OA
ENDBRANCH   7   8
ENDBRANCH   6   7
ENDBRANCH   5   6
ENDBRANCH   4   5
ENDBRANCH   3   4
ENDBRANCH   2   3
ENDBRANCH   1   2
BRANCH   1  11
ATOM     11  C   UNL     1     -22.184  -6.705 -16.961  1.00  0.00     0.000 C 
BRANCH  11  12
ATOM     12  C   UNL     1     -22.998  -6.391 -15.700  1.00  0.00    -0.000 C 
BRANCH  12  13
ATOM     13  C   UNL     1     -24.398  -5.871 -16.064  1.00  0.00    -0.000 C 
BRANCH  13  14
ATOM     14  C   UNL     1     -24.911  -4.815 -15.072  1.00  0.00    -0.000 C 
BRANCH  14  15
ATOM     15  C   UNL     1     -23.855  -3.743 -14.750  1.00  0.00    -0.000 C 
BRANCH  15  16
ATOM     16  C   UNL     1     -23.639  -3.554 -13.238  1.00  0.00    -0.000 C 
BRANCH  16  17
ATOM     17  C   UNL     1     -22.789  -2.329 -12.857  1.00  0.00    -0.003 C 
ATOM     18  C   UNL     1     -22.113  -2.472 -11.493  1.00  0.00     0.004 C 
ENDBRANCH  16  17
ENDBRANCH  15  16
ENDBRANCH  14  15
ENDBRANCH  13  14
ENDBRANCH  12  13
ENDBRANCH  11  12
ENDBRANCH   1  11
TORSDOF 14
ENDMDL
MODEL 7
REMARK VINA RESULT:    -3.911     20.834     24.168
REMARK INTER + INTRA:          -7.919
REMARK INTER:                  -5.288
REMARK INTRA:                  -2.631
REMARK UNBOUND:                -0.807
REMARK SMILES CCCCCCCCCCCCCCCC(=O)[O-]
REMARK SMILES IDX 9 1 10 2 11 3 12 4 13 5 14 6 15 7 16 8 17 9 18 10 8 11 7 12
REMARK SMILES IDX 6 13 5 14 4 15 3 16 2 17 1 18
REMARK H PARENT
REMARK Flexibility Score: inf
ROOT
ATOM      1  C   UNL     1     -21.239  -1.431 -15.109  1.00  0.00     0.000 C 
ENDROOT
BRANCH   1   2
ATOM      2  C   UNL     1     -20.141  -2.496 -15.250  1.00  0.00     0.000 C 
BRANCH   2   3
ATOM      3  C   UNL     1     -20.226  -3.264 -16.581  1.00  0.00     0.000 C 
BRANCH   3   4
ATOM      4  C   UNL     1     -20.293  -4.792 -16.367  1.00  0.00     0.000 C 
BRANCH   4   5
ATOM      5  C   UNL     1     -20.020  -5.224 -14.916  1.00  0.00     0.000 C 
BRANCH   5   6
ATOM      6  C   UNL     1     -20.720  -6.541 -14.543  1.00  0.00     0.006 C 
BRANCH   6   7
ATOM      7  C   UNL     1     -19.725  -7.616 -14.085  1.00  0.00     0.053 C 
BRANCH   7   8
ATOM      8  C   UNL     1     -20.315  -8.514 -13.041  1.00  0.00     0.041 C 
ATOM      9  O   UNL     1     -20.932  -8.023 -12.060  1.00  0.00    -0.550 OA
ATOM     10  O   UNL     1     -20.208  -9.893 -13.167  1.00  0.00    -0.550 OA
ENDBRANCH   7   8
ENDBRANCH   6   7
ENDBRANCH   5   6
ENDBRANCH   4   5
ENDBRANCH   3   4
ENDBRANCH   2   3
ENDBRANCH   1   2
BRANCH   1  11
ATOM     11  C   UNL     1     -22.306  -1.531 -16.209  1.00  0.00     0.000 C 
BRANCH  11  12
ATOM     12  C   UNL     1     -23.623  -2.081 -15.647  1.00  0.00    -0.000 C 
BRANCH  12  13
ATOM     13  C   UNL     1     -23.861  -3.525 -16.116  1.00  0.00    -0.000 C 
BRANCH  13  14
ATOM     14  C   UNL     1     -23.834  -4.534 -14.957  1.00  0.00    -0.000 C 
BRANCH  14  15
ATOM     15  C   UNL     1     -23.884  -3.852 -13.579  1.00  0.00    -0.000 C 
BRANCH  15  16
ATOM     16  C   UNL     1     -22.851  -4.426 -12.592  1.00  0.00    -0.000 C 
BRANCH  16  17
ATOM     17  C   UNL     1     -21.863  -3.393 -12.021  1.00  0.00    -0.003 C 
ATOM     18  C   UNL     1     -22.515  -2.042 -11.727  1.00  0.00     0.004 C 
ENDBRANCH  16  17
ENDBRANCH  15  16
ENDBRANCH  14  15
ENDBRANCH  13  14
ENDBRANCH  12  13
ENDBRANCH  11  12
ENDBRANCH   1  11
TORSDOF 14
ENDMDL
MODEL 8
REMARK VINA RESULT:    -3.884     20.664     23.277
REMARK INTER + INTRA:          -7.870
REMARK INTER:                  -6.040
REMARK INTRA:                  -1.830
REMARK UNBOUND:                -0.807
REMARK SMILES CCCCCCCCCCCCCCCC(=O)[O-]
REMARK SMILES IDX 9 1 10 2 11 3 12 4 13 5 14 6 15 7 16 8 17 9 18 10 8 11 7 12
REMARK SMILES IDX 6 13 5 14 4 15 3 16 2 17 1 18
REMARK H PARENT
REMARK Flexibility Score: inf
ROOT
ATOM      1  C   UNL     1     -22.397  -4.195 -12.593  1.00  0.00     0.000 C 
ENDROOT
BRANCH   1   2
ATOM      2  C   UNL     1     -22.111  -2.794 -12.033  1.00  0.00     0.000 C 
BRANCH   2   3
ATOM      3  C   UNL     1     -22.993  -1.707 -12.673  1.00  0.00     0.000 C 
BRANCH   3   4
ATOM      4  C   UNL     1     -22.266  -0.967 -13.816  1.00  0.00     0.000 C 
BRANCH   4   5
ATOM      5  C   UNL     1     -22.756  -1.366 -15.219  1.00  0.00     0.000 C 
BRANCH   5   6
ATOM      6  C   UNL     1     -21.610  -1.777 -16.157  1.00  0.00     0.006 C 
BRANCH   6   7
ATOM      7  C   UNL     1     -20.252  -1.789 -15.443  1.00  0.00     0.053 C 
BRANCH   7   8
ATOM      8  C   UNL     1     -19.448  -3.003 -15.793  1.00  0.00     0.041 C 
ATOM      9  O   UNL     1     -19.311  -3.934 -14.957  1.00  0.00    -0.550 OA
ATOM     10  O   UNL     1     -18.875  -3.120 -17.053  1.00  0.00    -0.550 OA
ENDBRANCH   7   8
ENDBRANCH   6   7
ENDBRANCH   5   6
ENDBRANCH   4   5
ENDBRANCH   3   4
ENDBRANCH   2   3
ENDBRANCH   1   2
BRANCH   1  11
ATOM     11  C   UNL     1     -23.795  -4.309 -13.219  1.00  0.00     0.000 C 
BRANCH  11  12
ATOM     12  C   UNL     1     -23.724  -4.965 -14.603  1.00  0.00    -0.000 C 
BRANCH  12  13
ATOM     13  C   UNL     1     -22.270  -5.270 -14.994  1.00  0.00    -0.000 C 
BRANCH  13  14
ATOM     14  C   UNL     1     -22.015  -6.773 -15.194  1.00  0.00    -0.000 C 
BRANCH  14  15
ATOM     15  C   UNL     1     -20.725  -7.250 -14.505  1.00  0.00    -0.000 C 
BRANCH  15  16
ATOM     16  C   UNL     1     -20.777  -7.102 -12.974  1.00  0.00    -0.000 C 
BRANCH  16  17
ATOM     17  C   UNL     1     -20.532  -8.405 -12.192  1.00  0.00    -0.003 C 
ATOM     18  C   UNL     1     -20.233  -9.599 -13.099  1.00  0.00     0.004 C 
ENDBRANCH  16  17
ENDBRANCH  15  16
ENDBRANCH  14  15
ENDBRANCH  13  14
ENDBRANCH  12  13
ENDBRANCH  11  12
ENDBRANCH   1  11
TORSDOF 14
ENDMDL
MODEL 9
REMARK VINA RESULT:    -3.846     20.910     23.468
REMARK INTER + INTRA:          -7.800
REMARK INTER:                  -5.729
REMARK INTRA:                  -2.071
REMARK UNBOUND:                -0.807
REMARK SMILES CCCCCCCCCCCCCCCC(=O)[O-]
REMARK SMILES IDX 9 1 10 2 11 3 12 4 13 5 14 6 15 7 16 8 17 9 18 10 8 11 7 12
REMARK SMILES IDX 6 13 5 14 4 15 3 16 2 17 1 18
REMARK H PARENT
REMARK Flexibility Score: inf
ROOT
ATOM      1  C   UNL     1     -24.549  -4.967 -14.595  1.00  0.00     0.000 C 
ENDROOT
BRANCH   1   2
ATOM      2  C   UNL     1     -24.883  -3.564 -14.065  1.00  0.00     0.000 C 
BRANCH   2   3
ATOM      3  C   UNL     1     -24.034  -3.173 -12.843  1.00  0.00     0.000 C 
BRANCH   3   4
ATOM      4  C   UNL     1     -22.836  -4.125 -12.639  1.00  0.00     0.000 C 
BRANCH   4   5
ATOM      5  C   UNL     1     -21.473  -3.470 -12.923  1.00  0.00     0.000 C 
BRANCH   5   6
ATOM      6  C   UNL     1     -21.548  -2.374 -13.997  1.00  0.00     0.006 C 
BRANCH   6   7
ATOM      7  C   UNL     1     -21.323  -2.930 -15.410  1.00  0.00     0.053 C 
BRANCH   7   8
ATOM      8  C   UNL     1     -19.881  -2.872 -15.809  1.00  0.00     0.041 C 
ATOM      9  O   UNL     1     -19.371  -3.809 -16.477  1.00  0.00    -0.550 OA
ATOM     10  O   UNL     1     -19.108  -1.768 -15.470  1.00  0.00    -0.550 OA
ENDBRANCH   7   8
ENDBRANCH   6   7
ENDBRANCH   5   6
ENDBRANCH   4   5
ENDBRANCH   3   4
ENDBRANCH   2   3
ENDBRANCH   1   2
BRANCH   1  11
ATOM     11  C   UNL     1     -24.172  -4.963 -16.084  1.00  0.00     0.000 C 
BRANCH  11  12
ATOM     12  C   UNL     1     -23.617  -6.327 -16.512  1.00  0.00    -0.000 C 
BRANCH  12  13
ATOM     13  C   UNL     1     -22.090  -6.376 -16.347  1.00  0.00    -0.000 C 
BRANCH  13  14
ATOM     14  C   UNL     1     -21.657  -7.137 -15.083  1.00  0.00    -0.000 C 
BRANCH  14  15
ATOM     15  C   UNL     1     -20.332  -6.613 -14.502  1.00  0.00    -0.000 C 
BRANCH  15  16
ATOM     16  C   UNL     1     -20.189  -6.897 -12.996  1.00  0.00    -0.000 C 
BRANCH  16  17
ATOM     17  C   UNL     1     -20.839  -8.210 -12.523  1.00  0.00    -0.003 C 
ATOM     18  C   UNL     1     -20.060  -9.452 -12.956  1.00  0.00     0.004 C 
ENDBRANCH  16  17
ENDBRANCH  15  16
ENDBRANCH  14  15
ENDBRANCH  13  14
ENDBRANCH  12  13
ENDBRANCH  11  12
ENDBRANCH   1  11
TORSDOF 14
ENDMDL
