MODEL 1
REMARK VINA RESULT:    -4.460      0.000      0.000
REMARK INTER + INTRA:          -6.172
REMARK INTER:                  -5.503
REMARK INTRA:                  -0.669
REMARK UNBOUND:                -0.669
REMARK SMILES C=CC(=C)CCC=C(C)C
REMARK SMILES IDX 5 1 6 2 7 3 9 4 8 5 10 6 3 7 4 8 2 9 1 10
REMARK H PARENT
REMARK Flexibility Score: inf
ROOT
ATOM      1  C   UNL     1       9.519   4.303  28.534  1.00  0.00     0.039 C 
ENDROOT
BRANCH   1   2
ATOM      2  C   UNL     1       9.961   5.043  27.267  1.00  0.00     0.032 C 
BRANCH   2   3
ATOM      3  C   UNL     1      11.460   5.210  27.242  1.00  0.00    -0.028 C 
ATOM      4  C   UNL     1      11.342   7.706  27.074  1.00  0.00     0.039 C 
ATOM      5  C   UNL     1      12.096   6.398  27.130  1.00  0.00    -0.080 C 
ATOM      6  C   UNL     1      13.601   6.404  27.078  1.00  0.00     0.039 C 
ENDBRANCH   2   3
ENDBRANCH   1   2
BRANCH   1   7
ATOM      7  C   UNL     1       9.528   5.232  29.728  1.00  0.00    -0.055 C 
ATOM      8  C   UNL     1      10.011   4.787  30.893  1.00  0.00     0.012 C 
BRANCH   7   9
ATOM      9  C   UNL     1       8.975   6.610  29.665  1.00  0.00    -0.005 C 
ATOM     10  C   UNL     1       8.978   7.462  30.691  1.00  0.00     0.009 C 
ENDBRANCH   7   9
ENDBRANCH   1   7
TORSDOF 4
ENDMDL
MODEL 2
REMARK VINA RESULT:    -4.447      0.979      1.605
REMARK INTER + INTRA:          -6.156
REMARK INTER:                  -5.302
REMARK INTRA:                  -0.854
REMARK UNBOUND:                -0.669
REMARK SMILES C=CC(=C)CCC=C(C)C
REMARK SMILES IDX 5 1 6 2 7 3 9 4 8 5 10 6 3 7 4 8 2 9 1 10
REMARK H PARENT
REMARK Flexibility Score: inf
ROOT
ATOM      1  C   UNL     1       9.372   4.176  29.247  1.00  0.00     0.039 C 
ENDROOT
BRANCH   1   2
ATOM      2  C   UNL     1      10.076   4.049  27.892  1.00  0.00     0.032 C 
BRANCH   2   3
ATOM      3  C   UNL     1       9.967   5.335  27.110  1.00  0.00    -0.028 C 
ATOM      4  C   UNL     1      12.426   5.793  27.210  1.00  0.00     0.039 C 
ATOM      5  C   UNL     1      11.010   6.143  26.818  1.00  0.00    -0.080 C 
ATOM      6  C   UNL     1      10.741   7.418  26.063  1.00  0.00     0.039 C 
ENDBRANCH   2   3
ENDBRANCH   1   2
BRANCH   1   7
ATOM      7  C   UNL     1      10.200   5.007  30.204  1.00  0.00    -0.055 C 
ATOM      8  C   UNL     1      11.402   4.559  30.581  1.00  0.00     0.012 C 
BRANCH   7   9
ATOM      9  C   UNL     1       9.704   6.285  30.778  1.00  0.00    -0.005 C 
ATOM     10  C   UNL     1       8.970   7.170  30.104  1.00  0.00     0.009 C 
ENDBRANCH   7   9
ENDBRANCH   1   7
TORSDOF 4
ENDMDL
MODEL 3
REMARK VINA RESULT:    -4.410      0.624      1.700
REMARK INTER + INTRA:          -6.111
REMARK INTER:                  -5.322
REMARK INTRA:                  -0.789
REMARK UNBOUND:                -0.669
REMARK SMILES C=CC(=C)CCC=C(C)C
REMARK SMILES IDX 5 1 6 2 7 3 9 4 8 5 10 6 3 7 4 8 2 9 1 10
REMARK H PARENT
REMARK Flexibility Score: inf
ROOT
ATOM      1  C   UNL     1       9.401   4.454  28.845  1.00  0.00     0.039 C 
ENDROOT
BRANCH   1   2
ATOM      2  C   UNL     1       9.791   5.089  27.505  1.00  0.00     0.032 C 
BRANCH   2   3
ATOM      3  C   UNL     1      11.291   5.191  27.379  1.00  0.00    -0.028 C 
ATOM      4  C   UNL     1      11.263   7.683  27.139  1.00  0.00     0.039 C 
ATOM      5  C   UNL     1      11.965   6.346  27.189  1.00  0.00    -0.080 C 
ATOM      6  C   UNL     1      13.463   6.287  27.041  1.00  0.00     0.039 C 
ENDBRANCH   2   3
ENDBRANCH   1   2
BRANCH   1   7
ATOM      7  C   UNL     1       9.629   5.424  29.983  1.00  0.00    -0.055 C 
ATOM      8  C   UNL     1       9.034   6.621  29.947  1.00  0.00     0.012 C 
BRANCH   7   9
ATOM      9  C   UNL     1      10.531   5.111  31.122  1.00  0.00    -0.005 C 
ATOM     10  C   UNL     1      11.691   4.464  31.000  1.00  0.00     0.009 C 
ENDBRANCH   7   9
ENDBRANCH   1   7
TORSDOF 4
ENDMDL
MODEL 4
REMARK VINA RESULT:    -4.396     14.537     16.218
REMARK INTER + INTRA:          -6.093
REMARK INTER:                  -5.202
REMARK INTRA:                  -0.891
REMARK UNBOUND:                -0.669
REMARK SMILES C=CC(=C)CCC=C(C)C
REMARK SMILES IDX 5 1 6 2 7 3 9 4 8 5 10 6 3 7 4 8 2 9 1 10
REMARK H PARENT
REMARK Flexibility Score: inf
ROOT
ATOM      1  C   UNL     1       7.979   5.986  12.759  1.00  0.00     0.039 C 
ENDROOT
BRANCH   1   2
ATOM      2  C   UNL     1       7.901   6.337  14.249  1.00  0.00     0.032 C 
BRANCH   2   3
ATOM      3  C   UNL     1       6.537   6.007  14.805  1.00  0.00    -0.028 C 
ATOM      4  C   UNL     1       5.859   8.409  15.006  1.00  0.00     0.039 C 
ATOM      5  C   UNL     1       5.618   6.927  15.173  1.00  0.00    -0.080 C 
ATOM      6  C   UNL     1       4.313   6.447  15.750  1.00  0.00     0.039 C 
ENDBRANCH   2   3
ENDBRANCH   1   2
BRANCH   1   7
ATOM      7  C   UNL     1       7.548   7.161  11.909  1.00  0.00    -0.055 C 
ATOM      8  C   UNL     1       8.233   8.307  11.990  1.00  0.00     0.012 C 
BRANCH   7   9
ATOM      9  C   UNL     1       6.361   7.102  11.018  1.00  0.00    -0.005 C 
ATOM     10  C   UNL     1       5.280   6.361  11.263  1.00  0.00     0.009 C 
ENDBRANCH   7   9
ENDBRANCH   1   7
TORSDOF 4
ENDMDL
MODEL 5
REMARK VINA RESULT:    -4.343     14.453     16.114
REMARK INTER + INTRA:          -6.028
REMARK INTER:                  -5.157
REMARK INTRA:                  -0.870
REMARK UNBOUND:                -0.669
REMARK SMILES C=CC(=C)CCC=C(C)C
REMARK SMILES IDX 5 1 6 2 7 3 9 4 8 5 10 6 3 7 4 8 2 9 1 10
REMARK H PARENT
REMARK Flexibility Score: inf
ROOT
ATOM      1  C   UNL     1       8.147   5.817  13.180  1.00  0.00     0.039 C 
ENDROOT
BRANCH   1   2
ATOM      2  C   UNL     1       7.119   5.480  14.266  1.00  0.00     0.032 C 
BRANCH   2   3
ATOM      3  C   UNL     1       6.719   6.721  15.025  1.00  0.00    -0.028 C 
ATOM      4  C   UNL     1       4.432   6.801  14.009  1.00  0.00     0.039 C 
ATOM      5  C   UNL     1       5.524   7.341  14.902  1.00  0.00    -0.080 C 
ATOM      6  C   UNL     1       5.282   8.597  15.696  1.00  0.00     0.039 C 
ENDBRANCH   2   3
ENDBRANCH   1   2
BRANCH   1   7
ATOM      7  C   UNL     1       7.469   6.425  11.972  1.00  0.00    -0.055 C 
ATOM      8  C   UNL     1       6.748   5.638  11.166  1.00  0.00     0.012 C 
BRANCH   7   9
ATOM      9  C   UNL     1       7.614   7.862  11.620  1.00  0.00    -0.005 C 
ATOM     10  C   UNL     1       8.302   8.742  12.348  1.00  0.00     0.009 C 
ENDBRANCH   7   9
ENDBRANCH   1   7
TORSDOF 4
ENDMDL
MODEL 6
REMARK VINA RESULT:    -4.343      1.583      3.246
REMARK INTER + INTRA:          -6.028
REMARK INTER:                  -5.147
REMARK INTRA:                  -0.881
REMARK UNBOUND:                -0.669
REMARK SMILES C=CC(=C)CCC=C(C)C
REMARK SMILES IDX 5 1 6 2 7 3 9 4 8 5 10 6 3 7 4 8 2 9 1 10
REMARK H PARENT
REMARK Flexibility Score: inf
ROOT
ATOM      1  C   UNL     1       8.755   6.432  27.750  1.00  0.00     0.039 C 
ENDROOT
BRANCH   1   2
ATOM      2  C   UNL     1       9.576   5.140  27.689  1.00  0.00     0.032 C 
BRANCH   2   3
ATOM      3  C   UNL     1       9.598   4.457  29.035  1.00  0.00    -0.028 C 
ATOM      4  C   UNL     1      12.026   4.936  29.419  1.00  0.00     0.039 C 
ATOM      5  C   UNL     1      10.696   4.336  29.813  1.00  0.00    -0.080 C 
ATOM      6  C   UNL     1      10.574   3.592  31.116  1.00  0.00     0.039 C 
ENDBRANCH   2   3
ENDBRANCH   1   2
BRANCH   1   7
ATOM      7  C   UNL     1       9.585   7.568  28.307  1.00  0.00    -0.055 C 
ATOM      8  C   UNL     1      10.640   8.004  27.611  1.00  0.00     0.012 C 
BRANCH   7   9
ATOM      9  C   UNL     1       9.296   8.190  29.625  1.00  0.00    -0.005 C 
ATOM     10  C   UNL     1       8.875   7.511  30.693  1.00  0.00     0.009 C 
ENDBRANCH   7   9
ENDBRANCH   1   7
TORSDOF 4
ENDMDL
MODEL 7
REMARK VINA RESULT:    -4.278      1.251      2.582
REMARK INTER + INTRA:          -5.948
REMARK INTER:                  -5.137
REMARK INTRA:                  -0.811
REMARK UNBOUND:                -0.669
REMARK SMILES C=CC(=C)CCC=C(C)C
REMARK SMILES IDX 5 1 6 2 7 3 9 4 8 5 10 6 3 7 4 8 2 9 1 10
REMARK H PARENT
REMARK Flexibility Score: inf
ROOT
ATOM      1  C   UNL     1       8.982   6.499  28.079  1.00  0.00     0.039 C 
ENDROOT
BRANCH   1   2
ATOM      2  C   UNL     1      10.117   7.518  27.922  1.00  0.00     0.032 C 
BRANCH   2   3
ATOM      3  C   UNL     1      10.721   7.435  26.542  1.00  0.00    -0.028 C 
ATOM      4  C   UNL     1      12.636   6.005  27.290  1.00  0.00     0.039 C 
ATOM      5  C   UNL     1      11.866   6.780  26.246  1.00  0.00    -0.080 C 
ATOM      6  C   UNL     1      12.369   6.818  24.828  1.00  0.00     0.039 C 
ENDBRANCH   2   3
ENDBRANCH   1   2
BRANCH   1   7
ATOM      7  C   UNL     1       9.366   5.419  29.067  1.00  0.00    -0.055 C 
ATOM      8  C   UNL     1       9.459   5.728  30.364  1.00  0.00     0.012 C 
BRANCH   7   9
ATOM      9  C   UNL     1       9.687   4.032  28.640  1.00  0.00    -0.005 C 
ATOM     10  C   UNL     1       9.705   3.628  27.369  1.00  0.00     0.009 C 
ENDBRANCH   7   9
ENDBRANCH   1   7
TORSDOF 4
ENDMDL
MODEL 8
REMARK VINA RESULT:    -4.269     13.984     15.787
REMARK INTER + INTRA:          -5.936
REMARK INTER:                  -5.160
REMARK INTRA:                  -0.776
REMARK UNBOUND:                -0.669
REMARK SMILES C=CC(=C)CCC=C(C)C
REMARK SMILES IDX 5 1 6 2 7 3 9 4 8 5 10 6 3 7 4 8 2 9 1 10
REMARK H PARENT
REMARK Flexibility Score: inf
ROOT
ATOM      1  C   UNL     1       8.049   7.828  14.344  1.00  0.00     0.039 C 
ENDROOT
BRANCH   1   2
ATOM      2  C   UNL     1       6.710   8.480  14.706  1.00  0.00     0.032 C 
BRANCH   2   3
ATOM      3  C   UNL     1       5.892   7.566  15.585  1.00  0.00    -0.028 C 
ATOM      4  C   UNL     1       4.287   6.977  13.756  1.00  0.00     0.039 C 
ATOM      5  C   UNL     1       4.786   6.903  15.180  1.00  0.00    -0.080 C 
ATOM      6  C   UNL     1       4.048   6.056  16.183  1.00  0.00     0.039 C 
ENDBRANCH   2   3
ENDBRANCH   1   2
BRANCH   1   7
ATOM      7  C   UNL     1       8.129   7.559  12.857  1.00  0.00    -0.055 C 
ATOM      8  C   UNL     1       8.419   8.569  12.029  1.00  0.00     0.012 C 
BRANCH   7   9
ATOM      9  C   UNL     1       7.851   6.219  12.277  1.00  0.00    -0.005 C 
ATOM     10  C   UNL     1       7.428   5.173  12.986  1.00  0.00     0.009 C 
ENDBRANCH   7   9
ENDBRANCH   1   7
TORSDOF 4
ENDMDL
MODEL 9
REMARK VINA RESULT:    -4.091     14.081     15.460
REMARK INTER + INTRA:          -5.717
REMARK INTER:                  -4.779
REMARK INTRA:                  -0.938
REMARK UNBOUND:                -0.669
REMARK SMILES C=CC(=C)CCC=C(C)C
REMARK SMILES IDX 5 1 6 2 7 3 9 4 8 5 10 6 3 7 4 8 2 9 1 10
REMARK H PARENT
REMARK Flexibility Score: inf
ROOT
ATOM      1  C   UNL     1       6.894   9.034  14.472  1.00  0.00     0.039 C 
ENDROOT
BRANCH   1   2
ATOM      2  C   UNL     1       7.996   8.250  13.751  1.00  0.00     0.032 C 
BRANCH   2   3
ATOM      3  C   UNL     1       7.444   7.548  12.535  1.00  0.00    -0.028 C 
ATOM      4  C   UNL     1       7.688   5.268  13.541  1.00  0.00     0.039 C 
ATOM      5  C   UNL     1       7.322   6.207  12.415  1.00  0.00    -0.080 C 
ATOM      6  C   UNL     1       6.790   5.647  11.123  1.00  0.00     0.039 C 
ENDBRANCH   2   3
ENDBRANCH   1   2
BRANCH   1   7
ATOM      7  C   UNL     1       6.039   8.109  15.310  1.00  0.00    -0.055 C 
ATOM      8  C   UNL     1       6.596   7.468  16.343  1.00  0.00     0.012 C 
BRANCH   7   9
ATOM      9  C   UNL     1       4.609   7.851  14.998  1.00  0.00    -0.005 C 
ATOM     10  C   UNL     1       4.169   6.765  14.361  1.00  0.00     0.009 C 
ENDBRANCH   7   9
ENDBRANCH   1   7
TORSDOF 4
ENDMDL
