MODEL 1
REMARK VINA RESULT:    -7.481      0.000      0.000
REMARK INTER + INTRA:          -9.333
REMARK INTER:                  -9.011
REMARK INTRA:                  -0.321
REMARK UNBOUND:                -0.321
REMARK SMILES O=c1c(O)c(-c2ccc(O)c(O)c2)oc2cc(O)cc(O)c12
REMARK SMILES IDX 5 1 3 2 2 3 1 4 22 5 20 6 19 7 17 8 16 9 15 10 14 11 6 12
REMARK SMILES IDX 7 13 8 14 9 15 13 16 11 17 10 18 12 20 4 22 21 24 18 26
REMARK H PARENT 10 19 12 21 4 23 21 25 18 27
REMARK Flexibility Score: inf
ROOT
ATOM      1  C   UNL     1     -34.840  -3.884 -17.344  1.00  0.00     0.180 A 
ATOM      2  C   UNL     1     -35.642  -2.966 -16.646  1.00  0.00     0.208 A 
ATOM      3  C   UNL     1     -36.709  -3.447 -15.869  1.00  0.00     0.238 A 
ATOM      4  O   UNL     1     -37.457  -2.617 -15.290  1.00  0.00    -0.285 OA
ATOM      5  C   UNL     1     -36.950  -4.839 -15.790  1.00  0.00     0.111 A 
ATOM      6  C   UNL     1     -37.979  -5.440 -15.002  1.00  0.00     0.134 A 
ATOM      7  C   UNL     1     -38.209  -6.818 -15.101  1.00  0.00     0.093 A 
ATOM      8  C   UNL     1     -37.406  -7.626 -15.910  1.00  0.00     0.123 A 
ATOM      9  C   UNL     1     -36.362  -7.058 -16.636  1.00  0.00     0.094 A 
ATOM     10  C   UNL     1     -36.131  -5.681 -16.586  1.00  0.00     0.146 A 
ATOM     11  O   UNL     1     -35.132  -5.179 -17.303  1.00  0.00    -0.452 OA
ENDROOT
BRANCH   1  12
ATOM     12  C   UNL     1     -33.682  -3.456 -18.163  1.00  0.00     0.025 A 
ATOM     13  C   UNL     1     -32.379  -3.442 -17.636  1.00  0.00     0.016 A 
ATOM     14  C   UNL     1     -31.298  -3.057 -18.434  1.00  0.00     0.051 A 
ATOM     15  C   UNL     1     -31.501  -2.694 -19.772  1.00  0.00     0.157 A 
ATOM     16  C   UNL     1     -33.877  -3.110 -19.510  1.00  0.00     0.062 A 
ATOM     17  C   UNL     1     -32.798  -2.723 -20.312  1.00  0.00     0.158 A 
BRANCH  15  18
ATOM     18  O   UNL     1     -30.421  -2.308 -20.565  1.00  0.00    -0.504 OA
ATOM     19  H   UNL     1     -29.897  -2.982 -21.111  1.00  0.00     0.293 HD
ENDBRANCH  15  18
BRANCH  17  20
ATOM     20  O   UNL     1     -33.032  -2.374 -21.642  1.00  0.00    -0.504 OA
ATOM     21  H   UNL     1     -32.951  -3.044 -22.396  1.00  0.00     0.293 HD
ENDBRANCH  17  20
ENDBRANCH   1  12
BRANCH   2  22
ATOM     22  O   UNL     1     -35.400  -1.594 -16.756  1.00  0.00    -0.502 OA
ATOM     23  H   UNL     1     -34.976  -1.055 -16.011  1.00  0.00     0.293 HD
ENDBRANCH   2  22
BRANCH   6  24
ATOM     24  O   UNL     1     -38.777  -4.737 -14.094  1.00  0.00    -0.507 OA
ATOM     25  H   UNL     1     -39.327  -5.162 -13.363  1.00  0.00     0.293 HD
ENDBRANCH   6  24
BRANCH   8  26
ATOM     26  O   UNL     1     -37.632  -8.998 -15.989  1.00  0.00    -0.508 OA
ATOM     27  H   UNL     1     -38.196  -9.401 -16.727  1.00  0.00     0.293 HD
ENDBRANCH   8  26
TORSDOF 6
ENDMDL
MODEL 2
REMARK VINA RESULT:    -7.461      0.888      1.549
REMARK INTER + INTRA:          -9.309
REMARK INTER:                  -8.987
REMARK INTRA:                  -0.322
REMARK UNBOUND:                -0.321
REMARK SMILES O=c1c(O)c(-c2ccc(O)c(O)c2)oc2cc(O)cc(O)c12
REMARK SMILES IDX 5 1 3 2 2 3 1 4 22 5 20 6 19 7 17 8 16 9 15 10 14 11 6 12
REMARK SMILES IDX 7 13 8 14 9 15 13 16 11 17 10 18 12 20 4 22 21 24 18 26
REMARK H PARENT 10 19 12 21 4 23 21 25 18 27
REMARK Flexibility Score: inf
ROOT
ATOM      1  C   UNL     1     -35.024  -4.092 -17.330  1.00  0.00     0.180 A 
ATOM      2  C   UNL     1     -35.624  -3.136 -16.492  1.00  0.00     0.208 A 
ATOM      3  C   UNL     1     -36.431  -3.574 -15.430  1.00  0.00     0.238 A 
ATOM      4  O   UNL     1     -37.010  -2.713 -14.716  1.00  0.00    -0.285 OA
ATOM      5  C   UNL     1     -36.615  -4.960 -15.209  1.00  0.00     0.111 A 
ATOM      6  C   UNL     1     -37.381  -5.516 -14.139  1.00  0.00     0.134 A 
ATOM      7  C   UNL     1     -37.603  -6.898 -14.095  1.00  0.00     0.093 A 
ATOM      8  C   UNL     1     -37.033  -7.750 -15.045  1.00  0.00     0.123 A 
ATOM      9  C   UNL     1     -36.236  -7.222 -16.058  1.00  0.00     0.094 A 
ATOM     10  C   UNL     1     -36.027  -5.845 -16.150  1.00  0.00     0.146 A 
ATOM     11  O   UNL     1     -35.269  -5.383 -17.138  1.00  0.00    -0.452 OA
ENDROOT
BRANCH   1  12
ATOM     12  C   UNL     1     -34.139  -3.709 -18.455  1.00  0.00     0.025 A 
ATOM     13  C   UNL     1     -34.649  -3.501 -19.749  1.00  0.00     0.016 A 
ATOM     14  C   UNL     1     -33.800  -3.117 -20.789  1.00  0.00     0.051 A 
ATOM     15  C   UNL     1     -32.433  -2.922 -20.552  1.00  0.00     0.157 A 
ATOM     16  C   UNL     1     -32.772  -3.493 -18.218  1.00  0.00     0.062 A 
ATOM     17  C   UNL     1     -31.918  -3.110 -19.257  1.00  0.00     0.158 A 
BRANCH  15  18
ATOM     18  O   UNL     1     -31.587  -2.541 -21.592  1.00  0.00    -0.504 OA
ATOM     19  H   UNL     1     -31.246  -3.212 -22.271  1.00  0.00     0.293 HD
ENDBRANCH  15  18
BRANCH  17  20
ATOM     20  O   UNL     1     -30.564  -2.917 -18.986  1.00  0.00    -0.504 OA
ATOM     21  H   UNL     1     -30.179  -3.032 -18.056  1.00  0.00     0.293 HD
ENDBRANCH  17  20
ENDBRANCH   1  12
BRANCH   2  22
ATOM     22  O   UNL     1     -35.447  -1.772 -16.741  1.00  0.00    -0.502 OA
ATOM     23  H   UNL     1     -34.531  -1.349 -16.821  1.00  0.00     0.293 HD
ENDBRANCH   2  22
BRANCH   6  24
ATOM     24  O   UNL     1     -37.915  -4.763 -13.090  1.00  0.00    -0.507 OA
ATOM     25  H   UNL     1     -38.891  -4.742 -12.836  1.00  0.00     0.293 HD
ENDBRANCH   6  24
BRANCH   8  26
ATOM     26  O   UNL     1     -37.246  -9.125 -14.983  1.00  0.00    -0.508 OA
ATOM     27  H   UNL     1     -36.479  -9.784 -15.042  1.00  0.00     0.293 HD
ENDBRANCH   8  26
TORSDOF 6
ENDMDL
MODEL 3
REMARK VINA RESULT:    -7.436      1.551      1.925
REMARK INTER + INTRA:          -9.278
REMARK INTER:                  -9.419
REMARK INTRA:                   0.141
REMARK UNBOUND:                -0.321
REMARK SMILES O=c1c(O)c(-c2ccc(O)c(O)c2)oc2cc(O)cc(O)c12
REMARK SMILES IDX 5 1 3 2 2 3 1 4 22 5 20 6 19 7 17 8 16 9 15 10 14 11 6 12
REMARK SMILES IDX 7 13 8 14 9 15 13 16 11 17 10 18 12 20 4 22 21 24 18 26
REMARK H PARENT 10 19 12 21 4 23 21 25 18 27
REMARK Flexibility Score: inf
ROOT
ATOM      1  C   UNL     1     -35.950  -4.688 -17.042  1.00  0.00     0.180 A 
ATOM      2  C   UNL     1     -36.158  -3.714 -16.051  1.00  0.00     0.208 A 
ATOM      3  C   UNL     1     -36.963  -4.031 -14.944  1.00  0.00     0.238 A 
ATOM      4  O   UNL     1     -37.190  -3.137 -14.088  1.00  0.00    -0.285 OA
ATOM      5  C   UNL     1     -37.534  -5.321 -14.835  1.00  0.00     0.111 A 
ATOM      6  C   UNL     1     -38.333  -5.763 -13.737  1.00  0.00     0.134 A 
ATOM      7  C   UNL     1     -38.955  -7.016 -13.797  1.00  0.00     0.093 A 
ATOM      8  C   UNL     1     -38.754  -7.869 -14.885  1.00  0.00     0.123 A 
ATOM      9  C   UNL     1     -37.928  -7.470 -15.934  1.00  0.00     0.094 A 
ATOM     10  C   UNL     1     -37.324  -6.212 -15.919  1.00  0.00     0.146 A 
ATOM     11  O   UNL     1     -36.553  -5.866 -16.945  1.00  0.00    -0.452 OA
ENDROOT
BRANCH   1  12
ATOM     12  C   UNL     1     -35.094  -4.437 -18.226  1.00  0.00     0.025 A 
ATOM     13  C   UNL     1     -33.910  -3.686 -18.127  1.00  0.00     0.016 A 
ATOM     14  C   UNL     1     -33.106  -3.482 -19.251  1.00  0.00     0.051 A 
ATOM     15  C   UNL     1     -33.465  -4.037 -20.487  1.00  0.00     0.157 A 
ATOM     16  C   UNL     1     -35.439  -5.008 -19.462  1.00  0.00     0.062 A 
ATOM     17  C   UNL     1     -34.637  -4.806 -20.590  1.00  0.00     0.158 A 
BRANCH  15  18
ATOM     18  O   UNL     1     -32.662  -3.831 -21.608  1.00  0.00    -0.504 OA
ATOM     19  H   UNL     1     -32.887  -4.246 -22.505  1.00  0.00     0.293 HD
ENDBRANCH  15  18
BRANCH  17  20
ATOM     20  O   UNL     1     -35.018  -5.378 -21.804  1.00  0.00    -0.504 OA
ATOM     21  H   UNL     1     -35.983  -5.604 -22.013  1.00  0.00     0.293 HD
ENDBRANCH  17  20
ENDBRANCH   1  12
BRANCH   2  22
ATOM     22  O   UNL     1     -35.603  -2.438 -16.190  1.00  0.00    -0.502 OA
ATOM     23  H   UNL     1     -36.055  -1.703 -16.719  1.00  0.00     0.293 HD
ENDBRANCH   2  22
BRANCH   6  24
ATOM     24  O   UNL     1     -38.522  -5.027 -12.564  1.00  0.00    -0.507 OA
ATOM     25  H   UNL     1     -38.126  -4.116 -12.386  1.00  0.00     0.293 HD
ENDBRANCH   6  24
BRANCH   8  26
ATOM     26  O   UNL     1     -39.363  -9.121 -14.928  1.00  0.00    -0.508 OA
ATOM     27  H   UNL     1     -39.301  -9.768 -14.151  1.00  0.00     0.293 HD
ENDBRANCH   8  26
TORSDOF 6
ENDMDL
MODEL 4
REMARK VINA RESULT:    -7.248      5.315      7.037
REMARK INTER + INTRA:          -9.052
REMARK INTER:                  -8.718
REMARK INTRA:                  -0.334
REMARK UNBOUND:                -0.321
REMARK SMILES O=c1c(O)c(-c2ccc(O)c(O)c2)oc2cc(O)cc(O)c12
REMARK SMILES IDX 5 1 3 2 2 3 1 4 22 5 20 6 19 7 17 8 16 9 15 10 14 11 6 12
REMARK SMILES IDX 7 13 8 14 9 15 13 16 11 17 10 18 12 20 4 22 21 24 18 26
REMARK H PARENT 10 19 12 21 4 23 21 25 18 27
REMARK Flexibility Score: inf
ROOT
ATOM      1  C   UNL     1     -37.517  -4.481 -12.876  1.00  0.00     0.180 A 
ATOM      2  C   UNL     1     -36.348  -5.178 -13.228  1.00  0.00     0.208 A 
ATOM      3  C   UNL     1     -36.462  -6.472 -13.760  1.00  0.00     0.238 A 
ATOM      4  O   UNL     1     -35.410  -7.112 -14.022  1.00  0.00    -0.285 OA
ATOM      5  C   UNL     1     -37.741  -7.047 -13.949  1.00  0.00     0.111 A 
ATOM      6  C   UNL     1     -37.975  -8.336 -14.517  1.00  0.00     0.134 A 
ATOM      7  C   UNL     1     -39.275  -8.857 -14.535  1.00  0.00     0.093 A 
ATOM      8  C   UNL     1     -40.357  -8.109 -14.065  1.00  0.00     0.123 A 
ATOM      9  C   UNL     1     -40.147  -6.826 -13.563  1.00  0.00     0.094 A 
ATOM     10  C   UNL     1     -38.857  -6.294 -13.499  1.00  0.00     0.146 A 
ATOM     11  O   UNL     1     -38.699  -5.072 -13.003  1.00  0.00    -0.452 OA
ENDROOT
BRANCH   1  12
ATOM     12  C   UNL     1     -37.480  -3.103 -12.332  1.00  0.00     0.025 A 
ATOM     13  C   UNL     1     -37.489  -1.982 -13.180  1.00  0.00     0.016 A 
ATOM     14  C   UNL     1     -37.478  -0.692 -12.644  1.00  0.00     0.051 A 
ATOM     15  C   UNL     1     -37.471  -0.502 -11.256  1.00  0.00     0.157 A 
ATOM     16  C   UNL     1     -37.494  -2.908 -10.941  1.00  0.00     0.062 A 
ATOM     17  C   UNL     1     -37.482  -1.618 -10.402  1.00  0.00     0.158 A 
BRANCH  15  18
ATOM     18  O   UNL     1     -37.458   0.786 -10.724  1.00  0.00    -0.504 OA
ATOM     19  H   UNL     1     -38.317   1.282 -10.515  1.00  0.00     0.293 HD
ENDBRANCH  15  18
BRANCH  17  20
ATOM     20  O   UNL     1     -37.482  -1.463  -9.015  1.00  0.00    -0.504 OA
ATOM     21  H   UNL     1     -36.724  -1.005  -8.524  1.00  0.00     0.293 HD
ENDBRANCH  17  20
ENDBRANCH   1  12
BRANCH   2  22
ATOM     22  O   UNL     1     -35.093  -4.600 -13.012  1.00  0.00    -0.502 OA
ATOM     23  H   UNL     1     -34.873  -4.076 -12.175  1.00  0.00     0.293 HD
ENDBRANCH   2  22
BRANCH   6  24
ATOM     24  O   UNL     1     -36.978  -9.125 -15.097  1.00  0.00    -0.507 OA
ATOM     25  H   UNL     1     -36.978 -10.133 -15.112  1.00  0.00     0.293 HD
ENDBRANCH   6  24
BRANCH   8  26
ATOM     26  O   UNL     1     -41.649  -8.629 -14.102  1.00  0.00    -0.508 OA
ATOM     27  H   UNL     1     -42.108  -8.970 -13.266  1.00  0.00     0.293 HD
ENDBRANCH   8  26
TORSDOF 6
ENDMDL
MODEL 5
REMARK VINA RESULT:    -7.207      1.910      2.744
REMARK INTER + INTRA:          -9.002
REMARK INTER:                  -8.758
REMARK INTRA:                  -0.244
REMARK UNBOUND:                -0.321
REMARK SMILES O=c1c(O)c(-c2ccc(O)c(O)c2)oc2cc(O)cc(O)c12
REMARK SMILES IDX 5 1 3 2 2 3 1 4 22 5 20 6 19 7 17 8 16 9 15 10 14 11 6 12
REMARK SMILES IDX 7 13 8 14 9 15 13 16 11 17 10 18 12 20 4 22 21 24 18 26
REMARK H PARENT 10 19 12 21 4 23 21 25 18 27
REMARK Flexibility Score: inf
ROOT
ATOM      1  C   UNL     1     -36.784  -4.788 -16.883  1.00  0.00     0.180 A 
ATOM      2  C   UNL     1     -37.290  -3.607 -16.313  1.00  0.00     0.208 A 
ATOM      3  C   UNL     1     -38.123  -3.699 -15.186  1.00  0.00     0.238 A 
ATOM      4  O   UNL     1     -38.617  -2.642 -14.713  1.00  0.00    -0.285 OA
ATOM      5  C   UNL     1     -38.427  -4.966 -14.635  1.00  0.00     0.111 A 
ATOM      6  C   UNL     1     -39.229  -5.174 -13.472  1.00  0.00     0.134 A 
ATOM      7  C   UNL     1     -39.572  -6.478 -13.093  1.00  0.00     0.093 A 
ATOM      8  C   UNL     1     -39.088  -7.583 -13.797  1.00  0.00     0.123 A 
ATOM      9  C   UNL     1     -38.257  -7.392 -14.899  1.00  0.00     0.094 A 
ATOM     10  C   UNL     1     -37.927  -6.103 -15.322  1.00  0.00     0.146 A 
ATOM     11  O   UNL     1     -37.140  -5.966 -16.384  1.00  0.00    -0.452 OA
ENDROOT
BRANCH   1  12
ATOM     12  C   UNL     1     -35.878  -4.772 -18.055  1.00  0.00     0.025 A 
ATOM     13  C   UNL     1     -36.334  -5.132 -19.336  1.00  0.00     0.016 A 
ATOM     14  C   UNL     1     -35.468  -5.086 -20.432  1.00  0.00     0.051 A 
ATOM     15  C   UNL     1     -34.141  -4.669 -20.268  1.00  0.00     0.157 A 
ATOM     16  C   UNL     1     -34.553  -4.335 -17.900  1.00  0.00     0.062 A 
ATOM     17  C   UNL     1     -33.683  -4.289 -18.995  1.00  0.00     0.158 A 
BRANCH  15  18
ATOM     18  O   UNL     1     -33.279  -4.626 -21.363  1.00  0.00    -0.504 OA
ATOM     19  H   UNL     1     -33.611  -4.384 -22.290  1.00  0.00     0.293 HD
ENDBRANCH  15  18
BRANCH  17  20
ATOM     20  O   UNL     1     -32.370  -3.862 -18.799  1.00  0.00    -0.504 OA
ATOM     21  H   UNL     1     -31.975  -3.741 -17.875  1.00  0.00     0.293 HD
ENDBRANCH  17  20
ENDBRANCH   1  12
BRANCH   2  22
ATOM     22  O   UNL     1     -36.995  -2.367 -16.886  1.00  0.00    -0.502 OA
ATOM     23  H   UNL     1     -36.603  -2.277 -17.815  1.00  0.00     0.293 HD
ENDBRANCH   2  22
BRANCH   6  24
ATOM     24  O   UNL     1     -39.686  -4.142 -12.646  1.00  0.00    -0.507 OA
ATOM     25  H   UNL     1     -39.106  -3.409 -12.267  1.00  0.00     0.293 HD
ENDBRANCH   6  24
BRANCH   8  26
ATOM     26  O   UNL     1     -39.421  -8.877 -13.403  1.00  0.00    -0.508 OA
ATOM     27  H   UNL     1     -38.757  -9.639 -13.469  1.00  0.00     0.293 HD
ENDBRANCH   8  26
TORSDOF 6
ENDMDL
MODEL 6
REMARK VINA RESULT:    -7.172      2.051      2.990
REMARK INTER + INTRA:          -8.961
REMARK INTER:                  -8.658
REMARK INTRA:                  -0.302
REMARK UNBOUND:                -0.321
REMARK SMILES O=c1c(O)c(-c2ccc(O)c(O)c2)oc2cc(O)cc(O)c12
REMARK SMILES IDX 5 1 3 2 2 3 1 4 22 5 20 6 19 7 17 8 16 9 15 10 14 11 6 12
REMARK SMILES IDX 7 13 8 14 9 15 13 16 11 17 10 18 12 20 4 22 21 24 18 26
REMARK H PARENT 10 19 12 21 4 23 21 25 18 27
REMARK Flexibility Score: inf
ROOT
ATOM      1  C   UNL     1     -37.209  -4.295 -15.969  1.00  0.00     0.180 A 
ATOM      2  C   UNL     1     -37.605  -3.337 -15.020  1.00  0.00     0.208 A 
ATOM      3  C   UNL     1     -38.408  -3.741 -13.941  1.00  0.00     0.238 A 
ATOM      4  O   UNL     1     -38.805  -2.868 -13.124  1.00  0.00    -0.285 OA
ATOM      5  C   UNL     1     -38.792  -5.097 -13.817  1.00  0.00     0.111 A 
ATOM      6  C   UNL     1     -39.572  -5.624 -12.742  1.00  0.00     0.134 A 
ATOM      7  C   UNL     1     -40.002  -6.955 -12.790  1.00  0.00     0.093 A 
ATOM      8  C   UNL     1     -39.627  -7.796 -13.840  1.00  0.00     0.123 A 
ATOM      9  C   UNL     1     -38.817  -7.308 -14.863  1.00  0.00     0.094 A 
ATOM     10  C   UNL     1     -38.402  -5.974 -14.862  1.00  0.00     0.146 A 
ATOM     11  O   UNL     1     -37.640  -5.546 -15.862  1.00  0.00    -0.452 OA
ENDROOT
BRANCH   1  12
ATOM     12  C   UNL     1     -36.341  -3.952 -17.120  1.00  0.00     0.025 A 
ATOM     13  C   UNL     1     -34.953  -3.794 -16.968  1.00  0.00     0.016 A 
ATOM     14  C   UNL     1     -34.151  -3.494 -18.072  1.00  0.00     0.051 A 
ATOM     15  C   UNL     1     -34.721  -3.361 -19.345  1.00  0.00     0.157 A 
ATOM     16  C   UNL     1     -36.905  -3.838 -18.402  1.00  0.00     0.062 A 
ATOM     17  C   UNL     1     -36.106  -3.537 -19.509  1.00  0.00     0.158 A 
BRANCH  15  18
ATOM     18  O   UNL     1     -33.919  -3.060 -20.445  1.00  0.00    -0.504 OA
ATOM     19  H   UNL     1     -33.860  -2.119 -20.817  1.00  0.00     0.293 HD
ENDBRANCH  15  18
BRANCH  17  20
ATOM     20  O   UNL     1     -36.703  -3.418 -20.764  1.00  0.00    -0.504 OA
ATOM     21  H   UNL     1     -37.059  -2.535 -21.110  1.00  0.00     0.293 HD
ENDBRANCH  17  20
ENDBRANCH   1  12
BRANCH   2  22
ATOM     22  O   UNL     1     -37.233  -1.998 -15.174  1.00  0.00    -0.502 OA
ATOM     23  H   UNL     1     -37.627  -1.257 -14.609  1.00  0.00     0.293 HD
ENDBRANCH   2  22
BRANCH   6  24
ATOM     24  O   UNL     1     -39.923  -4.894 -11.603  1.00  0.00    -0.507 OA
ATOM     25  H   UNL     1     -40.791  -4.395 -11.484  1.00  0.00     0.293 HD
ENDBRANCH   6  24
BRANCH   8  26
ATOM     26  O   UNL     1     -40.046  -9.125 -13.871  1.00  0.00    -0.508 OA
ATOM     27  H   UNL     1     -40.044  -9.701 -13.038  1.00  0.00     0.293 HD
ENDBRANCH   8  26
TORSDOF 6
ENDMDL
MODEL 7
REMARK VINA RESULT:    -7.134      2.390      4.263
REMARK INTER + INTRA:          -8.914
REMARK INTER:                  -8.619
REMARK INTRA:                  -0.295
REMARK UNBOUND:                -0.321
REMARK SMILES O=c1c(O)c(-c2ccc(O)c(O)c2)oc2cc(O)cc(O)c12
REMARK SMILES IDX 5 1 3 2 2 3 1 4 22 5 20 6 19 7 17 8 16 9 15 10 14 11 6 12
REMARK SMILES IDX 7 13 8 14 9 15 13 16 11 17 10 18 12 20 4 22 21 24 18 26
REMARK H PARENT 10 19 12 21 4 23 21 25 18 27
REMARK Flexibility Score: inf
ROOT
ATOM      1  C   UNL     1     -37.138  -4.715 -15.944  1.00  0.00     0.180 A 
ATOM      2  C   UNL     1     -37.481  -6.069 -15.785  1.00  0.00     0.208 A 
ATOM      3  C   UNL     1     -38.262  -6.448 -14.681  1.00  0.00     0.238 A 
ATOM      4  O   UNL     1     -38.519  -7.669 -14.515  1.00  0.00    -0.285 OA
ATOM      5  C   UNL     1     -38.702  -5.469 -13.760  1.00  0.00     0.111 A 
ATOM      6  C   UNL     1     -39.531  -5.735 -12.628  1.00  0.00     0.134 A 
ATOM      7  C   UNL     1     -39.797  -4.710 -11.711  1.00  0.00     0.093 A 
ATOM      8  C   UNL     1     -39.319  -3.415 -11.920  1.00  0.00     0.123 A 
ATOM      9  C   UNL     1     -38.560  -3.131 -13.053  1.00  0.00     0.094 A 
ATOM     10  C   UNL     1     -38.247  -4.140 -13.966  1.00  0.00     0.146 A 
ATOM     11  O   UNL     1     -37.511  -3.830 -15.027  1.00  0.00    -0.452 OA
ENDROOT
BRANCH   1  12
ATOM     12  C   UNL     1     -36.339  -4.234 -17.095  1.00  0.00     0.025 A 
ATOM     13  C   UNL     1     -34.955  -4.014 -16.984  1.00  0.00     0.016 A 
ATOM     14  C   UNL     1     -34.217  -3.583 -18.090  1.00  0.00     0.051 A 
ATOM     15  C   UNL     1     -34.848  -3.379 -19.325  1.00  0.00     0.157 A 
ATOM     16  C   UNL     1     -36.962  -4.048 -18.340  1.00  0.00     0.062 A 
ATOM     17  C   UNL     1     -36.228  -3.616 -19.449  1.00  0.00     0.158 A 
BRANCH  15  18
ATOM     18  O   UNL     1     -34.110  -2.947 -20.426  1.00  0.00    -0.504 OA
ATOM     19  H   UNL     1     -34.255  -3.340 -21.349  1.00  0.00     0.293 HD
ENDBRANCH  15  18
BRANCH  17  20
ATOM     20  O   UNL     1     -36.884  -3.428 -20.666  1.00  0.00    -0.504 OA
ATOM     21  H   UNL     1     -36.770  -4.068 -21.442  1.00  0.00     0.293 HD
ENDBRANCH  17  20
ENDBRANCH   1  12
BRANCH   2  22
ATOM     22  O   UNL     1     -37.016  -7.024 -16.695  1.00  0.00    -0.502 OA
ATOM     23  H   UNL     1     -37.561  -7.325 -17.493  1.00  0.00     0.293 HD
ENDBRANCH   2  22
BRANCH   6  24
ATOM     24  O   UNL     1     -40.134  -6.971 -12.376  1.00  0.00    -0.507 OA
ATOM     25  H   UNL     1     -39.787  -7.858 -12.709  1.00  0.00     0.293 HD
ENDBRANCH   6  24
BRANCH   8  26
ATOM     26  O   UNL     1     -39.604  -2.398 -11.011  1.00  0.00    -0.508 OA
ATOM     27  H   UNL     1     -40.554  -2.180 -10.740  1.00  0.00     0.293 HD
ENDBRANCH   8  26
TORSDOF 6
ENDMDL
MODEL 8
REMARK VINA RESULT:    -7.079      2.085      3.989
REMARK INTER + INTRA:          -8.849
REMARK INTER:                  -8.747
REMARK INTRA:                  -0.102
REMARK UNBOUND:                -0.321
REMARK SMILES O=c1c(O)c(-c2ccc(O)c(O)c2)oc2cc(O)cc(O)c12
REMARK SMILES IDX 5 1 3 2 2 3 1 4 22 5 20 6 19 7 17 8 16 9 15 10 14 11 6 12
REMARK SMILES IDX 7 13 8 14 9 15 13 16 11 17 10 18 12 20 4 22 21 24 18 26
REMARK H PARENT 10 19 12 21 4 23 21 25 18 27
REMARK Flexibility Score: inf
ROOT
ATOM      1  C   UNL     1     -35.688  -4.286 -16.610  1.00  0.00     0.180 A 
ATOM      2  C   UNL     1     -36.092  -5.449 -15.932  1.00  0.00     0.208 A 
ATOM      3  C   UNL     1     -36.771  -5.321 -14.709  1.00  0.00     0.238 A 
ATOM      4  O   UNL     1     -37.081  -6.366 -14.079  1.00  0.00    -0.285 OA
ATOM      5  C   UNL     1     -37.050  -4.036 -14.189  1.00  0.00     0.111 A 
ATOM      6  C   UNL     1     -37.767  -3.789 -12.978  1.00  0.00     0.134 A 
ATOM      7  C   UNL     1     -37.871  -2.480 -12.493  1.00  0.00     0.093 A 
ATOM      8  C   UNL     1     -37.342  -1.402 -13.207  1.00  0.00     0.123 A 
ATOM      9  C   UNL     1     -36.693  -1.627 -14.419  1.00  0.00     0.094 A 
ATOM     10  C   UNL     1     -36.541  -2.925 -14.911  1.00  0.00     0.146 A 
ATOM     11  O   UNL     1     -35.906  -3.096 -16.065  1.00  0.00    -0.452 OA
ENDROOT
BRANCH   1  12
ATOM     12  C   UNL     1     -34.990  -4.338 -17.917  1.00  0.00     0.025 A 
ATOM     13  C   UNL     1     -35.555  -4.999 -19.022  1.00  0.00     0.016 A 
ATOM     14  C   UNL     1     -34.890  -5.015 -20.250  1.00  0.00     0.051 A 
ATOM     15  C   UNL     1     -33.660  -4.360 -20.398  1.00  0.00     0.157 A 
ATOM     16  C   UNL     1     -33.767  -3.667 -18.075  1.00  0.00     0.062 A 
ATOM     17  C   UNL     1     -33.098  -3.681 -19.303  1.00  0.00     0.158 A 
BRANCH  15  18
ATOM     18  O   UNL     1     -32.998  -4.379 -21.624  1.00  0.00    -0.504 OA
ATOM     19  H   UNL     1     -32.809  -5.247 -22.112  1.00  0.00     0.293 HD
ENDBRANCH  15  18
BRANCH  17  20
ATOM     20  O   UNL     1     -31.878  -3.014 -19.418  1.00  0.00    -0.504 OA
ATOM     21  H   UNL     1     -31.773  -2.038 -19.168  1.00  0.00     0.293 HD
ENDBRANCH  17  20
ENDBRANCH   1  12
BRANCH   2  22
ATOM     22  O   UNL     1     -35.786  -6.709 -16.452  1.00  0.00    -0.502 OA
ATOM     23  H   UNL     1     -35.254  -7.397 -15.933  1.00  0.00     0.293 HD
ENDBRANCH   2  22
BRANCH   6  24
ATOM     24  O   UNL     1     -38.412  -4.784 -12.237  1.00  0.00    -0.507 OA
ATOM     25  H   UNL     1     -39.265  -4.650 -11.716  1.00  0.00     0.293 HD
ENDBRANCH   6  24
BRANCH   8  26
ATOM     26  O   UNL     1     -37.466  -0.101 -12.724  1.00  0.00    -0.508 OA
ATOM     27  H   UNL     1     -38.309   0.215 -12.262  1.00  0.00     0.293 HD
ENDBRANCH   8  26
TORSDOF 6
ENDMDL
MODEL 9
REMARK VINA RESULT:    -7.063      2.473      4.536
REMARK INTER + INTRA:          -8.830
REMARK INTER:                  -8.514
REMARK INTRA:                  -0.316
REMARK UNBOUND:                -0.321
REMARK SMILES O=c1c(O)c(-c2ccc(O)c(O)c2)oc2cc(O)cc(O)c12
REMARK SMILES IDX 5 1 3 2 2 3 1 4 22 5 20 6 19 7 17 8 16 9 15 10 14 11 6 12
REMARK SMILES IDX 7 13 8 14 9 15 13 16 11 17 10 18 12 20 4 22 21 24 18 26
REMARK H PARENT 10 19 12 21 4 23 21 25 18 27
REMARK Flexibility Score: inf
ROOT
ATOM      1  C   UNL     1     -37.374  -4.662 -15.800  1.00  0.00     0.180 A 
ATOM      2  C   UNL     1     -38.030  -5.903 -15.730  1.00  0.00     0.208 A 
ATOM      3  C   UNL     1     -38.751  -6.225 -14.568  1.00  0.00     0.238 A 
ATOM      4  O   UNL     1     -39.291  -7.360 -14.488  1.00  0.00    -0.285 OA
ATOM      5  C   UNL     1     -38.819  -5.299 -13.501  1.00  0.00     0.111 A 
ATOM      6  C   UNL     1     -39.553  -5.506 -12.293  1.00  0.00     0.134 A 
ATOM      7  C   UNL     1     -39.443  -4.577 -11.251  1.00  0.00     0.093 A 
ATOM      8  C   UNL     1     -38.677  -3.418 -11.397  1.00  0.00     0.123 A 
ATOM      9  C   UNL     1     -38.004  -3.179 -12.593  1.00  0.00     0.094 A 
ATOM     10  C   UNL     1     -38.066  -4.104 -13.637  1.00  0.00     0.146 A 
ATOM     11  O   UNL     1     -37.401  -3.842 -14.757  1.00  0.00    -0.452 OA
ENDROOT
BRANCH   1  12
ATOM     12  C   UNL     1     -36.615  -4.239 -17.001  1.00  0.00     0.025 A 
ATOM     13  C   UNL     1     -37.265  -3.701 -18.125  1.00  0.00     0.016 A 
ATOM     14  C   UNL     1     -36.527  -3.287 -19.237  1.00  0.00     0.051 A 
ATOM     15  C   UNL     1     -35.130  -3.392 -19.237  1.00  0.00     0.157 A 
ATOM     16  C   UNL     1     -35.213  -4.323 -16.998  1.00  0.00     0.062 A 
ATOM     17  C   UNL     1     -34.471  -3.911 -18.110  1.00  0.00     0.158 A 
BRANCH  15  18
ATOM     18  O   UNL     1     -34.397  -2.979 -20.348  1.00  0.00    -0.504 OA
ATOM     19  H   UNL     1     -33.763  -2.189 -20.303  1.00  0.00     0.293 HD
ENDBRANCH  15  18
BRANCH  17  20
ATOM     20  O   UNL     1     -33.081  -4.022 -18.076  1.00  0.00    -0.504 OA
ATOM     21  H   UNL     1     -32.473  -3.263 -18.359  1.00  0.00     0.293 HD
ENDBRANCH  17  20
ENDBRANCH   1  12
BRANCH   2  22
ATOM     22  O   UNL     1     -37.932  -6.812 -16.786  1.00  0.00    -0.502 OA
ATOM     23  H   UNL     1     -37.089  -6.916 -17.337  1.00  0.00     0.293 HD
ENDBRANCH   2  22
BRANCH   6  24
ATOM     24  O   UNL     1     -40.419  -6.583 -12.082  1.00  0.00    -0.507 OA
ATOM     25  H   UNL     1     -40.246  -7.342 -11.441  1.00  0.00     0.293 HD
ENDBRANCH   6  24
BRANCH   8  26
ATOM     26  O   UNL     1     -38.586  -2.492 -10.360  1.00  0.00    -0.508 OA
ATOM     27  H   UNL     1     -38.957  -1.554 -10.452  1.00  0.00     0.293 HD
ENDBRANCH   8  26
TORSDOF 6
ENDMDL
