MODEL 1
REMARK VINA RESULT:    -4.843      0.000      0.000
REMARK INTER + INTRA:          -7.468
REMARK INTER:                  -6.541
REMARK INTRA:                  -0.927
REMARK UNBOUND:                -0.927
REMARK SMILES C=C[C@@](C)(CCC=C(C)C)OC(C)=O
REMARK SMILES IDX 3 1 4 2 5 3 6 4 7 5 9 6 8 7 10 8 2 9 1 10 11 11 12 12 14 13
REMARK SMILES IDX 13 14
REMARK H PARENT
REMARK Flexibility Score: inf
ROOT
ATOM      1  C   UNL     1     -20.303  31.242  -2.849  1.00  0.00     0.127 C 
ATOM      2  C   UNL     1     -21.296  30.889  -3.970  1.00  0.00     0.061 C 
ENDROOT
BRANCH   1   3
ATOM      3  C   UNL     1     -20.453  32.760  -2.530  1.00  0.00     0.057 C 
BRANCH   3   4
ATOM      4  C   UNL     1     -21.841  33.355  -2.817  1.00  0.00     0.032 C 
BRANCH   4   5
ATOM      5  C   UNL     1     -22.494  33.829  -1.541  1.00  0.00    -0.028 C 
ATOM      6  C   UNL     1     -24.486  32.334  -1.811  1.00  0.00     0.039 C 
ATOM      7  C   UNL     1     -23.689  33.394  -1.086  1.00  0.00    -0.080 C 
ATOM      8  C   UNL     1     -24.228  33.981   0.193  1.00  0.00     0.039 C 
ENDBRANCH   4   5
ENDBRANCH   3   4
ENDBRANCH   1   3
BRANCH   1   9
ATOM      9  C   UNL     1     -20.610  30.347  -1.651  1.00  0.00     0.013 C 
ATOM     10  C   UNL     1     -21.840  29.896  -1.371  1.00  0.00     0.008 C 
ENDBRANCH   1   9
BRANCH   1  11
ATOM     11  O   UNL     1     -18.992  30.970  -3.379  1.00  0.00    -0.455 OA
BRANCH  11  12
ATOM     12  C   UNL     1     -17.786  31.611  -3.049  1.00  0.00     0.303 C 
ATOM     13  O   UNL     1     -17.318  32.541  -3.759  1.00  0.00    -0.253 OA
ATOM     14  C   UNL     1     -17.032  31.162  -1.845  1.00  0.00     0.139 C 
ENDBRANCH  11  12
ENDBRANCH   1  11
TORSDOF 6
ENDMDL
MODEL 2
REMARK VINA RESULT:    -4.631      1.235      2.163
REMARK INTER + INTRA:          -7.182
REMARK INTER:                  -6.451
REMARK INTRA:                  -0.732
REMARK UNBOUND:                -0.927
REMARK SMILES C=C[C@@](C)(CCC=C(C)C)OC(C)=O
REMARK SMILES IDX 3 1 4 2 5 3 6 4 7 5 9 6 8 7 10 8 2 9 1 10 11 11 12 12 14 13
REMARK SMILES IDX 13 14
REMARK H PARENT
REMARK Flexibility Score: inf
ROOT
ATOM      1  C   UNL     1     -19.801  31.221  -2.559  1.00  0.00     0.127 C 
ATOM      2  C   UNL     1     -20.884  30.400  -1.839  1.00  0.00     0.061 C 
ENDROOT
BRANCH   1   3
ATOM      3  C   UNL     1     -20.168  32.730  -2.423  1.00  0.00     0.057 C 
BRANCH   3   4
ATOM      4  C   UNL     1     -21.608  33.091  -2.824  1.00  0.00     0.032 C 
BRANCH   4   5
ATOM      5  C   UNL     1     -22.349  33.702  -1.660  1.00  0.00    -0.028 C 
ATOM      6  C   UNL     1     -24.251  32.079  -1.807  1.00  0.00     0.039 C 
ATOM      7  C   UNL     1     -23.546  33.271  -1.203  1.00  0.00    -0.080 C 
ATOM      8  C   UNL     1     -24.179  34.000  -0.047  1.00  0.00     0.039 C 
ENDBRANCH   4   5
ENDBRANCH   3   4
ENDBRANCH   1   3
BRANCH   1   9
ATOM      9  C   UNL     1     -18.454  30.876  -1.930  1.00  0.00     0.013 C 
ATOM     10  C   UNL     1     -17.539  31.799  -1.606  1.00  0.00     0.008 C 
ENDBRANCH   1   9
BRANCH   1  11
ATOM     11  O   UNL     1     -19.848  30.818  -3.939  1.00  0.00    -0.455 OA
BRANCH  11  12
ATOM     12  C   UNL     1     -18.770  30.689  -4.831  1.00  0.00     0.303 C 
ATOM     13  O   UNL     1     -18.264  29.566  -5.097  1.00  0.00    -0.253 OA
ATOM     14  C   UNL     1     -18.196  31.914  -5.456  1.00  0.00     0.139 C 
ENDBRANCH  11  12
ENDBRANCH   1  11
TORSDOF 6
ENDMDL
MODEL 3
REMARK VINA RESULT:    -4.465      1.141      2.806
REMARK INTER + INTRA:          -6.958
REMARK INTER:                  -6.443
REMARK INTRA:                  -0.515
REMARK UNBOUND:                -0.927
REMARK SMILES C=C[C@@](C)(CCC=C(C)C)OC(C)=O
REMARK SMILES IDX 3 1 4 2 5 3 6 4 7 5 9 6 8 7 10 8 2 9 1 10 11 11 12 12 14 13
REMARK SMILES IDX 13 14
REMARK H PARENT
REMARK Flexibility Score: inf
ROOT
ATOM      1  C   UNL     1     -19.925  31.230  -2.460  1.00  0.00     0.127 C 
ATOM      2  C   UNL     1     -21.067  30.498  -1.733  1.00  0.00     0.061 C 
ENDROOT
BRANCH   1   3
ATOM      3  C   UNL     1     -20.258  32.753  -2.474  1.00  0.00     0.057 C 
BRANCH   3   4
ATOM      4  C   UNL     1     -21.722  33.099  -2.790  1.00  0.00     0.032 C 
BRANCH   4   5
ATOM      5  C   UNL     1     -22.395  33.723  -1.592  1.00  0.00    -0.028 C 
ATOM      6  C   UNL     1     -24.388  32.211  -1.717  1.00  0.00     0.039 C 
ATOM      7  C   UNL     1     -23.600  33.348  -1.109  1.00  0.00    -0.080 C 
ATOM      8  C   UNL     1     -24.158  34.084   0.081  1.00  0.00     0.039 C 
ENDBRANCH   4   5
ENDBRANCH   3   4
ENDBRANCH   1   3
BRANCH   1   9
ATOM      9  C   UNL     1     -18.623  30.910  -1.730  1.00  0.00     0.013 C 
ATOM     10  C   UNL     1     -17.593  31.764  -1.664  1.00  0.00     0.008 C 
ENDBRANCH   1   9
BRANCH   1  11
ATOM     11  O   UNL     1     -19.910  30.710  -3.802  1.00  0.00    -0.455 OA
BRANCH  11  12
ATOM     12  C   UNL     1     -20.821  29.811  -4.381  1.00  0.00     0.303 C 
ATOM     13  O   UNL     1     -20.652  28.564  -4.312  1.00  0.00    -0.253 OA
ATOM     14  C   UNL     1     -22.001  30.347  -5.116  1.00  0.00     0.139 C 
ENDBRANCH  11  12
ENDBRANCH   1  11
TORSDOF 6
ENDMDL
MODEL 4
REMARK VINA RESULT:    -4.447      2.275      5.227
REMARK INTER + INTRA:          -6.934
REMARK INTER:                  -6.063
REMARK INTRA:                  -0.871
REMARK UNBOUND:                -0.927
REMARK SMILES C=C[C@@](C)(CCC=C(C)C)OC(C)=O
REMARK SMILES IDX 3 1 4 2 5 3 6 4 7 5 9 6 8 7 10 8 2 9 1 10 11 11 12 12 14 13
REMARK SMILES IDX 13 14
REMARK H PARENT
REMARK Flexibility Score: inf
ROOT
ATOM      1  C   UNL     1     -22.634  30.510  -2.192  1.00  0.00     0.127 C 
ATOM      2  C   UNL     1     -23.575  29.406  -1.679  1.00  0.00     0.061 C 
ENDROOT
BRANCH   1   3
ATOM      3  C   UNL     1     -21.206  29.902  -2.331  1.00  0.00     0.057 C 
BRANCH   3   4
ATOM      4  C   UNL     1     -20.092  30.680  -1.612  1.00  0.00     0.032 C 
BRANCH   4   5
ATOM      5  C   UNL     1     -19.314  31.528  -2.589  1.00  0.00    -0.028 C 
ATOM      6  C   UNL     1     -17.108  30.523  -1.958  1.00  0.00     0.039 C 
ATOM      7  C   UNL     1     -17.972  31.482  -2.743  1.00  0.00    -0.080 C 
ATOM      8  C   UNL     1     -17.332  32.411  -3.742  1.00  0.00     0.039 C 
ENDBRANCH   4   5
ENDBRANCH   3   4
ENDBRANCH   1   3
BRANCH   1   9
ATOM      9  C   UNL     1     -23.194  31.027  -3.515  1.00  0.00     0.013 C 
ATOM     10  C   UNL     1     -22.459  31.132  -4.629  1.00  0.00     0.008 C 
ENDBRANCH   1   9
BRANCH   1  11
ATOM     11  O   UNL     1     -22.643  31.539  -1.186  1.00  0.00    -0.455 OA
BRANCH  11  12
ATOM     12  C   UNL     1     -23.104  32.860  -1.317  1.00  0.00     0.303 C 
ATOM     13  O   UNL     1     -24.329  33.143  -1.224  1.00  0.00    -0.253 OA
ATOM     14  C   UNL     1     -22.124  33.946  -1.598  1.00  0.00     0.139 C 
ENDBRANCH  11  12
ENDBRANCH   1  11
TORSDOF 6
ENDMDL
MODEL 5
REMARK VINA RESULT:    -4.433      1.704      2.501
REMARK INTER + INTRA:          -6.915
REMARK INTER:                  -6.189
REMARK INTRA:                  -0.726
REMARK UNBOUND:                -0.927
REMARK SMILES C=C[C@@](C)(CCC=C(C)C)OC(C)=O
REMARK SMILES IDX 3 1 4 2 5 3 6 4 7 5 9 6 8 7 10 8 2 9 1 10 11 11 12 12 14 13
REMARK SMILES IDX 13 14
REMARK H PARENT
REMARK Flexibility Score: inf
ROOT
ATOM      1  C   UNL     1     -18.436  31.996  -3.500  1.00  0.00     0.127 C 
ATOM      2  C   UNL     1     -18.862  30.620  -4.039  1.00  0.00     0.061 C 
ENDROOT
BRANCH   1   3
ATOM      3  C   UNL     1     -19.585  33.008  -3.795  1.00  0.00     0.057 C 
BRANCH   3   4
ATOM      4  C   UNL     1     -21.005  32.422  -3.728  1.00  0.00     0.032 C 
BRANCH   4   5
ATOM      5  C   UNL     1     -21.881  33.247  -2.818  1.00  0.00    -0.028 C 
ATOM      6  C   UNL     1     -22.391  31.323  -1.296  1.00  0.00     0.039 C 
ATOM      7  C   UNL     1     -22.525  32.764  -1.732  1.00  0.00    -0.080 C 
ATOM      8  C   UNL     1     -23.390  33.704  -0.932  1.00  0.00     0.039 C 
ENDBRANCH   4   5
ENDBRANCH   3   4
ENDBRANCH   1   3
BRANCH   1   9
ATOM      9  C   UNL     1     -18.140  31.846  -2.010  1.00  0.00     0.013 C 
ATOM     10  C   UNL     1     -18.326  30.702  -1.340  1.00  0.00     0.008 C 
ENDBRANCH   1   9
BRANCH   1  11
ATOM     11  O   UNL     1     -17.251  32.360  -4.231  1.00  0.00    -0.455 OA
BRANCH  11  12
ATOM     12  C   UNL     1     -16.339  31.500  -4.866  1.00  0.00     0.303 C 
ATOM     13  O   UNL     1     -15.553  30.768  -4.206  1.00  0.00    -0.253 OA
ATOM     14  C   UNL     1     -16.283  31.473  -6.355  1.00  0.00     0.139 C 
ENDBRANCH  11  12
ENDBRANCH   1  11
TORSDOF 6
ENDMDL
MODEL 6
REMARK VINA RESULT:    -4.420      1.502      2.405
REMARK INTER + INTRA:          -6.898
REMARK INTER:                  -5.899
REMARK INTRA:                  -0.999
REMARK UNBOUND:                -0.927
REMARK SMILES C=C[C@@](C)(CCC=C(C)C)OC(C)=O
REMARK SMILES IDX 3 1 4 2 5 3 6 4 7 5 9 6 8 7 10 8 2 9 1 10 11 11 12 12 14 13
REMARK SMILES IDX 13 14
REMARK H PARENT
REMARK Flexibility Score: inf
ROOT
ATOM      1  C   UNL     1     -19.101  32.012  -3.649  1.00  0.00     0.127 C 
ATOM      2  C   UNL     1     -18.031  32.518  -4.632  1.00  0.00     0.061 C 
ENDROOT
BRANCH   1   3
ATOM      3  C   UNL     1     -20.291  33.018  -3.671  1.00  0.00     0.057 C 
BRANCH   3   4
ATOM      4  C   UNL     1     -20.900  33.341  -2.296  1.00  0.00     0.032 C 
BRANCH   4   5
ATOM      5  C   UNL     1     -22.382  33.056  -2.287  1.00  0.00    -0.028 C 
ATOM      6  C   UNL     1     -22.113  30.821  -1.188  1.00  0.00     0.039 C 
ATOM      7  C   UNL     1     -22.940  31.922  -1.810  1.00  0.00    -0.080 C 
ATOM      8  C   UNL     1     -24.437  31.768  -1.892  1.00  0.00     0.039 C 
ENDBRANCH   4   5
ENDBRANCH   3   4
ENDBRANCH   1   3
BRANCH   1   9
ATOM      9  C   UNL     1     -19.502  30.603  -4.076  1.00  0.00     0.013 C 
ATOM     10  C   UNL     1     -20.714  30.303  -4.561  1.00  0.00     0.008 C 
ENDBRANCH   1   9
BRANCH   1  11
ATOM     11  O   UNL     1     -18.477  32.005  -2.352  1.00  0.00    -0.455 OA
BRANCH  11  12
ATOM     12  C   UNL     1     -17.945  30.901  -1.664  1.00  0.00     0.303 C 
ATOM     13  O   UNL     1     -18.585  30.328  -0.741  1.00  0.00    -0.253 OA
ATOM     14  C   UNL     1     -16.583  30.413  -2.019  1.00  0.00     0.139 C 
ENDBRANCH  11  12
ENDBRANCH   1  11
TORSDOF 6
ENDMDL
MODEL 7
REMARK VINA RESULT:    -4.392      2.697      5.498
REMARK INTER + INTRA:          -6.860
REMARK INTER:                  -6.071
REMARK INTRA:                  -0.789
REMARK UNBOUND:                -0.927
REMARK SMILES C=C[C@@](C)(CCC=C(C)C)OC(C)=O
REMARK SMILES IDX 3 1 4 2 5 3 6 4 7 5 9 6 8 7 10 8 2 9 1 10 11 11 12 12 14 13
REMARK SMILES IDX 13 14
REMARK H PARENT
REMARK Flexibility Score: inf
ROOT
ATOM      1  C   UNL     1     -22.771  31.828  -2.286  1.00  0.00     0.127 C 
ATOM      2  C   UNL     1     -22.614  31.478  -3.776  1.00  0.00     0.061 C 
ENDROOT
BRANCH   1   3
ATOM      3  C   UNL     1     -21.969  30.781  -1.455  1.00  0.00     0.057 C 
BRANCH   3   4
ATOM      4  C   UNL     1     -20.774  30.145  -2.184  1.00  0.00     0.032 C 
BRANCH   4   5
ATOM      5  C   UNL     1     -19.471  30.642  -1.608  1.00  0.00    -0.028 C 
ATOM      6  C   UNL     1     -19.000  32.155  -3.548  1.00  0.00     0.039 C 
ATOM      7  C   UNL     1     -18.654  31.530  -2.216  1.00  0.00    -0.080 C 
ATOM      8  C   UNL     1     -17.369  31.912  -1.529  1.00  0.00     0.039 C 
ENDBRANCH   4   5
ENDBRANCH   3   4
ENDBRANCH   1   3
BRANCH   1   9
ATOM      9  C   UNL     1     -22.274  33.257  -2.084  1.00  0.00     0.013 C 
ATOM     10  C   UNL     1     -22.834  34.111  -1.217  1.00  0.00     0.008 C 
ENDBRANCH   1   9
BRANCH   1  11
ATOM     11  O   UNL     1     -24.178  31.722  -1.999  1.00  0.00    -0.455 OA
BRANCH  11  12
ATOM     12  C   UNL     1     -25.092  30.796  -2.530  1.00  0.00     0.303 C 
ATOM     13  O   UNL     1     -25.848  31.094  -3.493  1.00  0.00    -0.253 OA
ATOM     14  C   UNL     1     -25.185  29.439  -1.921  1.00  0.00     0.139 C 
ENDBRANCH  11  12
ENDBRANCH   1  11
TORSDOF 6
ENDMDL
MODEL 8
REMARK VINA RESULT:    -4.281      2.207      5.136
REMARK INTER + INTRA:          -6.710
REMARK INTER:                  -6.155
REMARK INTRA:                  -0.555
REMARK UNBOUND:                -0.927
REMARK SMILES C=C[C@@](C)(CCC=C(C)C)OC(C)=O
REMARK SMILES IDX 3 1 4 2 5 3 6 4 7 5 9 6 8 7 10 8 2 9 1 10 11 11 12 12 14 13
REMARK SMILES IDX 13 14
REMARK H PARENT
REMARK Flexibility Score: inf
ROOT
ATOM      1  C   UNL     1     -22.634  32.212  -2.046  1.00  0.00     0.127 C 
ATOM      2  C   UNL     1     -22.868  31.735  -3.489  1.00  0.00     0.061 C 
ENDROOT
BRANCH   1   3
ATOM      3  C   UNL     1     -21.328  33.063  -2.023  1.00  0.00     0.057 C 
BRANCH   3   4
ATOM      4  C   UNL     1     -20.235  32.610  -3.005  1.00  0.00     0.032 C 
BRANCH   4   5
ATOM      5  C   UNL     1     -19.220  31.736  -2.311  1.00  0.00    -0.028 C 
ATOM      6  C   UNL     1     -17.375  32.338  -3.896  1.00  0.00     0.039 C 
ATOM      7  C   UNL     1     -17.937  31.589  -2.709  1.00  0.00    -0.080 C 
ATOM      8  C   UNL     1     -17.045  30.658  -1.929  1.00  0.00     0.039 C 
ENDBRANCH   4   5
ENDBRANCH   3   4
ENDBRANCH   1   3
BRANCH   1   9
ATOM      9  C   UNL     1     -23.866  32.998  -1.605  1.00  0.00     0.013 C 
ATOM     10  C   UNL     1     -23.872  33.813  -0.542  1.00  0.00     0.008 C 
ENDBRANCH   1   9
BRANCH   1  11
ATOM     11  O   UNL     1     -22.467  31.020  -1.256  1.00  0.00    -0.455 OA
BRANCH  11  12
ATOM     12  C   UNL     1     -22.906  29.722  -1.562  1.00  0.00     0.303 C 
ATOM     13  O   UNL     1     -24.112  29.383  -1.421  1.00  0.00    -0.253 OA
ATOM     14  C   UNL     1     -21.918  28.715  -2.041  1.00  0.00     0.139 C 
ENDBRANCH  11  12
ENDBRANCH   1  11
TORSDOF 6
ENDMDL
MODEL 9
REMARK VINA RESULT:    -4.150      2.493      5.716
REMARK INTER + INTRA:          -6.533
REMARK INTER:                  -5.567
REMARK INTRA:                  -0.966
REMARK UNBOUND:                -0.927
REMARK SMILES C=C[C@@](C)(CCC=C(C)C)OC(C)=O
REMARK SMILES IDX 3 1 4 2 5 3 6 4 7 5 9 6 8 7 10 8 2 9 1 10 11 11 12 12 14 13
REMARK SMILES IDX 13 14
REMARK H PARENT
REMARK Flexibility Score: inf
ROOT
ATOM      1  C   UNL     1     -20.297  31.086  -2.109  1.00  0.00     0.127 C 
ATOM      2  C   UNL     1     -20.404  30.270  -3.408  1.00  0.00     0.061 C 
ENDROOT
BRANCH   1   3
ATOM      3  C   UNL     1     -18.976  30.679  -1.389  1.00  0.00     0.057 C 
BRANCH   3   4
ATOM      4  C   UNL     1     -17.761  31.569  -1.700  1.00  0.00     0.032 C 
BRANCH   4   5
ATOM      5  C   UNL     1     -16.766  30.833  -2.563  1.00  0.00    -0.028 C 
ATOM      6  C   UNL     1     -17.166  32.293  -4.558  1.00  0.00     0.039 C 
ATOM      7  C   UNL     1     -16.501  31.134  -3.853  1.00  0.00    -0.080 C 
ATOM      8  C   UNL     1     -15.498  30.291  -4.597  1.00  0.00     0.039 C 
ENDBRANCH   4   5
ENDBRANCH   3   4
ENDBRANCH   1   3
BRANCH   1   9
ATOM      9  C   UNL     1     -20.345  32.566  -2.478  1.00  0.00     0.013 C 
ATOM     10  C   UNL     1     -20.717  33.007  -3.687  1.00  0.00     0.008 C 
ENDBRANCH   1   9
BRANCH   1  11
ATOM     11  O   UNL     1     -21.435  30.713  -1.310  1.00  0.00    -0.455 OA
BRANCH  11  12
ATOM     12  C   UNL     1     -22.751  30.488  -1.749  1.00  0.00     0.303 C 
ATOM     13  O   UNL     1     -23.493  31.436  -2.124  1.00  0.00    -0.253 OA
ATOM     14  C   UNL     1     -23.290  29.099  -1.744  1.00  0.00     0.139 C 
ENDBRANCH  11  12
ENDBRANCH   1  11
TORSDOF 6
ENDMDL
