MODEL 1
REMARK VINA RESULT:    -5.241      0.000      0.000
REMARK INTER + INTRA:          -6.624
REMARK INTER:                  -6.313
REMARK INTRA:                  -0.311
REMARK UNBOUND:                -0.311
REMARK SMILES O=c1c(O)c(-c2ccc(O)c(O)c2)oc2cc(O)cc(O)c12
REMARK SMILES IDX 5 1 3 2 2 3 1 4 22 5 20 6 19 7 17 8 16 9 15 10 14 11 6 12
REMARK SMILES IDX 7 13 8 14 9 15 13 16 11 17 10 18 12 20 4 22 21 24 18 26
REMARK H PARENT 10 19 12 21 4 23 21 25 18 27
REMARK Flexibility Score: inf
ROOT
ATOM      1  C   UNL     1    -110.343 -57.023 -22.087  1.00  0.00     0.180 A 
ATOM      2  C   UNL     1    -111.540 -57.765 -22.032  1.00  0.00     0.208 A 
ATOM      3  C   UNL     1    -112.211 -58.058 -23.228  1.00  0.00     0.238 A 
ATOM      4  O   UNL     1    -113.289 -58.712 -23.191  1.00  0.00    -0.285 OA
ATOM      5  C   UNL     1    -111.670 -57.625 -24.456  1.00  0.00     0.111 A 
ATOM      6  C   UNL     1    -112.282 -57.883 -25.706  1.00  0.00     0.134 A 
ATOM      7  C   UNL     1    -111.675 -57.426 -26.885  1.00  0.00     0.093 A 
ATOM      8  C   UNL     1    -110.472 -56.720 -26.840  1.00  0.00     0.123 A 
ATOM      9  C   UNL     1    -109.862 -56.461 -25.608  1.00  0.00     0.094 A 
ATOM     10  C   UNL     1    -110.451 -56.907 -24.421  1.00  0.00     0.146 A 
ATOM     11  O   UNL     1    -109.855 -56.644 -23.265  1.00  0.00    -0.452 OA
ENDROOT
BRANCH   1  12
ATOM     12  C   UNL     1    -109.587 -56.657 -20.868  1.00  0.00     0.025 A 
ATOM     13  C   UNL     1    -109.809 -55.410 -20.265  1.00  0.00     0.016 A 
ATOM     14  C   UNL     1    -109.123 -55.053 -19.102  1.00  0.00     0.051 A 
ATOM     15  C   UNL     1    -108.217 -55.941 -18.516  1.00  0.00     0.157 A 
ATOM     16  C   UNL     1    -108.690 -57.558 -20.264  1.00  0.00     0.062 A 
ATOM     17  C   UNL     1    -108.002 -57.202 -19.096  1.00  0.00     0.158 A 
BRANCH  15  18
ATOM     18  O   UNL     1    -107.544 -55.556 -17.356  1.00  0.00    -0.504 OA
ATOM     19  H   UNL     1    -107.331 -56.213 -16.613  1.00  0.00     0.293 HD
ENDBRANCH  15  18
BRANCH  17  20
ATOM     20  O   UNL     1    -107.110 -58.099 -18.508  1.00  0.00    -0.504 OA
ATOM     21  H   UNL     1    -107.257 -59.099 -18.551  1.00  0.00     0.293 HD
ENDBRANCH  17  20
ENDBRANCH   1  12
BRANCH   2  22
ATOM     22  O   UNL     1    -112.028 -58.224 -20.807  1.00  0.00    -0.502 OA
ATOM     23  H   UNL     1    -111.472 -58.794 -20.180  1.00  0.00     0.293 HD
ENDBRANCH   2  22
BRANCH   6  24
ATOM     24  O   UNL     1    -113.485 -58.587 -25.786  1.00  0.00    -0.507 OA
ATOM     25  H   UNL     1    -113.813 -59.168 -25.023  1.00  0.00     0.293 HD
ENDBRANCH   6  24
BRANCH   8  26
ATOM     26  O   UNL     1    -109.888 -56.278 -28.026  1.00  0.00    -0.508 OA
ATOM     27  H   UNL     1    -109.057 -56.717 -28.405  1.00  0.00     0.293 HD
ENDBRANCH   8  26
TORSDOF 6
ENDMDL
MODEL 2
REMARK VINA RESULT:    -5.199      1.797      2.444
REMARK INTER + INTRA:          -6.573
REMARK INTER:                  -6.269
REMARK INTRA:                  -0.304
REMARK UNBOUND:                -0.311
REMARK SMILES O=c1c(O)c(-c2ccc(O)c(O)c2)oc2cc(O)cc(O)c12
REMARK SMILES IDX 5 1 3 2 2 3 1 4 22 5 20 6 19 7 17 8 16 9 15 10 14 11 6 12
REMARK SMILES IDX 7 13 8 14 9 15 13 16 11 17 10 18 12 20 4 22 21 24 18 26
REMARK H PARENT 10 19 12 21 4 23 21 25 18 27
REMARK Flexibility Score: inf
ROOT
ATOM      1  C   UNL     1    -110.197 -57.024 -23.141  1.00  0.00     0.180 A 
ATOM      2  C   UNL     1    -110.584 -58.110 -23.951  1.00  0.00     0.208 A 
ATOM      3  C   UNL     1    -110.668 -57.924 -25.339  1.00  0.00     0.238 A 
ATOM      4  O   UNL     1    -111.025 -58.885 -26.074  1.00  0.00    -0.285 OA
ATOM      5  C   UNL     1    -110.346 -56.669 -25.895  1.00  0.00     0.111 A 
ATOM      6  C   UNL     1    -110.400 -56.400 -27.284  1.00  0.00     0.134 A 
ATOM      7  C   UNL     1    -110.054 -55.126 -27.760  1.00  0.00     0.093 A 
ATOM      8  C   UNL     1    -109.655 -54.120 -26.879  1.00  0.00     0.123 A 
ATOM      9  C   UNL     1    -109.600 -54.379 -25.505  1.00  0.00     0.094 A 
ATOM     10  C   UNL     1    -109.942 -55.641 -25.010  1.00  0.00     0.146 A 
ATOM     11  O   UNL     1    -109.885 -55.860 -23.702  1.00  0.00    -0.452 OA
ENDROOT
BRANCH   1  12
ATOM     12  C   UNL     1    -110.103 -57.136 -21.667  1.00  0.00     0.025 A 
ATOM     13  C   UNL     1    -111.269 -57.035 -20.892  1.00  0.00     0.016 A 
ATOM     14  C   UNL     1    -111.207 -57.159 -19.502  1.00  0.00     0.051 A 
ATOM     15  C   UNL     1    -109.986 -57.401 -18.867  1.00  0.00     0.157 A 
ATOM     16  C   UNL     1    -108.878 -57.401 -21.029  1.00  0.00     0.062 A 
ATOM     17  C   UNL     1    -108.815 -57.527 -19.634  1.00  0.00     0.158 A 
BRANCH  15  18
ATOM     18  O   UNL     1    -109.955 -57.517 -17.478  1.00  0.00    -0.504 OA
ATOM     19  H   UNL     1    -110.638 -58.066 -16.968  1.00  0.00     0.293 HD
ENDBRANCH  15  18
BRANCH  17  20
ATOM     20  O   UNL     1    -107.595 -57.783 -19.008  1.00  0.00    -0.504 OA
ATOM     21  H   UNL     1    -106.738 -57.884 -19.537  1.00  0.00     0.293 HD
ENDBRANCH  17  20
ENDBRANCH   1  12
BRANCH   2  22
ATOM     22  O   UNL     1    -110.850 -59.356 -23.380  1.00  0.00    -0.502 OA
ATOM     23  H   UNL     1    -110.743 -60.223 -23.894  1.00  0.00     0.293 HD
ENDBRANCH   2  22
BRANCH   6  24
ATOM     24  O   UNL     1    -110.793 -57.385 -28.191  1.00  0.00    -0.507 OA
ATOM     25  H   UNL     1    -110.233 -58.213 -28.355  1.00  0.00     0.293 HD
ENDBRANCH   6  24
BRANCH   8  26
ATOM     26  O   UNL     1    -109.316 -52.864 -27.377  1.00  0.00    -0.508 OA
ATOM     27  H   UNL     1    -109.663 -52.013 -26.952  1.00  0.00     0.293 HD
ENDBRANCH   8  26
TORSDOF 6
ENDMDL
MODEL 3
REMARK VINA RESULT:    -5.116      1.621      6.683
REMARK INTER + INTRA:          -6.474
REMARK INTER:                  -6.143
REMARK INTRA:                  -0.331
REMARK UNBOUND:                -0.311
REMARK SMILES O=c1c(O)c(-c2ccc(O)c(O)c2)oc2cc(O)cc(O)c12
REMARK SMILES IDX 5 1 3 2 2 3 1 4 22 5 20 6 19 7 17 8 16 9 15 10 14 11 6 12
REMARK SMILES IDX 7 13 8 14 9 15 13 16 11 17 10 18 12 20 4 22 21 24 18 26
REMARK H PARENT 10 19 12 21 4 23 21 25 18 27
REMARK Flexibility Score: inf
ROOT
ATOM      1  C   UNL     1    -110.949 -56.900 -24.198  1.00  0.00     0.180 A 
ATOM      2  C   UNL     1    -112.245 -56.781 -23.657  1.00  0.00     0.208 A 
ATOM      3  C   UNL     1    -112.414 -56.896 -22.269  1.00  0.00     0.238 A 
ATOM      4  O   UNL     1    -113.570 -56.803 -21.774  1.00  0.00    -0.285 OA
ATOM      5  C   UNL     1    -111.289 -57.107 -21.446  1.00  0.00     0.111 A 
ATOM      6  C   UNL     1    -111.372 -57.229 -20.038  1.00  0.00     0.134 A 
ATOM      7  C   UNL     1    -110.204 -57.428 -19.287  1.00  0.00     0.093 A 
ATOM      8  C   UNL     1    -108.959 -57.506 -19.912  1.00  0.00     0.123 A 
ATOM      9  C   UNL     1    -108.870 -57.386 -21.303  1.00  0.00     0.094 A 
ATOM     10  C   UNL     1    -110.022 -57.189 -22.070  1.00  0.00     0.146 A 
ATOM     11  O   UNL     1    -109.911 -57.083 -23.389  1.00  0.00    -0.452 OA
ENDROOT
BRANCH   1  12
ATOM     12  C   UNL     1    -110.693 -56.809 -25.654  1.00  0.00     0.025 A 
ATOM     13  C   UNL     1    -110.274 -55.588 -26.206  1.00  0.00     0.016 A 
ATOM     14  C   UNL     1    -110.006 -55.484 -27.573  1.00  0.00     0.051 A 
ATOM     15  C   UNL     1    -110.138 -56.600 -28.405  1.00  0.00     0.157 A 
ATOM     16  C   UNL     1    -110.804 -57.935 -26.489  1.00  0.00     0.062 A 
ATOM     17  C   UNL     1    -110.534 -57.833 -27.861  1.00  0.00     0.158 A 
BRANCH  15  18
ATOM     18  O   UNL     1    -109.865 -56.465 -29.766  1.00  0.00    -0.504 OA
ATOM     19  H   UNL     1    -109.685 -57.266 -30.361  1.00  0.00     0.293 HD
ENDBRANCH  15  18
BRANCH  17  20
ATOM     20  O   UNL     1    -110.652 -58.953 -28.684  1.00  0.00    -0.504 OA
ATOM     21  H   UNL     1    -110.812 -59.877 -28.302  1.00  0.00     0.293 HD
ENDBRANCH  17  20
ENDBRANCH   1  12
BRANCH   2  22
ATOM     22  O   UNL     1    -113.336 -56.524 -24.491  1.00  0.00    -0.502 OA
ATOM     23  H   UNL     1    -114.272 -56.377 -24.131  1.00  0.00     0.293 HD
ENDBRANCH   2  22
BRANCH   6  24
ATOM     24  O   UNL     1    -112.602 -57.156 -19.382  1.00  0.00    -0.507 OA
ATOM     25  H   UNL     1    -113.029 -57.970 -18.956  1.00  0.00     0.293 HD
ENDBRANCH   6  24
BRANCH   8  26
ATOM     26  O   UNL     1    -107.814 -57.703 -19.143  1.00  0.00    -0.508 OA
ATOM     27  H   UNL     1    -107.593 -57.103 -18.357  1.00  0.00     0.293 HD
ENDBRANCH   8  26
TORSDOF 6
ENDMDL
MODEL 4
REMARK VINA RESULT:    -5.097      4.066      7.068
REMARK INTER + INTRA:          -6.450
REMARK INTER:                  -6.684
REMARK INTRA:                   0.234
REMARK UNBOUND:                -0.311
REMARK SMILES O=c1c(O)c(-c2ccc(O)c(O)c2)oc2cc(O)cc(O)c12
REMARK SMILES IDX 5 1 3 2 2 3 1 4 22 5 20 6 19 7 17 8 16 9 15 10 14 11 6 12
REMARK SMILES IDX 7 13 8 14 9 15 13 16 11 17 10 18 12 20 4 22 21 24 18 26
REMARK H PARENT 10 19 12 21 4 23 21 25 18 27
REMARK Flexibility Score: inf
ROOT
ATOM      1  C   UNL     1    -109.847 -53.812 -26.662  1.00  0.00     0.180 A 
ATOM      2  C   UNL     1    -110.308 -54.452 -27.830  1.00  0.00     0.208 A 
ATOM      3  C   UNL     1    -110.651 -55.811 -27.767  1.00  0.00     0.238 A 
ATOM      4  O   UNL     1    -111.054 -56.399 -28.808  1.00  0.00    -0.285 OA
ATOM      5  C   UNL     1    -110.547 -56.501 -26.542  1.00  0.00     0.111 A 
ATOM      6  C   UNL     1    -110.877 -57.870 -26.393  1.00  0.00     0.134 A 
ATOM      7  C   UNL     1    -110.755 -58.481 -25.136  1.00  0.00     0.093 A 
ATOM      8  C   UNL     1    -110.313 -57.755 -24.029  1.00  0.00     0.123 A 
ATOM      9  C   UNL     1    -109.985 -56.402 -24.170  1.00  0.00     0.094 A 
ATOM     10  C   UNL     1    -110.098 -55.774 -25.413  1.00  0.00     0.146 A 
ATOM     11  O   UNL     1    -109.776 -54.491 -25.521  1.00  0.00    -0.452 OA
ENDROOT
BRANCH   1  12
ATOM     12  C   UNL     1    -109.448 -52.386 -26.653  1.00  0.00     0.025 A 
ATOM     13  C   UNL     1    -109.566 -51.645 -25.467  1.00  0.00     0.016 A 
ATOM     14  C   UNL     1    -109.176 -50.303 -25.429  1.00  0.00     0.051 A 
ATOM     15  C   UNL     1    -108.650 -49.688 -26.568  1.00  0.00     0.157 A 
ATOM     16  C   UNL     1    -108.898 -51.771 -27.792  1.00  0.00     0.062 A 
ATOM     17  C   UNL     1    -108.505 -50.426 -27.755  1.00  0.00     0.158 A 
BRANCH  15  18
ATOM     18  O   UNL     1    -108.271 -48.347 -26.501  1.00  0.00    -0.504 OA
ATOM     19  H   UNL     1    -107.559 -47.958 -27.108  1.00  0.00     0.293 HD
ENDBRANCH  15  18
BRANCH  17  20
ATOM     20  O   UNL     1    -107.967 -49.822 -28.891  1.00  0.00    -0.504 OA
ATOM     21  H   UNL     1    -108.079 -50.227 -29.812  1.00  0.00     0.293 HD
ENDBRANCH  17  20
ENDBRANCH   1  12
BRANCH   2  22
ATOM     22  O   UNL     1    -110.448 -53.734 -29.019  1.00  0.00    -0.502 OA
ATOM     23  H   UNL     1    -111.209 -53.901 -29.668  1.00  0.00     0.293 HD
ENDBRANCH   2  22
BRANCH   6  24
ATOM     24  O   UNL     1    -111.322 -58.623 -27.480  1.00  0.00    -0.507 OA
ATOM     25  H   UNL     1    -112.302 -58.849 -27.606  1.00  0.00     0.293 HD
ENDBRANCH   6  24
BRANCH   8  26
ATOM     26  O   UNL     1    -110.203 -58.386 -22.792  1.00  0.00    -0.508 OA
ATOM     27  H   UNL     1    -109.300 -58.577 -22.372  1.00  0.00     0.293 HD
ENDBRANCH   8  26
TORSDOF 6
ENDMDL
MODEL 5
REMARK VINA RESULT:    -5.094      2.002      3.339
REMARK INTER + INTRA:          -6.447
REMARK INTER:                  -6.120
REMARK INTRA:                  -0.328
REMARK UNBOUND:                -0.311
REMARK SMILES O=c1c(O)c(-c2ccc(O)c(O)c2)oc2cc(O)cc(O)c12
REMARK SMILES IDX 5 1 3 2 2 3 1 4 22 5 20 6 19 7 17 8 16 9 15 10 14 11 6 12
REMARK SMILES IDX 7 13 8 14 9 15 13 16 11 17 10 18 12 20 4 22 21 24 18 26
REMARK H PARENT 10 19 12 21 4 23 21 25 18 27
REMARK Flexibility Score: inf
ROOT
ATOM      1  C   UNL     1    -110.455 -56.437 -23.782  1.00  0.00     0.180 A 
ATOM      2  C   UNL     1    -110.340 -55.122 -24.275  1.00  0.00     0.208 A 
ATOM      3  C   UNL     1    -110.326 -54.917 -25.663  1.00  0.00     0.238 A 
ATOM      4  O   UNL     1    -110.211 -53.746 -26.117  1.00  0.00    -0.285 OA
ATOM      5  C   UNL     1    -110.446 -56.021 -26.532  1.00  0.00     0.111 A 
ATOM      6  C   UNL     1    -110.445 -55.900 -27.943  1.00  0.00     0.134 A 
ATOM      7  C   UNL     1    -110.580 -57.047 -28.739  1.00  0.00     0.093 A 
ATOM      8  C   UNL     1    -110.716 -58.308 -28.156  1.00  0.00     0.123 A 
ATOM      9  C   UNL     1    -110.717 -58.435 -26.763  1.00  0.00     0.094 A 
ATOM     10  C   UNL     1    -110.583 -57.304 -25.951  1.00  0.00     0.146 A 
ATOM     11  O   UNL     1    -110.583 -57.452 -24.632  1.00  0.00    -0.452 OA
ENDROOT
BRANCH   1  12
ATOM     12  C   UNL     1    -110.459 -56.735 -22.332  1.00  0.00     0.025 A 
ATOM     13  C   UNL     1    -111.676 -56.751 -21.634  1.00  0.00     0.016 A 
ATOM     14  C   UNL     1    -111.706 -57.051 -20.269  1.00  0.00     0.051 A 
ATOM     15  C   UNL     1    -110.524 -57.354 -19.587  1.00  0.00     0.157 A 
ATOM     16  C   UNL     1    -109.274 -57.062 -21.648  1.00  0.00     0.062 A 
ATOM     17  C   UNL     1    -109.302 -57.365 -20.279  1.00  0.00     0.158 A 
BRANCH  15  18
ATOM     18  O   UNL     1    -110.585 -57.647 -18.224  1.00  0.00    -0.504 OA
ATOM     19  H   UNL     1    -111.227 -57.173 -17.599  1.00  0.00     0.293 HD
ENDBRANCH  15  18
BRANCH  17  20
ATOM     20  O   UNL     1    -108.121 -57.681 -19.607  1.00  0.00    -0.504 OA
ATOM     21  H   UNL     1    -108.022 -57.532 -18.611  1.00  0.00     0.293 HD
ENDBRANCH  17  20
ENDBRANCH   1  12
BRANCH   2  22
ATOM     22  O   UNL     1    -110.271 -54.041 -23.393  1.00  0.00    -0.502 OA
ATOM     23  H   UNL     1    -109.695 -54.057 -22.559  1.00  0.00     0.293 HD
ENDBRANCH   2  22
BRANCH   6  24
ATOM     24  O   UNL     1    -110.312 -54.654 -28.557  1.00  0.00    -0.507 OA
ATOM     25  H   UNL     1    -109.404 -54.233 -28.717  1.00  0.00     0.293 HD
ENDBRANCH   6  24
BRANCH   8  26
ATOM     26  O   UNL     1    -110.850 -59.432 -28.969  1.00  0.00    -0.508 OA
ATOM     27  H   UNL     1    -111.542 -59.473 -29.708  1.00  0.00     0.293 HD
ENDBRANCH   8  26
TORSDOF 6
ENDMDL
MODEL 6
REMARK VINA RESULT:    -5.062      1.670      6.803
REMARK INTER + INTRA:          -6.408
REMARK INTER:                  -6.155
REMARK INTRA:                  -0.254
REMARK UNBOUND:                -0.311
REMARK SMILES O=c1c(O)c(-c2ccc(O)c(O)c2)oc2cc(O)cc(O)c12
REMARK SMILES IDX 5 1 3 2 2 3 1 4 22 5 20 6 19 7 17 8 16 9 15 10 14 11 6 12
REMARK SMILES IDX 7 13 8 14 9 15 13 16 11 17 10 18 12 20 4 22 21 24 18 26
REMARK H PARENT 10 19 12 21 4 23 21 25 18 27
REMARK Flexibility Score: inf
ROOT
ATOM      1  C   UNL     1    -110.319 -57.356 -22.010  1.00  0.00     0.180 A 
ATOM      2  C   UNL     1    -111.480 -57.352 -21.212  1.00  0.00     0.208 A 
ATOM      3  C   UNL     1    -111.343 -57.396 -19.816  1.00  0.00     0.238 A 
ATOM      4  O   UNL     1    -112.375 -57.404 -19.091  1.00  0.00    -0.285 OA
ATOM      5  C   UNL     1    -110.056 -57.423 -19.242  1.00  0.00     0.111 A 
ATOM      6  C   UNL     1    -109.831 -57.463 -17.845  1.00  0.00     0.134 A 
ATOM      7  C   UNL     1    -108.518 -57.478 -17.352  1.00  0.00     0.093 A 
ATOM      8  C   UNL     1    -107.428 -57.452 -18.224  1.00  0.00     0.123 A 
ATOM      9  C   UNL     1    -107.643 -57.413 -19.606  1.00  0.00     0.094 A 
ATOM     10  C   UNL     1    -108.944 -57.399 -20.118  1.00  0.00     0.146 A 
ATOM     11  O   UNL     1    -109.121 -57.366 -21.433  1.00  0.00    -0.452 OA
ENDROOT
BRANCH   1  12
ATOM     12  C   UNL     1    -110.382 -57.330 -23.489  1.00  0.00     0.025 A 
ATOM     13  C   UNL     1    -110.779 -58.483 -24.183  1.00  0.00     0.016 A 
ATOM     14  C   UNL     1    -110.866 -58.475 -25.578  1.00  0.00     0.051 A 
ATOM     15  C   UNL     1    -110.572 -57.314 -26.298  1.00  0.00     0.157 A 
ATOM     16  C   UNL     1    -110.108 -56.156 -24.214  1.00  0.00     0.062 A 
ATOM     17  C   UNL     1    -110.196 -56.146 -25.613  1.00  0.00     0.158 A 
BRANCH  15  18
ATOM     18  O   UNL     1    -110.666 -57.337 -27.689  1.00  0.00    -0.504 OA
ATOM     19  H   UNL     1    -111.531 -57.562 -28.167  1.00  0.00     0.293 HD
ENDBRANCH  15  18
BRANCH  17  20
ATOM     20  O   UNL     1    -109.916 -54.979 -26.325  1.00  0.00    -0.504 OA
ATOM     21  H   UNL     1    -109.150 -54.370 -26.064  1.00  0.00     0.293 HD
ENDBRANCH  17  20
ENDBRANCH   1  12
BRANCH   2  22
ATOM     22  O   UNL     1    -112.743 -57.275 -21.804  1.00  0.00    -0.502 OA
ATOM     23  H   UNL     1    -112.935 -56.673 -22.596  1.00  0.00     0.293 HD
ENDBRANCH   2  22
BRANCH   6  24
ATOM     24  O   UNL     1    -110.898 -57.488 -16.947  1.00  0.00    -0.507 OA
ATOM     25  H   UNL     1    -111.770 -57.007 -17.140  1.00  0.00     0.293 HD
ENDBRANCH   6  24
BRANCH   8  26
ATOM     26  O   UNL     1    -106.134 -57.467 -17.709  1.00  0.00    -0.508 OA
ATOM     27  H   UNL     1    -105.325 -57.575 -18.310  1.00  0.00     0.293 HD
ENDBRANCH   8  26
TORSDOF 6
ENDMDL
MODEL 7
REMARK VINA RESULT:    -5.045      2.957      6.930
REMARK INTER + INTRA:          -6.388
REMARK INTER:                  -6.437
REMARK INTRA:                   0.049
REMARK UNBOUND:                -0.311
REMARK SMILES O=c1c(O)c(-c2ccc(O)c(O)c2)oc2cc(O)cc(O)c12
REMARK SMILES IDX 5 1 3 2 2 3 1 4 22 5 20 6 19 7 17 8 16 9 15 10 14 11 6 12
REMARK SMILES IDX 7 13 8 14 9 15 13 16 11 17 10 18 12 20 4 22 21 24 18 26
REMARK H PARENT 10 19 12 21 4 23 21 25 18 27
REMARK Flexibility Score: inf
ROOT
ATOM      1  C   UNL     1    -110.244 -55.297 -25.675  1.00  0.00     0.180 A 
ATOM      2  C   UNL     1    -110.364 -56.641 -26.080  1.00  0.00     0.208 A 
ATOM      3  C   UNL     1    -110.448 -57.640 -25.099  1.00  0.00     0.238 A 
ATOM      4  O   UNL     1    -110.544 -58.848 -25.449  1.00  0.00    -0.285 OA
ATOM      5  C   UNL     1    -110.431 -57.281 -23.735  1.00  0.00     0.111 A 
ATOM      6  C   UNL     1    -110.517 -58.226 -22.685  1.00  0.00     0.134 A 
ATOM      7  C   UNL     1    -110.504 -57.787 -21.352  1.00  0.00     0.093 A 
ATOM      8  C   UNL     1    -110.408 -56.428 -21.050  1.00  0.00     0.123 A 
ATOM      9  C   UNL     1    -110.323 -55.489 -22.084  1.00  0.00     0.094 A 
ATOM     10  C   UNL     1    -110.334 -55.905 -23.418  1.00  0.00     0.146 A 
ATOM     11  O   UNL     1    -110.248 -54.995 -24.380  1.00  0.00    -0.452 OA
ENDROOT
BRANCH   1  12
ATOM     12  C   UNL     1    -110.132 -54.188 -26.651  1.00  0.00     0.025 A 
ATOM     13  C   UNL     1    -111.056 -54.098 -27.703  1.00  0.00     0.016 A 
ATOM     14  C   UNL     1    -110.982 -53.049 -28.622  1.00  0.00     0.051 A 
ATOM     15  C   UNL     1    -109.994 -52.068 -28.496  1.00  0.00     0.157 A 
ATOM     16  C   UNL     1    -109.152 -53.188 -26.513  1.00  0.00     0.062 A 
ATOM     17  C   UNL     1    -109.077 -52.133 -27.434  1.00  0.00     0.158 A 
BRANCH  15  18
ATOM     18  O   UNL     1    -109.944 -51.034 -29.431  1.00  0.00    -0.504 OA
ATOM     19  H   UNL     1    -109.070 -50.601 -29.708  1.00  0.00     0.293 HD
ENDBRANCH  15  18
BRANCH  17  20
ATOM     20  O   UNL     1    -108.099 -51.149 -27.294  1.00  0.00    -0.504 OA
ATOM     21  H   UNL     1    -107.794 -50.830 -26.384  1.00  0.00     0.293 HD
ENDBRANCH  17  20
ENDBRANCH   1  12
BRANCH   2  22
ATOM     22  O   UNL     1    -110.427 -56.965 -27.438  1.00  0.00    -0.502 OA
ATOM     23  H   UNL     1    -110.110 -56.332 -28.162  1.00  0.00     0.293 HD
ENDBRANCH   2  22
BRANCH   6  24
ATOM     24  O   UNL     1    -110.613 -59.592 -22.953  1.00  0.00    -0.507 OA
ATOM     25  H   UNL     1    -110.952 -59.937 -23.844  1.00  0.00     0.293 HD
ENDBRANCH   6  24
BRANCH   8  26
ATOM     26  O   UNL     1    -110.398 -56.018 -19.718  1.00  0.00    -0.508 OA
ATOM     27  H   UNL     1    -109.687 -56.336 -19.071  1.00  0.00     0.293 HD
ENDBRANCH   8  26
TORSDOF 6
ENDMDL
MODEL 8
REMARK VINA RESULT:    -4.977      4.245      7.259
REMARK INTER + INTRA:          -6.306
REMARK INTER:                  -6.041
REMARK INTRA:                  -0.264
REMARK UNBOUND:                -0.311
REMARK SMILES O=c1c(O)c(-c2ccc(O)c(O)c2)oc2cc(O)cc(O)c12
REMARK SMILES IDX 5 1 3 2 2 3 1 4 22 5 20 6 19 7 17 8 16 9 15 10 14 11 6 12
REMARK SMILES IDX 7 13 8 14 9 15 13 16 11 17 10 18 12 20 4 22 21 24 18 26
REMARK H PARENT 10 19 12 21 4 23 21 25 18 27
REMARK Flexibility Score: inf
ROOT
ATOM      1  C   UNL     1    -110.021 -53.647 -26.906  1.00  0.00     0.180 A 
ATOM      2  C   UNL     1    -110.225 -53.856 -25.528  1.00  0.00     0.208 A 
ATOM      3  C   UNL     1    -110.511 -55.153 -25.074  1.00  0.00     0.238 A 
ATOM      4  O   UNL     1    -110.708 -55.350 -23.844  1.00  0.00    -0.285 OA
ATOM      5  C   UNL     1    -110.569 -56.217 -25.996  1.00  0.00     0.111 A 
ATOM      6  C   UNL     1    -110.846 -57.554 -25.620  1.00  0.00     0.134 A 
ATOM      7  C   UNL     1    -110.876 -58.560 -26.597  1.00  0.00     0.093 A 
ATOM      8  C   UNL     1    -110.633 -58.258 -27.938  1.00  0.00     0.123 A 
ATOM      9  C   UNL     1    -110.359 -56.940 -28.317  1.00  0.00     0.094 A 
ATOM     10  C   UNL     1    -110.326 -55.922 -27.359  1.00  0.00     0.146 A 
ATOM     11  O   UNL     1    -110.067 -54.678 -27.744  1.00  0.00    -0.452 OA
ENDROOT
BRANCH   1  12
ATOM     12  C   UNL     1    -109.733 -52.306 -27.464  1.00  0.00     0.025 A 
ATOM     13  C   UNL     1    -110.757 -51.591 -28.104  1.00  0.00     0.016 A 
ATOM     14  C   UNL     1    -110.514 -50.315 -28.620  1.00  0.00     0.051 A 
ATOM     15  C   UNL     1    -109.252 -49.730 -28.491  1.00  0.00     0.157 A 
ATOM     16  C   UNL     1    -108.469 -51.706 -27.317  1.00  0.00     0.062 A 
ATOM     17  C   UNL     1    -108.224 -50.426 -27.832  1.00  0.00     0.158 A 
BRANCH  15  18
ATOM     18  O   UNL     1    -109.038 -48.456 -29.017  1.00  0.00    -0.504 OA
ATOM     19  H   UNL     1    -109.804 -47.825 -29.226  1.00  0.00     0.293 HD
ENDBRANCH  15  18
BRANCH  17  20
ATOM     20  O   UNL     1    -106.966 -49.841 -27.687  1.00  0.00    -0.504 OA
ATOM     21  H   UNL     1    -106.835 -48.840 -27.759  1.00  0.00     0.293 HD
ENDBRANCH  17  20
ENDBRANCH   1  12
BRANCH   2  22
ATOM     22  O   UNL     1    -110.114 -52.792 -24.630  1.00  0.00    -0.502 OA
ATOM     23  H   UNL     1    -109.796 -52.918 -23.676  1.00  0.00     0.293 HD
ENDBRANCH   2  22
BRANCH   6  24
ATOM     24  O   UNL     1    -111.092 -57.888 -24.287  1.00  0.00    -0.507 OA
ATOM     25  H   UNL     1    -110.367 -58.271 -23.691  1.00  0.00     0.293 HD
ENDBRANCH   6  24
BRANCH   8  26
ATOM     26  O   UNL     1    -110.667 -59.276 -28.889  1.00  0.00    -0.508 OA
ATOM     27  H   UNL     1    -110.962 -59.101 -29.843  1.00  0.00     0.293 HD
ENDBRANCH   8  26
TORSDOF 6
ENDMDL
MODEL 9
REMARK VINA RESULT:    -4.905      3.938      7.521
REMARK INTER + INTRA:          -6.219
REMARK INTER:                  -5.927
REMARK INTRA:                  -0.292
REMARK UNBOUND:                -0.311
REMARK SMILES O=c1c(O)c(-c2ccc(O)c(O)c2)oc2cc(O)cc(O)c12
REMARK SMILES IDX 5 1 3 2 2 3 1 4 22 5 20 6 19 7 17 8 16 9 15 10 14 11 6 12
REMARK SMILES IDX 7 13 8 14 9 15 13 16 11 17 10 18 12 20 4 22 21 24 18 26
REMARK H PARENT 10 19 12 21 4 23 21 25 18 27
REMARK Flexibility Score: inf
ROOT
ATOM      1  C   UNL     1    -110.219 -53.982 -26.700  1.00  0.00     0.180 A 
ATOM      2  C   UNL     1    -110.299 -55.178 -27.440  1.00  0.00     0.208 A 
ATOM      3  C   UNL     1    -110.368 -56.398 -26.750  1.00  0.00     0.238 A 
ATOM      4  O   UNL     1    -110.428 -57.477 -27.401  1.00  0.00    -0.285 OA
ATOM      5  C   UNL     1    -110.374 -56.403 -25.340  1.00  0.00     0.111 A 
ATOM      6  C   UNL     1    -110.445 -57.589 -24.570  1.00  0.00     0.134 A 
ATOM      7  C   UNL     1    -110.457 -57.508 -23.170  1.00  0.00     0.093 A 
ATOM      8  C   UNL     1    -110.400 -56.271 -22.525  1.00  0.00     0.123 A 
ATOM      9  C   UNL     1    -110.330 -55.096 -23.281  1.00  0.00     0.094 A 
ATOM     10  C   UNL     1    -110.316 -55.154 -24.678  1.00  0.00     0.146 A 
ATOM     11  O   UNL     1    -110.244 -54.024 -25.371  1.00  0.00    -0.452 OA
ENDROOT
BRANCH   1  12
ATOM     12  C   UNL     1    -110.126 -52.657 -27.354  1.00  0.00     0.025 A 
ATOM     13  C   UNL     1    -111.291 -52.043 -27.840  1.00  0.00     0.016 A 
ATOM     14  C   UNL     1    -111.229 -50.784 -28.443  1.00  0.00     0.051 A 
ATOM     15  C   UNL     1    -110.008 -50.113 -28.555  1.00  0.00     0.157 A 
ATOM     16  C   UNL     1    -108.901 -51.971 -27.449  1.00  0.00     0.062 A 
ATOM     17  C   UNL     1    -108.838 -50.706 -28.052  1.00  0.00     0.158 A 
BRANCH  15  18
ATOM     18  O   UNL     1    -109.978 -48.858 -29.163  1.00  0.00    -0.504 OA
ATOM     19  H   UNL     1    -109.112 -48.431 -29.473  1.00  0.00     0.293 HD
ENDBRANCH  15  18
BRANCH  17  20
ATOM     20  O   UNL     1    -107.619 -50.036 -28.147  1.00  0.00    -0.504 OA
ATOM     21  H   UNL     1    -107.482 -49.121 -27.736  1.00  0.00     0.293 HD
ENDBRANCH  17  20
ENDBRANCH   1  12
BRANCH   2  22
ATOM     22  O   UNL     1    -110.341 -55.142 -28.835  1.00  0.00    -0.502 OA
ATOM     23  H   UNL     1    -109.733 -54.542 -29.381  1.00  0.00     0.293 HD
ENDBRANCH   2  22
BRANCH   6  24
ATOM     24  O   UNL     1    -110.503 -58.841 -25.183  1.00  0.00    -0.507 OA
ATOM     25  H   UNL     1    -111.162 -59.040 -25.928  1.00  0.00     0.293 HD
ENDBRANCH   6  24
BRANCH   8  26
ATOM     26  O   UNL     1    -110.415 -56.219 -21.134  1.00  0.00    -0.508 OA
ATOM     27  H   UNL     1    -111.236 -55.917 -20.622  1.00  0.00     0.293 HD
ENDBRANCH   8  26
TORSDOF 6
ENDMDL
