MODEL 1
REMARK VINA RESULT:    -6.719      0.000      0.000
REMARK INTER + INTRA:          -8.203
REMARK INTER:                  -7.898
REMARK INTRA:                  -0.305
REMARK UNBOUND:                -0.305
REMARK SMILES O=c1cc(-c2ccc(O)c(O)c2)oc2cc(O)cc(O)c12
REMARK SMILES IDX 4 1 3 2 2 3 1 4 21 5 19 6 18 7 16 8 15 9 14 10 13 11 5 12
REMARK SMILES IDX 6 13 7 14 8 15 12 16 10 17 9 18 11 20 20 22 17 24
REMARK H PARENT 9 19 11 21 20 23 17 25
REMARK Flexibility Score: inf
ROOT
ATOM      1  C   UNL     1       9.129  -7.388  -9.228  1.00  0.00     0.138 A 
ATOM      2  C   UNL     1       8.048  -7.705 -10.061  1.00  0.00     0.100 A 
ATOM      3  C   UNL     1       8.288  -8.238 -11.329  1.00  0.00     0.197 A 
ATOM      4  O   UNL     1       7.298  -8.572 -12.030  1.00  0.00    -0.289 OA
ATOM      5  C   UNL     1       9.618  -8.426 -11.773  1.00  0.00     0.107 A 
ATOM      6  C   UNL     1       9.983  -8.924 -13.059  1.00  0.00     0.134 A 
ATOM      7  C   UNL     1      11.331  -9.177 -13.345  1.00  0.00     0.093 A 
ATOM      8  C   UNL     1      12.329  -8.894 -12.415  1.00  0.00     0.123 A 
ATOM      9  C   UNL     1      11.989  -8.355 -11.173  1.00  0.00     0.094 A 
ATOM     10  C   UNL     1      10.651  -8.124 -10.845  1.00  0.00     0.146 A 
ATOM     11  O   UNL     1      10.367  -7.625  -9.647  1.00  0.00    -0.456 OA
ENDROOT
BRANCH   1  12
ATOM     12  C   UNL     1       8.931  -6.817  -7.871  1.00  0.00     0.021 A 
ATOM     13  C   UNL     1       7.779  -7.155  -7.139  1.00  0.00     0.016 A 
ATOM     14  C   UNL     1       7.574  -6.637  -5.858  1.00  0.00     0.051 A 
ATOM     15  C   UNL     1       8.520  -5.780  -5.283  1.00  0.00     0.157 A 
ATOM     16  C   UNL     1       9.885  -5.964  -7.280  1.00  0.00     0.062 A 
ATOM     17  C   UNL     1       9.679  -5.445  -5.993  1.00  0.00     0.158 A 
BRANCH  15  18
ATOM     18  O   UNL     1       8.318  -5.260  -4.005  1.00  0.00    -0.504 OA
ATOM     19  H   UNL     1       7.555  -4.622  -3.807  1.00  0.00     0.293 HD
ENDBRANCH  15  18
BRANCH  17  20
ATOM     20  O   UNL     1      10.623  -4.601  -5.414  1.00  0.00    -0.504 OA
ATOM     21  H   UNL     1      11.538  -4.938  -5.138  1.00  0.00     0.293 HD
ENDBRANCH  17  20
ENDBRANCH   1  12
BRANCH   6  22
ATOM     22  O   UNL     1       9.071  -9.161 -14.092  1.00  0.00    -0.507 OA
ATOM     23  H   UNL     1       9.074  -9.973 -14.690  1.00  0.00     0.293 HD
ENDBRANCH   6  22
BRANCH   8  24
ATOM     24  O   UNL     1      13.662  -9.144 -12.739  1.00  0.00    -0.508 OA
ATOM     25  H   UNL     1      14.027  -8.954 -13.664  1.00  0.00     0.293 HD
ENDBRANCH   8  24
TORSDOF 5
ENDMDL
MODEL 2
REMARK VINA RESULT:    -6.717      2.423      6.686
REMARK INTER + INTRA:          -8.200
REMARK INTER:                  -7.882
REMARK INTRA:                  -0.318
REMARK UNBOUND:                -0.305
REMARK SMILES O=c1cc(-c2ccc(O)c(O)c2)oc2cc(O)cc(O)c12
REMARK SMILES IDX 4 1 3 2 2 3 1 4 21 5 19 6 18 7 16 8 15 9 14 10 13 11 5 12
REMARK SMILES IDX 6 13 7 14 8 15 12 16 10 17 9 18 11 20 20 22 17 24
REMARK H PARENT 9 19 11 21 20 23 17 25
REMARK Flexibility Score: inf
ROOT
ATOM      1  C   UNL     1      10.875  -7.177  -9.103  1.00  0.00     0.138 A 
ATOM      2  C   UNL     1      10.146  -8.372  -9.176  1.00  0.00     0.100 A 
ATOM      3  C   UNL     1       9.146  -8.629  -8.237  1.00  0.00     0.197 A 
ATOM      4  O   UNL     1       8.466  -9.680  -8.366  1.00  0.00    -0.289 OA
ATOM      5  C   UNL     1       8.896  -7.696  -7.203  1.00  0.00     0.107 A 
ATOM      6  C   UNL     1       7.929  -7.870  -6.168  1.00  0.00     0.134 A 
ATOM      7  C   UNL     1       7.689  -6.827  -5.264  1.00  0.00     0.093 A 
ATOM      8  C   UNL     1       8.421  -5.642  -5.322  1.00  0.00     0.123 A 
ATOM      9  C   UNL     1       9.408  -5.482  -6.297  1.00  0.00     0.094 A 
ATOM     10  C   UNL     1       9.646  -6.491  -7.233  1.00  0.00     0.146 A 
ATOM     11  O   UNL     1      10.583  -6.293  -8.155  1.00  0.00    -0.456 OA
ENDROOT
BRANCH   1  12
ATOM     12  C   UNL     1      11.951  -6.854 -10.074  1.00  0.00     0.021 A 
ATOM     13  C   UNL     1      12.264  -7.773 -11.092  1.00  0.00     0.016 A 
ATOM     14  C   UNL     1      13.267  -7.489 -12.022  1.00  0.00     0.051 A 
ATOM     15  C   UNL     1      13.967  -6.279 -11.958  1.00  0.00     0.157 A 
ATOM     16  C   UNL     1      12.651  -5.632 -10.024  1.00  0.00     0.062 A 
ATOM     17  C   UNL     1      13.656  -5.347 -10.960  1.00  0.00     0.158 A 
BRANCH  15  18
ATOM     18  O   UNL     1      14.969  -5.993 -12.883  1.00  0.00    -0.504 OA
ATOM     19  H   UNL     1      15.603  -6.710 -13.216  1.00  0.00     0.293 HD
ENDBRANCH  15  18
BRANCH  17  20
ATOM     20  O   UNL     1      14.348  -4.139 -10.906  1.00  0.00    -0.504 OA
ATOM     21  H   UNL     1      15.361  -4.108 -10.874  1.00  0.00     0.293 HD
ENDBRANCH  17  20
ENDBRANCH   1  12
BRANCH   6  22
ATOM     22  O   UNL     1       7.202  -9.048  -5.968  1.00  0.00    -0.507 OA
ATOM     23  H   UNL     1       7.602  -9.972  -5.920  1.00  0.00     0.293 HD
ENDBRANCH   6  22
BRANCH   8  24
ATOM     24  O   UNL     1       8.166  -4.631  -4.397  1.00  0.00    -0.508 OA
ATOM     25  H   UNL     1       8.070  -4.828  -3.408  1.00  0.00     0.293 HD
ENDBRANCH   8  24
TORSDOF 5
ENDMDL
MODEL 3
REMARK VINA RESULT:    -6.559      2.184      6.781
REMARK INTER + INTRA:          -8.014
REMARK INTER:                  -7.708
REMARK INTRA:                  -0.306
REMARK UNBOUND:                -0.305
REMARK SMILES O=c1cc(-c2ccc(O)c(O)c2)oc2cc(O)cc(O)c12
REMARK SMILES IDX 4 1 3 2 2 3 1 4 21 5 19 6 18 7 16 8 15 9 14 10 13 11 5 12
REMARK SMILES IDX 6 13 7 14 8 15 12 16 10 17 9 18 11 20 20 22 17 24
REMARK H PARENT 9 19 11 21 20 23 17 25
REMARK Flexibility Score: inf
ROOT
ATOM      1  C   UNL     1      10.646  -8.453  -9.488  1.00  0.00     0.138 A 
ATOM      2  C   UNL     1       9.591  -9.367  -9.363  1.00  0.00     0.100 A 
ATOM      3  C   UNL     1       8.603  -9.154  -8.400  1.00  0.00     0.197 A 
ATOM      4  O   UNL     1       7.635  -9.957  -8.354  1.00  0.00    -0.289 OA
ATOM      5  C   UNL     1       8.691  -8.035  -7.539  1.00  0.00     0.107 A 
ATOM      6  C   UNL     1       7.765  -7.738  -6.495  1.00  0.00     0.134 A 
ATOM      7  C   UNL     1       7.889  -6.540  -5.781  1.00  0.00     0.093 A 
ATOM      8  C   UNL     1       8.938  -5.657  -6.033  1.00  0.00     0.123 A 
ATOM      9  C   UNL     1       9.882  -5.962  -7.015  1.00  0.00     0.094 A 
ATOM     10  C   UNL     1       9.765  -7.134  -7.767  1.00  0.00     0.146 A 
ATOM     11  O   UNL     1      10.675  -7.381  -8.704  1.00  0.00    -0.456 OA
ENDROOT
BRANCH   1  12
ATOM     12  C   UNL     1      11.724  -8.633 -10.494  1.00  0.00     0.021 A 
ATOM     13  C   UNL     1      12.086  -9.930 -10.895  1.00  0.00     0.016 A 
ATOM     14  C   UNL     1      13.092 -10.125 -11.845  1.00  0.00     0.051 A 
ATOM     15  C   UNL     1      13.746  -9.027 -12.417  1.00  0.00     0.157 A 
ATOM     16  C   UNL     1      12.377  -7.532 -11.083  1.00  0.00     0.062 A 
ATOM     17  C   UNL     1      13.385  -7.728 -12.038  1.00  0.00     0.158 A 
BRANCH  15  18
ATOM     18  O   UNL     1      14.750  -9.217 -13.364  1.00  0.00    -0.504 OA
ATOM     19  H   UNL     1      14.535  -9.342 -14.347  1.00  0.00     0.293 HD
ENDBRANCH  15  18
BRANCH  17  20
ATOM     20  O   UNL     1      14.031  -6.638 -12.617  1.00  0.00    -0.504 OA
ATOM     21  H   UNL     1      13.626  -6.135 -13.398  1.00  0.00     0.293 HD
ENDBRANCH  17  20
ENDBRANCH   1  12
BRANCH   6  22
ATOM     22  O   UNL     1       6.728  -8.592  -6.104  1.00  0.00    -0.507 OA
ATOM     23  H   UNL     1       5.845  -8.291  -5.723  1.00  0.00     0.293 HD
ENDBRANCH   6  22
BRANCH   8  24
ATOM     24  O   UNL     1       9.040  -4.480  -5.293  1.00  0.00    -0.508 OA
ATOM     25  H   UNL     1       8.849  -4.461  -4.298  1.00  0.00     0.293 HD
ENDBRANCH   8  24
TORSDOF 5
ENDMDL
MODEL 4
REMARK VINA RESULT:    -6.334      1.481      3.043
REMARK INTER + INTRA:          -7.749
REMARK INTER:                  -7.457
REMARK INTRA:                  -0.293
REMARK UNBOUND:                -0.305
REMARK SMILES O=c1cc(-c2ccc(O)c(O)c2)oc2cc(O)cc(O)c12
REMARK SMILES IDX 4 1 3 2 2 3 1 4 21 5 19 6 18 7 16 8 15 9 14 10 13 11 5 12
REMARK SMILES IDX 6 13 7 14 8 15 12 16 10 17 9 18 11 20 20 22 17 24
REMARK H PARENT 9 19 11 21 20 23 17 25
REMARK Flexibility Score: inf
ROOT
ATOM      1  C   UNL     1       9.004  -7.435  -8.758  1.00  0.00     0.138 A 
ATOM      2  C   UNL     1      10.178  -7.428  -9.524  1.00  0.00     0.100 A 
ATOM      3  C   UNL     1      10.175  -8.005 -10.795  1.00  0.00     0.197 A 
ATOM      4  O   UNL     1      11.225  -7.928 -11.484  1.00  0.00    -0.289 OA
ATOM      5  C   UNL     1       8.999  -8.617 -11.287  1.00  0.00     0.107 A 
ATOM      6  C   UNL     1       8.890  -9.272 -12.551  1.00  0.00     0.134 A 
ATOM      7  C   UNL     1       7.643  -9.741 -12.981  1.00  0.00     0.093 A 
ATOM      8  C   UNL     1       6.514  -9.633 -12.170  1.00  0.00     0.123 A 
ATOM      9  C   UNL     1       6.619  -9.044 -10.909  1.00  0.00     0.094 A 
ATOM     10  C   UNL     1       7.843  -8.535 -10.466  1.00  0.00     0.146 A 
ATOM     11  O   UNL     1       7.898  -7.968  -9.265  1.00  0.00    -0.456 OA
ENDROOT
BRANCH   1  12
ATOM     12  C   UNL     1       8.951  -6.837  -7.399  1.00  0.00     0.021 A 
ATOM     13  C   UNL     1       7.912  -7.199  -6.524  1.00  0.00     0.016 A 
ATOM     14  C   UNL     1       7.844  -6.656  -5.239  1.00  0.00     0.051 A 
ATOM     15  C   UNL     1       8.818  -5.752  -4.802  1.00  0.00     0.157 A 
ATOM     16  C   UNL     1       9.936  -5.936  -6.948  1.00  0.00     0.062 A 
ATOM     17  C   UNL     1       9.868  -5.393  -5.656  1.00  0.00     0.158 A 
BRANCH  15  18
ATOM     18  O   UNL     1       8.754  -5.207  -3.520  1.00  0.00    -0.504 OA
ATOM     19  H   UNL     1       9.590  -4.929  -3.020  1.00  0.00     0.293 HD
ENDBRANCH  15  18
BRANCH  17  20
ATOM     20  O   UNL     1      10.842  -4.500  -5.214  1.00  0.00    -0.504 OA
ATOM     21  H   UNL     1      11.787  -4.804  -5.010  1.00  0.00     0.293 HD
ENDBRANCH  17  20
ENDBRANCH   1  12
BRANCH   6  22
ATOM     22  O   UNL     1       9.974  -9.507 -13.403  1.00  0.00    -0.507 OA
ATOM     23  H   UNL     1      10.227  -8.927 -14.188  1.00  0.00     0.293 HD
ENDBRANCH   6  22
BRANCH   8  24
ATOM     24  O   UNL     1       5.292 -10.124 -12.624  1.00  0.00    -0.508 OA
ATOM     25  H   UNL     1       5.240 -10.882 -13.294  1.00  0.00     0.293 HD
ENDBRANCH   8  24
TORSDOF 5
ENDMDL
MODEL 5
REMARK VINA RESULT:    -6.203     10.521     14.002
REMARK INTER + INTRA:          -7.596
REMARK INTER:                  -7.332
REMARK INTRA:                  -0.264
REMARK UNBOUND:                -0.305
REMARK SMILES O=c1cc(-c2ccc(O)c(O)c2)oc2cc(O)cc(O)c12
REMARK SMILES IDX 4 1 3 2 2 3 1 4 21 5 19 6 18 7 16 8 15 9 14 10 13 11 5 12
REMARK SMILES IDX 6 13 7 14 8 15 12 16 10 17 9 18 11 20 20 22 17 24
REMARK H PARENT 9 19 11 21 20 23 17 25
REMARK Flexibility Score: inf
ROOT
ATOM      1  C   UNL     1      18.519  -1.880 -17.207  1.00  0.00     0.138 A 
ATOM      2  C   UNL     1      17.908  -1.126 -16.196  1.00  0.00     0.100 A 
ATOM      3  C   UNL     1      17.227  -1.777 -15.167  1.00  0.00     0.197 A 
ATOM      4  O   UNL     1      16.742  -1.077 -14.240  1.00  0.00    -0.289 OA
ATOM      5  C   UNL     1      17.132  -3.188 -15.168  1.00  0.00     0.107 A 
ATOM      6  C   UNL     1      16.429  -3.957 -14.193  1.00  0.00     0.134 A 
ATOM      7  C   UNL     1      16.501  -5.355 -14.232  1.00  0.00     0.093 A 
ATOM      8  C   UNL     1      17.200  -6.012 -15.243  1.00  0.00     0.123 A 
ATOM      9  C   UNL     1      17.847  -5.272 -16.234  1.00  0.00     0.094 A 
ATOM     10  C   UNL     1      17.822  -3.875 -16.203  1.00  0.00     0.146 A 
ATOM     11  O   UNL     1      18.463  -3.206 -17.156  1.00  0.00    -0.456 OA
ENDROOT
BRANCH   1  12
ATOM     12  C   UNL     1      19.256  -1.239 -18.327  1.00  0.00     0.021 A 
ATOM     13  C   UNL     1      18.705  -1.262 -19.620  1.00  0.00     0.016 A 
ATOM     14  C   UNL     1      19.375  -0.660 -20.688  1.00  0.00     0.051 A 
ATOM     15  C   UNL     1      20.600  -0.017 -20.481  1.00  0.00     0.157 A 
ATOM     16  C   UNL     1      20.484  -0.579 -18.123  1.00  0.00     0.062 A 
ATOM     17  C   UNL     1      21.155   0.027 -19.196  1.00  0.00     0.158 A 
BRANCH  15  18
ATOM     18  O   UNL     1      21.272   0.583 -21.544  1.00  0.00    -0.504 OA
ATOM     19  H   UNL     1      22.269   0.458 -21.680  1.00  0.00     0.293 HD
ENDBRANCH  15  18
BRANCH  17  20
ATOM     20  O   UNL     1      22.370   0.677 -18.992  1.00  0.00    -0.504 OA
ATOM     21  H   UNL     1      23.057   0.763 -19.731  1.00  0.00     0.293 HD
ENDBRANCH  17  20
ENDBRANCH   1  12
BRANCH   6  22
ATOM     22  O   UNL     1      15.630  -3.401 -13.188  1.00  0.00    -0.507 OA
ATOM     23  H   UNL     1      15.471  -3.815 -12.283  1.00  0.00     0.293 HD
ENDBRANCH   6  22
BRANCH   8  24
ATOM     24  O   UNL     1      17.239  -7.405 -15.259  1.00  0.00    -0.508 OA
ATOM     25  H   UNL     1      16.595  -7.960 -14.708  1.00  0.00     0.293 HD
ENDBRANCH   8  24
TORSDOF 5
ENDMDL
MODEL 6
REMARK VINA RESULT:    -5.971      2.849      3.930
REMARK INTER + INTRA:          -7.323
REMARK INTER:                  -7.014
REMARK INTRA:                  -0.308
REMARK UNBOUND:                -0.305
REMARK SMILES O=c1cc(-c2ccc(O)c(O)c2)oc2cc(O)cc(O)c12
REMARK SMILES IDX 4 1 3 2 2 3 1 4 21 5 19 6 18 7 16 8 15 9 14 10 13 11 5 12
REMARK SMILES IDX 6 13 7 14 8 15 12 16 10 17 9 18 11 20 20 22 17 24
REMARK H PARENT 9 19 11 21 20 23 17 25
REMARK Flexibility Score: inf
ROOT
ATOM      1  C   UNL     1      11.576  -7.004  -9.713  1.00  0.00     0.138 A 
ATOM      2  C   UNL     1      11.639  -7.947 -10.748  1.00  0.00     0.100 A 
ATOM      3  C   UNL     1      12.632  -7.837 -11.722  1.00  0.00     0.197 A 
ATOM      4  O   UNL     1      12.702  -8.733 -12.603  1.00  0.00    -0.289 OA
ATOM      5  C   UNL     1      13.549  -6.760 -11.674  1.00  0.00     0.107 A 
ATOM      6  C   UNL     1      14.577  -6.524 -12.635  1.00  0.00     0.134 A 
ATOM      7  C   UNL     1      15.498  -5.491 -12.421  1.00  0.00     0.093 A 
ATOM      8  C   UNL     1      15.393  -4.650 -11.315  1.00  0.00     0.123 A 
ATOM      9  C   UNL     1      14.358  -4.837 -10.396  1.00  0.00     0.094 A 
ATOM     10  C   UNL     1      13.444  -5.880 -10.564  1.00  0.00     0.146 A 
ATOM     11  O   UNL     1      12.482  -6.034  -9.660  1.00  0.00    -0.456 OA
ENDROOT
BRANCH   1  12
ATOM     12  C   UNL     1      10.539  -7.072  -8.652  1.00  0.00     0.021 A 
ATOM     13  C   UNL     1       9.969  -8.314  -8.320  1.00  0.00     0.016 A 
ATOM     14  C   UNL     1       8.997  -8.405  -7.321  1.00  0.00     0.051 A 
ATOM     15  C   UNL     1       8.586  -7.260  -6.630  1.00  0.00     0.157 A 
ATOM     16  C   UNL     1      10.130  -5.926  -7.943  1.00  0.00     0.062 A 
ATOM     17  C   UNL     1       9.155  -6.019  -6.938  1.00  0.00     0.158 A 
BRANCH  15  18
ATOM     18  O   UNL     1       7.615  -7.347  -5.633  1.00  0.00    -0.504 OA
ATOM     19  H   UNL     1       7.720  -6.863  -4.748  1.00  0.00     0.293 HD
ENDBRANCH  15  18
BRANCH  17  20
ATOM     20  O   UNL     1       8.751  -4.883  -6.240  1.00  0.00    -0.504 OA
ATOM     21  H   UNL     1       8.875  -4.803  -5.238  1.00  0.00     0.293 HD
ENDBRANCH  17  20
ENDBRANCH   1  12
BRANCH   6  22
ATOM     22  O   UNL     1      14.721  -7.253 -13.819  1.00  0.00    -0.507 OA
ATOM     23  H   UNL     1      14.082  -7.964 -14.141  1.00  0.00     0.293 HD
ENDBRANCH   6  22
BRANCH   8  24
ATOM     24  O   UNL     1      16.319  -3.623 -11.141  1.00  0.00    -0.508 OA
ATOM     25  H   UNL     1      16.026  -2.667 -10.977  1.00  0.00     0.293 HD
ENDBRANCH   8  24
TORSDOF 5
ENDMDL
MODEL 7
REMARK VINA RESULT:    -5.895      3.450      6.000
REMARK INTER + INTRA:          -7.234
REMARK INTER:                  -6.947
REMARK INTRA:                  -0.287
REMARK UNBOUND:                -0.305
REMARK SMILES O=c1cc(-c2ccc(O)c(O)c2)oc2cc(O)cc(O)c12
REMARK SMILES IDX 4 1 3 2 2 3 1 4 21 5 19 6 18 7 16 8 15 9 14 10 13 11 5 12
REMARK SMILES IDX 6 13 7 14 8 15 12 16 10 17 9 18 11 20 20 22 17 24
REMARK H PARENT 9 19 11 21 20 23 17 25
REMARK Flexibility Score: inf
ROOT
ATOM      1  C   UNL     1      11.660  -5.981 -10.416  1.00  0.00     0.138 A 
ATOM      2  C   UNL     1      11.426  -6.351  -9.085  1.00  0.00     0.100 A 
ATOM      3  C   UNL     1      10.279  -7.079  -8.763  1.00  0.00     0.197 A 
ATOM      4  O   UNL     1      10.127  -7.451  -7.571  1.00  0.00    -0.289 OA
ATOM      5  C   UNL     1       9.349  -7.409  -9.776  1.00  0.00     0.107 A 
ATOM      6  C   UNL     1       8.125  -8.112  -9.559  1.00  0.00     0.134 A 
ATOM      7  C   UNL     1       7.339  -8.484 -10.656  1.00  0.00     0.093 A 
ATOM      8  C   UNL     1       7.699  -8.128 -11.955  1.00  0.00     0.123 A 
ATOM      9  C   UNL     1       8.866  -7.394 -12.175  1.00  0.00     0.094 A 
ATOM     10  C   UNL     1       9.689  -7.037 -11.104  1.00  0.00     0.146 A 
ATOM     11  O   UNL     1      10.799  -6.351 -11.357  1.00  0.00    -0.456 OA
ENDROOT
BRANCH   1  12
ATOM     12  C   UNL     1      12.863  -5.205 -10.814  1.00  0.00     0.021 A 
ATOM     13  C   UNL     1      12.791  -4.332 -11.913  1.00  0.00     0.016 A 
ATOM     14  C   UNL     1      13.906  -3.586 -12.303  1.00  0.00     0.051 A 
ATOM     15  C   UNL     1      15.109  -3.693 -11.595  1.00  0.00     0.157 A 
ATOM     16  C   UNL     1      14.073  -5.297 -10.098  1.00  0.00     0.062 A 
ATOM     17  C   UNL     1      15.192  -4.547 -10.489  1.00  0.00     0.158 A 
BRANCH  15  18
ATOM     18  O   UNL     1      16.224  -2.951 -11.981  1.00  0.00    -0.504 OA
ATOM     19  H   UNL     1      16.924  -2.657 -11.309  1.00  0.00     0.293 HD
ENDBRANCH  15  18
BRANCH  17  20
ATOM     20  O   UNL     1      16.388  -4.642  -9.781  1.00  0.00    -0.504 OA
ATOM     21  H   UNL     1      17.281  -4.714 -10.254  1.00  0.00     0.293 HD
ENDBRANCH  17  20
ENDBRANCH   1  12
BRANCH   6  22
ATOM     22  O   UNL     1       7.629  -8.443  -8.294  1.00  0.00    -0.507 OA
ATOM     23  H   UNL     1       8.093  -9.046  -7.632  1.00  0.00     0.293 HD
ENDBRANCH   6  22
BRANCH   8  24
ATOM     24  O   UNL     1       6.884  -8.503 -13.022  1.00  0.00    -0.508 OA
ATOM     25  H   UNL     1       7.092  -8.221 -13.972  1.00  0.00     0.293 HD
ENDBRANCH   8  24
TORSDOF 5
ENDMDL
MODEL 8
REMARK VINA RESULT:    -5.891     10.629     14.159
REMARK INTER + INTRA:          -7.229
REMARK INTER:                  -6.957
REMARK INTRA:                  -0.272
REMARK UNBOUND:                -0.305
REMARK SMILES O=c1cc(-c2ccc(O)c(O)c2)oc2cc(O)cc(O)c12
REMARK SMILES IDX 4 1 3 2 2 3 1 4 21 5 19 6 18 7 16 8 15 9 14 10 13 11 5 12
REMARK SMILES IDX 6 13 7 14 8 15 12 16 10 17 9 18 11 20 20 22 17 24
REMARK H PARENT 9 19 11 21 20 23 17 25
REMARK Flexibility Score: inf
ROOT
ATOM      1  C   UNL     1      18.665  -2.290 -17.490  1.00  0.00     0.138 A 
ATOM      2  C   UNL     1      18.556  -3.682 -17.616  1.00  0.00     0.100 A 
ATOM      3  C   UNL     1      17.909  -4.416 -16.621  1.00  0.00     0.197 A 
ATOM      4  O   UNL     1      17.771  -5.655 -16.792  1.00  0.00    -0.289 OA
ATOM      5  C   UNL     1      17.396  -3.755 -15.480  1.00  0.00     0.107 A 
ATOM      6  C   UNL     1      16.754  -4.405 -14.384  1.00  0.00     0.134 A 
ATOM      7  C   UNL     1      16.184  -3.635 -13.362  1.00  0.00     0.093 A 
ATOM      8  C   UNL     1      16.284  -2.245 -13.367  1.00  0.00     0.123 A 
ATOM      9  C   UNL     1      16.957  -1.600 -14.406  1.00  0.00     0.094 A 
ATOM     10  C   UNL     1      17.507  -2.339 -15.457  1.00  0.00     0.146 A 
ATOM     11  O   UNL     1      18.127  -1.687 -16.436  1.00  0.00    -0.456 OA
ENDROOT
BRANCH   1  12
ATOM     12  C   UNL     1      19.344  -1.461 -18.518  1.00  0.00     0.021 A 
ATOM     13  C   UNL     1      18.790  -1.365 -19.807  1.00  0.00     0.016 A 
ATOM     14  C   UNL     1      19.406  -0.585 -20.789  1.00  0.00     0.051 A 
ATOM     15  C   UNL     1      20.579   0.120 -20.498  1.00  0.00     0.157 A 
ATOM     16  C   UNL     1      20.518  -0.737 -18.228  1.00  0.00     0.062 A 
ATOM     17  C   UNL     1      21.135   0.047 -19.214  1.00  0.00     0.158 A 
BRANCH  15  18
ATOM     18  O   UNL     1      21.197   0.898 -21.475  1.00  0.00    -0.504 OA
ATOM     19  H   UNL     1      21.826   1.655 -21.230  1.00  0.00     0.293 HD
ENDBRANCH  15  18
BRANCH  17  20
ATOM     20  O   UNL     1      22.297   0.759 -18.925  1.00  0.00    -0.504 OA
ATOM     21  H   UNL     1      22.978   0.414 -18.259  1.00  0.00     0.293 HD
ENDBRANCH  17  20
ENDBRANCH   1  12
BRANCH   6  22
ATOM     22  O   UNL     1      16.673  -5.793 -14.238  1.00  0.00    -0.507 OA
ATOM     23  H   UNL     1      17.254  -6.459 -14.723  1.00  0.00     0.293 HD
ENDBRANCH   6  22
BRANCH   8  24
ATOM     24  O   UNL     1      15.718  -1.511 -12.326  1.00  0.00    -0.508 OA
ATOM     25  H   UNL     1      14.715  -1.397 -12.242  1.00  0.00     0.293 HD
ENDBRANCH   8  24
TORSDOF 5
ENDMDL
MODEL 9
REMARK VINA RESULT:    -5.751      9.731     12.806
REMARK INTER + INTRA:          -7.064
REMARK INTER:                  -6.801
REMARK INTRA:                  -0.263
REMARK UNBOUND:                -0.305
REMARK SMILES O=c1cc(-c2ccc(O)c(O)c2)oc2cc(O)cc(O)c12
REMARK SMILES IDX 4 1 3 2 2 3 1 4 21 5 19 6 18 7 16 8 15 9 14 10 13 11 5 12
REMARK SMILES IDX 6 13 7 14 8 15 12 16 10 17 9 18 11 20 20 22 17 24
REMARK H PARENT 9 19 11 21 20 23 17 25
REMARK Flexibility Score: inf
ROOT
ATOM      1  C   UNL     1      17.732  -4.459 -16.621  1.00  0.00     0.138 A 
ATOM      2  C   UNL     1      17.424  -3.447 -15.702  1.00  0.00     0.100 A 
ATOM      3  C   UNL     1      17.822  -2.134 -15.962  1.00  0.00     0.197 A 
ATOM      4  O   UNL     1      17.476  -1.237 -15.150  1.00  0.00    -0.289 OA
ATOM      5  C   UNL     1      18.557  -1.841 -17.134  1.00  0.00     0.107 A 
ATOM      6  C   UNL     1      19.050  -0.548 -17.483  1.00  0.00     0.134 A 
ATOM      7  C   UNL     1      19.666  -0.356 -18.726  1.00  0.00     0.093 A 
ATOM      8  C   UNL     1      19.861  -1.419 -19.605  1.00  0.00     0.123 A 
ATOM      9  C   UNL     1      19.432  -2.700 -19.252  1.00  0.00     0.094 A 
ATOM     10  C   UNL     1      18.783  -2.917 -18.034  1.00  0.00     0.146 A 
ATOM     11  O   UNL     1      18.376  -4.148 -17.741  1.00  0.00    -0.456 OA
ENDROOT
BRANCH   1  12
ATOM     12  C   UNL     1      17.335  -5.872 -16.394  1.00  0.00     0.021 A 
ATOM     13  C   UNL     1      18.267  -6.774 -15.853  1.00  0.00     0.016 A 
ATOM     14  C   UNL     1      17.915  -8.107 -15.624  1.00  0.00     0.051 A 
ATOM     15  C   UNL     1      16.625  -8.558 -15.921  1.00  0.00     0.157 A 
ATOM     16  C   UNL     1      16.033  -6.330 -16.679  1.00  0.00     0.062 A 
ATOM     17  C   UNL     1      15.680  -7.667 -16.447  1.00  0.00     0.158 A 
BRANCH  15  18
ATOM     18  O   UNL     1      16.270  -9.886 -15.695  1.00  0.00    -0.504 OA
ATOM     19  H   UNL     1      15.741 -10.417 -16.377  1.00  0.00     0.293 HD
ENDBRANCH  15  18
BRANCH  17  20
ATOM     20  O   UNL     1      14.393  -8.117 -16.731  1.00  0.00    -0.504 OA
ATOM     21  H   UNL     1      13.843  -7.714 -17.481  1.00  0.00     0.293 HD
ENDBRANCH  17  20
ENDBRANCH   1  12
BRANCH   6  22
ATOM     22  O   UNL     1      18.983   0.566 -16.641  1.00  0.00    -0.507 OA
ATOM     23  H   UNL     1      18.415   1.382 -16.807  1.00  0.00     0.293 HD
ENDBRANCH   6  22
BRANCH   8  24
ATOM     24  O   UNL     1      20.491  -1.195 -20.828  1.00  0.00    -0.508 OA
ATOM     25  H   UNL     1      20.464  -0.288 -21.280  1.00  0.00     0.293 HD
ENDBRANCH   8  24
TORSDOF 5
ENDMDL
