MODEL 1
REMARK VINA RESULT:    -3.374      0.000      0.000
REMARK INTER + INTRA:          -3.374
REMARK INTER:                  -3.374
REMARK INTRA:                   0.000
REMARK UNBOUND:                 0.000
REMARK SMILES CC1(C)O[C@]2(C)CC[C@H]1CC2
REMARK SMILES IDX 1 1 2 2 9 3 10 4 11 5 5 6 4 7 7 8 8 9 6 10 3 11
REMARK H PARENT
REMARK Flexibility Score: inf
ROOT
ATOM      1  C   UNL     1      10.135   2.180   7.561  1.00  0.00     0.042 C 
ATOM      2  C   UNL     1       8.615   2.437   7.636  1.00  0.00     0.066 C 
ATOM      3  C   UNL     1       7.810   1.159   7.177  1.00  0.00     0.021 C 
ATOM      4  C   UNL     1       6.299   1.490   7.223  1.00  0.00     0.009 C 
ATOM      5  C   UNL     1       6.041   2.798   6.437  1.00  0.00     0.035 C 
ATOM      6  C   UNL     1       7.365   3.293   5.788  1.00  0.00     0.066 C 
ATOM      7  O   UNL     1       8.314   3.577   6.818  1.00  0.00    -0.369 OA
ATOM      8  C   UNL     1       7.929   2.172   4.869  1.00  0.00     0.035 C 
ATOM      9  C   UNL     1       8.143   0.878   5.692  1.00  0.00     0.009 C 
ATOM     10  C   UNL     1       7.117   4.571   4.979  1.00  0.00     0.042 C 
ATOM     11  C   UNL     1       8.281   2.795   9.100  1.00  0.00     0.042 C 
ENDROOT
TORSDOF 0
ENDMDL
MODEL 2
REMARK VINA RESULT:    -3.370      1.350      3.011
REMARK INTER + INTRA:          -3.370
REMARK INTER:                  -3.370
REMARK INTRA:                   0.000
REMARK UNBOUND:                 0.000
REMARK SMILES CC1(C)O[C@]2(C)CC[C@H]1CC2
REMARK SMILES IDX 1 1 2 2 9 3 10 4 11 5 5 6 4 7 7 8 8 9 6 10 3 11
REMARK H PARENT
REMARK Flexibility Score: inf
ROOT
ATOM      1  C   UNL     1       7.481   5.669   5.868  1.00  0.00     0.042 C 
ATOM      2  C   UNL     1       6.837   4.269   5.972  1.00  0.00     0.066 C 
ATOM      3  C   UNL     1       6.991   3.691   7.432  1.00  0.00     0.021 C 
ATOM      4  C   UNL     1       6.376   2.271   7.464  1.00  0.00     0.009 C 
ATOM      5  C   UNL     1       6.978   1.430   6.312  1.00  0.00     0.035 C 
ATOM      6  C   UNL     1       8.064   2.259   5.566  1.00  0.00     0.066 C 
ATOM      7  O   UNL     1       7.457   3.419   4.995  1.00  0.00    -0.369 OA
ATOM      8  C   UNL     1       9.152   2.701   6.586  1.00  0.00     0.035 C 
ATOM      9  C   UNL     1       8.499   3.512   7.731  1.00  0.00     0.009 C 
ATOM     10  C   UNL     1       8.691   1.426   4.443  1.00  0.00     0.042 C 
ATOM     11  C   UNL     1       5.347   4.421   5.599  1.00  0.00     0.042 C 
ENDROOT
TORSDOF 0
ENDMDL
MODEL 3
REMARK VINA RESULT:    -3.351      1.351      2.942
REMARK INTER + INTRA:          -3.351
REMARK INTER:                  -3.351
REMARK INTRA:                   0.000
REMARK UNBOUND:                 0.000
REMARK SMILES CC1(C)O[C@]2(C)CC[C@H]1CC2
REMARK SMILES IDX 1 1 2 2 9 3 10 4 11 5 5 6 4 7 7 8 8 9 6 10 3 11
REMARK H PARENT
REMARK Flexibility Score: inf
ROOT
ATOM      1  C   UNL     1       8.196   5.360   7.562  1.00  0.00     0.042 C 
ATOM      2  C   UNL     1       8.311   3.926   7.001  1.00  0.00     0.066 C 
ATOM      3  C   UNL     1       7.881   3.884   5.484  1.00  0.00     0.021 C 
ATOM      4  C   UNL     1       7.965   2.420   4.991  1.00  0.00     0.009 C 
ATOM      5  C   UNL     1       7.180   1.509   5.966  1.00  0.00     0.035 C 
ATOM      6  C   UNL     1       6.493   2.376   7.060  1.00  0.00     0.066 C 
ATOM      7  O   UNL     1       7.495   3.064   7.810  1.00  0.00    -0.369 OA
ATOM      8  C   UNL     1       5.565   3.417   6.371  1.00  0.00     0.035 C 
ATOM      9  C   UNL     1       6.388   4.284   5.387  1.00  0.00     0.009 C 
ATOM     10  C   UNL     1       5.685   1.489   8.013  1.00  0.00     0.042 C 
ATOM     11  C   UNL     1       9.782   3.486   7.164  1.00  0.00     0.042 C 
ENDROOT
TORSDOF 0
ENDMDL
MODEL 4
REMARK VINA RESULT:    -3.181      1.500      2.943
REMARK INTER + INTRA:          -3.181
REMARK INTER:                  -3.181
REMARK INTRA:                   0.000
REMARK UNBOUND:                 0.000
REMARK SMILES CC1(C)O[C@]2(C)CC[C@H]1CC2
REMARK SMILES IDX 1 1 2 2 9 3 10 4 11 5 5 6 4 7 7 8 8 9 6 10 3 11
REMARK H PARENT
REMARK Flexibility Score: inf
ROOT
ATOM      1  C   UNL     1       8.135   1.895   4.731  1.00  0.00     0.042 C 
ATOM      2  C   UNL     1       7.545   2.468   6.037  1.00  0.00     0.066 C 
ATOM      3  C   UNL     1       6.451   3.562   5.724  1.00  0.00     0.021 C 
ATOM      4  C   UNL     1       5.934   4.136   7.064  1.00  0.00     0.009 C 
ATOM      5  C   UNL     1       7.141   4.581   7.926  1.00  0.00     0.035 C 
ATOM      6  C   UNL     1       8.460   4.389   7.124  1.00  0.00     0.066 C 
ATOM      7  O   UNL     1       8.625   3.004   6.817  1.00  0.00    -0.369 OA
ATOM      8  C   UNL     1       8.369   5.199   5.799  1.00  0.00     0.035 C 
ATOM      9  C   UNL     1       7.134   4.740   4.987  1.00  0.00     0.009 C 
ATOM     10  C   UNL     1       9.661   4.857   7.954  1.00  0.00     0.042 C 
ATOM     11  C   UNL     1       6.929   1.288   6.819  1.00  0.00     0.042 C 
ENDROOT
TORSDOF 0
ENDMDL
MODEL 5
REMARK VINA RESULT:    -3.145      0.959      3.196
REMARK INTER + INTRA:          -3.145
REMARK INTER:                  -3.145
REMARK INTRA:                   0.000
REMARK UNBOUND:                 0.000
REMARK SMILES CC1(C)O[C@]2(C)CC[C@H]1CC2
REMARK SMILES IDX 1 1 2 2 9 3 10 4 11 5 5 6 4 7 7 8 8 9 6 10 3 11
REMARK H PARENT
REMARK Flexibility Score: inf
ROOT
ATOM      1  C   UNL     1       5.903   3.939   7.137  1.00  0.00     0.042 C 
ATOM      2  C   UNL     1       7.079   3.571   6.207  1.00  0.00     0.066 C 
ATOM      3  C   UNL     1       6.974   2.066   5.744  1.00  0.00     0.021 C 
ATOM      4  C   UNL     1       8.201   1.739   4.860  1.00  0.00     0.009 C 
ATOM      5  C   UNL     1       9.492   2.153   5.608  1.00  0.00     0.035 C 
ATOM      6  C   UNL     1       9.133   2.672   7.030  1.00  0.00     0.066 C 
ATOM      7  O   UNL     1       8.303   3.828   6.912  1.00  0.00    -0.369 OA
ATOM      8  C   UNL     1       8.357   1.560   7.793  1.00  0.00     0.035 C 
ATOM      9  C   UNL     1       7.093   1.161   6.994  1.00  0.00     0.009 C 
ATOM     10  C   UNL     1      10.406   3.054   7.794  1.00  0.00     0.042 C 
ATOM     11  C   UNL     1       7.017   4.521   4.991  1.00  0.00     0.042 C 
ENDROOT
TORSDOF 0
ENDMDL
MODEL 6
REMARK VINA RESULT:    -3.129      1.385      3.118
REMARK INTER + INTRA:          -3.129
REMARK INTER:                  -3.129
REMARK INTRA:                   0.000
REMARK UNBOUND:                 0.000
REMARK SMILES CC1(C)O[C@]2(C)CC[C@H]1CC2
REMARK SMILES IDX 1 1 2 2 9 3 10 4 11 5 5 6 4 7 7 8 8 9 6 10 3 11
REMARK H PARENT
REMARK Flexibility Score: inf
ROOT
ATOM      1  C   UNL     1       9.587   2.112   6.637  1.00  0.00     0.042 C 
ATOM      2  C   UNL     1       8.245   2.495   5.975  1.00  0.00     0.066 C 
ATOM      3  C   UNL     1       8.121   4.061   5.830  1.00  0.00     0.021 C 
ATOM      4  C   UNL     1       6.741   4.387   5.211  1.00  0.00     0.009 C 
ATOM      5  C   UNL     1       5.636   3.671   6.025  1.00  0.00     0.035 C 
ATOM      6  C   UNL     1       6.270   2.939   7.243  1.00  0.00     0.066 C 
ATOM      7  O   UNL     1       7.183   1.948   6.771  1.00  0.00    -0.369 OA
ATOM      8  C   UNL     1       7.042   3.975   8.109  1.00  0.00     0.035 C 
ATOM      9  C   UNL     1       8.114   4.684   7.247  1.00  0.00     0.009 C 
ATOM     10  C   UNL     1       5.183   2.252   8.077  1.00  0.00     0.042 C 
ATOM     11  C   UNL     1       8.206   1.813   4.590  1.00  0.00     0.042 C 
ENDROOT
TORSDOF 0
ENDMDL
MODEL 7
REMARK VINA RESULT:    -3.119     11.475     13.366
REMARK INTER + INTRA:          -3.119
REMARK INTER:                  -3.119
REMARK INTRA:                   0.000
REMARK UNBOUND:                 0.000
REMARK SMILES CC1(C)O[C@]2(C)CC[C@H]1CC2
REMARK SMILES IDX 1 1 2 2 9 3 10 4 11 5 5 6 4 7 7 8 8 9 6 10 3 11
REMARK H PARENT
REMARK Flexibility Score: inf
ROOT
ATOM      1  C   UNL     1      -3.132   9.045   2.668  1.00  0.00     0.042 C 
ATOM      2  C   UNL     1      -2.443   7.884   1.918  1.00  0.00     0.066 C 
ATOM      3  C   UNL     1      -1.954   8.353   0.493  1.00  0.00     0.021 C 
ATOM      4  C   UNL     1      -1.321   7.141  -0.231  1.00  0.00     0.009 C 
ATOM      5  C   UNL     1      -2.309   5.950  -0.188  1.00  0.00     0.035 C 
ATOM      6  C   UNL     1      -3.640   6.394   0.484  1.00  0.00     0.066 C 
ATOM      7  O   UNL     1      -3.374   6.795   1.829  1.00  0.00    -0.369 OA
ATOM      8  C   UNL     1      -4.226   7.600  -0.303  1.00  0.00     0.035 C 
ATOM      9  C   UNL     1      -3.194   8.753  -0.343  1.00  0.00     0.009 C 
ATOM     10  C   UNL     1      -4.639   5.232   0.503  1.00  0.00     0.042 C 
ATOM     11  C   UNL     1      -1.248   7.424   2.781  1.00  0.00     0.042 C 
ENDROOT
TORSDOF 0
ENDMDL
MODEL 8
REMARK VINA RESULT:    -3.103     15.946     17.365
REMARK INTER + INTRA:          -3.103
REMARK INTER:                  -3.103
REMARK INTRA:                   0.000
REMARK UNBOUND:                 0.000
REMARK SMILES CC1(C)O[C@]2(C)CC[C@H]1CC2
REMARK SMILES IDX 1 1 2 2 9 3 10 4 11 5 5 6 4 7 7 8 8 9 6 10 3 11
REMARK H PARENT
REMARK Flexibility Score: inf
ROOT
ATOM      1  C   UNL     1       2.895  -1.527  -6.765  1.00  0.00     0.042 C 
ATOM      2  C   UNL     1       2.075  -2.392  -7.747  1.00  0.00     0.066 C 
ATOM      3  C   UNL     1       2.637  -2.255  -9.215  1.00  0.00     0.021 C 
ATOM      4  C   UNL     1       1.749  -3.099 -10.161  1.00  0.00     0.009 C 
ATOM      5  C   UNL     1       0.266  -2.715  -9.942  1.00  0.00     0.035 C 
ATOM      6  C   UNL     1       0.169  -1.549  -8.916  1.00  0.00     0.066 C 
ATOM      7  O   UNL     1       0.701  -1.982  -7.663  1.00  0.00    -0.369 OA
ATOM      8  C   UNL     1       1.004  -0.345  -9.438  1.00  0.00     0.035 C 
ATOM      9  C   UNL     1       2.470  -0.784  -9.668  1.00  0.00     0.009 C 
ATOM     10  C   UNL     1      -1.294  -1.137  -8.715  1.00  0.00     0.042 C 
ATOM     11  C   UNL     1       2.170  -3.854  -7.260  1.00  0.00     0.042 C 
ENDROOT
TORSDOF 0
ENDMDL
MODEL 9
REMARK VINA RESULT:    -3.051     15.585     17.183
REMARK INTER + INTRA:          -3.051
REMARK INTER:                  -3.051
REMARK INTRA:                   0.000
REMARK UNBOUND:                 0.000
REMARK SMILES CC1(C)O[C@]2(C)CC[C@H]1CC2
REMARK SMILES IDX 1 1 2 2 9 3 10 4 11 5 5 6 4 7 7 8 8 9 6 10 3 11
REMARK H PARENT
REMARK Flexibility Score: inf
ROOT
ATOM      1  C   UNL     1      -0.062  -1.429  -8.498  1.00  0.00     0.042 C 
ATOM      2  C   UNL     1       1.385  -1.711  -8.038  1.00  0.00     0.066 C 
ATOM      3  C   UNL     1       2.375  -1.688  -9.267  1.00  0.00     0.021 C 
ATOM      4  C   UNL     1       3.797  -2.026  -8.757  1.00  0.00     0.009 C 
ATOM      5  C   UNL     1       3.742  -3.332  -7.927  1.00  0.00     0.035 C 
ATOM      6  C   UNL     1       2.300  -3.916  -7.959  1.00  0.00     0.066 C 
ATOM      7  O   UNL     1       1.401  -2.979  -7.366  1.00  0.00    -0.369 OA
ATOM      8  C   UNL     1       1.885  -4.157  -9.439  1.00  0.00     0.035 C 
ATOM      9  C   UNL     1       1.983  -2.831 -10.233  1.00  0.00     0.009 C 
ATOM     10  C   UNL     1       2.240  -5.228  -7.169  1.00  0.00     0.042 C 
ATOM     11  C   UNL     1       1.762  -0.619  -7.013  1.00  0.00     0.042 C 
ENDROOT
TORSDOF 0
ENDMDL
