MODEL 1
REMARK VINA RESULT:    -7.108      0.000      0.000
REMARK INTER + INTRA:          -8.651
REMARK INTER:                  -8.354
REMARK INTRA:                  -0.296
REMARK UNBOUND:                -0.296
REMARK SMILES O=c1c(O)c(-c2ccc(O)cc2)oc2cc(O)cc(O)c12
REMARK SMILES IDX 5 1 3 2 2 3 1 4 21 5 19 6 18 7 16 8 15 9 14 10 13 11 6 12
REMARK SMILES IDX 7 13 8 14 9 15 12 16 11 17 10 18 4 20 20 22 17 24
REMARK H PARENT 10 19 4 21 20 23 17 25
REMARK Flexibility Score: inf
ROOT
ATOM      1  C   UNL     1      25.633 -25.538  27.687  1.00  0.00     0.180 A 
ATOM      2  C   UNL     1      25.519 -24.165  27.962  1.00  0.00     0.208 A 
ATOM      3  C   UNL     1      25.205 -23.284  26.914  1.00  0.00     0.238 A 
ATOM      4  O   UNL     1      25.031 -22.067  27.180  1.00  0.00    -0.285 OA
ATOM      5  C   UNL     1      25.064 -23.781  25.595  1.00  0.00     0.111 A 
ATOM      6  C   UNL     1      24.790 -22.974  24.448  1.00  0.00     0.134 A 
ATOM      7  C   UNL     1      24.567 -23.589  23.210  1.00  0.00     0.093 A 
ATOM      8  C   UNL     1      24.668 -24.972  23.062  1.00  0.00     0.123 A 
ATOM      9  C   UNL     1      24.990 -25.764  24.164  1.00  0.00     0.094 A 
ATOM     10  C   UNL     1      25.181 -25.185  25.421  1.00  0.00     0.146 A 
ATOM     11  O   UNL     1      25.463 -25.979  26.447  1.00  0.00    -0.452 OA
ENDROOT
BRANCH   1  12
ATOM     12  C   UNL     1      25.947 -26.529  28.743  1.00  0.00     0.021 A 
ATOM     13  C   UNL     1      27.281 -26.912  28.955  1.00  0.00     0.016 A 
ATOM     14  C   UNL     1      27.600 -27.861  29.930  1.00  0.00     0.047 A 
ATOM     15  C   UNL     1      26.588 -28.453  30.693  1.00  0.00     0.115 A 
ATOM     16  C   UNL     1      24.932 -27.142  29.499  1.00  0.00     0.016 A 
ATOM     17  C   UNL     1      25.252 -28.093  30.474  1.00  0.00     0.047 A 
BRANCH  15  18
ATOM     18  O   UNL     1      26.920 -29.397  31.662  1.00  0.00    -0.508 OA
ATOM     19  H   UNL     1      26.462 -30.301  31.698  1.00  0.00     0.293 HD
ENDBRANCH  15  18
ENDBRANCH   1  12
BRANCH   2  20
ATOM     20  O   UNL     1      25.738 -23.684  29.256  1.00  0.00    -0.502 OA
ATOM     21  H   UNL     1      26.256 -24.208  29.950  1.00  0.00     0.293 HD
ENDBRANCH   2  20
BRANCH   6  22
ATOM     22  O   UNL     1      24.753 -21.577  24.464  1.00  0.00    -0.507 OA
ATOM     23  H   UNL     1      24.814 -21.007  25.293  1.00  0.00     0.293 HD
ENDBRANCH   6  22
BRANCH   8  24
ATOM     24  O   UNL     1      24.457 -25.546  21.811  1.00  0.00    -0.508 OA
ATOM     25  H   UNL     1      24.506 -24.997  20.960  1.00  0.00     0.293 HD
ENDBRANCH   8  24
TORSDOF 5
ENDMDL
MODEL 2
REMARK VINA RESULT:    -7.100      1.778      6.658
REMARK INTER + INTRA:          -8.642
REMARK INTER:                  -8.354
REMARK INTRA:                  -0.288
REMARK UNBOUND:                -0.296
REMARK SMILES O=c1c(O)c(-c2ccc(O)cc2)oc2cc(O)cc(O)c12
REMARK SMILES IDX 5 1 3 2 2 3 1 4 21 5 19 6 18 7 16 8 15 9 14 10 13 11 6 12
REMARK SMILES IDX 7 13 8 14 9 15 12 16 11 17 10 18 4 20 20 22 17 24
REMARK H PARENT 10 19 4 21 20 23 17 25
REMARK Flexibility Score: inf
ROOT
ATOM      1  C   UNL     1      25.713 -26.014  27.473  1.00  0.00     0.180 A 
ATOM      2  C   UNL     1      25.316 -25.096  28.459  1.00  0.00     0.208 A 
ATOM      3  C   UNL     1      25.654 -25.345  29.799  1.00  0.00     0.238 A 
ATOM      4  O   UNL     1      25.360 -24.482  30.666  1.00  0.00    -0.285 OA
ATOM      5  C   UNL     1      26.335 -26.538  30.143  1.00  0.00     0.111 A 
ATOM      6  C   UNL     1      26.689 -26.916  31.475  1.00  0.00     0.134 A 
ATOM      7  C   UNL     1      27.457 -28.069  31.684  1.00  0.00     0.093 A 
ATOM      8  C   UNL     1      27.829 -28.889  30.620  1.00  0.00     0.123 A 
ATOM      9  C   UNL     1      27.442 -28.559  29.322  1.00  0.00     0.094 A 
ATOM     10  C   UNL     1      26.709 -27.395  29.076  1.00  0.00     0.146 A 
ATOM     11  O   UNL     1      26.381 -27.108  27.822  1.00  0.00    -0.452 OA
ENDROOT
BRANCH   1  12
ATOM     12  C   UNL     1      25.408 -25.812  26.038  1.00  0.00     0.021 A 
ATOM     13  C   UNL     1      24.319 -26.488  25.463  1.00  0.00     0.016 A 
ATOM     14  C   UNL     1      24.025 -26.330  24.105  1.00  0.00     0.047 A 
ATOM     15  C   UNL     1      24.823 -25.509  23.302  1.00  0.00     0.115 A 
ATOM     16  C   UNL     1      26.219 -25.003  25.222  1.00  0.00     0.016 A 
ATOM     17  C   UNL     1      25.923 -24.847  23.864  1.00  0.00     0.047 A 
BRANCH  15  18
ATOM     18  O   UNL     1      24.517 -25.360  21.952  1.00  0.00    -0.508 OA
ATOM     19  H   UNL     1      24.636 -26.123  21.295  1.00  0.00     0.293 HD
ENDBRANCH  15  18
ENDBRANCH   1  12
BRANCH   2  20
ATOM     20  O   UNL     1      24.576 -23.962  28.109  1.00  0.00    -0.502 OA
ATOM     21  H   UNL     1      24.342 -23.742  27.149  1.00  0.00     0.293 HD
ENDBRANCH   2  20
BRANCH   6  22
ATOM     22  O   UNL     1      26.294 -26.217  32.619  1.00  0.00    -0.507 OA
ATOM     23  H   UNL     1      25.848 -25.313  32.618  1.00  0.00     0.293 HD
ENDBRANCH   6  22
BRANCH   8  24
ATOM     24  O   UNL     1      28.578 -30.038  30.868  1.00  0.00    -0.508 OA
ATOM     25  H   UNL     1      28.445 -30.885  30.327  1.00  0.00     0.293 HD
ENDBRANCH   8  24
TORSDOF 5
ENDMDL
MODEL 3
REMARK VINA RESULT:    -7.067      3.870      6.615
REMARK INTER + INTRA:          -8.603
REMARK INTER:                  -8.418
REMARK INTRA:                  -0.185
REMARK UNBOUND:                -0.296
REMARK SMILES O=c1c(O)c(-c2ccc(O)cc2)oc2cc(O)cc(O)c12
REMARK SMILES IDX 5 1 3 2 2 3 1 4 21 5 19 6 18 7 16 8 15 9 14 10 13 11 6 12
REMARK SMILES IDX 7 13 8 14 9 15 12 16 11 17 10 18 4 20 20 22 17 24
REMARK H PARENT 10 19 4 21 20 23 17 25
REMARK Flexibility Score: inf
ROOT
ATOM      1  C   UNL     1      23.530 -21.456  26.917  1.00  0.00     0.180 A 
ATOM      2  C   UNL     1      22.973 -22.369  27.828  1.00  0.00     0.208 A 
ATOM      3  C   UNL     1      22.831 -23.713  27.446  1.00  0.00     0.238 A 
ATOM      4  O   UNL     1      22.400 -24.538  28.293  1.00  0.00    -0.285 OA
ATOM      5  C   UNL     1      23.196 -24.116  26.139  1.00  0.00     0.111 A 
ATOM      6  C   UNL     1      23.053 -25.442  25.628  1.00  0.00     0.134 A 
ATOM      7  C   UNL     1      23.547 -25.748  24.354  1.00  0.00     0.093 A 
ATOM      8  C   UNL     1      24.119 -24.765  23.548  1.00  0.00     0.123 A 
ATOM      9  C   UNL     1      24.213 -23.454  24.015  1.00  0.00     0.094 A 
ATOM     10  C   UNL     1      23.765 -23.125  25.297  1.00  0.00     0.146 A 
ATOM     11  O   UNL     1      23.894 -21.870  25.709  1.00  0.00    -0.452 OA
ENDROOT
BRANCH   1  12
ATOM     12  C   UNL     1      23.726 -20.027  27.252  1.00  0.00     0.021 A 
ATOM     13  C   UNL     1      23.008 -19.048  26.547  1.00  0.00     0.016 A 
ATOM     14  C   UNL     1      23.192 -17.691  26.831  1.00  0.00     0.047 A 
ATOM     15  C   UNL     1      24.108 -17.295  27.811  1.00  0.00     0.115 A 
ATOM     16  C   UNL     1      24.661 -19.622  28.223  1.00  0.00     0.016 A 
ATOM     17  C   UNL     1      24.844 -18.265  28.505  1.00  0.00     0.047 A 
BRANCH  15  18
ATOM     18  O   UNL     1      24.281 -15.941  28.084  1.00  0.00    -0.508 OA
ATOM     19  H   UNL     1      24.389 -15.261  27.340  1.00  0.00     0.293 HD
ENDBRANCH  15  18
ENDBRANCH   1  12
BRANCH   2  20
ATOM     20  O   UNL     1      22.548 -21.936  29.088  1.00  0.00    -0.502 OA
ATOM     21  H   UNL     1      21.984 -21.105  29.215  1.00  0.00     0.293 HD
ENDBRANCH   2  20
BRANCH   6  22
ATOM     22  O   UNL     1      22.418 -26.481  26.314  1.00  0.00    -0.507 OA
ATOM     23  H   UNL     1      21.616 -26.372  26.916  1.00  0.00     0.293 HD
ENDBRANCH   6  22
BRANCH   8  24
ATOM     24  O   UNL     1      24.583 -25.102  22.278  1.00  0.00    -0.508 OA
ATOM     25  H   UNL     1      25.427 -24.690  21.895  1.00  0.00     0.293 HD
ENDBRANCH   8  24
TORSDOF 5
ENDMDL
MODEL 4
REMARK VINA RESULT:    -6.970      2.001      2.849
REMARK INTER + INTRA:          -8.489
REMARK INTER:                  -8.200
REMARK INTRA:                  -0.289
REMARK UNBOUND:                -0.296
REMARK SMILES O=c1c(O)c(-c2ccc(O)cc2)oc2cc(O)cc(O)c12
REMARK SMILES IDX 5 1 3 2 2 3 1 4 21 5 19 6 18 7 16 8 15 9 14 10 13 11 6 12
REMARK SMILES IDX 7 13 8 14 9 15 12 16 11 17 10 18 4 20 20 22 17 24
REMARK H PARENT 10 19 4 21 20 23 17 25
REMARK Flexibility Score: inf
ROOT
ATOM      1  C   UNL     1      26.513 -26.584  27.926  1.00  0.00     0.180 A 
ATOM      2  C   UNL     1      25.256 -26.725  27.313  1.00  0.00     0.208 A 
ATOM      3  C   UNL     1      24.961 -25.954  26.177  1.00  0.00     0.238 A 
ATOM      4  O   UNL     1      23.863 -26.140  25.591  1.00  0.00    -0.285 OA
ATOM      5  C   UNL     1      25.905 -25.012  25.701  1.00  0.00     0.111 A 
ATOM      6  C   UNL     1      25.695 -24.145  24.585  1.00  0.00     0.134 A 
ATOM      7  C   UNL     1      26.741 -23.328  24.139  1.00  0.00     0.093 A 
ATOM      8  C   UNL     1      27.966 -23.299  24.805  1.00  0.00     0.123 A 
ATOM      9  C   UNL     1      28.163 -24.100  25.929  1.00  0.00     0.094 A 
ATOM     10  C   UNL     1      27.152 -24.954  26.375  1.00  0.00     0.146 A 
ATOM     11  O   UNL     1      27.390 -25.716  27.436  1.00  0.00    -0.452 OA
ENDROOT
BRANCH   1  12
ATOM     12  C   UNL     1      26.903 -27.372  29.117  1.00  0.00     0.021 A 
ATOM     13  C   UNL     1      27.510 -28.627  28.946  1.00  0.00     0.016 A 
ATOM     14  C   UNL     1      27.866 -29.399  30.055  1.00  0.00     0.047 A 
ATOM     15  C   UNL     1      27.605 -28.936  31.349  1.00  0.00     0.115 A 
ATOM     16  C   UNL     1      26.624 -26.920  30.420  1.00  0.00     0.016 A 
ATOM     17  C   UNL     1      26.981 -27.694  31.528  1.00  0.00     0.047 A 
BRANCH  15  18
ATOM     18  O   UNL     1      27.966 -29.715  32.445  1.00  0.00    -0.508 OA
ATOM     19  H   UNL     1      28.693 -29.420  33.088  1.00  0.00     0.293 HD
ENDBRANCH  15  18
ENDBRANCH   1  12
BRANCH   2  20
ATOM     20  O   UNL     1      24.309 -27.605  27.845  1.00  0.00    -0.502 OA
ATOM     21  H   UNL     1      23.327 -27.560  27.600  1.00  0.00     0.293 HD
ENDBRANCH   2  20
BRANCH   6  22
ATOM     22  O   UNL     1      24.482 -24.029  23.900  1.00  0.00    -0.507 OA
ATOM     23  H   UNL     1      24.376 -23.649  22.972  1.00  0.00     0.293 HD
ENDBRANCH   6  22
BRANCH   8  24
ATOM     24  O   UNL     1      28.979 -22.460  24.343  1.00  0.00    -0.508 OA
ATOM     25  H   UNL     1      29.745 -22.814  23.781  1.00  0.00     0.293 HD
ENDBRANCH   8  24
TORSDOF 5
ENDMDL
MODEL 5
REMARK VINA RESULT:    -6.909      2.046      2.447
REMARK INTER + INTRA:          -8.417
REMARK INTER:                  -8.134
REMARK INTRA:                  -0.284
REMARK UNBOUND:                -0.296
REMARK SMILES O=c1c(O)c(-c2ccc(O)cc2)oc2cc(O)cc(O)c12
REMARK SMILES IDX 5 1 3 2 2 3 1 4 21 5 19 6 18 7 16 8 15 9 14 10 13 11 6 12
REMARK SMILES IDX 7 13 8 14 9 15 12 16 11 17 10 18 4 20 20 22 17 24
REMARK H PARENT 10 19 4 21 20 23 17 25
REMARK Flexibility Score: inf
ROOT
ATOM      1  C   UNL     1      26.373 -26.516  27.777  1.00  0.00     0.180 A 
ATOM      2  C   UNL     1      27.199 -25.735  26.951  1.00  0.00     0.208 A 
ATOM      3  C   UNL     1      26.625 -25.044  25.871  1.00  0.00     0.238 A 
ATOM      4  O   UNL     1      27.358 -24.289  25.181  1.00  0.00    -0.285 OA
ATOM      5  C   UNL     1      25.243 -25.186  25.599  1.00  0.00     0.111 A 
ATOM      6  C   UNL     1      24.564 -24.568  24.504  1.00  0.00     0.134 A 
ATOM      7  C   UNL     1      23.173 -24.696  24.396  1.00  0.00     0.093 A 
ATOM      8  C   UNL     1      22.447 -25.468  25.301  1.00  0.00     0.123 A 
ATOM      9  C   UNL     1      23.108 -26.121  26.341  1.00  0.00     0.094 A 
ATOM     10  C   UNL     1      24.489 -25.983  26.500  1.00  0.00     0.146 A 
ATOM     11  O   UNL     1      25.074 -26.604  27.516  1.00  0.00    -0.452 OA
ENDROOT
BRANCH   1  12
ATOM     12  C   UNL     1      26.902 -27.261  28.943  1.00  0.00     0.021 A 
ATOM     13  C   UNL     1      27.422 -28.552  28.758  1.00  0.00     0.016 A 
ATOM     14  C   UNL     1      27.907 -29.283  29.847  1.00  0.00     0.047 A 
ATOM     15  C   UNL     1      27.863 -28.741  31.135  1.00  0.00     0.115 A 
ATOM     16  C   UNL     1      26.842 -26.728  30.243  1.00  0.00     0.016 A 
ATOM     17  C   UNL     1      27.327 -27.461  31.331  1.00  0.00     0.047 A 
BRANCH  15  18
ATOM     18  O   UNL     1      28.350 -29.480  32.210  1.00  0.00    -0.508 OA
ATOM     19  H   UNL     1      28.860 -30.345  32.069  1.00  0.00     0.293 HD
ENDBRANCH  15  18
ENDBRANCH   1  12
BRANCH   2  20
ATOM     20  O   UNL     1      28.575 -25.669  27.191  1.00  0.00    -0.502 OA
ATOM     21  H   UNL     1      29.006 -24.887  27.669  1.00  0.00     0.293 HD
ENDBRANCH   2  20
BRANCH   6  22
ATOM     22  O   UNL     1      25.202 -23.847  23.492  1.00  0.00    -0.507 OA
ATOM     23  H   UNL     1      24.733 -23.283  22.800  1.00  0.00     0.293 HD
ENDBRANCH   6  22
BRANCH   8  24
ATOM     24  O   UNL     1      21.067 -25.586  25.151  1.00  0.00    -0.508 OA
ATOM     25  H   UNL     1      20.610 -25.384  24.268  1.00  0.00     0.293 HD
ENDBRANCH   8  24
TORSDOF 5
ENDMDL
MODEL 6
REMARK VINA RESULT:    -6.748      3.805      7.055
REMARK INTER + INTRA:          -8.228
REMARK INTER:                  -7.929
REMARK INTRA:                  -0.298
REMARK UNBOUND:                -0.296
REMARK SMILES O=c1c(O)c(-c2ccc(O)cc2)oc2cc(O)cc(O)c12
REMARK SMILES IDX 5 1 3 2 2 3 1 4 21 5 19 6 18 7 16 8 15 9 14 10 13 11 6 12
REMARK SMILES IDX 7 13 8 14 9 15 12 16 11 17 10 18 4 20 20 22 17 24
REMARK H PARENT 10 19 4 21 20 23 17 25
REMARK Flexibility Score: inf
ROOT
ATOM      1  C   UNL     1      23.350 -21.355  26.577  1.00  0.00     0.180 A 
ATOM      2  C   UNL     1      22.602 -22.282  25.832  1.00  0.00     0.208 A 
ATOM      3  C   UNL     1      23.225 -23.460  25.387  1.00  0.00     0.238 A 
ATOM      4  O   UNL     1      22.530 -24.319  24.786  1.00  0.00    -0.285 OA
ATOM      5  C   UNL     1      24.601 -23.669  25.645  1.00  0.00     0.111 A 
ATOM      6  C   UNL     1      25.347 -24.805  25.203  1.00  0.00     0.134 A 
ATOM      7  C   UNL     1      26.678 -24.957  25.609  1.00  0.00     0.093 A 
ATOM      8  C   UNL     1      27.310 -23.986  26.385  1.00  0.00     0.123 A 
ATOM      9  C   UNL     1      26.609 -22.846  26.776  1.00  0.00     0.094 A 
ATOM     10  C   UNL     1      25.267 -22.684  26.420  1.00  0.00     0.146 A 
ATOM     11  O   UNL     1      24.631 -21.594  26.831  1.00  0.00    -0.452 OA
ENDROOT
BRANCH   1  12
ATOM     12  C   UNL     1      22.760 -20.098  27.093  1.00  0.00     0.021 A 
ATOM     13  C   UNL     1      22.904 -18.914  26.353  1.00  0.00     0.016 A 
ATOM     14  C   UNL     1      22.374 -17.711  26.830  1.00  0.00     0.047 A 
ATOM     15  C   UNL     1      21.709 -17.673  28.060  1.00  0.00     0.115 A 
ATOM     16  C   UNL     1      22.107 -20.051  28.338  1.00  0.00     0.016 A 
ATOM     17  C   UNL     1      21.579 -18.847  28.814  1.00  0.00     0.047 A 
BRANCH  15  18
ATOM     18  O   UNL     1      21.185 -16.469  28.522  1.00  0.00    -0.508 OA
ATOM     19  H   UNL     1      20.822 -15.770  27.884  1.00  0.00     0.293 HD
ENDBRANCH  15  18
ENDBRANCH   1  12
BRANCH   2  20
ATOM     20  O   UNL     1      21.264 -22.021  25.522  1.00  0.00    -0.502 OA
ATOM     21  H   UNL     1      20.501 -22.562  25.909  1.00  0.00     0.293 HD
ENDBRANCH   2  20
BRANCH   6  22
ATOM     22  O   UNL     1      24.840 -25.792  24.353  1.00  0.00    -0.507 OA
ATOM     23  H   UNL     1      24.321 -25.615  23.507  1.00  0.00     0.293 HD
ENDBRANCH   6  22
BRANCH   8  24
ATOM     24  O   UNL     1      28.642 -24.162  26.755  1.00  0.00    -0.508 OA
ATOM     25  H   UNL     1      29.354 -23.483  26.512  1.00  0.00     0.293 HD
ENDBRANCH   8  24
TORSDOF 5
ENDMDL
MODEL 7
REMARK VINA RESULT:    -6.698      4.095      6.792
REMARK INTER + INTRA:          -8.170
REMARK INTER:                  -8.082
REMARK INTRA:                  -0.088
REMARK UNBOUND:                -0.296
REMARK SMILES O=c1c(O)c(-c2ccc(O)cc2)oc2cc(O)cc(O)c12
REMARK SMILES IDX 5 1 3 2 2 3 1 4 21 5 19 6 18 7 16 8 15 9 14 10 13 11 6 12
REMARK SMILES IDX 7 13 8 14 9 15 12 16 11 17 10 18 4 20 20 22 17 24
REMARK H PARENT 10 19 4 21 20 23 17 25
REMARK Flexibility Score: inf
ROOT
ATOM      1  C   UNL     1      24.096 -20.813  26.553  1.00  0.00     0.180 A 
ATOM      2  C   UNL     1      22.882 -21.439  26.225  1.00  0.00     0.208 A 
ATOM      3  C   UNL     1      22.910 -22.696  25.598  1.00  0.00     0.238 A 
ATOM      4  O   UNL     1      21.820 -23.283  25.376  1.00  0.00    -0.285 OA
ATOM      5  C   UNL     1      24.151 -23.284  25.256  1.00  0.00     0.111 A 
ATOM      6  C   UNL     1      24.299 -24.533  24.578  1.00  0.00     0.134 A 
ATOM      7  C   UNL     1      25.579 -25.067  24.387  1.00  0.00     0.093 A 
ATOM      8  C   UNL     1      26.718 -24.372  24.790  1.00  0.00     0.123 A 
ATOM      9  C   UNL     1      26.588 -23.126  25.403  1.00  0.00     0.094 A 
ATOM     10  C   UNL     1      25.324 -22.583  25.643  1.00  0.00     0.146 A 
ATOM     11  O   UNL     1      25.245 -21.405  26.249  1.00  0.00    -0.452 OA
ENDROOT
BRANCH   1  12
ATOM     12  C   UNL     1      24.147 -19.496  27.228  1.00  0.00     0.021 A 
ATOM     13  C   UNL     1      24.718 -19.398  28.508  1.00  0.00     0.016 A 
ATOM     14  C   UNL     1      24.757 -18.170  29.174  1.00  0.00     0.047 A 
ATOM     15  C   UNL     1      24.213 -17.028  28.578  1.00  0.00     0.115 A 
ATOM     16  C   UNL     1      23.584 -18.349  26.642  1.00  0.00     0.016 A 
ATOM     17  C   UNL     1      23.624 -17.121  27.310  1.00  0.00     0.047 A 
BRANCH  15  18
ATOM     18  O   UNL     1      24.260 -15.811  29.253  1.00  0.00    -0.508 OA
ATOM     19  H   UNL     1      24.779 -15.705  30.118  1.00  0.00     0.293 HD
ENDBRANCH  15  18
ENDBRANCH   1  12
BRANCH   2  20
ATOM     20  O   UNL     1      21.666 -20.807  26.502  1.00  0.00    -0.502 OA
ATOM     21  H   UNL     1      21.369 -19.966  26.023  1.00  0.00     0.293 HD
ENDBRANCH   2  20
BRANCH   6  22
ATOM     22  O   UNL     1      23.234 -25.271  24.055  1.00  0.00    -0.507 OA
ATOM     23  H   UNL     1      22.560 -24.922  23.391  1.00  0.00     0.293 HD
ENDBRANCH   6  22
BRANCH   8  24
ATOM     24  O   UNL     1      27.977 -24.927  24.567  1.00  0.00    -0.508 OA
ATOM     25  H   UNL     1      28.814 -24.355  24.560  1.00  0.00     0.293 HD
ENDBRANCH   8  24
TORSDOF 5
ENDMDL
MODEL 8
REMARK VINA RESULT:    -6.670      3.819      6.354
REMARK INTER + INTRA:          -8.136
REMARK INTER:                  -7.864
REMARK INTRA:                  -0.272
REMARK UNBOUND:                -0.296
REMARK SMILES O=c1c(O)c(-c2ccc(O)cc2)oc2cc(O)cc(O)c12
REMARK SMILES IDX 5 1 3 2 2 3 1 4 21 5 19 6 18 7 16 8 15 9 14 10 13 11 6 12
REMARK SMILES IDX 7 13 8 14 9 15 12 16 11 17 10 18 4 20 20 22 17 24
REMARK H PARENT 10 19 4 21 20 23 17 25
REMARK Flexibility Score: inf
ROOT
ATOM      1  C   UNL     1      24.583 -22.203  26.083  1.00  0.00     0.180 A 
ATOM      2  C   UNL     1      25.343 -22.247  27.264  1.00  0.00     0.208 A 
ATOM      3  C   UNL     1      25.306 -21.150  28.139  1.00  0.00     0.238 A 
ATOM      4  O   UNL     1      25.930 -21.227  29.230  1.00  0.00    -0.285 OA
ATOM      5  C   UNL     1      24.554 -20.000  27.796  1.00  0.00     0.111 A 
ATOM      6  C   UNL     1      24.480 -18.812  28.586  1.00  0.00     0.134 A 
ATOM      7  C   UNL     1      23.619 -17.778  28.198  1.00  0.00     0.093 A 
ATOM      8  C   UNL     1      22.879 -17.860  27.019  1.00  0.00     0.123 A 
ATOM      9  C   UNL     1      22.986 -18.992  26.212  1.00  0.00     0.094 A 
ATOM     10  C   UNL     1      23.806 -20.057  26.591  1.00  0.00     0.146 A 
ATOM     11  O   UNL     1      23.861 -21.125  25.804  1.00  0.00    -0.452 OA
ENDROOT
BRANCH   1  12
ATOM     12  C   UNL     1      24.559 -23.327  25.119  1.00  0.00     0.021 A 
ATOM     13  C   UNL     1      25.295 -23.230  23.927  1.00  0.00     0.016 A 
ATOM     14  C   UNL     1      25.271 -24.269  22.992  1.00  0.00     0.047 A 
ATOM     15  C   UNL     1      24.498 -25.410  23.227  1.00  0.00     0.115 A 
ATOM     16  C   UNL     1      23.768 -24.469  25.342  1.00  0.00     0.016 A 
ATOM     17  C   UNL     1      23.744 -25.507  24.405  1.00  0.00     0.047 A 
BRANCH  15  18
ATOM     18  O   UNL     1      24.483 -26.437  22.288  1.00  0.00    -0.508 OA
ATOM     19  H   UNL     1      23.804 -26.457  21.535  1.00  0.00     0.293 HD
ENDBRANCH  15  18
ENDBRANCH   1  12
BRANCH   2  20
ATOM     20  O   UNL     1      26.140 -23.361  27.548  1.00  0.00    -0.502 OA
ATOM     21  H   UNL     1      25.873 -24.301  27.287  1.00  0.00     0.293 HD
ENDBRANCH   2  20
BRANCH   6  22
ATOM     22  O   UNL     1      25.242 -18.587  29.736  1.00  0.00    -0.507 OA
ATOM     23  H   UNL     1      26.085 -19.085  29.977  1.00  0.00     0.293 HD
ENDBRANCH   6  22
BRANCH   8  24
ATOM     24  O   UNL     1      22.047 -16.804  26.656  1.00  0.00    -0.508 OA
ATOM     25  H   UNL     1      21.141 -16.669  27.091  1.00  0.00     0.293 HD
ENDBRANCH   8  24
TORSDOF 5
ENDMDL
MODEL 9
REMARK VINA RESULT:    -6.546      2.349      3.761
REMARK INTER + INTRA:          -7.990
REMARK INTER:                  -7.766
REMARK INTRA:                  -0.224
REMARK UNBOUND:                -0.296
REMARK SMILES O=c1c(O)c(-c2ccc(O)cc2)oc2cc(O)cc(O)c12
REMARK SMILES IDX 5 1 3 2 2 3 1 4 21 5 19 6 18 7 16 8 15 9 14 10 13 11 6 12
REMARK SMILES IDX 7 13 8 14 9 15 12 16 11 17 10 18 4 20 20 22 17 24
REMARK H PARENT 10 19 4 21 20 23 17 25
REMARK Flexibility Score: inf
ROOT
ATOM      1  C   UNL     1      25.018 -24.799  28.005  1.00  0.00     0.180 A 
ATOM      2  C   UNL     1      23.931 -25.125  27.176  1.00  0.00     0.208 A 
ATOM      3  C   UNL     1      23.160 -24.090  26.623  1.00  0.00     0.238 A 
ATOM      4  O   UNL     1      22.236 -24.388  25.824  1.00  0.00    -0.285 OA
ATOM      5  C   UNL     1      23.451 -22.744  26.950  1.00  0.00     0.111 A 
ATOM      6  C   UNL     1      22.709 -21.616  26.484  1.00  0.00     0.134 A 
ATOM      7  C   UNL     1      23.154 -20.323  26.788  1.00  0.00     0.093 A 
ATOM      8  C   UNL     1      24.274 -20.117  27.592  1.00  0.00     0.123 A 
ATOM      9  C   UNL     1      24.974 -21.211  28.098  1.00  0.00     0.094 A 
ATOM     10  C   UNL     1      24.579 -22.513  27.782  1.00  0.00     0.146 A 
ATOM     11  O   UNL     1      25.287 -23.525  28.267  1.00  0.00    -0.452 OA
ENDROOT
BRANCH   1  12
ATOM     12  C   UNL     1      25.886 -25.834  28.612  1.00  0.00     0.021 A 
ATOM     13  C   UNL     1      26.807 -26.522  27.805  1.00  0.00     0.016 A 
ATOM     14  C   UNL     1      27.621 -27.519  28.351  1.00  0.00     0.047 A 
ATOM     15  C   UNL     1      27.514 -27.852  29.705  1.00  0.00     0.115 A 
ATOM     16  C   UNL     1      25.768 -26.187  29.968  1.00  0.00     0.016 A 
ATOM     17  C   UNL     1      26.583 -27.185  30.513  1.00  0.00     0.047 A 
BRANCH  15  18
ATOM     18  O   UNL     1      28.332 -28.846  30.236  1.00  0.00    -0.508 OA
ATOM     19  H   UNL     1      28.531 -28.894  31.229  1.00  0.00     0.293 HD
ENDBRANCH  15  18
ENDBRANCH   1  12
BRANCH   2  20
ATOM     20  O   UNL     1      23.613 -26.464  26.927  1.00  0.00    -0.502 OA
ATOM     21  H   UNL     1      23.537 -27.152  27.666  1.00  0.00     0.293 HD
ENDBRANCH   2  20
BRANCH   6  22
ATOM     22  O   UNL     1      21.524 -21.708  25.748  1.00  0.00    -0.507 OA
ATOM     23  H   UNL     1      21.471 -21.914  24.762  1.00  0.00     0.293 HD
ENDBRANCH   6  22
BRANCH   8  24
ATOM     24  O   UNL     1      24.677 -18.816  27.888  1.00  0.00    -0.508 OA
ATOM     25  H   UNL     1      25.550 -18.439  27.536  1.00  0.00     0.293 HD
ENDBRANCH   8  24
TORSDOF 5
ENDMDL
