MODEL 1
REMARK VINA RESULT:    -7.842      0.000      0.000
REMARK INTER + INTRA:          -9.498
REMARK INTER:                  -9.217
REMARK INTRA:                  -0.281
REMARK UNBOUND:                -0.281
REMARK SMILES O=c1cc(-c2ccc(O)c(O)c2)oc2cc(O)cc(O)c12
REMARK SMILES IDX 4 1 3 2 2 3 1 4 21 5 19 6 18 7 16 8 15 9 14 10 13 11 5 12
REMARK SMILES IDX 6 13 7 14 8 15 12 16 10 17 9 18 11 20 20 22 17 24
REMARK H PARENT 9 19 11 21 20 23 17 25
REMARK Flexibility Score: inf
ROOT
ATOM      1  C   UNL     1      -2.791  67.101 -21.291  1.00  0.00     0.138 A 
ATOM      2  C   UNL     1      -3.075  65.760 -20.996  1.00  0.00     0.100 A 
ATOM      3  C   UNL     1      -4.376  65.280 -21.149  1.00  0.00     0.197 A 
ATOM      4  O   UNL     1      -4.587  64.058 -20.936  1.00  0.00    -0.289 OA
ATOM      5  C   UNL     1      -5.404  66.156 -21.571  1.00  0.00     0.107 A 
ATOM      6  C   UNL     1      -6.774  65.788 -21.722  1.00  0.00     0.134 A 
ATOM      7  C   UNL     1      -7.682  66.710 -22.257  1.00  0.00     0.093 A 
ATOM      8  C   UNL     1      -7.282  68.004 -22.589  1.00  0.00     0.123 A 
ATOM      9  C   UNL     1      -5.957  68.392 -22.394  1.00  0.00     0.094 A 
ATOM     10  C   UNL     1      -5.020  67.484 -21.895  1.00  0.00     0.146 A 
ATOM     11  O   UNL     1      -3.764  67.889 -21.737  1.00  0.00    -0.456 OA
ENDROOT
BRANCH   1  12
ATOM     12  C   UNL     1      -1.426  67.664 -21.145  1.00  0.00     0.021 A 
ATOM     13  C   UNL     1      -1.264  68.961 -20.625  1.00  0.00     0.016 A 
ATOM     14  C   UNL     1       0.011  69.511 -20.471  1.00  0.00     0.051 A 
ATOM     15  C   UNL     1       1.147  68.772 -20.822  1.00  0.00     0.157 A 
ATOM     16  C   UNL     1      -0.277  66.921 -21.484  1.00  0.00     0.062 A 
ATOM     17  C   UNL     1       1.001  67.470 -21.328  1.00  0.00     0.158 A 
BRANCH  15  18
ATOM     18  O   UNL     1       2.417  69.324 -20.668  1.00  0.00    -0.504 OA
ATOM     19  H   UNL     1       3.079  69.356 -21.436  1.00  0.00     0.293 HD
ENDBRANCH  15  18
BRANCH  17  20
ATOM     20  O   UNL     1       2.114  66.703 -21.677  1.00  0.00    -0.504 OA
ATOM     21  H   UNL     1       2.025  65.798 -22.123  1.00  0.00     0.293 HD
ENDBRANCH  17  20
ENDBRANCH   1  12
BRANCH   6  22
ATOM     22  O   UNL     1      -7.296  64.548 -21.342  1.00  0.00    -0.507 OA
ATOM     23  H   UNL     1      -6.905  63.952 -20.629  1.00  0.00     0.293 HD
ENDBRANCH   6  22
BRANCH   8  24
ATOM     24  O   UNL     1      -8.217  68.900 -23.106  1.00  0.00    -0.508 OA
ATOM     25  H   UNL     1      -8.133  69.899 -22.955  1.00  0.00     0.293 HD
ENDBRANCH   8  24
TORSDOF 5
ENDMDL
MODEL 2
REMARK VINA RESULT:    -7.728      3.225      6.593
REMARK INTER + INTRA:          -9.365
REMARK INTER:                  -9.072
REMARK INTRA:                  -0.293
REMARK UNBOUND:                -0.281
REMARK SMILES O=c1cc(-c2ccc(O)c(O)c2)oc2cc(O)cc(O)c12
REMARK SMILES IDX 4 1 3 2 2 3 1 4 21 5 19 6 18 7 16 8 15 9 14 10 13 11 5 12
REMARK SMILES IDX 6 13 7 14 8 15 12 16 10 17 9 18 11 20 20 22 17 24
REMARK H PARENT 9 19 11 21 20 23 17 25
REMARK Flexibility Score: inf
ROOT
ATOM      1  C   UNL     1      -4.073  68.393 -23.371  1.00  0.00     0.138 A 
ATOM      2  C   UNL     1      -4.945  68.343 -22.274  1.00  0.00     0.100 A 
ATOM      3  C   UNL     1      -4.438  68.484 -20.982  1.00  0.00     0.197 A 
ATOM      4  O   UNL     1      -5.253  68.497 -20.023  1.00  0.00    -0.289 OA
ATOM      5  C   UNL     1      -3.046  68.644 -20.785  1.00  0.00     0.107 A 
ATOM      6  C   UNL     1      -2.413  68.755 -19.512  1.00  0.00     0.134 A 
ATOM      7  C   UNL     1      -1.040  69.027 -19.445  1.00  0.00     0.093 A 
ATOM      8  C   UNL     1      -0.270  69.130 -20.602  1.00  0.00     0.123 A 
ATOM      9  C   UNL     1      -0.868  68.968 -21.852  1.00  0.00     0.094 A 
ATOM     10  C   UNL     1      -2.241  68.731 -21.952  1.00  0.00     0.146 A 
ATOM     11  O   UNL     1      -2.776  68.598 -23.161  1.00  0.00    -0.456 OA
ENDROOT
BRANCH   1  12
ATOM     12  C   UNL     1      -4.558  68.247 -24.766  1.00  0.00     0.021 A 
ATOM     13  C   UNL     1      -5.705  68.949 -25.175  1.00  0.00     0.016 A 
ATOM     14  C   UNL     1      -6.178  68.834 -26.485  1.00  0.00     0.051 A 
ATOM     15  C   UNL     1      -5.507  68.027 -27.411  1.00  0.00     0.157 A 
ATOM     16  C   UNL     1      -3.879  67.446 -25.706  1.00  0.00     0.062 A 
ATOM     17  C   UNL     1      -4.351  67.333 -27.020  1.00  0.00     0.158 A 
BRANCH  15  18
ATOM     18  O   UNL     1      -5.982  67.914 -28.717  1.00  0.00    -0.504 OA
ATOM     19  H   UNL     1      -6.434  67.068 -29.046  1.00  0.00     0.293 HD
ENDBRANCH  15  18
BRANCH  17  20
ATOM     20  O   UNL     1      -3.653  66.529 -27.922  1.00  0.00    -0.504 OA
ATOM     21  H   UNL     1      -3.575  66.764 -28.904  1.00  0.00     0.293 HD
ENDBRANCH  17  20
ENDBRANCH   1  12
BRANCH   6  22
ATOM     22  O   UNL     1      -3.075  68.585 -18.293  1.00  0.00    -0.507 OA
ATOM     23  H   UNL     1      -3.337  67.695 -17.898  1.00  0.00     0.293 HD
ENDBRANCH   6  22
BRANCH   8  24
ATOM     24  O   UNL     1       1.097  69.386 -20.496  1.00  0.00    -0.508 OA
ATOM     25  H   UNL     1       1.447  70.204 -20.012  1.00  0.00     0.293 HD
ENDBRANCH   8  24
TORSDOF 5
ENDMDL
MODEL 3
REMARK VINA RESULT:    -7.673      2.045      3.846
REMARK INTER + INTRA:          -9.300
REMARK INTER:                  -9.016
REMARK INTRA:                  -0.284
REMARK UNBOUND:                -0.281
REMARK SMILES O=c1cc(-c2ccc(O)c(O)c2)oc2cc(O)cc(O)c12
REMARK SMILES IDX 4 1 3 2 2 3 1 4 21 5 19 6 18 7 16 8 15 9 14 10 13 11 5 12
REMARK SMILES IDX 6 13 7 14 8 15 12 16 10 17 9 18 11 20 20 22 17 24
REMARK H PARENT 9 19 11 21 20 23 17 25
REMARK Flexibility Score: inf
ROOT
ATOM      1  C   UNL     1      -2.689  66.010 -20.835  1.00  0.00     0.138 A 
ATOM      2  C   UNL     1      -3.908  66.264 -21.480  1.00  0.00     0.100 A 
ATOM      3  C   UNL     1      -4.938  65.324 -21.404  1.00  0.00     0.197 A 
ATOM      4  O   UNL     1      -6.040  65.607 -21.940  1.00  0.00    -0.289 OA
ATOM      5  C   UNL     1      -4.733  64.111 -20.705  1.00  0.00     0.107 A 
ATOM      6  C   UNL     1      -5.696  63.064 -20.596  1.00  0.00     0.134 A 
ATOM      7  C   UNL     1      -5.424  61.958 -19.781  1.00  0.00     0.093 A 
ATOM      8  C   UNL     1      -4.203  61.834 -19.120  1.00  0.00     0.123 A 
ATOM      9  C   UNL     1      -3.232  62.826 -19.262  1.00  0.00     0.094 A 
ATOM     10  C   UNL     1      -3.487  63.957 -20.041  1.00  0.00     0.146 A 
ATOM     11  O   UNL     1      -2.543  64.887 -20.140  1.00  0.00    -0.456 OA
ENDROOT
BRANCH   1  12
ATOM     12  C   UNL     1      -1.561  66.973 -20.884  1.00  0.00     0.021 A 
ATOM     13  C   UNL     1      -1.775  68.309 -20.499  1.00  0.00     0.016 A 
ATOM     14  C   UNL     1      -0.728  69.233 -20.530  1.00  0.00     0.051 A 
ATOM     15  C   UNL     1       0.553  68.838 -20.934  1.00  0.00     0.157 A 
ATOM     16  C   UNL     1      -0.267  66.579 -21.278  1.00  0.00     0.062 A 
ATOM     17  C   UNL     1       0.784  67.504 -21.306  1.00  0.00     0.158 A 
BRANCH  15  18
ATOM     18  O   UNL     1       1.595  69.763 -20.965  1.00  0.00    -0.504 OA
ATOM     19  H   UNL     1       1.878  70.272 -20.135  1.00  0.00     0.293 HD
ENDBRANCH  15  18
BRANCH  17  20
ATOM     20  O   UNL     1       2.051  67.076 -21.704  1.00  0.00    -0.504 OA
ATOM     21  H   UNL     1       2.702  66.647 -21.056  1.00  0.00     0.293 HD
ENDBRANCH  17  20
ENDBRANCH   1  12
BRANCH   6  22
ATOM     22  O   UNL     1      -6.914  63.049 -21.282  1.00  0.00    -0.507 OA
ATOM     23  H   UNL     1      -7.683  63.676 -21.105  1.00  0.00     0.293 HD
ENDBRANCH   6  22
BRANCH   8  24
ATOM     24  O   UNL     1      -3.961  60.712 -18.329  1.00  0.00    -0.508 OA
ATOM     25  H   UNL     1      -3.255  60.718 -17.601  1.00  0.00     0.293 HD
ENDBRANCH   8  24
TORSDOF 5
ENDMDL
MODEL 4
REMARK VINA RESULT:    -7.656      1.970      2.429
REMARK INTER + INTRA:          -9.280
REMARK INTER:                  -9.016
REMARK INTRA:                  -0.264
REMARK UNBOUND:                -0.281
REMARK SMILES O=c1cc(-c2ccc(O)c(O)c2)oc2cc(O)cc(O)c12
REMARK SMILES IDX 4 1 3 2 2 3 1 4 21 5 19 6 18 7 16 8 15 9 14 10 13 11 5 12
REMARK SMILES IDX 6 13 7 14 8 15 12 16 10 17 9 18 11 20 20 22 17 24
REMARK H PARENT 9 19 11 21 20 23 17 25
REMARK Flexibility Score: inf
ROOT
ATOM      1  C   UNL     1      -3.017  67.943 -21.245  1.00  0.00     0.138 A 
ATOM      2  C   UNL     1      -3.804  67.916 -20.084  1.00  0.00     0.100 A 
ATOM      3  C   UNL     1      -5.187  68.071 -20.184  1.00  0.00     0.197 A 
ATOM      4  O   UNL     1      -5.872  67.980 -19.133  1.00  0.00    -0.289 OA
ATOM      5  C   UNL     1      -5.781  68.285 -21.450  1.00  0.00     0.107 A 
ATOM      6  C   UNL     1      -7.175  68.497 -21.668  1.00  0.00     0.134 A 
ATOM      7  C   UNL     1      -7.664  68.583 -22.978  1.00  0.00     0.093 A 
ATOM      8  C   UNL     1      -6.803  68.525 -24.073  1.00  0.00     0.123 A 
ATOM      9  C   UNL     1      -5.431  68.374 -23.870  1.00  0.00     0.094 A 
ATOM     10  C   UNL     1      -4.918  68.250 -22.577  1.00  0.00     0.146 A 
ATOM     11  O   UNL     1      -3.607  68.092 -22.426  1.00  0.00    -0.456 OA
ENDROOT
BRANCH   1  12
ATOM     12  C   UNL     1      -1.542  67.785 -21.196  1.00  0.00     0.021 A 
ATOM     13  C   UNL     1      -0.983  66.497 -21.261  1.00  0.00     0.016 A 
ATOM     14  C   UNL     1       0.403  66.322 -21.224  1.00  0.00     0.051 A 
ATOM     15  C   UNL     1       1.254  67.430 -21.132  1.00  0.00     0.157 A 
ATOM     16  C   UNL     1      -0.680  68.897 -21.116  1.00  0.00     0.062 A 
ATOM     17  C   UNL     1       0.709  68.723 -21.082  1.00  0.00     0.158 A 
BRANCH  15  18
ATOM     18  O   UNL     1       2.636  67.251 -21.094  1.00  0.00    -0.504 OA
ATOM     19  H   UNL     1       3.224  67.490 -21.884  1.00  0.00     0.293 HD
ENDBRANCH  15  18
BRANCH  17  20
ATOM     20  O   UNL     1       1.530  69.848 -21.001  1.00  0.00    -0.504 OA
ATOM     21  H   UNL     1       2.426  69.828 -20.529  1.00  0.00     0.293 HD
ENDBRANCH  17  20
ENDBRANCH   1  12
BRANCH   6  22
ATOM     22  O   UNL     1      -8.111  68.654 -20.642  1.00  0.00    -0.507 OA
ATOM     23  H   UNL     1      -8.737  67.933 -20.317  1.00  0.00     0.293 HD
ENDBRANCH   6  22
BRANCH   8  24
ATOM     24  O   UNL     1      -7.323  68.630 -25.362  1.00  0.00    -0.508 OA
ATOM     25  H   UNL     1      -7.776  67.845 -25.816  1.00  0.00     0.293 HD
ENDBRANCH   8  24
TORSDOF 5
ENDMDL
MODEL 5
REMARK VINA RESULT:    -7.616      3.718      4.483
REMARK INTER + INTRA:          -9.232
REMARK INTER:                  -8.950
REMARK INTRA:                  -0.282
REMARK UNBOUND:                -0.281
REMARK SMILES O=c1cc(-c2ccc(O)c(O)c2)oc2cc(O)cc(O)c12
REMARK SMILES IDX 4 1 3 2 2 3 1 4 21 5 19 6 18 7 16 8 15 9 14 10 13 11 5 12
REMARK SMILES IDX 6 13 7 14 8 15 12 16 10 17 9 18 11 20 20 22 17 24
REMARK H PARENT 9 19 11 21 20 23 17 25
REMARK Flexibility Score: inf
ROOT
ATOM      1  C   UNL     1      -3.316  68.156 -23.591  1.00  0.00     0.138 A 
ATOM      2  C   UNL     1      -2.453  67.481 -24.467  1.00  0.00     0.100 A 
ATOM      3  C   UNL     1      -2.854  67.241 -25.782  1.00  0.00     0.197 A 
ATOM      4  O   UNL     1      -2.034  66.689 -26.561  1.00  0.00    -0.289 OA
ATOM      5  C   UNL     1      -4.138  67.652 -26.212  1.00  0.00     0.107 A 
ATOM      6  C   UNL     1      -4.669  67.424 -27.516  1.00  0.00     0.134 A 
ATOM      7  C   UNL     1      -5.908  67.978 -27.864  1.00  0.00     0.093 A 
ATOM      8  C   UNL     1      -6.659  68.699 -26.937  1.00  0.00     0.123 A 
ATOM      9  C   UNL     1      -6.175  68.881 -25.642  1.00  0.00     0.094 A 
ATOM     10  C   UNL     1      -4.927  68.370 -25.275  1.00  0.00     0.146 A 
ATOM     11  O   UNL     1      -4.495  68.578 -24.036  1.00  0.00    -0.456 OA
ENDROOT
BRANCH   1  12
ATOM     12  C   UNL     1      -2.941  68.436 -22.183  1.00  0.00     0.021 A 
ATOM     13  C   UNL     1      -3.919  68.350 -21.176  1.00  0.00     0.016 A 
ATOM     14  C   UNL     1      -3.590  68.602 -19.842  1.00  0.00     0.051 A 
ATOM     15  C   UNL     1      -2.276  68.933 -19.488  1.00  0.00     0.157 A 
ATOM     16  C   UNL     1      -1.618  68.758 -21.818  1.00  0.00     0.062 A 
ATOM     17  C   UNL     1      -1.286  69.008 -20.481  1.00  0.00     0.158 A 
BRANCH  15  18
ATOM     18  O   UNL     1      -1.952  69.186 -18.156  1.00  0.00    -0.504 OA
ATOM     19  H   UNL     1      -2.554  69.741 -17.559  1.00  0.00     0.293 HD
ENDBRANCH  15  18
BRANCH  17  20
ATOM     20  O   UNL     1       0.034  69.326 -20.160  1.00  0.00    -0.504 OA
ATOM     21  H   UNL     1       0.471  69.008 -19.303  1.00  0.00     0.293 HD
ENDBRANCH  17  20
ENDBRANCH   1  12
BRANCH   6  22
ATOM     22  O   UNL     1      -4.038  66.647 -28.492  1.00  0.00    -0.507 OA
ATOM     23  H   UNL     1      -3.130  66.220 -28.390  1.00  0.00     0.293 HD
ENDBRANCH   6  22
BRANCH   8  24
ATOM     24  O   UNL     1      -7.895  69.223 -27.314  1.00  0.00    -0.508 OA
ATOM     25  H   UNL     1      -8.038  70.221 -27.418  1.00  0.00     0.293 HD
ENDBRANCH   8  24
TORSDOF 5
ENDMDL
MODEL 6
REMARK VINA RESULT:    -7.587      2.694      5.378
REMARK INTER + INTRA:          -9.199
REMARK INTER:                  -8.898
REMARK INTRA:                  -0.301
REMARK UNBOUND:                -0.281
REMARK SMILES O=c1cc(-c2ccc(O)c(O)c2)oc2cc(O)cc(O)c12
REMARK SMILES IDX 4 1 3 2 2 3 1 4 21 5 19 6 18 7 16 8 15 9 14 10 13 11 5 12
REMARK SMILES IDX 6 13 7 14 8 15 12 16 10 17 9 18 11 20 20 22 17 24
REMARK H PARENT 9 19 11 21 20 23 17 25
REMARK Flexibility Score: inf
ROOT
ATOM      1  C   UNL     1      -3.852  65.473 -21.163  1.00  0.00     0.138 A 
ATOM      2  C   UNL     1      -2.682  65.996 -21.731  1.00  0.00     0.100 A 
ATOM      3  C   UNL     1      -2.772  67.008 -22.688  1.00  0.00     0.197 A 
ATOM      4  O   UNL     1      -1.703  67.500 -23.134  1.00  0.00    -0.289 OA
ATOM      5  C   UNL     1      -4.042  67.476 -23.100  1.00  0.00     0.107 A 
ATOM      6  C   UNL     1      -4.256  68.474 -24.096  1.00  0.00     0.134 A 
ATOM      7  C   UNL     1      -5.554  68.941 -24.339  1.00  0.00     0.093 A 
ATOM      8  C   UNL     1      -6.649  68.403 -23.665  1.00  0.00     0.123 A 
ATOM      9  C   UNL     1      -6.458  67.388 -22.728  1.00  0.00     0.094 A 
ATOM     10  C   UNL     1      -5.172  66.926 -22.439  1.00  0.00     0.146 A 
ATOM     11  O   UNL     1      -5.030  65.968 -21.529  1.00  0.00    -0.456 OA
ENDROOT
BRANCH   1  12
ATOM     12  C   UNL     1      -3.815  64.395 -20.143  1.00  0.00     0.021 A 
ATOM     13  C   UNL     1      -2.766  64.365 -19.207  1.00  0.00     0.016 A 
ATOM     14  C   UNL     1      -2.712  63.366 -18.233  1.00  0.00     0.051 A 
ATOM     15  C   UNL     1      -3.710  62.385 -18.169  1.00  0.00     0.157 A 
ATOM     16  C   UNL     1      -4.823  63.413 -20.066  1.00  0.00     0.062 A 
ATOM     17  C   UNL     1      -4.771  62.412 -19.088  1.00  0.00     0.158 A 
BRANCH  15  18
ATOM     18  O   UNL     1      -3.652  61.389 -17.196  1.00  0.00    -0.504 OA
ATOM     19  H   UNL     1      -4.257  60.576 -17.232  1.00  0.00     0.293 HD
ENDBRANCH  15  18
BRANCH  17  20
ATOM     20  O   UNL     1      -5.787  61.457 -19.044  1.00  0.00    -0.504 OA
ATOM     21  H   UNL     1      -5.853  60.711 -19.726  1.00  0.00     0.293 HD
ENDBRANCH  17  20
ENDBRANCH   1  12
BRANCH   6  22
ATOM     22  O   UNL     1      -3.240  69.018 -24.887  1.00  0.00    -0.507 OA
ATOM     23  H   UNL     1      -2.602  69.741 -24.590  1.00  0.00     0.293 HD
ENDBRANCH   6  22
BRANCH   8  24
ATOM     24  O   UNL     1      -7.929  68.882 -23.943  1.00  0.00    -0.508 OA
ATOM     25  H   UNL     1      -8.138  69.364 -24.810  1.00  0.00     0.293 HD
ENDBRANCH   8  24
TORSDOF 5
ENDMDL
MODEL 7
REMARK VINA RESULT:    -7.587      1.843      2.949
REMARK INTER + INTRA:          -9.199
REMARK INTER:                  -8.936
REMARK INTRA:                  -0.263
REMARK UNBOUND:                -0.281
REMARK SMILES O=c1cc(-c2ccc(O)c(O)c2)oc2cc(O)cc(O)c12
REMARK SMILES IDX 4 1 3 2 2 3 1 4 21 5 19 6 18 7 16 8 15 9 14 10 13 11 5 12
REMARK SMILES IDX 6 13 7 14 8 15 12 16 10 17 9 18 11 20 20 22 17 24
REMARK H PARENT 9 19 11 21 20 23 17 25
REMARK Flexibility Score: inf
ROOT
ATOM      1  C   UNL     1      -2.876  67.955 -21.705  1.00  0.00     0.138 A 
ATOM      2  C   UNL     1      -3.374  68.376 -22.947  1.00  0.00     0.100 A 
ATOM      3  C   UNL     1      -4.745  68.584 -23.105  1.00  0.00     0.197 A 
ATOM      4  O   UNL     1      -5.155  69.020 -24.212  1.00  0.00    -0.289 OA
ATOM      5  C   UNL     1      -5.624  68.340 -22.023  1.00  0.00     0.107 A 
ATOM      6  C   UNL     1      -7.042  68.479 -22.081  1.00  0.00     0.134 A 
ATOM      7  C   UNL     1      -7.800  68.322 -20.914  1.00  0.00     0.093 A 
ATOM      8  C   UNL     1      -7.198  67.972 -19.707  1.00  0.00     0.123 A 
ATOM      9  C   UNL     1      -5.817  67.780 -19.650  1.00  0.00     0.094 A 
ATOM     10  C   UNL     1      -5.030  67.964 -20.789  1.00  0.00     0.146 A 
ATOM     11  O   UNL     1      -3.717  67.786 -20.690  1.00  0.00    -0.456 OA
ENDROOT
BRANCH   1  12
ATOM     12  C   UNL     1      -1.428  67.717 -21.482  1.00  0.00     0.021 A 
ATOM     13  C   UNL     1      -0.945  66.398 -21.425  1.00  0.00     0.016 A 
ATOM     14  C   UNL     1       0.415  66.148 -21.223  1.00  0.00     0.051 A 
ATOM     15  C   UNL     1       1.317  67.210 -21.086  1.00  0.00     0.157 A 
ATOM     16  C   UNL     1      -0.513  68.782 -21.355  1.00  0.00     0.062 A 
ATOM     17  C   UNL     1       0.850  68.533 -21.155  1.00  0.00     0.158 A 
BRANCH  15  18
ATOM     18  O   UNL     1       2.672  66.957 -20.882  1.00  0.00    -0.504 OA
ATOM     19  H   UNL     1       3.375  67.260 -21.548  1.00  0.00     0.293 HD
ENDBRANCH  15  18
BRANCH  17  20
ATOM     20  O   UNL     1       1.724  69.613 -21.032  1.00  0.00    -0.504 OA
ATOM     21  H   UNL     1       2.720  69.520 -21.191  1.00  0.00     0.293 HD
ENDBRANCH  17  20
ENDBRANCH   1  12
BRANCH   6  22
ATOM     22  O   UNL     1      -7.754  68.744 -23.256  1.00  0.00    -0.507 OA
ATOM     23  H   UNL     1      -7.481  68.437 -24.177  1.00  0.00     0.293 HD
ENDBRANCH   6  22
BRANCH   8  24
ATOM     24  O   UNL     1      -7.985  67.809 -18.568  1.00  0.00    -0.508 OA
ATOM     25  H   UNL     1      -8.995  67.754 -18.625  1.00  0.00     0.293 HD
ENDBRANCH   8  24
TORSDOF 5
ENDMDL
MODEL 8
REMARK VINA RESULT:    -7.535      3.448      5.365
REMARK INTER + INTRA:          -9.137
REMARK INTER:                  -8.847
REMARK INTRA:                  -0.290
REMARK UNBOUND:                -0.281
REMARK SMILES O=c1cc(-c2ccc(O)c(O)c2)oc2cc(O)cc(O)c12
REMARK SMILES IDX 4 1 3 2 2 3 1 4 21 5 19 6 18 7 16 8 15 9 14 10 13 11 5 12
REMARK SMILES IDX 6 13 7 14 8 15 12 16 10 17 9 18 11 20 20 22 17 24
REMARK H PARENT 9 19 11 21 20 23 17 25
REMARK Flexibility Score: inf
ROOT
ATOM      1  C   UNL     1      -4.975  65.512 -21.326  1.00  0.00     0.138 A 
ATOM      2  C   UNL     1      -6.358  65.693 -21.475  1.00  0.00     0.100 A 
ATOM      3  C   UNL     1      -6.836  66.648 -22.373  1.00  0.00     0.197 A 
ATOM      4  O   UNL     1      -8.081  66.743 -22.530  1.00  0.00    -0.289 OA
ATOM      5  C   UNL     1      -5.925  67.447 -23.101  1.00  0.00     0.107 A 
ATOM      6  C   UNL     1      -6.298  68.479 -24.013  1.00  0.00     0.134 A 
ATOM      7  C   UNL     1      -5.309  69.127 -24.765  1.00  0.00     0.093 A 
ATOM      8  C   UNL     1      -3.960  68.822 -24.594  1.00  0.00     0.123 A 
ATOM      9  C   UNL     1      -3.579  67.853 -23.666  1.00  0.00     0.094 A 
ATOM     10  C   UNL     1      -4.544  67.166 -22.926  1.00  0.00     0.146 A 
ATOM     11  O   UNL     1      -4.142  66.240 -22.062  1.00  0.00    -0.456 OA
ENDROOT
BRANCH   1  12
ATOM     12  C   UNL     1      -4.412  64.512 -20.385  1.00  0.00     0.021 A 
ATOM     13  C   UNL     1      -3.118  64.701 -19.868  1.00  0.00     0.016 A 
ATOM     14  C   UNL     1      -2.568  63.778 -18.975  1.00  0.00     0.051 A 
ATOM     15  C   UNL     1      -3.305  62.657 -18.573  1.00  0.00     0.157 A 
ATOM     16  C   UNL     1      -5.153  63.389 -19.967  1.00  0.00     0.062 A 
ATOM     17  C   UNL     1      -4.604  62.464 -19.070  1.00  0.00     0.158 A 
BRANCH  15  18
ATOM     18  O   UNL     1      -2.753  61.737 -17.684  1.00  0.00    -0.504 OA
ATOM     19  H   UNL     1      -2.195  60.954 -18.007  1.00  0.00     0.293 HD
ENDBRANCH  15  18
BRANCH  17  20
ATOM     20  O   UNL     1      -5.368  61.363 -18.681  1.00  0.00    -0.504 OA
ATOM     21  H   UNL     1      -5.225  60.895 -17.795  1.00  0.00     0.293 HD
ENDBRANCH  17  20
ENDBRANCH   1  12
BRANCH   6  22
ATOM     22  O   UNL     1      -7.611  68.920 -24.199  1.00  0.00    -0.507 OA
ATOM     23  H   UNL     1      -8.402  68.319 -24.372  1.00  0.00     0.293 HD
ENDBRANCH   6  22
BRANCH   8  24
ATOM     24  O   UNL     1      -3.002  69.498 -25.349  1.00  0.00    -0.508 OA
ATOM     25  H   UNL     1      -2.013  69.417 -25.145  1.00  0.00     0.293 HD
ENDBRANCH   8  24
TORSDOF 5
ENDMDL
MODEL 9
REMARK VINA RESULT:    -7.524      3.698      5.675
REMARK INTER + INTRA:          -9.124
REMARK INTER:                  -8.854
REMARK INTRA:                  -0.270
REMARK UNBOUND:                -0.281
REMARK SMILES O=c1cc(-c2ccc(O)c(O)c2)oc2cc(O)cc(O)c12
REMARK SMILES IDX 4 1 3 2 2 3 1 4 21 5 19 6 18 7 16 8 15 9 14 10 13 11 5 12
REMARK SMILES IDX 6 13 7 14 8 15 12 16 10 17 9 18 11 20 20 22 17 24
REMARK H PARENT 9 19 11 21 20 23 17 25
REMARK Flexibility Score: inf
ROOT
ATOM      1  C   UNL     1      -3.152  64.983 -19.553  1.00  0.00     0.138 A 
ATOM      2  C   UNL     1      -4.205  64.324 -20.204  1.00  0.00     0.100 A 
ATOM      3  C   UNL     1      -4.749  63.170 -19.640  1.00  0.00     0.197 A 
ATOM      4  O   UNL     1      -5.734  62.636 -20.215  1.00  0.00    -0.289 OA
ATOM      5  C   UNL     1      -4.215  62.655 -18.435  1.00  0.00     0.107 A 
ATOM      6  C   UNL     1      -4.663  61.464 -17.792  1.00  0.00     0.134 A 
ATOM      7  C   UNL     1      -4.137  61.115 -16.541  1.00  0.00     0.093 A 
ATOM      8  C   UNL     1      -3.138  61.880 -15.942  1.00  0.00     0.123 A 
ATOM      9  C   UNL     1      -2.654  63.018 -16.587  1.00  0.00     0.094 A 
ATOM     10  C   UNL     1      -3.183  63.411 -17.819  1.00  0.00     0.146 A 
ATOM     11  O   UNL     1      -2.705  64.509 -18.395  1.00  0.00    -0.456 OA
ENDROOT
BRANCH   1  12
ATOM     12  C   UNL     1      -2.535  66.213 -20.109  1.00  0.00     0.021 A 
ATOM     13  C   UNL     1      -1.684  66.118 -21.224  1.00  0.00     0.016 A 
ATOM     14  C   UNL     1      -1.097  67.262 -21.770  1.00  0.00     0.051 A 
ATOM     15  C   UNL     1      -1.357  68.523 -21.218  1.00  0.00     0.157 A 
ATOM     16  C   UNL     1      -2.803  67.486 -19.567  1.00  0.00     0.062 A 
ATOM     17  C   UNL     1      -2.217  68.634 -20.114  1.00  0.00     0.158 A 
BRANCH  15  18
ATOM     18  O   UNL     1      -0.769  69.662 -21.764  1.00  0.00    -0.504 OA
ATOM     19  H   UNL     1      -0.495  70.448 -21.185  1.00  0.00     0.293 HD
ENDBRANCH  15  18
BRANCH  17  20
ATOM     20  O   UNL     1      -2.506  69.876 -19.548  1.00  0.00    -0.504 OA
ATOM     21  H   UNL     1      -3.049  69.967 -18.698  1.00  0.00     0.293 HD
ENDBRANCH  17  20
ENDBRANCH   1  12
BRANCH   6  22
ATOM     22  O   UNL     1      -5.596  60.581 -18.344  1.00  0.00    -0.507 OA
ATOM     23  H   UNL     1      -5.368  59.712 -18.800  1.00  0.00     0.293 HD
ENDBRANCH   6  22
BRANCH   8  24
ATOM     24  O   UNL     1      -2.627  61.495 -14.703  1.00  0.00    -0.508 OA
ATOM     25  H   UNL     1      -3.220  61.093 -13.987  1.00  0.00     0.293 HD
ENDBRANCH   8  24
TORSDOF 5
ENDMDL
