MODEL 1
REMARK VINA RESULT:    12.646      0.000      0.000
REMARK INTER + INTRA:          15.269
REMARK INTER:                  15.233
REMARK INTRA:                   0.035
REMARK UNBOUND:                 0.035
REMARK SMILES O=c1c(O)c(-c2ccc(O)c(O)c2)oc2cc(O)cc(O)c12
REMARK SMILES IDX 5 1 3 2 2 3 1 4 22 5 20 6 19 7 17 8 16 9 15 10 14 11 6 12
REMARK SMILES IDX 7 13 8 14 9 15 13 16 11 17 10 18 12 20 4 22 21 24 18 26
REMARK H PARENT 10 19 12 21 4 23 21 25 18 27
REMARK Flexibility Score: inf
ROOT
ATOM      1  C   UNL     1      28.541  59.292   4.364  1.00  0.00     0.180 A 
ATOM      2  C   UNL     1      27.155  59.518   4.404  1.00  0.00     0.208 A 
ATOM      3  C   UNL     1      26.683  60.835   4.534  1.00  0.00     0.238 A 
ATOM      4  O   UNL     1      25.443  61.026   4.624  1.00  0.00    -0.285 OA
ATOM      5  C   UNL     1      27.603  61.908   4.604  1.00  0.00     0.111 A 
ATOM      6  C   UNL     1      27.236  63.284   4.696  1.00  0.00     0.134 A 
ATOM      7  C   UNL     1      28.229  64.253   4.891  1.00  0.00     0.093 A 
ATOM      8  C   UNL     1      29.578  63.903   4.933  1.00  0.00     0.123 A 
ATOM      9  C   UNL     1      29.952  62.567   4.785  1.00  0.00     0.094 A 
ATOM     10  C   UNL     1      28.982  61.574   4.625  1.00  0.00     0.146 A 
ATOM     11  O   UNL     1      29.379  60.313   4.498  1.00  0.00    -0.452 OA
ENDROOT
BRANCH   1  12
ATOM     12  C   UNL     1      29.114  57.935   4.203  1.00  0.00     0.025 A 
ATOM     13  C   UNL     1      30.211  57.552   4.989  1.00  0.00     0.016 A 
ATOM     14  C   UNL     1      30.780  56.284   4.841  1.00  0.00     0.051 A 
ATOM     15  C   UNL     1      30.273  55.389   3.895  1.00  0.00     0.157 A 
ATOM     16  C   UNL     1      28.618  57.041   3.237  1.00  0.00     0.062 A 
ATOM     17  C   UNL     1      29.189  55.769   3.085  1.00  0.00     0.158 A 
BRANCH  15  18
ATOM     18  O   UNL     1      30.859  54.129   3.771  1.00  0.00    -0.504 OA
ATOM     19  H   UNL     1      31.389  53.861   2.950  1.00  0.00     0.293 HD
ENDBRANCH  15  18
BRANCH  17  20
ATOM     20  O   UNL     1      28.688  54.885   2.130  1.00  0.00    -0.504 OA
ATOM     21  H   UNL     1      27.774  54.458   2.230  1.00  0.00     0.293 HD
ENDBRANCH  17  20
ENDBRANCH   1  12
BRANCH   2  22
ATOM     22  O   UNL     1      26.265  58.442   4.355  1.00  0.00    -0.502 OA
ATOM     23  H   UNL     1      25.267  58.566   4.236  1.00  0.00     0.293 HD
ENDBRANCH   2  22
BRANCH   6  24
ATOM     24  O   UNL     1      25.924  63.753   4.574  1.00  0.00    -0.507 OA
ATOM     25  H   UNL     1      25.202  63.623   5.266  1.00  0.00     0.293 HD
ENDBRANCH   6  24
BRANCH   8  26
ATOM     26  O   UNL     1      30.540  64.894   5.114  1.00  0.00    -0.508 OA
ATOM     27  H   UNL     1      31.136  65.199   4.353  1.00  0.00     0.293 HD
ENDBRANCH   8  26
TORSDOF 6
ENDMDL
MODEL 2
REMARK VINA RESULT:    12.871      3.285      9.078
REMARK INTER + INTRA:          15.540
REMARK INTER:                  15.537
REMARK INTRA:                   0.003
REMARK UNBOUND:                 0.035
REMARK SMILES O=c1c(O)c(-c2ccc(O)c(O)c2)oc2cc(O)cc(O)c12
REMARK SMILES IDX 5 1 3 2 2 3 1 4 22 5 20 6 19 7 17 8 16 9 15 10 14 11 6 12
REMARK SMILES IDX 7 13 8 14 9 15 13 16 11 17 10 18 12 20 4 22 21 24 18 26
REMARK H PARENT 10 19 12 21 4 23 21 25 18 27
REMARK Flexibility Score: inf
ROOT
ATOM      1  C   UNL     1      27.652  65.514   5.117  1.00  0.00     0.180 A 
ATOM      2  C   UNL     1      29.006  65.277   4.821  1.00  0.00     0.208 A 
ATOM      3  C   UNL     1      29.427  63.961   4.569  1.00  0.00     0.238 A 
ATOM      4  O   UNL     1      30.650  63.748   4.358  1.00  0.00    -0.285 OA
ATOM      5  C   UNL     1      28.488  62.903   4.599  1.00  0.00     0.111 A 
ATOM      6  C   UNL     1      28.797  61.538   4.319  1.00  0.00     0.134 A 
ATOM      7  C   UNL     1      27.815  60.555   4.506  1.00  0.00     0.093 A 
ATOM      8  C   UNL     1      26.522  60.895   4.899  1.00  0.00     0.123 A 
ATOM      9  C   UNL     1      26.193  62.233   5.117  1.00  0.00     0.094 A 
ATOM     10  C   UNL     1      27.159  63.232   4.974  1.00  0.00     0.146 A 
ATOM     11  O   UNL     1      26.809  64.492   5.201  1.00  0.00    -0.452 OA
ENDROOT
BRANCH   1  12
ATOM     12  C   UNL     1      27.128  66.876   5.368  1.00  0.00     0.025 A 
ATOM     13  C   UNL     1      26.269  67.095   6.457  1.00  0.00     0.016 A 
ATOM     14  C   UNL     1      25.747  68.367   6.702  1.00  0.00     0.051 A 
ATOM     15  C   UNL     1      26.060  69.434   5.856  1.00  0.00     0.157 A 
ATOM     16  C   UNL     1      27.426  67.946   4.506  1.00  0.00     0.062 A 
ATOM     17  C   UNL     1      26.901  69.224   4.749  1.00  0.00     0.158 A 
BRANCH  15  18
ATOM     18  O   UNL     1      25.526  70.694   6.127  1.00  0.00    -0.504 OA
ATOM     19  H   UNL     1      24.565  70.819   6.420  1.00  0.00     0.293 HD
ENDBRANCH  15  18
BRANCH  17  20
ATOM     20  O   UNL     1      27.206  70.282   3.894  1.00  0.00    -0.504 OA
ATOM     21  H   UNL     1      27.169  71.245   4.207  1.00  0.00     0.293 HD
ENDBRANCH  17  20
ENDBRANCH   1  12
BRANCH   2  22
ATOM     22  O   UNL     1      29.921  66.333   4.818  1.00  0.00    -0.502 OA
ATOM     23  H   UNL     1      30.134  66.866   3.984  1.00  0.00     0.293 HD
ENDBRANCH   2  22
BRANCH   6  24
ATOM     24  O   UNL     1      30.032  61.100   3.832  1.00  0.00    -0.507 OA
ATOM     25  H   UNL     1      30.581  61.585   3.139  1.00  0.00     0.293 HD
ENDBRANCH   6  24
BRANCH   8  26
ATOM     26  O   UNL     1      25.567  59.893   5.060  1.00  0.00    -0.508 OA
ATOM     27  H   UNL     1      25.778  58.922   4.860  1.00  0.00     0.293 HD
ENDBRANCH   8  26
TORSDOF 6
ENDMDL
MODEL 3
REMARK VINA RESULT:    15.620      4.302      7.257
REMARK INTER + INTRA:          18.851
REMARK INTER:                  19.074
REMARK INTRA:                  -0.223
REMARK UNBOUND:                 0.035
REMARK SMILES O=c1c(O)c(-c2ccc(O)c(O)c2)oc2cc(O)cc(O)c12
REMARK SMILES IDX 5 1 3 2 2 3 1 4 22 5 20 6 19 7 17 8 16 9 15 10 14 11 6 12
REMARK SMILES IDX 7 13 8 14 9 15 13 16 11 17 10 18 12 20 4 22 21 24 18 26
REMARK H PARENT 10 19 12 21 4 23 21 25 18 27
REMARK Flexibility Score: inf
ROOT
ATOM      1  C   UNL     1      27.132  66.107   5.283  1.00  0.00     0.180 A 
ATOM      2  C   UNL     1      26.361  66.423   6.414  1.00  0.00     0.208 A 
ATOM      3  C   UNL     1      26.058  67.769   6.677  1.00  0.00     0.238 A 
ATOM      4  O   UNL     1      25.413  68.050   7.721  1.00  0.00    -0.285 OA
ATOM      5  C   UNL     1      26.515  68.779   5.797  1.00  0.00     0.111 A 
ATOM      6  C   UNL     1      26.232  70.170   5.944  1.00  0.00     0.134 A 
ATOM      7  C   UNL     1      26.845  71.093   5.086  1.00  0.00     0.093 A 
ATOM      8  C   UNL     1      27.676  70.673   4.050  1.00  0.00     0.123 A 
ATOM      9  C   UNL     1      27.911  69.311   3.860  1.00  0.00     0.094 A 
ATOM     10  C   UNL     1      27.344  68.367   4.721  1.00  0.00     0.146 A 
ATOM     11  O   UNL     1      27.601  67.082   4.512  1.00  0.00    -0.452 OA
ENDROOT
BRANCH   1  12
ATOM     12  C   UNL     1      27.471  64.710   4.925  1.00  0.00     0.025 A 
ATOM     13  C   UNL     1      26.461  63.850   4.468  1.00  0.00     0.016 A 
ATOM     14  C   UNL     1      26.753  62.523   4.143  1.00  0.00     0.051 A 
ATOM     15  C   UNL     1      28.054  62.031   4.287  1.00  0.00     0.157 A 
ATOM     16  C   UNL     1      28.774  64.208   5.088  1.00  0.00     0.062 A 
ATOM     17  C   UNL     1      29.070  62.875   4.765  1.00  0.00     0.158 A 
BRANCH  15  18
ATOM     18  O   UNL     1      28.317  60.703   3.953  1.00  0.00    -0.504 OA
ATOM     19  H   UNL     1      29.130  60.435   3.412  1.00  0.00     0.293 HD
ENDBRANCH  15  18
BRANCH  17  20
ATOM     20  O   UNL     1      30.366  62.387   4.924  1.00  0.00    -0.504 OA
ATOM     21  H   UNL     1      31.091  62.573   4.240  1.00  0.00     0.293 HD
ENDBRANCH  17  20
ENDBRANCH   1  12
BRANCH   2  22
ATOM     22  O   UNL     1      25.939  65.412   7.282  1.00  0.00    -0.502 OA
ATOM     23  H   UNL     1      25.166  65.535   7.925  1.00  0.00     0.293 HD
ENDBRANCH   2  22
BRANCH   6  24
ATOM     24  O   UNL     1      25.343  70.691   6.889  1.00  0.00    -0.507 OA
ATOM     25  H   UNL     1      25.544  70.789   7.873  1.00  0.00     0.293 HD
ENDBRANCH   6  24
BRANCH   8  26
ATOM     26  O   UNL     1      28.256  71.618   3.206  1.00  0.00    -0.508 OA
ATOM     27  H   UNL     1      29.254  71.635   3.036  1.00  0.00     0.293 HD
ENDBRANCH   8  26
TORSDOF 6
ENDMDL
