MODEL 1
REMARK VINA RESULT:    -7.345      0.000      0.000
REMARK INTER + INTRA:         -11.753
REMARK INTER:                 -10.565
REMARK INTRA:                  -1.188
REMARK UNBOUND:                -1.188
REMARK SMILES O=c1c(O[C@@H]2O[C@H](CO)[C@@H](O)[C@@H](O)[C@H]2O)c(-c2ccc(O)cc2)oc2cc(O)cc(O)c12
REMARK SMILES IDX 4 1 3 2 16 3 24 4 2 5 25 6 1 7 32 8 26 9 30 10 27 11 29 12
REMARK SMILES IDX 17 13 18 14 19 15 20 16 23 17 22 18 21 19 31 21 28 23 5 25
REMARK SMILES IDX 14 26 6 27 12 28 7 29 10 30 15 31 13 33 8 35 9 36 11 38
REMARK H PARENT 21 20 31 22 28 24 15 32 13 34 9 37 11 39
REMARK Flexibility Score: inf
ROOT
ATOM      1  O   UNL     1      15.146 -34.304  -1.578  1.00  0.00    -0.454 OA
ENDROOT
BRANCH   1   2
ATOM      2  C   UNL     1      14.121 -34.942  -2.295  1.00  0.00     0.214 A 
ATOM      3  C   UNL     1      14.199 -36.294  -2.681  1.00  0.00     0.180 A 
ATOM      4  O   UNL     1      13.169 -36.864  -3.293  1.00  0.00    -0.452 OA
ATOM      5  C   UNL     1      12.978 -34.208  -2.635  1.00  0.00     0.239 A 
ATOM      6  C   UNL     1      12.047 -36.219  -3.595  1.00  0.00     0.146 A 
ATOM      7  O   UNL     1      12.966 -32.973  -2.388  1.00  0.00    -0.285 OA
ATOM      8  C   UNL     1      11.883 -34.851  -3.260  1.00  0.00     0.111 A 
ATOM      9  C   UNL     1      11.040 -36.912  -4.270  1.00  0.00     0.094 A 
ATOM     10  C   UNL     1      10.649 -34.214  -3.589  1.00  0.00     0.134 A 
ATOM     11  C   UNL     1       9.863 -36.263  -4.640  1.00  0.00     0.123 A 
ATOM     12  C   UNL     1       9.676 -34.920  -4.308  1.00  0.00     0.093 A 
BRANCH   3  13
ATOM     13  C   UNL     1      15.408 -37.111  -2.465  1.00  0.00     0.021 A 
ATOM     14  C   UNL     1      15.430 -38.124  -1.490  1.00  0.00     0.016 A 
ATOM     15  C   UNL     1      16.599 -38.857  -1.266  1.00  0.00     0.047 A 
ATOM     16  C   UNL     1      17.758 -38.582  -2.007  1.00  0.00     0.115 A 
ATOM     17  C   UNL     1      16.573 -36.832  -3.198  1.00  0.00     0.016 A 
ATOM     18  C   UNL     1      17.738 -37.571  -2.975  1.00  0.00     0.047 A 
BRANCH  16  19
ATOM     19  O   UNL     1      18.929 -39.303  -1.789  1.00  0.00    -0.508 OA
ATOM     20  H   UNL     1      19.220 -39.573  -0.855  1.00  0.00     0.293 HD
ENDBRANCH  16  19
ENDBRANCH   3  13
BRANCH  10  21
ATOM     21  O   UNL     1      10.316 -32.911  -3.201  1.00  0.00    -0.507 OA
ATOM     22  H   UNL     1       9.457 -32.442  -3.448  1.00  0.00     0.293 HD
ENDBRANCH  10  21
BRANCH  11  23
ATOM     23  O   UNL     1       8.879 -36.965  -5.333  1.00  0.00    -0.508 OA
ATOM     24  H   UNL     1       8.991 -37.209  -6.309  1.00  0.00     0.293 HD
ENDBRANCH  11  23
ENDBRANCH   1   2
BRANCH   1  25
ATOM     25  C   UNL     1      15.255 -34.297  -0.147  1.00  0.00     0.339 C 
ATOM     26  C   UNL     1      13.980 -34.867   0.538  1.00  0.00     0.214 C 
ATOM     27  O   UNL     1      16.391 -35.038   0.253  1.00  0.00    -0.332 OA
ATOM     28  C   UNL     1      14.328 -35.558   1.881  1.00  0.00     0.180 C 
ATOM     29  C   UNL     1      16.740 -34.732   1.596  1.00  0.00     0.179 C 
ATOM     30  C   UNL     1      15.531 -34.890   2.581  1.00  0.00     0.177 C 
BRANCH  26  31
ATOM     31  O   UNL     1      13.003 -33.863   0.695  1.00  0.00    -0.384 OA
ATOM     32  H   UNL     1      13.276 -33.084   0.145  1.00  0.00     0.211 HD
ENDBRANCH  26  31
BRANCH  28  33
ATOM     33  O   UNL     1      13.204 -35.582   2.726  1.00  0.00    -0.387 OA
ATOM     34  H   UNL     1      13.547 -35.637   3.657  1.00  0.00     0.211 HD
ENDBRANCH  28  33
BRANCH  29  35
ATOM     35  C   UNL     1      17.907 -35.642   1.996  1.00  0.00     0.191 C 
BRANCH  35  36
ATOM     36  O   UNL     1      19.108 -34.920   1.983  1.00  0.00    -0.394 OA
ATOM     37  H   UNL     1      18.936 -34.091   2.504  1.00  0.00     0.210 HD
ENDBRANCH  35  36
ENDBRANCH  29  35
BRANCH  30  38
ATOM     38  O   UNL     1      15.147 -33.632   3.079  1.00  0.00    -0.387 OA
ATOM     39  H   UNL     1      14.256 -33.752   3.501  1.00  0.00     0.211 HD
ENDBRANCH  30  38
ENDBRANCH   1  25
TORSDOF 11
ENDMDL
MODEL 2
REMARK VINA RESULT:    -7.222      1.914      4.492
REMARK INTER + INTRA:         -11.576
REMARK INTER:                 -10.335
REMARK INTRA:                  -1.241
REMARK UNBOUND:                -1.188
REMARK SMILES O=c1c(O[C@@H]2O[C@H](CO)[C@@H](O)[C@@H](O)[C@H]2O)c(-c2ccc(O)cc2)oc2cc(O)cc(O)c12
REMARK SMILES IDX 4 1 3 2 16 3 24 4 2 5 25 6 1 7 32 8 26 9 30 10 27 11 29 12
REMARK SMILES IDX 17 13 18 14 19 15 20 16 23 17 22 18 21 19 31 21 28 23 5 25
REMARK SMILES IDX 14 26 6 27 12 28 7 29 10 30 15 31 13 33 8 35 9 36 11 38
REMARK H PARENT 21 20 31 22 28 24 15 32 13 34 9 37 11 39
REMARK Flexibility Score: inf
ROOT
ATOM      1  O   UNL     1      15.449 -35.928  -1.674  1.00  0.00    -0.454 OA
ENDROOT
BRANCH   1   2
ATOM      2  C   UNL     1      14.171 -36.119  -2.225  1.00  0.00     0.214 A 
ATOM      3  C   UNL     1      13.033 -35.445  -1.741  1.00  0.00     0.180 A 
ATOM      4  O   UNL     1      11.864 -35.608  -2.348  1.00  0.00    -0.452 OA
ATOM      5  C   UNL     1      14.024 -37.010  -3.295  1.00  0.00     0.239 A 
ATOM      6  C   UNL     1      11.687 -36.408  -3.394  1.00  0.00     0.146 A 
ATOM      7  O   UNL     1      15.022 -37.693  -3.645  1.00  0.00    -0.285 OA
ATOM      8  C   UNL     1      12.771 -37.139  -3.942  1.00  0.00     0.111 A 
ATOM      9  C   UNL     1      10.404 -36.528  -3.933  1.00  0.00     0.094 A 
ATOM     10  C   UNL     1      12.528 -37.966  -5.080  1.00  0.00     0.134 A 
ATOM     11  C   UNL     1      10.167 -37.384  -5.006  1.00  0.00     0.123 A 
ATOM     12  C   UNL     1      11.222 -38.104  -5.568  1.00  0.00     0.093 A 
BRANCH   3  13
ATOM     13  C   UNL     1      13.073 -34.577  -0.549  1.00  0.00     0.021 A 
ATOM     14  C   UNL     1      12.392 -34.935   0.627  1.00  0.00     0.016 A 
ATOM     15  C   UNL     1      12.400 -34.079   1.732  1.00  0.00     0.047 A 
ATOM     16  C   UNL     1      13.084 -32.855   1.671  1.00  0.00     0.115 A 
ATOM     17  C   UNL     1      13.747 -33.347  -0.610  1.00  0.00     0.016 A 
ATOM     18  C   UNL     1      13.759 -32.496   0.499  1.00  0.00     0.047 A 
BRANCH  16  19
ATOM     19  O   UNL     1      13.095 -31.992   2.764  1.00  0.00    -0.508 OA
ATOM     20  H   UNL     1      12.317 -31.948   3.414  1.00  0.00     0.293 HD
ENDBRANCH  16  19
ENDBRANCH   3  13
BRANCH  10  21
ATOM     21  O   UNL     1      13.534 -38.636  -5.786  1.00  0.00    -0.507 OA
ATOM     22  H   UNL     1      13.570 -38.717  -6.791  1.00  0.00     0.293 HD
ENDBRANCH  10  21
BRANCH  11  23
ATOM     23  O   UNL     1       8.875 -37.508  -5.515  1.00  0.00    -0.508 OA
ATOM     24  H   UNL     1       8.301 -38.317  -5.311  1.00  0.00     0.293 HD
ENDBRANCH  11  23
ENDBRANCH   1   2
BRANCH   1  25
ATOM     25  C   UNL     1      15.892 -36.497  -0.434  1.00  0.00     0.339 C 
ATOM     26  C   UNL     1      16.778 -37.756  -0.652  1.00  0.00     0.214 C 
ATOM     27  O   UNL     1      16.604 -35.528   0.312  1.00  0.00    -0.332 OA
ATOM     28  C   UNL     1      17.827 -37.906   0.480  1.00  0.00     0.180 C 
ATOM     29  C   UNL     1      16.713 -35.926   1.671  1.00  0.00     0.179 C 
ATOM     30  C   UNL     1      17.302 -37.370   1.830  1.00  0.00     0.177 C 
BRANCH  26  31
ATOM     31  O   UNL     1      15.983 -38.910  -0.795  1.00  0.00    -0.384 OA
ATOM     32  H   UNL     1      15.700 -38.970  -1.744  1.00  0.00     0.211 HD
ENDBRANCH  26  31
BRANCH  28  33
ATOM     33  O   UNL     1      18.235 -39.246   0.596  1.00  0.00    -0.387 OA
ATOM     34  H   UNL     1      19.191 -39.279   0.325  1.00  0.00     0.211 HD
ENDBRANCH  28  33
BRANCH  29  35
ATOM     35  C   UNL     1      17.580 -34.889   2.396  1.00  0.00     0.191 C 
BRANCH  35  36
ATOM     36  O   UNL     1      18.718 -34.594   1.634  1.00  0.00    -0.394 OA
ATOM     37  H   UNL     1      19.372 -35.319   1.825  1.00  0.00     0.210 HD
ENDBRANCH  35  36
ENDBRANCH  29  35
BRANCH  30  38
ATOM     38  O   UNL     1      16.318 -38.240   2.331  1.00  0.00    -0.387 OA
ATOM     39  H   UNL     1      16.397 -39.087   1.818  1.00  0.00     0.211 HD
ENDBRANCH  30  38
ENDBRANCH   1  25
TORSDOF 11
ENDMDL
MODEL 3
REMARK VINA RESULT:    -6.950      1.369      2.362
REMARK INTER + INTRA:         -11.186
REMARK INTER:                 -10.018
REMARK INTRA:                  -1.168
REMARK UNBOUND:                -1.188
REMARK SMILES O=c1c(O[C@@H]2O[C@H](CO)[C@@H](O)[C@@H](O)[C@H]2O)c(-c2ccc(O)cc2)oc2cc(O)cc(O)c12
REMARK SMILES IDX 4 1 3 2 16 3 24 4 2 5 25 6 1 7 32 8 26 9 30 10 27 11 29 12
REMARK SMILES IDX 17 13 18 14 19 15 20 16 23 17 22 18 21 19 31 21 28 23 5 25
REMARK SMILES IDX 14 26 6 27 12 28 7 29 10 30 15 31 13 33 8 35 9 36 11 38
REMARK H PARENT 21 20 31 22 28 24 15 32 13 34 9 37 11 39
REMARK Flexibility Score: inf
ROOT
ATOM      1  O   UNL     1      14.625 -34.900  -1.717  1.00  0.00    -0.454 OA
ENDROOT
BRANCH   1   2
ATOM      2  C   UNL     1      13.866 -35.741  -2.547  1.00  0.00     0.214 A 
ATOM      3  C   UNL     1      14.367 -36.958  -3.049  1.00  0.00     0.180 A 
ATOM      4  O   UNL     1      13.579 -37.747  -3.769  1.00  0.00    -0.452 OA
ATOM      5  C   UNL     1      12.563 -35.357  -2.886  1.00  0.00     0.239 A 
ATOM      6  C   UNL     1      12.323 -37.444  -4.077  1.00  0.00     0.146 A 
ATOM      7  O   UNL     1      12.165 -34.216  -2.530  1.00  0.00    -0.285 OA
ATOM      8  C   UNL     1      11.736 -36.233  -3.630  1.00  0.00     0.111 A 
ATOM      9  C   UNL     1      11.596 -38.335  -4.869  1.00  0.00     0.094 A 
ATOM     10  C   UNL     1      10.376 -35.969  -3.972  1.00  0.00     0.134 A 
ATOM     11  C   UNL     1      10.288 -38.039  -5.247  1.00  0.00     0.123 A 
ATOM     12  C   UNL     1       9.688 -36.859  -4.807  1.00  0.00     0.093 A 
BRANCH   3  13
ATOM     13  C   UNL     1      15.762 -37.387  -2.837  1.00  0.00     0.021 A 
ATOM     14  C   UNL     1      16.054 -38.583  -2.157  1.00  0.00     0.016 A 
ATOM     15  C   UNL     1      17.382 -38.952  -1.923  1.00  0.00     0.047 A 
ATOM     16  C   UNL     1      18.430 -38.128  -2.360  1.00  0.00     0.115 A 
ATOM     17  C   UNL     1      16.814 -36.561  -3.264  1.00  0.00     0.016 A 
ATOM     18  C   UNL     1      18.140 -36.936  -3.034  1.00  0.00     0.047 A 
BRANCH  16  19
ATOM     19  O   UNL     1      19.757 -38.483  -2.129  1.00  0.00    -0.508 OA
ATOM     20  H   UNL     1      20.006 -39.395  -1.759  1.00  0.00     0.293 HD
ENDBRANCH  16  19
ENDBRANCH   3  13
BRANCH  10  21
ATOM     21  O   UNL     1       9.648 -34.876  -3.488  1.00  0.00    -0.507 OA
ATOM     22  H   UNL     1       9.638 -33.961  -3.914  1.00  0.00     0.293 HD
ENDBRANCH  10  21
BRANCH  11  23
ATOM     23  O   UNL     1       9.588 -38.931  -6.057  1.00  0.00    -0.508 OA
ATOM     24  H   UNL     1       9.506 -39.912  -5.818  1.00  0.00     0.293 HD
ENDBRANCH  11  23
ENDBRANCH   1   2
BRANCH   1  25
ATOM     25  C   UNL     1      14.567 -34.906  -0.284  1.00  0.00     0.339 C 
ATOM     26  C   UNL     1      15.972 -35.091   0.357  1.00  0.00     0.214 C 
ATOM     27  O   UNL     1      13.980 -33.705   0.179  1.00  0.00    -0.332 OA
ATOM     28  C   UNL     1      16.062 -34.370   1.727  1.00  0.00     0.180 C 
ATOM     29  C   UNL     1      13.560 -33.842   1.529  1.00  0.00     0.179 C 
ATOM     30  C   UNL     1      14.706 -34.359   2.465  1.00  0.00     0.177 C 
BRANCH  26  31
ATOM     31  O   UNL     1      16.303 -36.457   0.453  1.00  0.00    -0.384 OA
ATOM     32  H   UNL     1      16.736 -36.605   1.333  1.00  0.00     0.211 HD
ENDBRANCH  26  31
BRANCH  28  33
ATOM     33  O   UNL     1      17.063 -34.954   2.523  1.00  0.00    -0.387 OA
ATOM     34  H   UNL     1      17.930 -34.770   2.075  1.00  0.00     0.211 HD
ENDBRANCH  28  33
BRANCH  29  35
ATOM     35  C   UNL     1      13.031 -32.480   1.997  1.00  0.00     0.191 C 
BRANCH  35  36
ATOM     36  O   UNL     1      13.915 -31.462   1.615  1.00  0.00    -0.394 OA
ATOM     37  H   UNL     1      14.669 -31.914   1.150  1.00  0.00     0.210 HD
ENDBRANCH  35  36
ENDBRANCH  29  35
BRANCH  30  38
ATOM     38  O   UNL     1      14.407 -35.654   2.922  1.00  0.00    -0.387 OA
ATOM     39  H   UNL     1      14.189 -36.197   2.119  1.00  0.00     0.211 HD
ENDBRANCH  30  38
ENDBRANCH   1  25
TORSDOF 11
ENDMDL
MODEL 4
REMARK VINA RESULT:    -6.811      1.269      2.414
REMARK INTER + INTRA:         -10.986
REMARK INTER:                  -9.695
REMARK INTRA:                  -1.291
REMARK UNBOUND:                -1.188
REMARK SMILES O=c1c(O[C@@H]2O[C@H](CO)[C@@H](O)[C@@H](O)[C@H]2O)c(-c2ccc(O)cc2)oc2cc(O)cc(O)c12
REMARK SMILES IDX 4 1 3 2 16 3 24 4 2 5 25 6 1 7 32 8 26 9 30 10 27 11 29 12
REMARK SMILES IDX 17 13 18 14 19 15 20 16 23 17 22 18 21 19 31 21 28 23 5 25
REMARK SMILES IDX 14 26 6 27 12 28 7 29 10 30 15 31 13 33 8 35 9 36 11 38
REMARK H PARENT 21 20 31 22 28 24 15 32 13 34 9 37 11 39
REMARK Flexibility Score: inf
ROOT
ATOM      1  O   UNL     1      14.704 -34.978  -1.280  1.00  0.00    -0.454 OA
ENDROOT
BRANCH   1   2
ATOM      2  C   UNL     1      13.934 -35.735  -2.179  1.00  0.00     0.214 A 
ATOM      3  C   UNL     1      14.432 -36.889  -2.812  1.00  0.00     0.180 A 
ATOM      4  O   UNL     1      13.636 -37.606  -3.595  1.00  0.00    -0.452 OA
ATOM      5  C   UNL     1      12.623 -35.327  -2.453  1.00  0.00     0.239 A 
ATOM      6  C   UNL     1      12.372 -37.283  -3.847  1.00  0.00     0.146 A 
ATOM      7  O   UNL     1      12.225 -34.232  -1.974  1.00  0.00    -0.285 OA
ATOM      8  C   UNL     1      11.787 -36.129  -3.267  1.00  0.00     0.111 A 
ATOM      9  C   UNL     1      11.636 -38.094  -4.714  1.00  0.00     0.094 A 
ATOM     10  C   UNL     1      10.419 -35.842  -3.556  1.00  0.00     0.134 A 
ATOM     11  C   UNL     1      10.319 -37.770  -5.035  1.00  0.00     0.123 A 
ATOM     12  C   UNL     1       9.721 -36.645  -4.465  1.00  0.00     0.093 A 
BRANCH   3  13
ATOM     13  C   UNL     1      15.833 -37.328  -2.671  1.00  0.00     0.021 A 
ATOM     14  C   UNL     1      16.165 -38.439  -1.876  1.00  0.00     0.016 A 
ATOM     15  C   UNL     1      17.503 -38.812  -1.715  1.00  0.00     0.047 A 
ATOM     16  C   UNL     1      18.521 -38.077  -2.340  1.00  0.00     0.115 A 
ATOM     17  C   UNL     1      16.856 -36.589  -3.287  1.00  0.00     0.016 A 
ATOM     18  C   UNL     1      18.191 -36.969  -3.129  1.00  0.00     0.047 A 
BRANCH  16  19
ATOM     19  O   UNL     1      19.857 -38.437  -2.183  1.00  0.00    -0.508 OA
ATOM     20  H   UNL     1      20.125 -39.372  -1.893  1.00  0.00     0.293 HD
ENDBRANCH  16  19
ENDBRANCH   3  13
BRANCH  10  21
ATOM     21  O   UNL     1       9.694 -34.809  -2.948  1.00  0.00    -0.507 OA
ATOM     22  H   UNL     1      10.094 -33.938  -2.632  1.00  0.00     0.293 HD
ENDBRANCH  10  21
BRANCH  11  23
ATOM     23  O   UNL     1       9.608 -38.579  -5.920  1.00  0.00    -0.508 OA
ATOM     24  H   UNL     1      10.078 -39.235  -6.532  1.00  0.00     0.293 HD
ENDBRANCH  11  23
ENDBRANCH   1   2
BRANCH   1  25
ATOM     25  C   UNL     1      15.042 -35.393   0.050  1.00  0.00     0.339 C 
ATOM     26  C   UNL     1      16.380 -34.766   0.536  1.00  0.00     0.214 C 
ATOM     27  O   UNL     1      13.997 -35.052   0.941  1.00  0.00    -0.332 OA
ATOM     28  C   UNL     1      16.374 -34.555   2.072  1.00  0.00     0.180 C 
ATOM     29  C   UNL     1      14.120 -35.777   2.157  1.00  0.00     0.179 C 
ATOM     30  C   UNL     1      15.542 -35.632   2.801  1.00  0.00     0.177 C 
BRANCH  26  31
ATOM     31  O   UNL     1      17.479 -35.538   0.110  1.00  0.00    -0.384 OA
ATOM     32  H   UNL     1      17.438 -35.609  -0.878  1.00  0.00     0.211 HD
ENDBRANCH  26  31
BRANCH  28  33
ATOM     33  O   UNL     1      17.690 -34.516   2.566  1.00  0.00    -0.387 OA
ATOM     34  H   UNL     1      18.079 -33.649   2.277  1.00  0.00     0.211 HD
ENDBRANCH  28  33
BRANCH  29  35
ATOM     35  C   UNL     1      13.024 -35.285   3.110  1.00  0.00     0.191 C 
BRANCH  35  36
ATOM     36  O   UNL     1      12.485 -34.079   2.644  1.00  0.00    -0.394 OA
ATOM     37  H   UNL     1      13.255 -33.544   2.312  1.00  0.00     0.210 HD
ENDBRANCH  35  36
ENDBRANCH  29  35
BRANCH  30  38
ATOM     38  O   UNL     1      16.221 -36.862   2.755  1.00  0.00    -0.387 OA
ATOM     39  H   UNL     1      16.503 -37.068   3.685  1.00  0.00     0.211 HD
ENDBRANCH  30  38
ENDBRANCH   1  25
TORSDOF 11
ENDMDL
MODEL 5
REMARK VINA RESULT:    -6.734      1.759      2.306
REMARK INTER + INTRA:         -10.875
REMARK INTER:                  -9.625
REMARK INTRA:                  -1.250
REMARK UNBOUND:                -1.188
REMARK SMILES O=c1c(O[C@@H]2O[C@H](CO)[C@@H](O)[C@@H](O)[C@H]2O)c(-c2ccc(O)cc2)oc2cc(O)cc(O)c12
REMARK SMILES IDX 4 1 3 2 16 3 24 4 2 5 25 6 1 7 32 8 26 9 30 10 27 11 29 12
REMARK SMILES IDX 17 13 18 14 19 15 20 16 23 17 22 18 21 19 31 21 28 23 5 25
REMARK SMILES IDX 14 26 6 27 12 28 7 29 10 30 15 31 13 33 8 35 9 36 11 38
REMARK H PARENT 21 20 31 22 28 24 15 32 13 34 9 37 11 39
REMARK Flexibility Score: inf
ROOT
ATOM      1  O   UNL     1      14.345 -35.399  -2.531  1.00  0.00    -0.454 OA
ENDROOT
BRANCH   1   2
ATOM      2  C   UNL     1      13.800 -36.455  -3.281  1.00  0.00     0.214 A 
ATOM      3  C   UNL     1      14.503 -37.652  -3.518  1.00  0.00     0.180 A 
ATOM      4  O   UNL     1      13.911 -38.644  -4.171  1.00  0.00    -0.452 OA
ATOM      5  C   UNL     1      12.512 -36.313  -3.810  1.00  0.00     0.239 A 
ATOM      6  C   UNL     1      12.673 -38.571  -4.651  1.00  0.00     0.146 A 
ATOM      7  O   UNL     1      11.937 -35.198  -3.692  1.00  0.00    -0.285 OA
ATOM      8  C   UNL     1      11.894 -37.400  -4.474  1.00  0.00     0.111 A 
ATOM      9  C   UNL     1      12.163 -39.666  -5.351  1.00  0.00     0.094 A 
ATOM     10  C   UNL     1      10.564 -37.384  -4.991  1.00  0.00     0.134 A 
ATOM     11  C   UNL     1      10.884 -39.617  -5.903  1.00  0.00     0.123 A 
ATOM     12  C   UNL     1      10.096 -38.478  -5.730  1.00  0.00     0.093 A 
BRANCH   3  13
ATOM     13  C   UNL     1      15.903 -37.846  -3.098  1.00  0.00     0.021 A 
ATOM     14  C   UNL     1      16.234 -38.770  -2.092  1.00  0.00     0.016 A 
ATOM     15  C   UNL     1      17.561 -38.906  -1.672  1.00  0.00     0.047 A 
ATOM     16  C   UNL     1      18.568 -38.118  -2.249  1.00  0.00     0.115 A 
ATOM     17  C   UNL     1      16.913 -37.051  -3.665  1.00  0.00     0.016 A 
ATOM     18  C   UNL     1      18.239 -37.195  -3.248  1.00  0.00     0.047 A 
BRANCH  16  19
ATOM     19  O   UNL     1      19.892 -38.242  -1.835  1.00  0.00    -0.508 OA
ATOM     20  H   UNL     1      20.534 -37.456  -1.868  1.00  0.00     0.293 HD
ENDBRANCH  16  19
ENDBRANCH   3  13
BRANCH  10  21
ATOM     21  O   UNL     1       9.655 -36.342  -4.774  1.00  0.00    -0.507 OA
ATOM     22  H   UNL     1       9.006 -36.301  -4.001  1.00  0.00     0.293 HD
ENDBRANCH  10  21
BRANCH  11  23
ATOM     23  O   UNL     1      10.402 -40.711  -6.618  1.00  0.00    -0.508 OA
ATOM     24  H   UNL     1      10.858 -41.614  -6.577  1.00  0.00     0.293 HD
ENDBRANCH  11  23
ENDBRANCH   1   2
BRANCH   1  25
ATOM     25  C   UNL     1      14.250 -35.282  -1.105  1.00  0.00     0.339 C 
ATOM     26  C   UNL     1      13.259 -36.317  -0.499  1.00  0.00     0.214 C 
ATOM     27  O   UNL     1      15.530 -35.441  -0.523  1.00  0.00    -0.332 OA
ATOM     28  C   UNL     1      13.687 -36.730   0.933  1.00  0.00     0.180 C 
ATOM     29  C   UNL     1      15.535 -34.954   0.811  1.00  0.00     0.179 C 
ATOM     30  C   UNL     1      14.390 -35.576   1.682  1.00  0.00     0.177 C 
BRANCH  26  31
ATOM     31  O   UNL     1      11.938 -35.829  -0.538  1.00  0.00    -0.384 OA
ATOM     32  H   UNL     1      11.775 -35.322   0.299  1.00  0.00     0.211 HD
ENDBRANCH  26  31
BRANCH  28  33
ATOM     33  O   UNL     1      12.579 -37.199   1.659  1.00  0.00    -0.387 OA
ATOM     34  H   UNL     1      11.956 -37.606   1.001  1.00  0.00     0.211 HD
ENDBRANCH  28  33
BRANCH  29  35
ATOM     35  C   UNL     1      16.915 -35.250   1.413  1.00  0.00     0.191 C 
BRANCH  35  36
ATOM     36  O   UNL     1      17.812 -35.620   0.403  1.00  0.00    -0.394 OA
ATOM     37  H   UNL     1      18.319 -34.797   0.171  1.00  0.00     0.210 HD
ENDBRANCH  35  36
ENDBRANCH  29  35
BRANCH  30  38
ATOM     38  O   UNL     1      13.447 -34.588   2.015  1.00  0.00    -0.387 OA
ATOM     39  H   UNL     1      13.880 -33.993   2.682  1.00  0.00     0.211 HD
ENDBRANCH  30  38
ENDBRANCH   1  25
TORSDOF 11
ENDMDL
MODEL 6
REMARK VINA RESULT:    -6.682      2.575      7.905
REMARK INTER + INTRA:         -10.799
REMARK INTER:                  -9.639
REMARK INTRA:                  -1.161
REMARK UNBOUND:                -1.188
REMARK SMILES O=c1c(O[C@@H]2O[C@H](CO)[C@@H](O)[C@@H](O)[C@H]2O)c(-c2ccc(O)cc2)oc2cc(O)cc(O)c12
REMARK SMILES IDX 4 1 3 2 16 3 24 4 2 5 25 6 1 7 32 8 26 9 30 10 27 11 29 12
REMARK SMILES IDX 17 13 18 14 19 15 20 16 23 17 22 18 21 19 31 21 28 23 5 25
REMARK SMILES IDX 14 26 6 27 12 28 7 29 10 30 15 31 13 33 8 35 9 36 11 38
REMARK H PARENT 21 20 31 22 28 24 15 32 13 34 9 37 11 39
REMARK Flexibility Score: inf
ROOT
ATOM      1  O   UNL     1      14.099 -37.356  -3.615  1.00  0.00    -0.454 OA
ENDROOT
BRANCH   1   2
ATOM      2  C   UNL     1      14.703 -37.106  -2.371  1.00  0.00     0.214 A 
ATOM      3  C   UNL     1      14.267 -36.078  -1.514  1.00  0.00     0.180 A 
ATOM      4  O   UNL     1      14.827 -35.935  -0.320  1.00  0.00    -0.452 OA
ATOM      5  C   UNL     1      15.775 -37.912  -1.969  1.00  0.00     0.239 A 
ATOM      6  C   UNL     1      15.816 -36.705   0.123  1.00  0.00     0.146 A 
ATOM      7  O   UNL     1      16.232 -38.752  -2.789  1.00  0.00    -0.285 OA
ATOM      8  C   UNL     1      16.331 -37.756  -0.677  1.00  0.00     0.111 A 
ATOM      9  C   UNL     1      16.352 -36.443   1.385  1.00  0.00     0.094 A 
ATOM     10  C   UNL     1      17.379 -38.565  -0.142  1.00  0.00     0.134 A 
ATOM     11  C   UNL     1      17.415 -37.201   1.872  1.00  0.00     0.123 A 
ATOM     12  C   UNL     1      17.929 -38.249   1.106  1.00  0.00     0.093 A 
BRANCH   3  13
ATOM     13  C   UNL     1      13.223 -35.112  -1.903  1.00  0.00     0.021 A 
ATOM     14  C   UNL     1      13.556 -33.795  -2.266  1.00  0.00     0.016 A 
ATOM     15  C   UNL     1      12.550 -32.878  -2.586  1.00  0.00     0.047 A 
ATOM     16  C   UNL     1      11.203 -33.265  -2.540  1.00  0.00     0.115 A 
ATOM     17  C   UNL     1      11.872 -35.492  -1.849  1.00  0.00     0.016 A 
ATOM     18  C   UNL     1      10.869 -34.574  -2.175  1.00  0.00     0.047 A 
BRANCH  16  19
ATOM     19  O   UNL     1      10.192 -32.359  -2.851  1.00  0.00    -0.508 OA
ATOM     20  H   UNL     1      10.393 -31.478  -3.315  1.00  0.00     0.293 HD
ENDBRANCH  16  19
ENDBRANCH   3  13
BRANCH  10  21
ATOM     21  O   UNL     1      17.884 -39.707  -0.777  1.00  0.00    -0.507 OA
ATOM     22  H   UNL     1      18.493 -40.382  -0.339  1.00  0.00     0.293 HD
ENDBRANCH  10  21
BRANCH  11  23
ATOM     23  O   UNL     1      17.951 -36.910   3.125  1.00  0.00    -0.508 OA
ATOM     24  H   UNL     1      18.948 -36.790   3.260  1.00  0.00     0.293 HD
ENDBRANCH  11  23
ENDBRANCH   1   2
BRANCH   1  25
ATOM     25  C   UNL     1      12.965 -38.212  -3.811  1.00  0.00     0.339 C 
ATOM     26  C   UNL     1      13.168 -39.184  -5.008  1.00  0.00     0.214 C 
ATOM     27  O   UNL     1      12.708 -38.947  -2.630  1.00  0.00    -0.332 OA
ATOM     28  C   UNL     1      12.414 -40.519  -4.779  1.00  0.00     0.180 C 
ATOM     29  C   UNL     1      11.397 -39.494  -2.658  1.00  0.00     0.179 C 
ATOM     30  C   UNL     1      11.119 -40.320  -3.961  1.00  0.00     0.177 C 
BRANCH  26  31
ATOM     31  O   UNL     1      12.801 -38.569  -6.221  1.00  0.00    -0.384 OA
ATOM     32  H   UNL     1      13.615 -38.490  -6.782  1.00  0.00     0.211 HD
ENDBRANCH  26  31
BRANCH  28  33
ATOM     33  O   UNL     1      12.140 -41.145  -6.008  1.00  0.00    -0.387 OA
ATOM     34  H   UNL     1      12.183 -42.125  -5.846  1.00  0.00     0.211 HD
ENDBRANCH  28  33
BRANCH  29  35
ATOM     35  C   UNL     1      11.223 -40.360  -1.404  1.00  0.00     0.191 C 
BRANCH  35  36
ATOM     36  O   UNL     1      10.799 -41.646  -1.760  1.00  0.00    -0.394 OA
ATOM     37  H   UNL     1      11.397 -41.938  -2.498  1.00  0.00     0.210 HD
ENDBRANCH  35  36
ENDBRANCH  29  35
BRANCH  30  38
ATOM     38  O   UNL     1      10.159 -39.663  -4.752  1.00  0.00    -0.387 OA
ATOM     39  H   UNL     1      10.647 -39.261  -5.519  1.00  0.00     0.211 HD
ENDBRANCH  30  38
ENDBRANCH   1  25
TORSDOF 11
ENDMDL
MODEL 7
REMARK VINA RESULT:    -6.634      2.785      5.078
REMARK INTER + INTRA:         -10.731
REMARK INTER:                  -9.792
REMARK INTRA:                  -0.939
REMARK UNBOUND:                -1.188
REMARK SMILES O=c1c(O[C@@H]2O[C@H](CO)[C@@H](O)[C@@H](O)[C@H]2O)c(-c2ccc(O)cc2)oc2cc(O)cc(O)c12
REMARK SMILES IDX 4 1 3 2 16 3 24 4 2 5 25 6 1 7 32 8 26 9 30 10 27 11 29 12
REMARK SMILES IDX 17 13 18 14 19 15 20 16 23 17 22 18 21 19 31 21 28 23 5 25
REMARK SMILES IDX 14 26 6 27 12 28 7 29 10 30 15 31 13 33 8 35 9 36 11 38
REMARK H PARENT 21 20 31 22 28 24 15 32 13 34 9 37 11 39
REMARK Flexibility Score: inf
ROOT
ATOM      1  O   UNL     1      14.324 -36.414  -3.114  1.00  0.00    -0.454 OA
ENDROOT
BRANCH   1   2
ATOM      2  C   UNL     1      14.126 -37.781  -3.369  1.00  0.00     0.214 A 
ATOM      3  C   UNL     1      14.784 -38.788  -2.638  1.00  0.00     0.180 A 
ATOM      4  O   UNL     1      14.503 -40.063  -2.874  1.00  0.00    -0.452 OA
ATOM      5  C   UNL     1      13.240 -38.155  -4.386  1.00  0.00     0.239 A 
ATOM      6  C   UNL     1      13.635 -40.463  -3.797  1.00  0.00     0.146 A 
ATOM      7  O   UNL     1      12.745 -37.251  -5.110  1.00  0.00    -0.285 OA
ATOM      8  C   UNL     1      12.936 -39.522  -4.594  1.00  0.00     0.111 A 
ATOM      9  C   UNL     1      13.442 -41.834  -3.982  1.00  0.00     0.094 A 
ATOM     10  C   UNL     1      11.999 -40.008  -5.556  1.00  0.00     0.134 A 
ATOM     11  C   UNL     1      12.570 -42.298  -4.965  1.00  0.00     0.123 A 
ATOM     12  C   UNL     1      11.862 -41.387  -5.751  1.00  0.00     0.093 A 
BRANCH   3  13
ATOM     13  C   UNL     1      15.817 -38.488  -1.628  1.00  0.00     0.021 A 
ATOM     14  C   UNL     1      17.183 -38.550  -1.953  1.00  0.00     0.016 A 
ATOM     15  C   UNL     1      18.150 -38.309  -0.972  1.00  0.00     0.047 A 
ATOM     16  C   UNL     1      17.762 -38.010   0.343  1.00  0.00     0.115 A 
ATOM     17  C   UNL     1      15.433 -38.198  -0.309  1.00  0.00     0.016 A 
ATOM     18  C   UNL     1      16.401 -37.952   0.668  1.00  0.00     0.047 A 
BRANCH  16  19
ATOM     19  O   UNL     1      18.715 -37.773   1.330  1.00  0.00    -0.508 OA
ATOM     20  H   UNL     1      19.091 -38.527   1.897  1.00  0.00     0.293 HD
ENDBRANCH  16  19
ENDBRANCH   3  13
BRANCH  10  21
ATOM     21  O   UNL     1      11.158 -39.182  -6.311  1.00  0.00    -0.507 OA
ATOM     22  H   UNL     1      11.256 -38.180  -6.384  1.00  0.00     0.293 HD
ENDBRANCH  10  21
BRANCH  11  23
ATOM     23  O   UNL     1      12.407 -43.670  -5.149  1.00  0.00    -0.508 OA
ATOM     24  H   UNL     1      13.143 -44.326  -4.918  1.00  0.00     0.293 HD
ENDBRANCH  11  23
ENDBRANCH   1   2
BRANCH   1  25
ATOM     25  C   UNL     1      13.432 -35.592  -2.348  1.00  0.00     0.339 C 
ATOM     26  C   UNL     1      14.193 -34.514  -1.525  1.00  0.00     0.214 C 
ATOM     27  O   UNL     1      12.493 -34.973  -3.205  1.00  0.00    -0.332 OA
ATOM     28  C   UNL     1      13.333 -33.236  -1.347  1.00  0.00     0.180 C 
ATOM     29  C   UNL     1      11.387 -34.481  -2.462  1.00  0.00     0.179 C 
ATOM     30  C   UNL     1      11.825 -33.560  -1.272  1.00  0.00     0.177 C 
BRANCH  26  31
ATOM     31  O   UNL     1      14.628 -35.038  -0.292  1.00  0.00    -0.384 OA
ATOM     32  H   UNL     1      15.460 -34.564  -0.035  1.00  0.00     0.211 HD
ENDBRANCH  26  31
BRANCH  28  33
ATOM     33  O   UNL     1      13.750 -32.519  -0.211  1.00  0.00    -0.387 OA
ATOM     34  H   UNL     1      14.540 -31.984  -0.485  1.00  0.00     0.211 HD
ENDBRANCH  28  33
BRANCH  29  35
ATOM     35  C   UNL     1      10.464 -33.735  -3.433  1.00  0.00     0.191 C 
BRANCH  35  36
ATOM     36  O   UNL     1      10.326 -32.398  -3.037  1.00  0.00    -0.394 OA
ATOM     37  H   UNL     1      10.432 -32.392  -2.049  1.00  0.00     0.210 HD
ENDBRANCH  35  36
ENDBRANCH  29  35
BRANCH  30  38
ATOM     38  O   UNL     1      11.537 -34.187  -0.046  1.00  0.00    -0.387 OA
ATOM     39  H   UNL     1      10.591 -33.973   0.169  1.00  0.00     0.211 HD
ENDBRANCH  30  38
ENDBRANCH   1  25
TORSDOF 11
ENDMDL
MODEL 8
REMARK VINA RESULT:    -6.583      2.514      5.144
REMARK INTER + INTRA:         -10.658
REMARK INTER:                  -9.538
REMARK INTRA:                  -1.120
REMARK UNBOUND:                -1.188
REMARK SMILES O=c1c(O[C@@H]2O[C@H](CO)[C@@H](O)[C@@H](O)[C@H]2O)c(-c2ccc(O)cc2)oc2cc(O)cc(O)c12
REMARK SMILES IDX 4 1 3 2 16 3 24 4 2 5 25 6 1 7 32 8 26 9 30 10 27 11 29 12
REMARK SMILES IDX 17 13 18 14 19 15 20 16 23 17 22 18 21 19 31 21 28 23 5 25
REMARK SMILES IDX 14 26 6 27 12 28 7 29 10 30 15 31 13 33 8 35 9 36 11 38
REMARK H PARENT 21 20 31 22 28 24 15 32 13 34 9 37 11 39
REMARK Flexibility Score: inf
ROOT
ATOM      1  O   UNL     1      14.953 -36.158  -2.774  1.00  0.00    -0.454 OA
ENDROOT
BRANCH   1   2
ATOM      2  C   UNL     1      13.753 -35.943  -2.076  1.00  0.00     0.214 A 
ATOM      3  C   UNL     1      12.612 -36.743  -2.274  1.00  0.00     0.180 A 
ATOM      4  O   UNL     1      11.529 -36.540  -1.534  1.00  0.00    -0.452 OA
ATOM      5  C   UNL     1      13.691 -34.896  -1.148  1.00  0.00     0.239 A 
ATOM      6  C   UNL     1      11.441 -35.589  -0.610  1.00  0.00     0.146 A 
ATOM      7  O   UNL     1      14.675 -34.116  -1.061  1.00  0.00    -0.285 OA
ATOM      8  C   UNL     1      12.534 -34.724  -0.351  1.00  0.00     0.111 A 
ATOM      9  C   UNL     1      10.239 -35.446   0.087  1.00  0.00     0.094 A 
ATOM     10  C   UNL     1      12.390 -33.734   0.667  1.00  0.00     0.134 A 
ATOM     11  C   UNL     1      10.091 -34.437   1.037  1.00  0.00     0.123 A 
ATOM     12  C   UNL     1      11.158 -33.583   1.316  1.00  0.00     0.093 A 
BRANCH   3  13
ATOM     13  C   UNL     1      12.550 -37.793  -3.309  1.00  0.00     0.021 A 
ATOM     14  C   UNL     1      12.178 -37.483  -4.629  1.00  0.00     0.016 A 
ATOM     15  C   UNL     1      12.077 -38.498  -5.586  1.00  0.00     0.047 A 
ATOM     16  C   UNL     1      12.342 -39.829  -5.234  1.00  0.00     0.115 A 
ATOM     17  C   UNL     1      12.803 -39.128  -2.958  1.00  0.00     0.016 A 
ATOM     18  C   UNL     1      12.708 -40.138  -3.919  1.00  0.00     0.047 A 
BRANCH  16  19
ATOM     19  O   UNL     1      12.241 -40.848  -6.177  1.00  0.00    -0.508 OA
ATOM     20  H   UNL     1      12.429 -41.816  -5.936  1.00  0.00     0.293 HD
ENDBRANCH  16  19
ENDBRANCH   3  13
BRANCH  10  21
ATOM     21  O   UNL     1      13.433 -32.907   1.103  1.00  0.00    -0.507 OA
ATOM     22  H   UNL     1      14.383 -32.960   0.767  1.00  0.00     0.293 HD
ENDBRANCH  10  21
BRANCH  11  23
ATOM     23  O   UNL     1       8.876 -34.296   1.706  1.00  0.00    -0.508 OA
ATOM     24  H   UNL     1       8.035 -34.756   1.379  1.00  0.00     0.293 HD
ENDBRANCH  11  23
ENDBRANCH   1   2
BRANCH   1  25
ATOM     25  C   UNL     1      15.947 -37.123  -2.403  1.00  0.00     0.339 C 
ATOM     26  C   UNL     1      17.246 -36.977  -3.246  1.00  0.00     0.214 C 
ATOM     27  O   UNL     1      16.248 -36.999  -1.026  1.00  0.00    -0.332 OA
ATOM     28  C   UNL     1      18.494 -37.402  -2.430  1.00  0.00     0.180 C 
ATOM     29  C   UNL     1      16.916 -38.160  -0.554  1.00  0.00     0.179 C 
ATOM     30  C   UNL     1      18.171 -38.526  -1.421  1.00  0.00     0.177 C 
BRANCH  26  31
ATOM     31  O   UNL     1      17.139 -37.685  -4.460  1.00  0.00    -0.384 OA
ATOM     32  H   UNL     1      17.273 -38.648  -4.264  1.00  0.00     0.211 HD
ENDBRANCH  26  31
BRANCH  28  33
ATOM     33  O   UNL     1      19.536 -37.786  -3.292  1.00  0.00    -0.387 OA
ATOM     34  H   UNL     1      20.146 -38.365  -2.764  1.00  0.00     0.211 HD
ENDBRANCH  28  33
BRANCH  29  35
ATOM     35  C   UNL     1      17.304 -37.916   0.909  1.00  0.00     0.191 C 
BRANCH  35  36
ATOM     36  O   UNL     1      18.227 -38.882   1.332  1.00  0.00    -0.394 OA
ATOM     37  H   UNL     1      18.621 -38.534   2.176  1.00  0.00     0.210 HD
ENDBRANCH  35  36
ENDBRANCH  29  35
BRANCH  30  38
ATOM     38  O   UNL     1      17.944 -39.729  -2.113  1.00  0.00    -0.387 OA
ATOM     39  H   UNL     1      18.566 -39.734  -2.887  1.00  0.00     0.211 HD
ENDBRANCH  30  38
ENDBRANCH   1  25
TORSDOF 11
ENDMDL
MODEL 9
REMARK VINA RESULT:    -6.546      2.026      4.639
REMARK INTER + INTRA:         -10.605
REMARK INTER:                 -10.331
REMARK INTRA:                  -0.274
REMARK UNBOUND:                -1.188
REMARK SMILES O=c1c(O[C@@H]2O[C@H](CO)[C@@H](O)[C@@H](O)[C@H]2O)c(-c2ccc(O)cc2)oc2cc(O)cc(O)c12
REMARK SMILES IDX 4 1 3 2 16 3 24 4 2 5 25 6 1 7 32 8 26 9 30 10 27 11 29 12
REMARK SMILES IDX 17 13 18 14 19 15 20 16 23 17 22 18 21 19 31 21 28 23 5 25
REMARK SMILES IDX 14 26 6 27 12 28 7 29 10 30 15 31 13 33 8 35 9 36 11 38
REMARK H PARENT 21 20 31 22 28 24 15 32 13 34 9 37 11 39
REMARK Flexibility Score: inf
ROOT
ATOM      1  O   UNL     1      15.426 -35.424  -1.978  1.00  0.00    -0.454 OA
ENDROOT
BRANCH   1   2
ATOM      2  C   UNL     1      14.152 -35.843  -2.396  1.00  0.00     0.214 A 
ATOM      3  C   UNL     1      12.968 -35.357  -1.809  1.00  0.00     0.180 A 
ATOM      4  O   UNL     1      11.791 -35.732  -2.293  1.00  0.00    -0.452 OA
ATOM      5  C   UNL     1      14.056 -36.775  -3.436  1.00  0.00     0.239 A 
ATOM      6  C   UNL     1      11.652 -36.578  -3.308  1.00  0.00     0.146 A 
ATOM      7  O   UNL     1      15.118 -37.290  -3.876  1.00  0.00    -0.285 OA
ATOM      8  C   UNL     1      12.787 -37.132  -3.953  1.00  0.00     0.111 A 
ATOM      9  C   UNL     1      10.363 -36.928  -3.714  1.00  0.00     0.094 A 
ATOM     10  C   UNL     1      12.580 -38.020  -5.051  1.00  0.00     0.134 A 
ATOM     11  C   UNL     1      10.172 -37.842  -4.749  1.00  0.00     0.123 A 
ATOM     12  C   UNL     1      11.276 -38.389  -5.404  1.00  0.00     0.093 A 
BRANCH   3  13
ATOM     13  C   UNL     1      12.975 -34.461  -0.637  1.00  0.00     0.021 A 
ATOM     14  C   UNL     1      13.721 -33.270  -0.643  1.00  0.00     0.016 A 
ATOM     15  C   UNL     1      13.755 -32.456   0.494  1.00  0.00     0.047 A 
ATOM     16  C   UNL     1      13.050 -32.828   1.649  1.00  0.00     0.115 A 
ATOM     17  C   UNL     1      12.279 -34.835   0.524  1.00  0.00     0.016 A 
ATOM     18  C   UNL     1      12.310 -34.016   1.657  1.00  0.00     0.047 A 
BRANCH  16  19
ATOM     19  O   UNL     1      13.080 -32.028   2.788  1.00  0.00    -0.508 OA
ATOM     20  H   UNL     1      13.499 -31.104   2.777  1.00  0.00     0.293 HD
ENDBRANCH  16  19
ENDBRANCH   3  13
BRANCH  10  21
ATOM     21  O   UNL     1      13.612 -38.531  -5.847  1.00  0.00    -0.507 OA
ATOM     22  H   UNL     1      14.592 -38.490  -5.608  1.00  0.00     0.293 HD
ENDBRANCH  10  21
BRANCH  11  23
ATOM     23  O   UNL     1       8.877 -38.196  -5.124  1.00  0.00    -0.508 OA
ATOM     24  H   UNL     1       8.146 -38.333  -4.437  1.00  0.00     0.293 HD
ENDBRANCH  11  23
ENDBRANCH   1   2
BRANCH   1  25
ATOM     25  C   UNL     1      16.267 -36.158  -1.077  1.00  0.00     0.339 C 
ATOM     26  C   UNL     1      15.570 -36.423   0.288  1.00  0.00     0.214 C 
ATOM     27  O   UNL     1      16.652 -37.384  -1.669  1.00  0.00    -0.332 OA
ATOM     28  C   UNL     1      16.058 -37.753   0.917  1.00  0.00     0.180 C 
ATOM     29  C   UNL     1      17.767 -37.940  -0.987  1.00  0.00     0.179 C 
ATOM     30  C   UNL     1      17.529 -38.058   0.558  1.00  0.00     0.177 C 
BRANCH  26  31
ATOM     31  O   UNL     1      15.742 -35.329   1.159  1.00  0.00    -0.384 OA
ATOM     32  H   UNL     1      15.066 -34.643   0.924  1.00  0.00     0.211 HD
ENDBRANCH  26  31
BRANCH  28  33
ATOM     33  O   UNL     1      15.875 -37.732   2.311  1.00  0.00    -0.387 OA
ATOM     34  H   UNL     1      16.781 -37.690   2.718  1.00  0.00     0.211 HD
ENDBRANCH  28  33
BRANCH  29  35
ATOM     35  C   UNL     1      18.064 -39.309  -1.611  1.00  0.00     0.191 C 
BRANCH  35  36
ATOM     36  O   UNL     1      19.374 -39.340  -2.107  1.00  0.00    -0.394 OA
ATOM     37  H   UNL     1      19.951 -38.980  -1.382  1.00  0.00     0.210 HD
ENDBRANCH  35  36
ENDBRANCH  29  35
BRANCH  30  38
ATOM     38  O   UNL     1      18.375 -37.170   1.245  1.00  0.00    -0.387 OA
ATOM     39  H   UNL     1      17.853 -36.339   1.399  1.00  0.00     0.211 HD
ENDBRANCH  30  38
ENDBRANCH   1  25
TORSDOF 11
ENDMDL
