MODEL 1
REMARK VINA RESULT:    -6.343      0.000      0.000
REMARK INTER + INTRA:          -7.753
REMARK INTER:                  -7.456
REMARK INTRA:                  -0.298
REMARK UNBOUND:                -0.298
REMARK SMILES O=c1c(O)c(-c2ccc(O)cc2)oc2cc(O)cc(O)c12
REMARK SMILES IDX 5 1 3 2 2 3 1 4 21 5 19 6 18 7 16 8 15 9 14 10 13 11 6 12
REMARK SMILES IDX 7 13 8 14 9 15 12 16 11 17 10 18 4 20 20 22 17 24
REMARK H PARENT 10 19 4 21 20 23 17 25
REMARK Flexibility Score: inf
ROOT
ATOM      1  C   UNL     1      68.226  47.953   9.027  1.00  0.00     0.180 A 
ATOM      2  C   UNL     1      67.187  48.738   9.565  1.00  0.00     0.208 A 
ATOM      3  C   UNL     1      65.880  48.226   9.562  1.00  0.00     0.238 A 
ATOM      4  O   UNL     1      64.940  48.924  10.030  1.00  0.00    -0.285 OA
ATOM      5  C   UNL     1      65.636  46.938   9.042  1.00  0.00     0.111 A 
ATOM      6  C   UNL     1      64.350  46.349   9.005  1.00  0.00     0.134 A 
ATOM      7  C   UNL     1      64.190  45.058   8.480  1.00  0.00     0.093 A 
ATOM      8  C   UNL     1      65.292  44.347   7.992  1.00  0.00     0.123 A 
ATOM      9  C   UNL     1      66.562  44.924   8.026  1.00  0.00     0.094 A 
ATOM     10  C   UNL     1      66.741  46.210   8.544  1.00  0.00     0.146 A 
ATOM     11  O   UNL     1      67.960  46.737   8.559  1.00  0.00    -0.452 OA
ENDROOT
BRANCH   1  12
ATOM     12  C   UNL     1      69.627  48.429   8.977  1.00  0.00     0.021 A 
ATOM     13  C   UNL     1      70.116  49.154   7.875  1.00  0.00     0.016 A 
ATOM     14  C   UNL     1      71.450  49.574   7.840  1.00  0.00     0.047 A 
ATOM     15  C   UNL     1      72.314  49.262   8.897  1.00  0.00     0.115 A 
ATOM     16  C   UNL     1      70.506  48.103  10.023  1.00  0.00     0.016 A 
ATOM     17  C   UNL     1      71.839  48.524   9.986  1.00  0.00     0.047 A 
BRANCH  15  18
ATOM     18  O   UNL     1      73.644  49.674   8.875  1.00  0.00    -0.508 OA
ATOM     19  H   UNL     1      74.195  49.730   9.723  1.00  0.00     0.293 HD
ENDBRANCH  15  18
ENDBRANCH   1  12
BRANCH   2  20
ATOM     20  O   UNL     1      67.462  49.989  10.118  1.00  0.00    -0.502 OA
ATOM     21  H   UNL     1      67.273  50.208  11.090  1.00  0.00     0.293 HD
ENDBRANCH   2  20
BRANCH   6  22
ATOM     22  O   UNL     1      63.232  47.033   9.485  1.00  0.00    -0.507 OA
ATOM     23  H   UNL     1      62.311  46.899   9.083  1.00  0.00     0.293 HD
ENDBRANCH   6  22
BRANCH   8  24
ATOM     24  O   UNL     1      65.135  43.064   7.471  1.00  0.00    -0.508 OA
ATOM     25  H   UNL     1      64.623  42.900   6.613  1.00  0.00     0.293 HD
ENDBRANCH   8  24
TORSDOF 5
ENDMDL
MODEL 2
REMARK VINA RESULT:    -5.913      2.845      4.134
REMARK INTER + INTRA:          -7.247
REMARK INTER:                  -6.954
REMARK INTRA:                  -0.293
REMARK UNBOUND:                -0.298
REMARK SMILES O=c1c(O)c(-c2ccc(O)cc2)oc2cc(O)cc(O)c12
REMARK SMILES IDX 5 1 3 2 2 3 1 4 21 5 19 6 18 7 16 8 15 9 14 10 13 11 6 12
REMARK SMILES IDX 7 13 8 14 9 15 12 16 11 17 10 18 4 20 20 22 17 24
REMARK H PARENT 10 19 4 21 20 23 17 25
REMARK Flexibility Score: inf
ROOT
ATOM      1  C   UNL     1      70.702  47.791   7.283  1.00  0.00     0.180 A 
ATOM      2  C   UNL     1      70.853  48.811   8.242  1.00  0.00     0.208 A 
ATOM      3  C   UNL     1      69.710  49.313   8.884  1.00  0.00     0.238 A 
ATOM      4  O   UNL     1      69.832  50.234   9.737  1.00  0.00    -0.285 OA
ATOM      5  C   UNL     1      68.444  48.777   8.572  1.00  0.00     0.111 A 
ATOM      6  C   UNL     1      67.244  49.224   9.176  1.00  0.00     0.134 A 
ATOM      7  C   UNL     1      66.023  48.634   8.819  1.00  0.00     0.093 A 
ATOM      8  C   UNL     1      65.980  47.605   7.871  1.00  0.00     0.123 A 
ATOM      9  C   UNL     1      67.160  47.161   7.273  1.00  0.00     0.094 A 
ATOM     10  C   UNL     1      68.387  47.738   7.615  1.00  0.00     0.146 A 
ATOM     11  O   UNL     1      69.494  47.300   7.026  1.00  0.00    -0.452 OA
ENDROOT
BRANCH   1  12
ATOM     12  C   UNL     1      71.857  47.223   6.550  1.00  0.00     0.021 A 
ATOM     13  C   UNL     1      72.249  47.726   5.296  1.00  0.00     0.016 A 
ATOM     14  C   UNL     1      73.328  47.157   4.612  1.00  0.00     0.047 A 
ATOM     15  C   UNL     1      74.019  46.071   5.165  1.00  0.00     0.115 A 
ATOM     16  C   UNL     1      72.542  46.120   7.087  1.00  0.00     0.016 A 
ATOM     17  C   UNL     1      73.621  45.554   6.402  1.00  0.00     0.047 A 
BRANCH  15  18
ATOM     18  O   UNL     1      75.096  45.497   4.494  1.00  0.00    -0.508 OA
ATOM     19  H   UNL     1      75.150  45.500   3.482  1.00  0.00     0.293 HD
ENDBRANCH  15  18
ENDBRANCH   1  12
BRANCH   2  20
ATOM     20  O   UNL     1      72.124  49.290   8.569  1.00  0.00    -0.502 OA
ATOM     21  H   UNL     1      72.703  48.855   9.279  1.00  0.00     0.293 HD
ENDBRANCH   2  20
BRANCH   6  22
ATOM     22  O   UNL     1      67.255  50.247  10.125  1.00  0.00    -0.507 OA
ATOM     23  H   UNL     1      66.488  50.384  10.772  1.00  0.00     0.293 HD
ENDBRANCH   6  22
BRANCH   8  24
ATOM     24  O   UNL     1      64.768  47.017   7.516  1.00  0.00    -0.508 OA
ATOM     25  H   UNL     1      64.732  46.167   6.965  1.00  0.00     0.293 HD
ENDBRANCH   8  24
TORSDOF 5
ENDMDL
MODEL 3
REMARK VINA RESULT:    -5.824      2.342      7.059
REMARK INTER + INTRA:          -7.144
REMARK INTER:                  -6.922
REMARK INTRA:                  -0.222
REMARK UNBOUND:                -0.298
REMARK SMILES O=c1c(O)c(-c2ccc(O)cc2)oc2cc(O)cc(O)c12
REMARK SMILES IDX 5 1 3 2 2 3 1 4 21 5 19 6 18 7 16 8 15 9 14 10 13 11 6 12
REMARK SMILES IDX 7 13 8 14 9 15 12 16 11 17 10 18 4 20 20 22 17 24
REMARK H PARENT 10 19 4 21 20 23 17 25
REMARK Flexibility Score: inf
ROOT
ATOM      1  C   UNL     1      69.486  48.167   8.049  1.00  0.00     0.180 A 
ATOM      2  C   UNL     1      69.778  48.377   6.687  1.00  0.00     0.208 A 
ATOM      3  C   UNL     1      71.112  48.293   6.259  1.00  0.00     0.238 A 
ATOM      4  O   UNL     1      71.387  48.490   5.044  1.00  0.00    -0.285 OA
ATOM      5  C   UNL     1      72.125  47.985   7.190  1.00  0.00     0.111 A 
ATOM      6  C   UNL     1      73.492  47.879   6.839  1.00  0.00     0.134 A 
ATOM      7  C   UNL     1      74.441  47.560   7.822  1.00  0.00     0.093 A 
ATOM      8  C   UNL     1      74.046  47.344   9.147  1.00  0.00     0.123 A 
ATOM      9  C   UNL     1      72.699  47.448   9.498  1.00  0.00     0.094 A 
ATOM     10  C   UNL     1      71.740  47.766   8.532  1.00  0.00     0.146 A 
ATOM     11  O   UNL     1      70.466  47.864   8.895  1.00  0.00    -0.452 OA
ENDROOT
BRANCH   1  12
ATOM     12  C   UNL     1      68.107  48.256   8.581  1.00  0.00     0.021 A 
ATOM     13  C   UNL     1      67.696  49.343   9.373  1.00  0.00     0.016 A 
ATOM     14  C   UNL     1      66.394  49.393   9.884  1.00  0.00     0.047 A 
ATOM     15  C   UNL     1      65.495  48.352   9.622  1.00  0.00     0.115 A 
ATOM     16  C   UNL     1      67.205  47.206   8.341  1.00  0.00     0.016 A 
ATOM     17  C   UNL     1      65.905  47.259   8.852  1.00  0.00     0.047 A 
BRANCH  15  18
ATOM     18  O   UNL     1      64.196  48.391  10.125  1.00  0.00    -0.508 OA
ATOM     19  H   UNL     1      63.430  47.931   9.647  1.00  0.00     0.293 HD
ENDBRANCH  15  18
ENDBRANCH   1  12
BRANCH   2  20
ATOM     20  O   UNL     1      68.750  48.631   5.776  1.00  0.00    -0.502 OA
ATOM     21  H   UNL     1      68.297  49.535   5.707  1.00  0.00     0.293 HD
ENDBRANCH   2  20
BRANCH   6  22
ATOM     22  O   UNL     1      73.916  48.089   5.526  1.00  0.00    -0.507 OA
ATOM     23  H   UNL     1      73.609  47.494   4.765  1.00  0.00     0.293 HD
ENDBRANCH   6  22
BRANCH   8  24
ATOM     24  O   UNL     1      74.987  47.025  10.125  1.00  0.00    -0.508 OA
ATOM     25  H   UNL     1      75.038  46.097  10.529  1.00  0.00     0.293 HD
ENDBRANCH   8  24
TORSDOF 5
ENDMDL
MODEL 4
REMARK VINA RESULT:    -5.602      2.084      7.387
REMARK INTER + INTRA:          -6.882
REMARK INTER:                  -6.592
REMARK INTRA:                  -0.290
REMARK UNBOUND:                -0.298
REMARK SMILES O=c1c(O)c(-c2ccc(O)cc2)oc2cc(O)cc(O)c12
REMARK SMILES IDX 5 1 3 2 2 3 1 4 21 5 19 6 18 7 16 8 15 9 14 10 13 11 6 12
REMARK SMILES IDX 7 13 8 14 9 15 12 16 11 17 10 18 4 20 20 22 17 24
REMARK H PARENT 10 19 4 21 20 23 17 25
REMARK Flexibility Score: inf
ROOT
ATOM      1  C   UNL     1      65.948  45.171   8.519  1.00  0.00     0.180 A 
ATOM      2  C   UNL     1      67.171  44.748   7.963  1.00  0.00     0.208 A 
ATOM      3  C   UNL     1      68.243  45.652   7.915  1.00  0.00     0.238 A 
ATOM      4  O   UNL     1      69.340  45.288   7.411  1.00  0.00    -0.285 OA
ATOM      5  C   UNL     1      68.082  46.953   8.437  1.00  0.00     0.111 A 
ATOM      6  C   UNL     1      69.114  47.922   8.430  1.00  0.00     0.134 A 
ATOM      7  C   UNL     1      68.879  49.192   8.976  1.00  0.00     0.093 A 
ATOM      8  C   UNL     1      67.632  49.509   9.530  1.00  0.00     0.123 A 
ATOM      9  C   UNL     1      66.613  48.557   9.538  1.00  0.00     0.094 A 
ATOM     10  C   UNL     1      66.828  47.286   8.997  1.00  0.00     0.146 A 
ATOM     11  O   UNL     1      65.838  46.401   9.014  1.00  0.00    -0.452 OA
ENDROOT
BRANCH   1  12
ATOM     12  C   UNL     1      64.766  44.283   8.588  1.00  0.00     0.021 A 
ATOM     13  C   UNL     1      64.538  43.451   9.700  1.00  0.00     0.016 A 
ATOM     14  C   UNL     1      63.426  42.602   9.732  1.00  0.00     0.047 A 
ATOM     15  C   UNL     1      62.538  42.564   8.650  1.00  0.00     0.115 A 
ATOM     16  C   UNL     1      63.881  44.222   7.498  1.00  0.00     0.016 A 
ATOM     17  C   UNL     1      62.770  43.374   7.534  1.00  0.00     0.047 A 
BRANCH  15  18
ATOM     18  O   UNL     1      61.427  41.724   8.670  1.00  0.00    -0.508 OA
ATOM     19  H   UNL     1      61.500  40.745   8.419  1.00  0.00     0.293 HD
ENDBRANCH  15  18
ENDBRANCH   1  12
BRANCH   2  20
ATOM     20  O   UNL     1      67.319  43.439   7.499  1.00  0.00    -0.502 OA
ATOM     21  H   UNL     1      67.458  42.653   8.124  1.00  0.00     0.293 HD
ENDBRANCH   2  20
BRANCH   6  22
ATOM     22  O   UNL     1      70.366  47.635   7.886  1.00  0.00    -0.507 OA
ATOM     23  H   UNL     1      71.020  47.016   8.349  1.00  0.00     0.293 HD
ENDBRANCH   6  22
BRANCH   8  24
ATOM     24  O   UNL     1      67.398  50.771  10.074  1.00  0.00    -0.508 OA
ATOM     25  H   UNL     1      67.740  51.023  10.994  1.00  0.00     0.293 HD
ENDBRANCH   8  24
TORSDOF 5
ENDMDL
MODEL 5
REMARK VINA RESULT:    -5.370      3.070      6.812
REMARK INTER + INTRA:          -6.609
REMARK INTER:                  -6.336
REMARK INTRA:                  -0.273
REMARK UNBOUND:                -0.298
REMARK SMILES O=c1c(O)c(-c2ccc(O)cc2)oc2cc(O)cc(O)c12
REMARK SMILES IDX 5 1 3 2 2 3 1 4 21 5 19 6 18 7 16 8 15 9 14 10 13 11 6 12
REMARK SMILES IDX 7 13 8 14 9 15 12 16 11 17 10 18 4 20 20 22 17 24
REMARK H PARENT 10 19 4 21 20 23 17 25
REMARK Flexibility Score: inf
ROOT
ATOM      1  C   UNL     1      69.625  47.816   7.537  1.00  0.00     0.180 A 
ATOM      2  C   UNL     1      70.019  48.375   6.306  1.00  0.00     0.208 A 
ATOM      3  C   UNL     1      71.267  48.022   5.770  1.00  0.00     0.238 A 
ATOM      4  O   UNL     1      71.635  48.524   4.673  1.00  0.00    -0.285 OA
ATOM      5  C   UNL     1      72.089  47.108   6.459  1.00  0.00     0.111 A 
ATOM      6  C   UNL     1      73.358  46.697   5.985  1.00  0.00     0.134 A 
ATOM      7  C   UNL     1      74.113  45.776   6.725  1.00  0.00     0.093 A 
ATOM      8  C   UNL     1      73.622  45.256   7.929  1.00  0.00     0.123 A 
ATOM      9  C   UNL     1      72.371  45.658   8.400  1.00  0.00     0.094 A 
ATOM     10  C   UNL     1      71.605  46.577   7.677  1.00  0.00     0.146 A 
ATOM     11  O   UNL     1      70.420  46.945   8.152  1.00  0.00    -0.452 OA
ENDROOT
BRANCH   1  12
ATOM     12  C   UNL     1      68.332  48.153   8.177  1.00  0.00     0.021 A 
ATOM     13  C   UNL     1      68.251  49.105   9.209  1.00  0.00     0.016 A 
ATOM     14  C   UNL     1      67.022  49.389   9.814  1.00  0.00     0.047 A 
ATOM     15  C   UNL     1      65.864  48.715   9.406  1.00  0.00     0.115 A 
ATOM     16  C   UNL     1      67.169  47.467   7.789  1.00  0.00     0.016 A 
ATOM     17  C   UNL     1      65.942  47.753   8.394  1.00  0.00     0.047 A 
BRANCH  15  18
ATOM     18  O   UNL     1      64.634  48.990  10.000  1.00  0.00    -0.508 OA
ATOM     19  H   UNL     1      64.574  49.430  10.910  1.00  0.00     0.293 HD
ENDBRANCH  15  18
ENDBRANCH   1  12
BRANCH   2  20
ATOM     20  O   UNL     1      69.165  49.240   5.619  1.00  0.00    -0.502 OA
ATOM     21  H   UNL     1      68.158  49.216   5.734  1.00  0.00     0.293 HD
ENDBRANCH   2  20
BRANCH   6  22
ATOM     22  O   UNL     1      73.874  47.197   4.789  1.00  0.00    -0.507 OA
ATOM     23  H   UNL     1      73.770  46.699   3.913  1.00  0.00     0.293 HD
ENDBRANCH   6  22
BRANCH   8  24
ATOM     24  O   UNL     1      74.370  44.340   8.665  1.00  0.00    -0.508 OA
ATOM     25  H   UNL     1      75.182  44.626   9.199  1.00  0.00     0.293 HD
ENDBRANCH   8  24
TORSDOF 5
ENDMDL
MODEL 6
REMARK VINA RESULT:    -5.329      5.430      8.822
REMARK INTER + INTRA:          -6.562
REMARK INTER:                  -6.266
REMARK INTRA:                  -0.296
REMARK UNBOUND:                -0.298
REMARK SMILES O=c1c(O)c(-c2ccc(O)cc2)oc2cc(O)cc(O)c12
REMARK SMILES IDX 5 1 3 2 2 3 1 4 21 5 19 6 18 7 16 8 15 9 14 10 13 11 6 12
REMARK SMILES IDX 7 13 8 14 9 15 12 16 11 17 10 18 4 20 20 22 17 24
REMARK H PARENT 10 19 4 21 20 23 17 25
REMARK Flexibility Score: inf
ROOT
ATOM      1  C   UNL     1      71.547  43.849   6.150  1.00  0.00     0.180 A 
ATOM      2  C   UNL     1      71.930  44.228   4.848  1.00  0.00     0.208 A 
ATOM      3  C   UNL     1      72.644  45.423   4.673  1.00  0.00     0.238 A 
ATOM      4  O   UNL     1      72.984  45.778   3.511  1.00  0.00    -0.285 OA
ATOM      5  C   UNL     1      72.979  46.207   5.796  1.00  0.00     0.111 A 
ATOM      6  C   UNL     1      73.700  47.421   5.705  1.00  0.00     0.134 A 
ATOM      7  C   UNL     1      74.003  48.140   6.871  1.00  0.00     0.093 A 
ATOM      8  C   UNL     1      73.600  47.665   8.125  1.00  0.00     0.123 A 
ATOM      9  C   UNL     1      72.888  46.468   8.219  1.00  0.00     0.094 A 
ATOM     10  C   UNL     1      72.576  45.739   7.068  1.00  0.00     0.146 A 
ATOM     11  O   UNL     1      71.893  44.606   7.187  1.00  0.00    -0.452 OA
ENDROOT
BRANCH   1  12
ATOM     12  C   UNL     1      70.776  42.613   6.415  1.00  0.00     0.021 A 
ATOM     13  C   UNL     1      69.370  42.621   6.456  1.00  0.00     0.016 A 
ATOM     14  C   UNL     1      68.664  41.445   6.731  1.00  0.00     0.047 A 
ATOM     15  C   UNL     1      69.354  40.252   6.983  1.00  0.00     0.115 A 
ATOM     16  C   UNL     1      71.460  41.417   6.689  1.00  0.00     0.016 A 
ATOM     17  C   UNL     1      70.752  40.243   6.964  1.00  0.00     0.047 A 
BRANCH  15  18
ATOM     18  O   UNL     1      68.662  39.075   7.258  1.00  0.00    -0.508 OA
ATOM     19  H   UNL     1      69.070  38.166   7.072  1.00  0.00     0.293 HD
ENDBRANCH  15  18
ENDBRANCH   1  12
BRANCH   2  20
ATOM     20  O   UNL     1      71.629  43.409   3.758  1.00  0.00    -0.502 OA
ATOM     21  H   UNL     1      71.985  42.464   3.673  1.00  0.00     0.293 HD
ENDBRANCH   2  20
BRANCH   6  22
ATOM     22  O   UNL     1      74.117  47.919   4.470  1.00  0.00    -0.507 OA
ATOM     23  H   UNL     1      75.088  48.140   4.283  1.00  0.00     0.293 HD
ENDBRANCH   6  22
BRANCH   8  24
ATOM     24  O   UNL     1      73.901  48.378   9.284  1.00  0.00    -0.508 OA
ATOM     25  H   UNL     1      73.178  48.835   9.828  1.00  0.00     0.293 HD
ENDBRANCH   8  24
TORSDOF 5
ENDMDL
MODEL 7
REMARK VINA RESULT:    -5.320      2.680      6.822
REMARK INTER + INTRA:          -6.550
REMARK INTER:                  -6.309
REMARK INTRA:                  -0.242
REMARK UNBOUND:                -0.298
REMARK SMILES O=c1c(O)c(-c2ccc(O)cc2)oc2cc(O)cc(O)c12
REMARK SMILES IDX 5 1 3 2 2 3 1 4 21 5 19 6 18 7 16 8 15 9 14 10 13 11 6 12
REMARK SMILES IDX 7 13 8 14 9 15 12 16 11 17 10 18 4 20 20 22 17 24
REMARK H PARENT 10 19 4 21 20 23 17 25
REMARK Flexibility Score: inf
ROOT
ATOM      1  C   UNL     1      66.641  45.874   8.051  1.00  0.00     0.180 A 
ATOM      2  C   UNL     1      66.994  46.941   7.201  1.00  0.00     0.208 A 
ATOM      3  C   UNL     1      68.353  47.230   7.006  1.00  0.00     0.238 A 
ATOM      4  O   UNL     1      68.681  48.189   6.255  1.00  0.00    -0.285 OA
ATOM      5  C   UNL     1      69.333  46.442   7.643  1.00  0.00     0.111 A 
ATOM      6  C   UNL     1      70.723  46.665   7.495  1.00  0.00     0.134 A 
ATOM      7  C   UNL     1      71.636  45.831   8.156  1.00  0.00     0.093 A 
ATOM      8  C   UNL     1      71.186  44.778   8.961  1.00  0.00     0.123 A 
ATOM      9  C   UNL     1      69.816  44.554   9.110  1.00  0.00     0.094 A 
ATOM     10  C   UNL     1      68.890  45.376   8.460  1.00  0.00     0.146 A 
ATOM     11  O   UNL     1      67.593  45.144   8.624  1.00  0.00    -0.452 OA
ENDROOT
BRANCH   1  12
ATOM     12  C   UNL     1      65.230  45.519   8.323  1.00  0.00     0.021 A 
ATOM     13  C   UNL     1      64.424  46.306   9.166  1.00  0.00     0.016 A 
ATOM     14  C   UNL     1      63.101  45.937   9.426  1.00  0.00     0.047 A 
ATOM     15  C   UNL     1      62.571  44.770   8.861  1.00  0.00     0.115 A 
ATOM     16  C   UNL     1      64.697  44.339   7.777  1.00  0.00     0.016 A 
ATOM     17  C   UNL     1      63.373  43.972   8.039  1.00  0.00     0.047 A 
BRANCH  15  18
ATOM     18  O   UNL     1      61.254  44.392   9.112  1.00  0.00    -0.508 OA
ATOM     19  H   UNL     1      60.957  43.427   9.033  1.00  0.00     0.293 HD
ENDBRANCH  15  18
ENDBRANCH   1  12
BRANCH   2  20
ATOM     20  O   UNL     1      66.005  47.674   6.542  1.00  0.00    -0.502 OA
ATOM     21  H   UNL     1      65.931  47.701   5.532  1.00  0.00     0.293 HD
ENDBRANCH   2  20
BRANCH   6  22
ATOM     22  O   UNL     1      71.203  47.707   6.700  1.00  0.00    -0.507 OA
ATOM     23  H   UNL     1      71.914  47.555   5.994  1.00  0.00     0.293 HD
ENDBRANCH   6  22
BRANCH   8  24
ATOM     24  O   UNL     1      72.092  43.947   9.617  1.00  0.00    -0.508 OA
ATOM     25  H   UNL     1      72.838  44.326  10.190  1.00  0.00     0.293 HD
ENDBRANCH   8  24
TORSDOF 5
ENDMDL
MODEL 8
REMARK VINA RESULT:    -5.294      2.678      6.853
REMARK INTER + INTRA:          -6.520
REMARK INTER:                  -6.227
REMARK INTRA:                  -0.293
REMARK UNBOUND:                -0.298
REMARK SMILES O=c1c(O)c(-c2ccc(O)cc2)oc2cc(O)cc(O)c12
REMARK SMILES IDX 5 1 3 2 2 3 1 4 21 5 19 6 18 7 16 8 15 9 14 10 13 11 6 12
REMARK SMILES IDX 7 13 8 14 9 15 12 16 11 17 10 18 4 20 20 22 17 24
REMARK H PARENT 10 19 4 21 20 23 17 25
REMARK Flexibility Score: inf
ROOT
ATOM      1  C   UNL     1      69.499  47.274   8.154  1.00  0.00     0.180 A 
ATOM      2  C   UNL     1      70.231  48.248   8.861  1.00  0.00     0.208 A 
ATOM      3  C   UNL     1      71.619  48.323   8.670  1.00  0.00     0.238 A 
ATOM      4  O   UNL     1      72.287  49.184   9.305  1.00  0.00    -0.285 OA
ATOM      5  C   UNL     1      72.248  47.440   7.768  1.00  0.00     0.111 A 
ATOM      6  C   UNL     1      73.641  47.452   7.517  1.00  0.00     0.134 A 
ATOM      7  C   UNL     1      74.191  46.547   6.598  1.00  0.00     0.093 A 
ATOM      8  C   UNL     1      73.373  45.631   5.925  1.00  0.00     0.123 A 
ATOM      9  C   UNL     1      72.000  45.615   6.170  1.00  0.00     0.094 A 
ATOM     10  C   UNL     1      71.434  46.509   7.084  1.00  0.00     0.146 A 
ATOM     11  O   UNL     1      70.124  46.468   7.301  1.00  0.00    -0.452 OA
ENDROOT
BRANCH   1  12
ATOM     12  C   UNL     1      68.035  47.120   8.315  1.00  0.00     0.021 A 
ATOM     13  C   UNL     1      67.489  46.355   9.362  1.00  0.00     0.016 A 
ATOM     14  C   UNL     1      66.103  46.205   9.479  1.00  0.00     0.047 A 
ATOM     15  C   UNL     1      65.248  46.803   8.545  1.00  0.00     0.115 A 
ATOM     16  C   UNL     1      67.171  47.699   7.370  1.00  0.00     0.016 A 
ATOM     17  C   UNL     1      65.786  47.548   7.490  1.00  0.00     0.047 A 
BRANCH  15  18
ATOM     18  O   UNL     1      63.866  46.661   8.651  1.00  0.00    -0.508 OA
ATOM     19  H   UNL     1      63.450  45.846   9.085  1.00  0.00     0.293 HD
ENDBRANCH  15  18
ENDBRANCH   1  12
BRANCH   2  20
ATOM     20  O   UNL     1      69.577  49.143   9.710  1.00  0.00    -0.502 OA
ATOM     21  H   UNL     1      68.924  48.838  10.422  1.00  0.00     0.293 HD
ENDBRANCH   2  20
BRANCH   6  22
ATOM     22  O   UNL     1      74.481  48.354   8.172  1.00  0.00    -0.507 OA
ATOM     23  H   UNL     1      74.709  48.254   9.154  1.00  0.00     0.293 HD
ENDBRANCH   6  22
BRANCH   8  24
ATOM     24  O   UNL     1      73.918  44.731   5.010  1.00  0.00    -0.508 OA
ATOM     25  H   UNL     1      73.573  43.782   4.932  1.00  0.00     0.293 HD
ENDBRANCH   8  24
TORSDOF 5
ENDMDL
