MODEL 1
REMARK VINA RESULT:    -5.367      0.000      0.000
REMARK INTER + INTRA:         -15.508
REMARK INTER:                 -11.642
REMARK INTRA:                  -3.866
REMARK UNBOUND:                -3.866
REMARK SMILES CCCCCCCCCCCCCCCCCCCCCC(=O)[O-]
REMARK SMILES IDX 12 1 11 2 10 3 9 4 8 5 7 6 6 7 5 8 4 9 3 10 2 11 1 12 13 13
REMARK SMILES IDX 14 14 15 15 16 16 17 17 18 18 19 19 20 20 21 21 22 22 23 23
REMARK SMILES IDX 24 24
REMARK H PARENT
REMARK Flexibility Score: inf
ROOT
ATOM      1  C   UNL     1     -16.572   5.206 -20.852  1.00  0.00     0.000 C 
ENDROOT
BRANCH   1   2
ATOM      2  C   UNL     1     -15.307   5.589 -20.065  1.00  0.00     0.000 C 
BRANCH   2   3
ATOM      3  C   UNL     1     -14.082   5.777 -20.974  1.00  0.00     0.000 C 
BRANCH   3   4
ATOM      4  C   UNL     1     -13.388   7.132 -20.765  1.00  0.00    -0.000 C 
BRANCH   4   5
ATOM      5  C   UNL     1     -14.318   8.114 -20.033  1.00  0.00    -0.000 C 
BRANCH   5   6
ATOM      6  C   UNL     1     -14.756   9.291 -20.920  1.00  0.00    -0.000 C 
BRANCH   6   7
ATOM      7  C   UNL     1     -16.284   9.461 -20.958  1.00  0.00    -0.000 C 
BRANCH   7   8
ATOM      8  C   UNL     1     -16.964   8.501 -21.949  1.00  0.00    -0.000 C 
BRANCH   8   9
ATOM      9  C   UNL     1     -17.090   9.096 -23.362  1.00  0.00    -0.000 C 
BRANCH   9  10
ATOM     10  C   UNL     1     -16.013   8.564 -24.322  1.00  0.00    -0.000 C 
BRANCH  10  11
ATOM     11  C   UNL     1     -15.855   7.038 -24.248  1.00  0.00    -0.003 C 
ATOM     12  C   UNL     1     -15.946   6.409 -25.635  1.00  0.00     0.004 C 
ENDBRANCH  10  11
ENDBRANCH   9  10
ENDBRANCH   8   9
ENDBRANCH   7   8
ENDBRANCH   6   7
ENDBRANCH   5   6
ENDBRANCH   4   5
ENDBRANCH   3   4
ENDBRANCH   2   3
ENDBRANCH   1   2
BRANCH   1  13
ATOM     13  C   UNL     1     -17.089   3.803 -20.495  1.00  0.00     0.000 C 
BRANCH  13  14
ATOM     14  C   UNL     1     -17.707   3.074 -21.697  1.00  0.00     0.000 C 
BRANCH  14  15
ATOM     15  C   UNL     1     -17.326   3.767 -23.015  1.00  0.00     0.000 C 
BRANCH  15  16
ATOM     16  C   UNL     1     -16.319   2.952 -23.842  1.00  0.00     0.000 C 
BRANCH  16  17
ATOM     17  C   UNL     1     -14.878   3.477 -23.710  1.00  0.00     0.000 C 
BRANCH  17  18
ATOM     18  C   UNL     1     -13.916   2.403 -23.159  1.00  0.00     0.000 C 
BRANCH  18  19
ATOM     19  C   UNL     1     -14.143   2.078 -21.673  1.00  0.00     0.000 C 
BRANCH  19  20
ATOM     20  C   UNL     1     -14.065   0.571 -21.373  1.00  0.00     0.006 C 
BRANCH  20  21
ATOM     21  C   UNL     1     -15.453  -0.055 -21.184  1.00  0.00     0.053 C 
BRANCH  21  22
ATOM     22  C   UNL     1     -16.045  -0.498 -22.486  1.00  0.00     0.041 C 
ATOM     23  O   UNL     1     -17.294  -0.502 -22.646  1.00  0.00    -0.550 OA
ATOM     24  O   UNL     1     -15.219  -0.941 -23.512  1.00  0.00    -0.550 OA
ENDBRANCH  21  22
ENDBRANCH  20  21
ENDBRANCH  19  20
ENDBRANCH  18  19
ENDBRANCH  17  18
ENDBRANCH  16  17
ENDBRANCH  15  16
ENDBRANCH  14  15
ENDBRANCH  13  14
ENDBRANCH   1  13
TORSDOF 20
ENDMDL
MODEL 2
REMARK VINA RESULT:    -5.339      2.627      6.789
REMARK INTER + INTRA:         -15.446
REMARK INTER:                 -11.707
REMARK INTRA:                  -3.740
REMARK UNBOUND:                -3.866
REMARK SMILES CCCCCCCCCCCCCCCCCCCCCC(=O)[O-]
REMARK SMILES IDX 12 1 11 2 10 3 9 4 8 5 7 6 6 7 5 8 4 9 3 10 2 11 1 12 13 13
REMARK SMILES IDX 14 14 15 15 16 16 17 17 18 18 19 19 20 20 21 21 22 22 23 23
REMARK SMILES IDX 24 24
REMARK H PARENT
REMARK Flexibility Score: inf
ROOT
ATOM      1  C   UNL     1     -15.958   4.378 -20.266  1.00  0.00     0.000 C 
ENDROOT
BRANCH   1   2
ATOM      2  C   UNL     1     -16.094   2.866 -20.020  1.00  0.00     0.000 C 
BRANCH   2   3
ATOM      3  C   UNL     1     -14.732   2.157 -19.937  1.00  0.00     0.000 C 
BRANCH   3   4
ATOM      4  C   UNL     1     -14.855   0.677 -19.541  1.00  0.00    -0.000 C 
BRANCH   4   5
ATOM      5  C   UNL     1     -14.368  -0.235 -20.679  1.00  0.00    -0.000 C 
BRANCH   5   6
ATOM      6  C   UNL     1     -15.506  -1.055 -21.310  1.00  0.00    -0.000 C 
BRANCH   6   7
ATOM      7  C   UNL     1     -15.915  -0.525 -22.695  1.00  0.00    -0.000 C 
BRANCH   7   8
ATOM      8  C   UNL     1     -17.328   0.082 -22.703  1.00  0.00    -0.000 C 
BRANCH   8   9
ATOM      9  C   UNL     1     -17.375   1.469 -23.366  1.00  0.00    -0.000 C 
BRANCH   9  10
ATOM     10  C   UNL     1     -16.106   1.776 -24.178  1.00  0.00    -0.000 C 
BRANCH  10  11
ATOM     11  C   UNL     1     -15.356   3.011 -23.659  1.00  0.00    -0.003 C 
ATOM     12  C   UNL     1     -13.897   2.680 -23.355  1.00  0.00     0.004 C 
ENDBRANCH  10  11
ENDBRANCH   9  10
ENDBRANCH   8   9
ENDBRANCH   7   8
ENDBRANCH   6   7
ENDBRANCH   5   6
ENDBRANCH   4   5
ENDBRANCH   3   4
ENDBRANCH   2   3
ENDBRANCH   1   2
BRANCH   1  13
ATOM     13  C   UNL     1     -14.501   4.863 -20.180  1.00  0.00     0.000 C 
BRANCH  13  14
ATOM     14  C   UNL     1     -14.149   5.882 -21.272  1.00  0.00     0.000 C 
BRANCH  14  15
ATOM     15  C   UNL     1     -13.728   7.226 -20.656  1.00  0.00     0.000 C 
BRANCH  15  16
ATOM     16  C   UNL     1     -14.914   7.999 -20.056  1.00  0.00     0.000 C 
BRANCH  16  17
ATOM     17  C   UNL     1     -15.435   9.105 -20.991  1.00  0.00     0.000 C 
BRANCH  17  18
ATOM     18  C   UNL     1     -16.947   8.968 -21.267  1.00  0.00     0.000 C 
BRANCH  18  19
ATOM     19  C   UNL     1     -17.479   7.537 -21.082  1.00  0.00     0.000 C 
BRANCH  19  20
ATOM     20  C   UNL     1     -18.297   7.043 -22.288  1.00  0.00     0.006 C 
BRANCH  20  21
ATOM     21  C   UNL     1     -17.497   6.081 -23.175  1.00  0.00     0.053 C 
BRANCH  21  22
ATOM     22  C   UNL     1     -16.714   6.811 -24.223  1.00  0.00     0.041 C 
ATOM     23  O   UNL     1     -15.580   6.390 -24.573  1.00  0.00    -0.550 OA
ATOM     24  O   UNL     1     -17.221   7.975 -24.786  1.00  0.00    -0.550 OA
ENDBRANCH  21  22
ENDBRANCH  20  21
ENDBRANCH  19  20
ENDBRANCH  18  19
ENDBRANCH  17  18
ENDBRANCH  16  17
ENDBRANCH  15  16
ENDBRANCH  14  15
ENDBRANCH  13  14
ENDBRANCH   1  13
TORSDOF 20
ENDMDL
MODEL 3
REMARK VINA RESULT:    -5.317      1.582      2.334
REMARK INTER + INTRA:         -15.399
REMARK INTER:                 -12.080
REMARK INTRA:                  -3.319
REMARK UNBOUND:                -3.866
REMARK SMILES CCCCCCCCCCCCCCCCCCCCCC(=O)[O-]
REMARK SMILES IDX 12 1 11 2 10 3 9 4 8 5 7 6 6 7 5 8 4 9 3 10 2 11 1 12 13 13
REMARK SMILES IDX 14 14 15 15 16 16 17 17 18 18 19 19 20 20 21 21 22 22 23 23
REMARK SMILES IDX 24 24
REMARK H PARENT
REMARK Flexibility Score: inf
ROOT
ATOM      1  C   UNL     1     -14.911   5.522 -23.252  1.00  0.00     0.000 C 
ENDROOT
BRANCH   1   2
ATOM      2  C   UNL     1     -13.808   4.884 -22.388  1.00  0.00     0.000 C 
BRANCH   2   3
ATOM      3  C   UNL     1     -13.810   5.415 -20.945  1.00  0.00     0.000 C 
BRANCH   3   4
ATOM      4  C   UNL     1     -13.016   6.722 -20.792  1.00  0.00    -0.000 C 
BRANCH   4   5
ATOM      5  C   UNL     1     -13.929   7.862 -20.312  1.00  0.00    -0.000 C 
BRANCH   5   6
ATOM      6  C   UNL     1     -15.365   7.393 -20.028  1.00  0.00    -0.000 C 
BRANCH   6   7
ATOM      7  C   UNL     1     -16.422   8.315 -20.661  1.00  0.00    -0.000 C 
BRANCH   7   8
ATOM      8  C   UNL     1     -16.026   8.791 -22.069  1.00  0.00    -0.000 C 
BRANCH   8   9
ATOM      9  C   UNL     1     -17.244   9.078 -22.963  1.00  0.00    -0.000 C 
BRANCH   9  10
ATOM     10  C   UNL     1     -16.867   9.197 -24.449  1.00  0.00    -0.000 C 
BRANCH  10  11
ATOM     11  C   UNL     1     -16.791   7.834 -25.153  1.00  0.00    -0.003 C 
ATOM     12  C   UNL     1     -18.184   7.244 -25.358  1.00  0.00     0.004 C 
ENDBRANCH  10  11
ENDBRANCH   9  10
ENDBRANCH   8   9
ENDBRANCH   7   8
ENDBRANCH   6   7
ENDBRANCH   5   6
ENDBRANCH   4   5
ENDBRANCH   3   4
ENDBRANCH   2   3
ENDBRANCH   1   2
BRANCH   1  13
ATOM     13  C   UNL     1     -16.106   4.580 -23.475  1.00  0.00     0.000 C 
BRANCH  13  14
ATOM     14  C   UNL     1     -17.292   4.899 -22.554  1.00  0.00     0.000 C 
BRANCH  14  15
ATOM     15  C   UNL     1     -17.595   3.718 -21.619  1.00  0.00     0.000 C 
BRANCH  15  16
ATOM     16  C   UNL     1     -17.125   3.968 -20.177  1.00  0.00     0.000 C 
BRANCH  16  17
ATOM     17  C   UNL     1     -16.061   2.957 -19.716  1.00  0.00     0.000 C 
BRANCH  17  18
ATOM     18  C   UNL     1     -15.634   2.002 -20.851  1.00  0.00     0.000 C 
BRANCH  18  19
ATOM     19  C   UNL     1     -14.424   1.122 -20.493  1.00  0.00     0.000 C 
BRANCH  19  20
ATOM     20  C   UNL     1     -14.830  -0.233 -19.889  1.00  0.00     0.006 C 
BRANCH  20  21
ATOM     21  C   UNL     1     -13.805  -1.333 -20.192  1.00  0.00     0.053 C 
BRANCH  21  22
ATOM     22  C   UNL     1     -14.224  -2.179 -21.354  1.00  0.00     0.041 C 
ATOM     23  O   UNL     1     -14.913  -1.683 -22.283  1.00  0.00    -0.550 OA
ATOM     24  O   UNL     1     -13.882  -3.526 -21.394  1.00  0.00    -0.550 OA
ENDBRANCH  21  22
ENDBRANCH  20  21
ENDBRANCH  19  20
ENDBRANCH  18  19
ENDBRANCH  17  18
ENDBRANCH  16  17
ENDBRANCH  15  16
ENDBRANCH  14  15
ENDBRANCH  13  14
ENDBRANCH   1  13
TORSDOF 20
ENDMDL
MODEL 4
REMARK VINA RESULT:    -5.305      1.447      3.460
REMARK INTER + INTRA:         -15.372
REMARK INTER:                 -11.465
REMARK INTRA:                  -3.907
REMARK UNBOUND:                -3.866
REMARK SMILES CCCCCCCCCCCCCCCCCCCCCC(=O)[O-]
REMARK SMILES IDX 12 1 11 2 10 3 9 4 8 5 7 6 6 7 5 8 4 9 3 10 2 11 1 12 13 13
REMARK SMILES IDX 14 14 15 15 16 16 17 17 18 18 19 19 20 20 21 21 22 22 23 23
REMARK SMILES IDX 24 24
REMARK H PARENT
REMARK Flexibility Score: inf
ROOT
ATOM      1  C   UNL     1     -15.788   4.408 -24.003  1.00  0.00     0.000 C 
ENDROOT
BRANCH   1   2
ATOM      2  C   UNL     1     -15.314   5.673 -24.739  1.00  0.00     0.000 C 
BRANCH   2   3
ATOM      3  C   UNL     1     -16.450   6.684 -24.964  1.00  0.00     0.000 C 
BRANCH   3   4
ATOM      4  C   UNL     1     -16.025   8.131 -24.667  1.00  0.00    -0.000 C 
BRANCH   4   5
ATOM      5  C   UNL     1     -17.112   8.866 -23.864  1.00  0.00    -0.000 C 
BRANCH   5   6
ATOM      6  C   UNL     1     -18.416   8.060 -23.754  1.00  0.00    -0.000 C 
BRANCH   6   7
ATOM      7  C   UNL     1     -18.797   7.753 -22.295  1.00  0.00    -0.000 C 
BRANCH   7   8
ATOM      8  C   UNL     1     -17.639   8.005 -21.315  1.00  0.00    -0.000 C 
BRANCH   8   9
ATOM      9  C   UNL     1     -17.184   6.725 -20.593  1.00  0.00    -0.000 C 
BRANCH   9  10
ATOM     10  C   UNL     1     -15.731   6.814 -20.099  1.00  0.00    -0.000 C 
BRANCH  10  11
ATOM     11  C   UNL     1     -14.728   7.017 -21.245  1.00  0.00    -0.003 C 
ATOM     12  C   UNL     1     -13.721   5.871 -21.303  1.00  0.00     0.004 C 
ENDBRANCH  10  11
ENDBRANCH   9  10
ENDBRANCH   8   9
ENDBRANCH   7   8
ENDBRANCH   6   7
ENDBRANCH   5   6
ENDBRANCH   4   5
ENDBRANCH   3   4
ENDBRANCH   2   3
ENDBRANCH   1   2
BRANCH   1  13
ATOM     13  C   UNL     1     -17.280   4.461 -23.637  1.00  0.00     0.000 C 
BRANCH  13  14
ATOM     14  C   UNL     1     -17.585   3.791 -22.289  1.00  0.00     0.000 C 
BRANCH  14  15
ATOM     15  C   UNL     1     -16.313   3.184 -21.676  1.00  0.00     0.000 C 
BRANCH  15  16
ATOM     16  C   UNL     1     -16.366   3.124 -20.142  1.00  0.00     0.000 C 
BRANCH  16  17
ATOM     17  C   UNL     1     -15.111   2.478 -19.529  1.00  0.00     0.000 C 
BRANCH  17  18
ATOM     18  C   UNL     1     -15.252   0.946 -19.396  1.00  0.00     0.000 C 
BRANCH  18  19
ATOM     19  C   UNL     1     -14.423   0.161 -20.426  1.00  0.00     0.000 C 
BRANCH  19  20
ATOM     20  C   UNL     1     -15.220  -0.971 -21.097  1.00  0.00     0.006 C 
BRANCH  20  21
ATOM     21  C   UNL     1     -15.238  -0.840 -22.625  1.00  0.00     0.053 C 
BRANCH  21  22
ATOM     22  C   UNL     1     -16.447  -0.097 -23.105  1.00  0.00     0.041 C 
ATOM     23  O   UNL     1     -17.552  -0.237 -22.517  1.00  0.00    -0.550 OA
ATOM     24  O   UNL     1     -16.361   0.723 -24.223  1.00  0.00    -0.550 OA
ENDBRANCH  21  22
ENDBRANCH  20  21
ENDBRANCH  19  20
ENDBRANCH  18  19
ENDBRANCH  17  18
ENDBRANCH  16  17
ENDBRANCH  15  16
ENDBRANCH  14  15
ENDBRANCH  13  14
ENDBRANCH   1  13
TORSDOF 20
ENDMDL
MODEL 5
REMARK VINA RESULT:    -5.240      3.526      6.789
REMARK INTER + INTRA:         -15.231
REMARK INTER:                 -11.689
REMARK INTRA:                  -3.542
REMARK UNBOUND:                -3.866
REMARK SMILES CCCCCCCCCCCCCCCCCCCCCC(=O)[O-]
REMARK SMILES IDX 12 1 11 2 10 3 9 4 8 5 7 6 6 7 5 8 4 9 3 10 2 11 1 12 13 13
REMARK SMILES IDX 14 14 15 15 16 16 17 17 18 18 19 19 20 20 21 21 22 22 23 23
REMARK SMILES IDX 24 24
REMARK H PARENT
REMARK Flexibility Score: inf
ROOT
ATOM      1  C   UNL     1     -15.649   6.943 -25.478  1.00  0.00     0.000 C 
ENDROOT
BRANCH   1   2
ATOM      2  C   UNL     1     -15.818   5.529 -24.895  1.00  0.00     0.000 C 
BRANCH   2   3
ATOM      3  C   UNL     1     -15.620   5.492 -23.371  1.00  0.00     0.000 C 
BRANCH   3   4
ATOM      4  C   UNL     1     -14.364   4.712 -22.953  1.00  0.00    -0.000 C 
BRANCH   4   5
ATOM      5  C   UNL     1     -13.740   5.318 -21.685  1.00  0.00    -0.000 C 
BRANCH   5   6
ATOM      6  C   UNL     1     -14.499   4.929 -20.406  1.00  0.00    -0.000 C 
BRANCH   6   7
ATOM      7  C   UNL     1     -14.422   3.420 -20.112  1.00  0.00    -0.000 C 
BRANCH   7   8
ATOM      8  C   UNL     1     -15.810   2.767 -19.997  1.00  0.00    -0.000 C 
BRANCH   8   9
ATOM      9  C   UNL     1     -16.950   3.725 -20.380  1.00  0.00    -0.000 C 
BRANCH   9  10
ATOM     10  C   UNL     1     -17.680   3.289 -21.661  1.00  0.00    -0.000 C 
BRANCH  10  11
ATOM     11  C   UNL     1     -16.958   2.148 -22.394  1.00  0.00    -0.003 C 
ATOM     12  C   UNL     1     -17.896   0.967 -22.628  1.00  0.00     0.004 C 
ENDBRANCH  10  11
ENDBRANCH   9  10
ENDBRANCH   8   9
ENDBRANCH   7   8
ENDBRANCH   6   7
ENDBRANCH   5   6
ENDBRANCH   4   5
ENDBRANCH   3   4
ENDBRANCH   2   3
ENDBRANCH   1   2
BRANCH   1  13
ATOM     13  C   UNL     1     -16.432   8.005 -24.688  1.00  0.00     0.000 C 
BRANCH  13  14
ATOM     14  C   UNL     1     -17.947   7.918 -24.917  1.00  0.00     0.000 C 
BRANCH  14  15
ATOM     15  C   UNL     1     -18.683   7.578 -23.611  1.00  0.00     0.000 C 
BRANCH  15  16
ATOM     16  C   UNL     1     -19.060   8.828 -22.802  1.00  0.00     0.000 C 
BRANCH  16  17
ATOM     17  C   UNL     1     -18.550   8.772 -21.351  1.00  0.00     0.000 C 
BRANCH  17  18
ATOM     18  C   UNL     1     -17.788   7.464 -21.052  1.00  0.00     0.000 C 
BRANCH  18  19
ATOM     19  C   UNL     1     -16.384   7.690 -20.465  1.00  0.00     0.000 C 
BRANCH  19  20
ATOM     20  C   UNL     1     -15.490   8.552 -21.372  1.00  0.00     0.006 C 
BRANCH  20  21
ATOM     21  C   UNL     1     -14.945   9.787 -20.644  1.00  0.00     0.053 C 
BRANCH  21  22
ATOM     22  C   UNL     1     -13.684   9.480 -19.896  1.00  0.00     0.041 C 
ATOM     23  O   UNL     1     -13.323  10.210 -18.935  1.00  0.00    -0.550 OA
ATOM     24  O   UNL     1     -12.888   8.408 -20.282  1.00  0.00    -0.550 OA
ENDBRANCH  21  22
ENDBRANCH  20  21
ENDBRANCH  19  20
ENDBRANCH  18  19
ENDBRANCH  17  18
ENDBRANCH  16  17
ENDBRANCH  15  16
ENDBRANCH  14  15
ENDBRANCH  13  14
ENDBRANCH   1  13
TORSDOF 20
ENDMDL
MODEL 6
REMARK VINA RESULT:    -5.222      3.689      7.211
REMARK INTER + INTRA:         -15.193
REMARK INTER:                 -12.048
REMARK INTRA:                  -3.145
REMARK UNBOUND:                -3.866
REMARK SMILES CCCCCCCCCCCCCCCCCCCCCC(=O)[O-]
REMARK SMILES IDX 12 1 11 2 10 3 9 4 8 5 7 6 6 7 5 8 4 9 3 10 2 11 1 12 13 13
REMARK SMILES IDX 14 14 15 15 16 16 17 17 18 18 19 19 20 20 21 21 22 22 23 23
REMARK SMILES IDX 24 24
REMARK H PARENT
REMARK Flexibility Score: inf
ROOT
ATOM      1  C   UNL     1     -14.947   2.215 -19.511  1.00  0.00     0.000 C 
ENDROOT
BRANCH   1   2
ATOM      2  C   UNL     1     -14.493   1.186 -20.560  1.00  0.00     0.000 C 
BRANCH   2   3
ATOM      3  C   UNL     1     -14.530  -0.255 -20.026  1.00  0.00     0.000 C 
BRANCH   3   4
ATOM      4  C   UNL     1     -15.290  -1.214 -20.957  1.00  0.00    -0.000 C 
BRANCH   4   5
ATOM      5  C   UNL     1     -15.633  -0.527 -22.288  1.00  0.00    -0.000 C 
BRANCH   5   6
ATOM      6  C   UNL     1     -17.145  -0.328 -22.481  1.00  0.00    -0.000 C 
BRANCH   6   7
ATOM      7  C   UNL     1     -17.510   1.132 -22.802  1.00  0.00    -0.000 C 
BRANCH   7   8
ATOM      8  C   UNL     1     -17.152   1.530 -24.244  1.00  0.00    -0.000 C 
BRANCH   8   9
ATOM      9  C   UNL     1     -16.282   2.796 -24.312  1.00  0.00    -0.000 C 
BRANCH   9  10
ATOM     10  C   UNL     1     -14.818   2.525 -23.928  1.00  0.00    -0.000 C 
BRANCH  10  11
ATOM     11  C   UNL     1     -14.133   3.749 -23.302  1.00  0.00    -0.003 C 
ATOM     12  C   UNL     1     -14.761   5.046 -23.804  1.00  0.00     0.004 C 
ENDBRANCH  10  11
ENDBRANCH   9  10
ENDBRANCH   8   9
ENDBRANCH   7   8
ENDBRANCH   6   7
ENDBRANCH   5   6
ENDBRANCH   4   5
ENDBRANCH   3   4
ENDBRANCH   2   3
ENDBRANCH   1   2
BRANCH   1  13
ATOM     13  C   UNL     1     -16.285   2.879 -19.874  1.00  0.00     0.000 C 
BRANCH  13  14
ATOM     14  C   UNL     1     -16.111   4.296 -20.440  1.00  0.00     0.000 C 
BRANCH  14  15
ATOM     15  C   UNL     1     -17.471   4.991 -20.612  1.00  0.00     0.000 C 
BRANCH  15  16
ATOM     16  C   UNL     1     -17.888   5.117 -22.086  1.00  0.00     0.000 C 
BRANCH  16  17
ATOM     17  C   UNL     1     -18.056   6.580 -22.533  1.00  0.00     0.000 C 
BRANCH  17  18
ATOM     18  C   UNL     1     -17.256   7.556 -21.642  1.00  0.00     0.000 C 
BRANCH  18  19
ATOM     19  C   UNL     1     -16.202   8.369 -22.413  1.00  0.00     0.000 C 
BRANCH  19  20
ATOM     20  C   UNL     1     -14.985   8.739 -21.549  1.00  0.00     0.006 C 
BRANCH  20  21
ATOM     21  C   UNL     1     -15.392   9.229 -20.153  1.00  0.00     0.053 C 
BRANCH  21  22
ATOM     22  C   UNL     1     -14.284   9.980 -19.482  1.00  0.00     0.041 C 
ATOM     23  O   UNL     1     -14.541  10.983 -18.766  1.00  0.00    -0.550 OA
ATOM     24  O   UNL     1     -12.963   9.593 -19.676  1.00  0.00    -0.550 OA
ENDBRANCH  21  22
ENDBRANCH  20  21
ENDBRANCH  19  20
ENDBRANCH  18  19
ENDBRANCH  17  18
ENDBRANCH  16  17
ENDBRANCH  15  16
ENDBRANCH  14  15
ENDBRANCH  13  14
ENDBRANCH   1  13
TORSDOF 20
ENDMDL
MODEL 7
REMARK VINA RESULT:    -5.217      3.136      7.136
REMARK INTER + INTRA:         -15.182
REMARK INTER:                 -11.378
REMARK INTRA:                  -3.804
REMARK UNBOUND:                -3.866
REMARK SMILES CCCCCCCCCCCCCCCCCCCCCC(=O)[O-]
REMARK SMILES IDX 12 1 11 2 10 3 9 4 8 5 7 6 6 7 5 8 4 9 3 10 2 11 1 12 13 13
REMARK SMILES IDX 14 14 15 15 16 16 17 17 18 18 19 19 20 20 21 21 22 22 23 23
REMARK SMILES IDX 24 24
REMARK H PARENT
REMARK Flexibility Score: inf
ROOT
ATOM      1  C   UNL     1     -13.775   4.479 -22.884  1.00  0.00     0.000 C 
ENDROOT
BRANCH   1   2
ATOM      2  C   UNL     1     -14.929   3.788 -23.632  1.00  0.00     0.000 C 
BRANCH   2   3
ATOM      3  C   UNL     1     -16.179   4.676 -23.737  1.00  0.00     0.000 C 
BRANCH   3   4
ATOM      4  C   UNL     1     -17.423   4.028 -23.107  1.00  0.00    -0.000 C 
BRANCH   4   5
ATOM      5  C   UNL     1     -17.546   4.412 -21.624  1.00  0.00    -0.000 C 
BRANCH   5   6
ATOM      6  C   UNL     1     -17.243   3.237 -20.680  1.00  0.00    -0.000 C 
BRANCH   6   7
ATOM      7  C   UNL     1     -15.886   3.387 -19.970  1.00  0.00    -0.000 C 
BRANCH   7   8
ATOM      8  C   UNL     1     -15.210   2.034 -19.691  1.00  0.00    -0.000 C 
BRANCH   8   9
ATOM      9  C   UNL     1     -14.599   1.405 -20.955  1.00  0.00    -0.000 C 
BRANCH   9  10
ATOM     10  C   UNL     1     -15.371   0.161 -21.425  1.00  0.00    -0.000 C 
BRANCH  10  11
ATOM     11  C   UNL     1     -16.002   0.346 -22.813  1.00  0.00    -0.003 C 
ATOM     12  C   UNL     1     -17.515   0.156 -22.759  1.00  0.00     0.004 C 
ENDBRANCH  10  11
ENDBRANCH   9  10
ENDBRANCH   8   9
ENDBRANCH   7   8
ENDBRANCH   6   7
ENDBRANCH   5   6
ENDBRANCH   4   5
ENDBRANCH   3   4
ENDBRANCH   2   3
ENDBRANCH   1   2
BRANCH   1  13
ATOM     13  C   UNL     1     -14.221   5.764 -22.168  1.00  0.00     0.000 C 
BRANCH  13  14
ATOM     14  C   UNL     1     -13.504   5.975 -20.827  1.00  0.00     0.000 C 
BRANCH  14  15
ATOM     15  C   UNL     1     -13.066   7.439 -20.662  1.00  0.00     0.000 C 
BRANCH  15  16
ATOM     16  C   UNL     1     -14.124   8.297 -19.951  1.00  0.00     0.000 C 
BRANCH  16  17
ATOM     17  C   UNL     1     -14.710   9.392 -20.860  1.00  0.00     0.000 C 
BRANCH  17  18
ATOM     18  C   UNL     1     -16.253   9.408 -20.832  1.00  0.00     0.000 C 
BRANCH  18  19
ATOM     19  C   UNL     1     -16.887   8.043 -21.152  1.00  0.00     0.000 C 
BRANCH  19  20
ATOM     20  C   UNL     1     -17.746   8.069 -22.428  1.00  0.00     0.006 C 
BRANCH  20  21
ATOM     21  C   UNL     1     -16.903   8.286 -23.691  1.00  0.00     0.053 C 
BRANCH  21  22
ATOM     22  C   UNL     1     -17.667   9.017 -24.751  1.00  0.00     0.041 C 
ATOM     23  O   UNL     1     -17.407  10.224 -25.000  1.00  0.00    -0.550 OA
ATOM     24  O   UNL     1     -18.690   8.376 -25.440  1.00  0.00    -0.550 OA
ENDBRANCH  21  22
ENDBRANCH  20  21
ENDBRANCH  19  20
ENDBRANCH  18  19
ENDBRANCH  17  18
ENDBRANCH  16  17
ENDBRANCH  15  16
ENDBRANCH  14  15
ENDBRANCH  13  14
ENDBRANCH   1  13
TORSDOF 20
ENDMDL
MODEL 8
REMARK VINA RESULT:    -5.187      3.333      7.228
REMARK INTER + INTRA:         -15.116
REMARK INTER:                 -11.591
REMARK INTRA:                  -3.525
REMARK UNBOUND:                -3.866
REMARK SMILES CCCCCCCCCCCCCCCCCCCCCC(=O)[O-]
REMARK SMILES IDX 12 1 11 2 10 3 9 4 8 5 7 6 6 7 5 8 4 9 3 10 2 11 1 12 13 13
REMARK SMILES IDX 14 14 15 15 16 16 17 17 18 18 19 19 20 20 21 21 22 22 23 23
REMARK SMILES IDX 24 24
REMARK H PARENT
REMARK Flexibility Score: inf
ROOT
ATOM      1  C   UNL     1     -16.273   5.127 -23.998  1.00  0.00     0.000 C 
ENDROOT
BRANCH   1   2
ATOM      2  C   UNL     1     -17.632   4.928 -23.304  1.00  0.00     0.000 C 
BRANCH   2   3
ATOM      3  C   UNL     1     -17.580   3.854 -22.205  1.00  0.00     0.000 C 
BRANCH   3   4
ATOM      4  C   UNL     1     -17.296   4.441 -20.813  1.00  0.00    -0.000 C 
BRANCH   4   5
ATOM      5  C   UNL     1     -16.777   3.354 -19.857  1.00  0.00    -0.000 C 
BRANCH   5   6
ATOM      6  C   UNL     1     -15.428   2.768 -20.302  1.00  0.00    -0.000 C 
BRANCH   6   7
ATOM      7  C   UNL     1     -15.162   1.378 -19.697  1.00  0.00    -0.000 C 
BRANCH   7   8
ATOM      8  C   UNL     1     -14.435   0.436 -20.672  1.00  0.00    -0.000 C 
BRANCH   8   9
ATOM      9  C   UNL     1     -15.326  -0.722 -21.153  1.00  0.00    -0.000 C 
BRANCH   9  10
ATOM     10  C   UNL     1     -15.426  -0.789 -22.686  1.00  0.00    -0.000 C 
BRANCH  10  11
ATOM     11  C   UNL     1     -16.340   0.300 -23.268  1.00  0.00    -0.003 C 
ATOM     12  C   UNL     1     -17.754   0.187 -22.708  1.00  0.00     0.004 C 
ENDBRANCH  10  11
ENDBRANCH   9  10
ENDBRANCH   8   9
ENDBRANCH   7   8
ENDBRANCH   6   7
ENDBRANCH   5   6
ENDBRANCH   4   5
ENDBRANCH   3   4
ENDBRANCH   2   3
ENDBRANCH   1   2
BRANCH   1  13
ATOM     13  C   UNL     1     -15.324   3.935 -23.793  1.00  0.00     0.000 C 
BRANCH  13  14
ATOM     14  C   UNL     1     -14.031   4.324 -23.062  1.00  0.00     0.000 C 
BRANCH  14  15
ATOM     15  C   UNL     1     -14.122   5.755 -22.509  1.00  0.00     0.000 C 
BRANCH  15  16
ATOM     16  C   UNL     1     -13.636   5.859 -21.055  1.00  0.00     0.000 C 
BRANCH  16  17
ATOM     17  C   UNL     1     -14.128   7.138 -20.354  1.00  0.00     0.000 C 
BRANCH  17  18
ATOM     18  C   UNL     1     -15.586   7.481 -20.727  1.00  0.00     0.000 C 
BRANCH  18  19
ATOM     19  C   UNL     1     -15.707   8.651 -21.718  1.00  0.00     0.000 C 
BRANCH  19  20
ATOM     20  C   UNL     1     -17.129   8.810 -22.282  1.00  0.00     0.006 C 
BRANCH  20  21
ATOM     21  C   UNL     1     -18.183   8.127 -21.401  1.00  0.00     0.053 C 
BRANCH  21  22
ATOM     22  C   UNL     1     -19.230   9.093 -20.936  1.00  0.00     0.041 C 
ATOM     23  O   UNL     1     -18.900  10.240 -20.534  1.00  0.00    -0.550 OA
ATOM     24  O   UNL     1     -20.566   8.713 -20.914  1.00  0.00    -0.550 OA
ENDBRANCH  21  22
ENDBRANCH  20  21
ENDBRANCH  19  20
ENDBRANCH  18  19
ENDBRANCH  17  18
ENDBRANCH  16  17
ENDBRANCH  15  16
ENDBRANCH  14  15
ENDBRANCH  13  14
ENDBRANCH   1  13
TORSDOF 20
ENDMDL
MODEL 9
REMARK VINA RESULT:    -5.133      1.300      3.707
REMARK INTER + INTRA:         -14.999
REMARK INTER:                 -11.688
REMARK INTRA:                  -3.311
REMARK UNBOUND:                -3.866
REMARK SMILES CCCCCCCCCCCCCCCCCCCCCC(=O)[O-]
REMARK SMILES IDX 12 1 11 2 10 3 9 4 8 5 7 6 6 7 5 8 4 9 3 10 2 11 1 12 13 13
REMARK SMILES IDX 14 14 15 15 16 16 17 17 18 18 19 19 20 20 21 21 22 22 23 23
REMARK SMILES IDX 24 24
REMARK H PARENT
REMARK Flexibility Score: inf
ROOT
ATOM      1  C   UNL     1     -15.559   6.226 -24.994  1.00  0.00     0.000 C 
ENDROOT
BRANCH   1   2
ATOM      2  C   UNL     1     -16.673   7.285 -25.068  1.00  0.00     0.000 C 
BRANCH   2   3
ATOM      3  C   UNL     1     -16.234   8.642 -24.495  1.00  0.00     0.000 C 
BRANCH   3   4
ATOM      4  C   UNL     1     -17.292   9.740 -24.690  1.00  0.00    -0.000 C 
BRANCH   4   5
ATOM      5  C   UNL     1     -18.558   9.430 -23.875  1.00  0.00    -0.000 C 
BRANCH   5   6
ATOM      6  C   UNL     1     -18.278   9.306 -22.368  1.00  0.00    -0.000 C 
BRANCH   6   7
ATOM      7  C   UNL     1     -18.567   7.894 -21.830  1.00  0.00    -0.000 C 
BRANCH   7   8
ATOM      8  C   UNL     1     -17.418   7.341 -20.970  1.00  0.00    -0.000 C 
BRANCH   8   9
ATOM      9  C   UNL     1     -16.391   8.419 -20.586  1.00  0.00    -0.000 C 
BRANCH   9  10
ATOM     10  C   UNL     1     -14.970   8.074 -21.060  1.00  0.00    -0.000 C 
BRANCH  10  11
ATOM     11  C   UNL     1     -14.379   6.862 -20.326  1.00  0.00    -0.003 C 
ATOM     12  C   UNL     1     -12.980   6.536 -20.843  1.00  0.00     0.004 C 
ENDBRANCH  10  11
ENDBRANCH   9  10
ENDBRANCH   8   9
ENDBRANCH   7   8
ENDBRANCH   6   7
ENDBRANCH   5   6
ENDBRANCH   4   5
ENDBRANCH   3   4
ENDBRANCH   2   3
ENDBRANCH   1   2
BRANCH   1  13
ATOM     13  C   UNL     1     -15.521   5.501 -23.639  1.00  0.00     0.000 C 
BRANCH  13  14
ATOM     14  C   UNL     1     -14.820   4.137 -23.715  1.00  0.00     0.000 C 
BRANCH  14  15
ATOM     15  C   UNL     1     -14.787   3.458 -22.337  1.00  0.00     0.000 C 
BRANCH  15  16
ATOM     16  C   UNL     1     -16.017   3.799 -21.480  1.00  0.00     0.000 C 
BRANCH  16  17
ATOM     17  C   UNL     1     -16.222   2.811 -20.317  1.00  0.00     0.000 C 
BRANCH  17  18
ATOM     18  C   UNL     1     -14.893   2.186 -19.843  1.00  0.00     0.000 C 
BRANCH  18  19
ATOM     19  C   UNL     1     -14.931   0.651 -19.758  1.00  0.00     0.000 C 
BRANCH  19  20
ATOM     20  C   UNL     1     -14.372  -0.031 -21.018  1.00  0.00     0.006 C 
BRANCH  20  21
ATOM     21  C   UNL     1     -15.415  -0.921 -21.706  1.00  0.00     0.053 C 
BRANCH  21  22
ATOM     22  C   UNL     1     -16.173  -0.175 -22.761  1.00  0.00     0.041 C 
ATOM     23  O   UNL     1     -15.642   0.057 -23.879  1.00  0.00    -0.550 OA
ATOM     24  O   UNL     1     -17.454   0.296 -22.497  1.00  0.00    -0.550 OA
ENDBRANCH  21  22
ENDBRANCH  20  21
ENDBRANCH  19  20
ENDBRANCH  18  19
ENDBRANCH  17  18
ENDBRANCH  16  17
ENDBRANCH  15  16
ENDBRANCH  14  15
ENDBRANCH  13  14
ENDBRANCH   1  13
TORSDOF 20
ENDMDL
