MODEL 1
REMARK VINA RESULT:    -6.541      0.000      0.000
REMARK INTER + INTRA:          -7.953
REMARK INTER:                  -7.688
REMARK INTRA:                  -0.265
REMARK UNBOUND:                -0.265
REMARK SMILES O=c1cc(-c2ccc(O)c(O)c2)oc2cc(O)cc(O)c12
REMARK SMILES IDX 4 1 3 2 2 3 1 4 21 5 19 6 18 7 16 8 15 9 14 10 13 11 5 12
REMARK SMILES IDX 6 13 7 14 8 15 12 16 10 17 9 18 11 20 20 22 17 24
REMARK H PARENT 9 19 11 21 20 23 17 25
REMARK Flexibility Score: inf
ROOT
ATOM      1  C   UNL     1     -41.973 -39.335 -20.288  1.00  0.00     0.138 A 
ATOM      2  C   UNL     1     -40.600 -39.401 -20.564  1.00  0.00     0.100 A 
ATOM      3  C   UNL     1     -39.849 -38.226 -20.614  1.00  0.00     0.197 A 
ATOM      4  O   UNL     1     -38.632 -38.312 -20.925  1.00  0.00    -0.289 OA
ATOM      5  C   UNL     1     -40.471 -36.981 -20.356  1.00  0.00     0.107 A 
ATOM      6  C   UNL     1     -39.797 -35.723 -20.340  1.00  0.00     0.134 A 
ATOM      7  C   UNL     1     -40.537 -34.545 -20.188  1.00  0.00     0.093 A 
ATOM      8  C   UNL     1     -41.921 -34.584 -19.991  1.00  0.00     0.123 A 
ATOM      9  C   UNL     1     -42.580 -35.810 -19.951  1.00  0.00     0.094 A 
ATOM     10  C   UNL     1     -41.874 -37.001 -20.134  1.00  0.00     0.146 A 
ATOM     11  O   UNL     1     -42.543 -38.148 -20.103  1.00  0.00    -0.456 OA
ENDROOT
BRANCH   1  12
ATOM     12  C   UNL     1     -42.819 -40.553 -20.222  1.00  0.00     0.021 A 
ATOM     13  C   UNL     1     -43.769 -40.791 -21.230  1.00  0.00     0.016 A 
ATOM     14  C   UNL     1     -44.583 -41.926 -21.186  1.00  0.00     0.051 A 
ATOM     15  C   UNL     1     -44.471 -42.836 -20.132  1.00  0.00     0.157 A 
ATOM     16  C   UNL     1     -42.719 -41.466 -19.154  1.00  0.00     0.062 A 
ATOM     17  C   UNL     1     -43.538 -42.604 -19.108  1.00  0.00     0.158 A 
BRANCH  15  18
ATOM     18  O   UNL     1     -45.296 -43.960 -20.117  1.00  0.00    -0.504 OA
ATOM     19  H   UNL     1     -45.275 -44.653 -20.856  1.00  0.00     0.293 HD
ENDBRANCH  15  18
BRANCH  17  20
ATOM     20  O   UNL     1     -43.429 -43.503 -18.048  1.00  0.00    -0.504 OA
ATOM     21  H   UNL     1     -43.031 -43.229 -17.157  1.00  0.00     0.293 HD
ENDBRANCH  17  20
ENDBRANCH   1  12
BRANCH   6  22
ATOM     22  O   UNL     1     -38.410 -35.580 -20.443  1.00  0.00    -0.507 OA
ATOM     23  H   UNL     1     -37.911 -34.710 -20.346  1.00  0.00     0.293 HD
ENDBRANCH   6  22
BRANCH   8  24
ATOM     24  O   UNL     1     -42.648 -33.407 -19.825  1.00  0.00    -0.508 OA
ATOM     25  H   UNL     1     -43.369 -33.132 -20.483  1.00  0.00     0.293 HD
ENDBRANCH   8  24
TORSDOF 5
ENDMDL
MODEL 2
REMARK VINA RESULT:    -6.146      1.391      1.412
REMARK INTER + INTRA:          -7.489
REMARK INTER:                  -7.194
REMARK INTRA:                  -0.295
REMARK UNBOUND:                -0.265
REMARK SMILES O=c1cc(-c2ccc(O)c(O)c2)oc2cc(O)cc(O)c12
REMARK SMILES IDX 4 1 3 2 2 3 1 4 21 5 19 6 18 7 16 8 15 9 14 10 13 11 5 12
REMARK SMILES IDX 6 13 7 14 8 15 12 16 10 17 9 18 11 20 20 22 17 24
REMARK H PARENT 9 19 11 21 20 23 17 25
REMARK Flexibility Score: inf
ROOT
ATOM      1  C   UNL     1     -42.752 -39.327 -19.889  1.00  0.00     0.138 A 
ATOM      2  C   UNL     1     -41.445 -39.644 -20.284  1.00  0.00     0.100 A 
ATOM      3  C   UNL     1     -40.521 -38.620 -20.495  1.00  0.00     0.197 A 
ATOM      4  O   UNL     1     -39.373 -38.930 -20.908  1.00  0.00    -0.289 OA
ATOM      5  C   UNL     1     -40.901 -37.273 -20.279  1.00  0.00     0.107 A 
ATOM      6  C   UNL     1     -40.033 -36.150 -20.424  1.00  0.00     0.134 A 
ATOM      7  C   UNL     1     -40.550 -34.856 -20.298  1.00  0.00     0.093 A 
ATOM      8  C   UNL     1     -41.893 -34.646 -19.972  1.00  0.00     0.123 A 
ATOM      9  C   UNL     1     -42.737 -35.737 -19.776  1.00  0.00     0.094 A 
ATOM     10  C   UNL     1     -42.257 -37.039 -19.929  1.00  0.00     0.146 A 
ATOM     11  O   UNL     1     -43.099 -38.052 -19.747  1.00  0.00    -0.456 OA
ENDROOT
BRANCH   1  12
ATOM     12  C   UNL     1     -43.775 -40.376 -19.650  1.00  0.00     0.021 A 
ATOM     13  C   UNL     1     -43.870 -41.464 -20.535  1.00  0.00     0.016 A 
ATOM     14  C   UNL     1     -44.830 -42.460 -20.335  1.00  0.00     0.051 A 
ATOM     15  C   UNL     1     -45.716 -42.383 -19.258  1.00  0.00     0.157 A 
ATOM     16  C   UNL     1     -44.680 -40.296 -18.573  1.00  0.00     0.062 A 
ATOM     17  C   UNL     1     -45.644 -41.294 -18.374  1.00  0.00     0.158 A 
BRANCH  15  18
ATOM     18  O   UNL     1     -46.662 -43.394 -19.085  1.00  0.00    -0.504 OA
ATOM     19  H   UNL     1     -46.806 -43.847 -18.191  1.00  0.00     0.293 HD
ENDBRANCH  15  18
BRANCH  17  20
ATOM     20  O   UNL     1     -46.533 -41.206 -17.303  1.00  0.00    -0.504 OA
ATOM     21  H   UNL     1     -47.511 -41.451 -17.403  1.00  0.00     0.293 HD
ENDBRANCH  17  20
ENDBRANCH   1  12
BRANCH   6  22
ATOM     22  O   UNL     1     -38.659 -36.252 -20.665  1.00  0.00    -0.507 OA
ATOM     23  H   UNL     1     -38.127 -37.107 -20.619  1.00  0.00     0.293 HD
ENDBRANCH   6  22
BRANCH   8  24
ATOM     24  O   UNL     1     -42.397 -33.354 -19.834  1.00  0.00    -0.508 OA
ATOM     25  H   UNL     1     -43.287 -33.178 -19.381  1.00  0.00     0.293 HD
ENDBRANCH   8  24
TORSDOF 5
ENDMDL
MODEL 3
REMARK VINA RESULT:    -6.140      4.417      7.753
REMARK INTER + INTRA:          -7.482
REMARK INTER:                  -7.167
REMARK INTRA:                  -0.315
REMARK UNBOUND:                -0.265
REMARK SMILES O=c1cc(-c2ccc(O)c(O)c2)oc2cc(O)cc(O)c12
REMARK SMILES IDX 4 1 3 2 2 3 1 4 21 5 19 6 18 7 16 8 15 9 14 10 13 11 5 12
REMARK SMILES IDX 6 13 7 14 8 15 12 16 10 17 9 18 11 20 20 22 17 24
REMARK H PARENT 9 19 11 21 20 23 17 25
REMARK Flexibility Score: inf
ROOT
ATOM      1  C   UNL     1     -45.159 -37.445 -19.258  1.00  0.00     0.138 A 
ATOM      2  C   UNL     1     -45.144 -38.822 -18.997  1.00  0.00     0.100 A 
ATOM      3  C   UNL     1     -46.340 -39.484 -18.718  1.00  0.00     0.197 A 
ATOM      4  O   UNL     1     -46.289 -40.708 -18.427  1.00  0.00    -0.289 OA
ATOM      5  C   UNL     1     -47.561 -38.767 -18.731  1.00  0.00     0.107 A 
ATOM      6  C   UNL     1     -48.846 -39.345 -18.501  1.00  0.00     0.134 A 
ATOM      7  C   UNL     1     -49.971 -38.517 -18.423  1.00  0.00     0.093 A 
ATOM      8  C   UNL     1     -49.866 -37.138 -18.626  1.00  0.00     0.123 A 
ATOM      9  C   UNL     1     -48.625 -36.571 -18.905  1.00  0.00     0.094 A 
ATOM     10  C   UNL     1     -47.479 -37.367 -18.955  1.00  0.00     0.146 A 
ATOM     11  O   UNL     1     -46.312 -36.785 -19.209  1.00  0.00    -0.456 OA
ENDROOT
BRANCH   1  12
ATOM     12  C   UNL     1     -43.916 -36.691 -19.561  1.00  0.00     0.021 A 
ATOM     13  C   UNL     1     -42.739 -37.393 -19.870  1.00  0.00     0.016 A 
ATOM     14  C   UNL     1     -41.555 -36.706 -20.151  1.00  0.00     0.051 A 
ATOM     15  C   UNL     1     -41.522 -35.310 -20.118  1.00  0.00     0.157 A 
ATOM     16  C   UNL     1     -43.876 -35.283 -19.515  1.00  0.00     0.062 A 
ATOM     17  C   UNL     1     -42.687 -34.593 -19.795  1.00  0.00     0.158 A 
BRANCH  15  18
ATOM     18  O   UNL     1     -40.326 -34.653 -20.405  1.00  0.00    -0.504 OA
ATOM     19  H   UNL     1     -39.870 -34.734 -21.306  1.00  0.00     0.293 HD
ENDBRANCH  15  18
BRANCH  17  20
ATOM     20  O   UNL     1     -42.658 -33.200 -19.750  1.00  0.00    -0.504 OA
ATOM     21  H   UNL     1     -42.547 -32.643 -20.588  1.00  0.00     0.293 HD
ENDBRANCH  17  20
ENDBRANCH   1  12
BRANCH   6  22
ATOM     22  O   UNL     1     -49.071 -40.719 -18.369  1.00  0.00    -0.507 OA
ATOM     23  H   UNL     1     -48.374 -41.394 -18.097  1.00  0.00     0.293 HD
ENDBRANCH   6  22
BRANCH   8  24
ATOM     24  O   UNL     1     -50.995 -36.323 -18.561  1.00  0.00    -0.508 OA
ATOM     25  H   UNL     1     -51.290 -35.894 -17.691  1.00  0.00     0.293 HD
ENDBRANCH   8  24
TORSDOF 5
ENDMDL
MODEL 4
REMARK VINA RESULT:    -6.050      1.523      3.148
REMARK INTER + INTRA:          -7.376
REMARK INTER:                  -7.080
REMARK INTRA:                  -0.297
REMARK UNBOUND:                -0.265
REMARK SMILES O=c1cc(-c2ccc(O)c(O)c2)oc2cc(O)cc(O)c12
REMARK SMILES IDX 4 1 3 2 2 3 1 4 21 5 19 6 18 7 16 8 15 9 14 10 13 11 5 12
REMARK SMILES IDX 6 13 7 14 8 15 12 16 10 17 9 18 11 20 20 22 17 24
REMARK H PARENT 9 19 11 21 20 23 17 25
REMARK Flexibility Score: inf
ROOT
ATOM      1  C   UNL     1     -43.382 -38.591 -19.287  1.00  0.00     0.138 A 
ATOM      2  C   UNL     1     -44.241 -37.502 -19.080  1.00  0.00     0.100 A 
ATOM      3  C   UNL     1     -43.764 -36.203 -19.258  1.00  0.00     0.197 A 
ATOM      4  O   UNL     1     -44.540 -35.245 -19.005  1.00  0.00    -0.289 OA
ATOM      5  C   UNL     1     -42.427 -35.995 -19.675  1.00  0.00     0.107 A 
ATOM      6  C   UNL     1     -41.844 -34.717 -19.927  1.00  0.00     0.134 A 
ATOM      7  C   UNL     1     -40.478 -34.628 -20.222  1.00  0.00     0.093 A 
ATOM      8  C   UNL     1     -39.689 -35.776 -20.334  1.00  0.00     0.123 A 
ATOM      9  C   UNL     1     -40.261 -37.031 -20.143  1.00  0.00     0.094 A 
ATOM     10  C   UNL     1     -41.613 -37.150 -19.814  1.00  0.00     0.146 A 
ATOM     11  O   UNL     1     -42.116 -38.366 -19.626  1.00  0.00    -0.456 OA
ENDROOT
BRANCH   1  12
ATOM     12  C   UNL     1     -43.837 -39.993 -19.113  1.00  0.00     0.021 A 
ATOM     13  C   UNL     1     -42.909 -41.041 -19.233  1.00  0.00     0.016 A 
ATOM     14  C   UNL     1     -43.314 -42.370 -19.081  1.00  0.00     0.051 A 
ATOM     15  C   UNL     1     -44.652 -42.676 -18.818  1.00  0.00     0.157 A 
ATOM     16  C   UNL     1     -45.187 -40.307 -18.862  1.00  0.00     0.062 A 
ATOM     17  C   UNL     1     -45.595 -41.640 -18.712  1.00  0.00     0.158 A 
BRANCH  15  18
ATOM     18  O   UNL     1     -45.025 -44.012 -18.670  1.00  0.00    -0.504 OA
ATOM     19  H   UNL     1     -45.038 -44.469 -17.766  1.00  0.00     0.293 HD
ENDBRANCH  15  18
BRANCH  17  20
ATOM     20  O   UNL     1     -46.933 -41.940 -18.461  1.00  0.00    -0.504 OA
ATOM     21  H   UNL     1     -47.651 -41.225 -18.482  1.00  0.00     0.293 HD
ENDBRANCH  17  20
ENDBRANCH   1  12
BRANCH   6  22
ATOM     22  O   UNL     1     -42.562 -33.517 -19.924  1.00  0.00    -0.507 OA
ATOM     23  H   UNL     1     -42.150 -32.599 -19.886  1.00  0.00     0.293 HD
ENDBRANCH   6  22
BRANCH   8  24
ATOM     24  O   UNL     1     -38.334 -35.678 -20.643  1.00  0.00    -0.508 OA
ATOM     25  H   UNL     1     -37.708 -35.091 -20.104  1.00  0.00     0.293 HD
ENDBRANCH   8  24
TORSDOF 5
ENDMDL
MODEL 5
REMARK VINA RESULT:    -5.890      6.371      8.498
REMARK INTER + INTRA:          -7.188
REMARK INTER:                  -6.880
REMARK INTRA:                  -0.308
REMARK UNBOUND:                -0.265
REMARK SMILES O=c1cc(-c2ccc(O)c(O)c2)oc2cc(O)cc(O)c12
REMARK SMILES IDX 4 1 3 2 2 3 1 4 21 5 19 6 18 7 16 8 15 9 14 10 13 11 5 12
REMARK SMILES IDX 6 13 7 14 8 15 12 16 10 17 9 18 11 20 20 22 17 24
REMARK H PARENT 9 19 11 21 20 23 17 25
REMARK Flexibility Score: inf
ROOT
ATOM      1  C   UNL     1     -48.859 -38.230 -20.119  1.00  0.00     0.138 A 
ATOM      2  C   UNL     1     -49.215 -39.519 -19.696  1.00  0.00     0.100 A 
ATOM      3  C   UNL     1     -48.685 -40.026 -18.508  1.00  0.00     0.197 A 
ATOM      4  O   UNL     1     -48.973 -41.208 -18.186  1.00  0.00    -0.289 OA
ATOM      5  C   UNL     1     -47.820 -39.225 -17.725  1.00  0.00     0.107 A 
ATOM      6  C   UNL     1     -47.252 -39.621 -16.477  1.00  0.00     0.134 A 
ATOM      7  C   UNL     1     -46.317 -38.791 -15.849  1.00  0.00     0.093 A 
ATOM      8  C   UNL     1     -45.975 -37.550 -16.395  1.00  0.00     0.123 A 
ATOM      9  C   UNL     1     -46.563 -37.131 -17.585  1.00  0.00     0.094 A 
ATOM     10  C   UNL     1     -47.474 -37.952 -18.252  1.00  0.00     0.146 A 
ATOM     11  O   UNL     1     -48.002 -37.520 -19.393  1.00  0.00    -0.456 OA
ENDROOT
BRANCH   1  12
ATOM     12  C   UNL     1     -49.393 -37.642 -21.373  1.00  0.00     0.021 A 
ATOM     13  C   UNL     1     -50.638 -38.071 -21.864  1.00  0.00     0.016 A 
ATOM     14  C   UNL     1     -51.158 -37.537 -23.046  1.00  0.00     0.051 A 
ATOM     15  C   UNL     1     -50.441 -36.577 -23.764  1.00  0.00     0.157 A 
ATOM     16  C   UNL     1     -48.667 -36.683 -22.107  1.00  0.00     0.062 A 
ATOM     17  C   UNL     1     -49.188 -36.149 -23.295  1.00  0.00     0.158 A 
BRANCH  15  18
ATOM     18  O   UNL     1     -50.987 -36.062 -24.940  1.00  0.00    -0.504 OA
ATOM     19  H   UNL     1     -50.864 -35.094 -25.211  1.00  0.00     0.293 HD
ENDBRANCH  15  18
BRANCH  17  20
ATOM     20  O   UNL     1     -48.463 -35.198 -24.013  1.00  0.00    -0.504 OA
ATOM     21  H   UNL     1     -48.308 -34.265 -23.652  1.00  0.00     0.293 HD
ENDBRANCH  17  20
ENDBRANCH   1  12
BRANCH   6  22
ATOM     22  O   UNL     1     -47.591 -40.800 -15.806  1.00  0.00    -0.507 OA
ATOM     23  H   UNL     1     -48.304 -41.448 -16.102  1.00  0.00     0.293 HD
ENDBRANCH   6  22
BRANCH   8  24
ATOM     24  O   UNL     1     -45.054 -36.723 -15.755  1.00  0.00    -0.508 OA
ATOM     25  H   UNL     1     -45.046 -36.619 -14.746  1.00  0.00     0.293 HD
ENDBRANCH   8  24
TORSDOF 5
ENDMDL
MODEL 6
REMARK VINA RESULT:    -5.858      7.419      8.169
REMARK INTER + INTRA:          -7.151
REMARK INTER:                  -6.856
REMARK INTRA:                  -0.294
REMARK UNBOUND:                -0.265
REMARK SMILES O=c1cc(-c2ccc(O)c(O)c2)oc2cc(O)cc(O)c12
REMARK SMILES IDX 4 1 3 2 2 3 1 4 21 5 19 6 18 7 16 8 15 9 14 10 13 11 5 12
REMARK SMILES IDX 6 13 7 14 8 15 12 16 10 17 9 18 11 20 20 22 17 24
REMARK H PARENT 9 19 11 21 20 23 17 25
REMARK Flexibility Score: inf
ROOT
ATOM      1  C   UNL     1     -48.967 -40.753 -20.301  1.00  0.00     0.138 A 
ATOM      2  C   UNL     1     -48.945 -40.197 -19.014  1.00  0.00     0.100 A 
ATOM      3  C   UNL     1     -49.528 -38.948 -18.793  1.00  0.00     0.197 A 
ATOM      4  O   UNL     1     -49.438 -38.446 -17.642  1.00  0.00    -0.289 OA
ATOM      5  C   UNL     1     -50.163 -38.269 -19.859  1.00  0.00     0.107 A 
ATOM      6  C   UNL     1     -50.826 -37.010 -19.742  1.00  0.00     0.134 A 
ATOM      7  C   UNL     1     -51.317 -36.378 -20.890  1.00  0.00     0.093 A 
ATOM      8  C   UNL     1     -51.223 -36.989 -22.144  1.00  0.00     0.123 A 
ATOM      9  C   UNL     1     -50.626 -38.242 -22.261  1.00  0.00     0.094 A 
ATOM     10  C   UNL     1     -50.096 -38.881 -21.139  1.00  0.00     0.146 A 
ATOM     11  O   UNL     1     -49.522 -40.069 -21.297  1.00  0.00    -0.456 OA
ENDROOT
BRANCH   1  12
ATOM     12  C   UNL     1     -48.363 -42.077 -20.593  1.00  0.00     0.021 A 
ATOM     13  C   UNL     1     -48.666 -42.725 -21.803  1.00  0.00     0.016 A 
ATOM     14  C   UNL     1     -48.115 -43.975 -22.097  1.00  0.00     0.051 A 
ATOM     15  C   UNL     1     -47.264 -44.605 -21.186  1.00  0.00     0.157 A 
ATOM     16  C   UNL     1     -47.514 -42.722 -19.671  1.00  0.00     0.062 A 
ATOM     17  C   UNL     1     -46.963 -43.978 -19.965  1.00  0.00     0.158 A 
BRANCH  15  18
ATOM     18  O   UNL     1     -46.729 -45.852 -21.509  1.00  0.00    -0.504 OA
ATOM     19  H   UNL     1     -47.314 -46.667 -21.654  1.00  0.00     0.293 HD
ENDBRANCH  15  18
BRANCH  17  20
ATOM     20  O   UNL     1     -46.123 -44.607 -19.048  1.00  0.00    -0.504 OA
ATOM     21  H   UNL     1     -46.004 -44.253 -18.106  1.00  0.00     0.293 HD
ENDBRANCH  17  20
ENDBRANCH   1  12
BRANCH   6  22
ATOM     22  O   UNL     1     -51.048 -36.356 -18.526  1.00  0.00    -0.507 OA
ATOM     23  H   UNL     1     -51.771 -36.594 -17.867  1.00  0.00     0.293 HD
ENDBRANCH   6  22
BRANCH   8  24
ATOM     24  O   UNL     1     -51.728 -36.360 -23.280  1.00  0.00    -0.508 OA
ATOM     25  H   UNL     1     -51.919 -35.364 -23.295  1.00  0.00     0.293 HD
ENDBRANCH   8  24
TORSDOF 5
ENDMDL
MODEL 7
REMARK VINA RESULT:    -5.801      8.894     11.154
REMARK INTER + INTRA:          -7.084
REMARK INTER:                  -6.778
REMARK INTRA:                  -0.306
REMARK UNBOUND:                -0.265
REMARK SMILES O=c1cc(-c2ccc(O)c(O)c2)oc2cc(O)cc(O)c12
REMARK SMILES IDX 4 1 3 2 2 3 1 4 21 5 19 6 18 7 16 8 15 9 14 10 13 11 5 12
REMARK SMILES IDX 6 13 7 14 8 15 12 16 10 17 9 18 11 20 20 22 17 24
REMARK H PARENT 9 19 11 21 20 23 17 25
REMARK Flexibility Score: inf
ROOT
ATOM      1  C   UNL     1     -50.445 -36.459 -21.248  1.00  0.00     0.138 A 
ATOM      2  C   UNL     1     -49.954 -36.994 -22.447  1.00  0.00     0.100 A 
ATOM      3  C   UNL     1     -50.841 -37.310 -23.477  1.00  0.00     0.197 A 
ATOM      4  O   UNL     1     -50.378 -37.847 -24.517  1.00  0.00    -0.289 OA
ATOM      5  C   UNL     1     -52.225 -37.060 -23.315  1.00  0.00     0.107 A 
ATOM      6  C   UNL     1     -53.217 -37.304 -24.311  1.00  0.00     0.134 A 
ATOM      7  C   UNL     1     -54.570 -37.127 -23.997  1.00  0.00     0.093 A 
ATOM      8  C   UNL     1     -54.961 -36.656 -22.740  1.00  0.00     0.123 A 
ATOM      9  C   UNL     1     -53.997 -36.363 -21.779  1.00  0.00     0.094 A 
ATOM     10  C   UNL     1     -52.642 -36.562 -22.052  1.00  0.00     0.146 A 
ATOM     11  O   UNL     1     -51.755 -36.285 -21.102  1.00  0.00    -0.456 OA
ENDROOT
BRANCH   1  12
ATOM     12  C   UNL     1     -49.547 -36.104 -20.121  1.00  0.00     0.021 A 
ATOM     13  C   UNL     1     -48.355 -36.825 -19.933  1.00  0.00     0.016 A 
ATOM     14  C   UNL     1     -47.497 -36.515 -18.875  1.00  0.00     0.051 A 
ATOM     15  C   UNL     1     -47.817 -35.490 -17.982  1.00  0.00     0.157 A 
ATOM     16  C   UNL     1     -49.872 -35.080 -19.210  1.00  0.00     0.062 A 
ATOM     17  C   UNL     1     -49.012 -34.770 -18.147  1.00  0.00     0.158 A 
BRANCH  15  18
ATOM     18  O   UNL     1     -46.939 -35.203 -16.936  1.00  0.00    -0.504 OA
ATOM     19  H   UNL     1     -45.934 -35.273 -17.044  1.00  0.00     0.293 HD
ENDBRANCH  15  18
BRANCH  17  20
ATOM     20  O   UNL     1     -49.342 -33.753 -17.252  1.00  0.00    -0.504 OA
ATOM     21  H   UNL     1     -49.489 -32.800 -17.562  1.00  0.00     0.293 HD
ENDBRANCH  17  20
ENDBRANCH   1  12
BRANCH   6  22
ATOM     22  O   UNL     1     -52.927 -37.695 -25.622  1.00  0.00    -0.507 OA
ATOM     23  H   UNL     1     -52.035 -37.574 -26.076  1.00  0.00     0.293 HD
ENDBRANCH   6  22
BRANCH   8  24
ATOM     24  O   UNL     1     -56.309 -36.468 -22.441  1.00  0.00    -0.508 OA
ATOM     25  H   UNL     1     -56.908 -35.897 -23.027  1.00  0.00     0.293 HD
ENDBRANCH   8  24
TORSDOF 5
ENDMDL
MODEL 8
REMARK VINA RESULT:    -5.776      3.182      4.780
REMARK INTER + INTRA:          -7.054
REMARK INTER:                  -6.745
REMARK INTRA:                  -0.309
REMARK UNBOUND:                -0.265
REMARK SMILES O=c1cc(-c2ccc(O)c(O)c2)oc2cc(O)cc(O)c12
REMARK SMILES IDX 4 1 3 2 2 3 1 4 21 5 19 6 18 7 16 8 15 9 14 10 13 11 5 12
REMARK SMILES IDX 6 13 7 14 8 15 12 16 10 17 9 18 11 20 20 22 17 24
REMARK H PARENT 9 19 11 21 20 23 17 25
REMARK Flexibility Score: inf
ROOT
ATOM      1  C   UNL     1     -43.790 -37.882 -20.106  1.00  0.00     0.138 A 
ATOM      2  C   UNL     1     -43.562 -39.081 -20.797  1.00  0.00     0.100 A 
ATOM      3  C   UNL     1     -42.262 -39.425 -21.170  1.00  0.00     0.197 A 
ATOM      4  O   UNL     1     -42.096 -40.476 -21.843  1.00  0.00    -0.289 OA
ATOM      5  C   UNL     1     -41.182 -38.579 -20.824  1.00  0.00     0.107 A 
ATOM      6  C   UNL     1     -39.811 -38.848 -21.117  1.00  0.00     0.134 A 
ATOM      7  C   UNL     1     -38.841 -37.881 -20.828  1.00  0.00     0.093 A 
ATOM      8  C   UNL     1     -39.185 -36.680 -20.201  1.00  0.00     0.123 A 
ATOM      9  C   UNL     1     -40.513 -36.431 -19.862  1.00  0.00     0.094 A 
ATOM     10  C   UNL     1     -41.508 -37.361 -20.168  1.00  0.00     0.146 A 
ATOM     11  O   UNL     1     -42.764 -37.078 -19.841  1.00  0.00    -0.456 OA
ENDROOT
BRANCH   1  12
ATOM     12  C   UNL     1     -45.151 -37.467 -19.684  1.00  0.00     0.021 A 
ATOM     13  C   UNL     1     -46.270 -37.952 -20.382  1.00  0.00     0.016 A 
ATOM     14  C   UNL     1     -47.561 -37.570 -20.009  1.00  0.00     0.051 A 
ATOM     15  C   UNL     1     -47.757 -36.690 -18.942  1.00  0.00     0.157 A 
ATOM     16  C   UNL     1     -45.353 -36.569 -18.617  1.00  0.00     0.062 A 
ATOM     17  C   UNL     1     -46.648 -36.183 -18.244  1.00  0.00     0.158 A 
BRANCH  15  18
ATOM     18  O   UNL     1     -49.058 -36.328 -18.592  1.00  0.00    -0.504 OA
ATOM     19  H   UNL     1     -49.867 -36.835 -18.931  1.00  0.00     0.293 HD
ENDBRANCH  15  18
BRANCH  17  20
ATOM     20  O   UNL     1     -46.837 -35.296 -17.185  1.00  0.00    -0.504 OA
ATOM     21  H   UNL     1     -47.758 -35.107 -16.808  1.00  0.00     0.293 HD
ENDBRANCH  17  20
ENDBRANCH   1  12
BRANCH   6  22
ATOM     22  O   UNL     1     -39.352 -40.050 -21.664  1.00  0.00    -0.507 OA
ATOM     23  H   UNL     1     -38.630 -40.127 -22.362  1.00  0.00     0.293 HD
ENDBRANCH   6  22
BRANCH   8  24
ATOM     24  O   UNL     1     -38.210 -35.730 -19.903  1.00  0.00    -0.508 OA
ATOM     25  H   UNL     1     -38.279 -35.138 -19.083  1.00  0.00     0.293 HD
ENDBRANCH   8  24
TORSDOF 5
ENDMDL
MODEL 9
REMARK VINA RESULT:    -5.756      6.458      7.014
REMARK INTER + INTRA:          -7.031
REMARK INTER:                  -6.714
REMARK INTRA:                  -0.316
REMARK UNBOUND:                -0.265
REMARK SMILES O=c1cc(-c2ccc(O)c(O)c2)oc2cc(O)cc(O)c12
REMARK SMILES IDX 4 1 3 2 2 3 1 4 21 5 19 6 18 7 16 8 15 9 14 10 13 11 5 12
REMARK SMILES IDX 6 13 7 14 8 15 12 16 10 17 9 18 11 20 20 22 17 24
REMARK H PARENT 9 19 11 21 20 23 17 25
REMARK Flexibility Score: inf
ROOT
ATOM      1  C   UNL     1     -47.708 -40.315 -21.495  1.00  0.00     0.138 A 
ATOM      2  C   UNL     1     -47.463 -39.592 -22.671  1.00  0.00     0.100 A 
ATOM      3  C   UNL     1     -47.975 -38.301 -22.806  1.00  0.00     0.197 A 
ATOM      4  O   UNL     1     -47.791 -37.700 -23.897  1.00  0.00    -0.289 OA
ATOM      5  C   UNL     1     -48.711 -37.721 -21.746  1.00  0.00     0.107 A 
ATOM      6  C   UNL     1     -49.247 -36.398 -21.756  1.00  0.00     0.134 A 
ATOM      7  C   UNL     1     -50.058 -35.973 -20.697  1.00  0.00     0.093 A 
ATOM      8  C   UNL     1     -50.303 -36.803 -19.600  1.00  0.00     0.123 A 
ATOM      9  C   UNL     1     -49.740 -38.076 -19.555  1.00  0.00     0.094 A 
ATOM     10  C   UNL     1     -48.955 -38.541 -20.612  1.00  0.00     0.146 A 
ATOM     11  O   UNL     1     -48.449 -39.767 -20.537  1.00  0.00    -0.456 OA
ENDROOT
BRANCH   1  12
ATOM     12  C   UNL     1     -47.187 -41.691 -21.298  1.00  0.00     0.021 A 
ATOM     13  C   UNL     1     -46.247 -42.211 -22.203  1.00  0.00     0.016 A 
ATOM     14  C   UNL     1     -45.747 -43.506 -22.042  1.00  0.00     0.051 A 
ATOM     15  C   UNL     1     -46.184 -44.307 -20.985  1.00  0.00     0.157 A 
ATOM     16  C   UNL     1     -47.635 -42.507 -20.240  1.00  0.00     0.062 A 
ATOM     17  C   UNL     1     -47.136 -43.808 -20.080  1.00  0.00     0.158 A 
BRANCH  15  18
ATOM     18  O   UNL     1     -45.666 -45.595 -20.850  1.00  0.00    -0.504 OA
ATOM     19  H   UNL     1     -45.288 -45.934 -19.973  1.00  0.00     0.293 HD
ENDBRANCH  15  18
BRANCH  17  20
ATOM     20  O   UNL     1     -47.584 -44.606 -19.028  1.00  0.00    -0.504 OA
ATOM     21  H   UNL     1     -47.732 -45.601 -19.142  1.00  0.00     0.293 HD
ENDBRANCH  17  20
ENDBRANCH   1  12
BRANCH   6  22
ATOM     22  O   UNL     1     -48.993 -35.461 -22.763  1.00  0.00    -0.507 OA
ATOM     23  H   UNL     1     -48.170 -34.882 -22.817  1.00  0.00     0.293 HD
ENDBRANCH   6  22
BRANCH   8  24
ATOM     24  O   UNL     1     -51.099 -36.367 -18.543  1.00  0.00    -0.508 OA
ATOM     25  H   UNL     1     -51.388 -36.996 -17.802  1.00  0.00     0.293 HD
ENDBRANCH   8  24
TORSDOF 5
ENDMDL
