MODEL 1
REMARK VINA RESULT:    -4.260      0.000      0.000
REMARK INTER + INTRA:         -13.995
REMARK INTER:                 -10.735
REMARK INTRA:                  -3.260
REMARK UNBOUND:                -3.260
REMARK SMILES CCCCCCCCCCCCCCCCCCCCCCCCCCCC(=O)[O-]
REMARK SMILES IDX 15 1 16 2 17 3 18 4 19 5 20 6 21 7 22 8 23 9 24 10 25 11
REMARK SMILES IDX 26 12 27 13 28 14 29 15 30 16 14 17 13 18 12 19 11 20 10 21
REMARK SMILES IDX 9 22 8 23 7 24 6 25 5 26 4 27 3 28 2 29 1 30
REMARK H PARENT
REMARK Flexibility Score: inf
ROOT
ATOM      1  C   UNL     1       4.183  -0.808   6.565  1.00  0.00     0.000 C 
ENDROOT
BRANCH   1   2
ATOM      2  C   UNL     1       3.919  -1.767   5.383  1.00  0.00     0.000 C 
BRANCH   2   3
ATOM      3  C   UNL     1       5.181  -2.015   4.537  1.00  0.00     0.000 C 
BRANCH   3   4
ATOM      4  C   UNL     1       6.188  -2.943   5.238  1.00  0.00     0.000 C 
BRANCH   4   5
ATOM      5  C   UNL     1       6.153  -4.378   4.683  1.00  0.00     0.000 C 
BRANCH   5   6
ATOM      6  C   UNL     1       7.336  -4.683   3.746  1.00  0.00     0.000 C 
BRANCH   6   7
ATOM      7  C   UNL     1       7.436  -6.152   3.301  1.00  0.00     0.000 C 
BRANCH   7   8
ATOM      8  C   UNL     1       6.778  -7.123   4.300  1.00  0.00     0.000 C 
BRANCH   8   9
ATOM      9  C   UNL     1       5.781  -8.081   3.613  1.00  0.00     0.000 C 
BRANCH   9  10
ATOM     10  C   UNL     1       4.560  -8.428   4.482  1.00  0.00     0.000 C 
BRANCH  10  11
ATOM     11  C   UNL     1       3.843  -7.181   5.028  1.00  0.00     0.000 C 
BRANCH  11  12
ATOM     12  C   UNL     1       2.329  -7.208   4.768  1.00  0.00     0.006 C 
BRANCH  12  13
ATOM     13  C   UNL     1       1.850  -8.541   4.175  1.00  0.00     0.053 C 
BRANCH  13  14
ATOM     14  C   UNL     1       0.394  -8.751   4.459  1.00  0.00     0.041 C 
ATOM     15  O   UNL     1       0.013  -9.772   5.095  1.00  0.00    -0.550 OA
ATOM     16  O   UNL     1      -0.540  -7.804   4.056  1.00  0.00    -0.550 OA
ENDBRANCH  13  14
ENDBRANCH  12  13
ENDBRANCH  11  12
ENDBRANCH  10  11
ENDBRANCH   9  10
ENDBRANCH   8   9
ENDBRANCH   7   8
ENDBRANCH   6   7
ENDBRANCH   5   6
ENDBRANCH   4   5
ENDBRANCH   3   4
ENDBRANCH   2   3
ENDBRANCH   1   2
BRANCH   1  17
ATOM     17  C   UNL     1       5.087   0.390   6.214  1.00  0.00     0.000 C 
BRANCH  17  18
ATOM     18  C   UNL     1       6.367   0.517   7.058  1.00  0.00     0.000 C 
BRANCH  18  19
ATOM     19  C   UNL     1       7.651   0.389   6.219  1.00  0.00     0.000 C 
BRANCH  19  20
ATOM     20  C   UNL     1       7.495   0.964   4.800  1.00  0.00     0.000 C 
BRANCH  20  21
ATOM     21  C   UNL     1       8.776   1.572   4.194  1.00  0.00     0.000 C 
BRANCH  21  22
ATOM     22  C   UNL     1       9.841   2.020   5.216  1.00  0.00    -0.000 C 
BRANCH  22  23
ATOM     23  C   UNL     1       9.828   3.524   5.551  1.00  0.00    -0.000 C 
BRANCH  23  24
ATOM     24  C   UNL     1       8.736   3.955   6.550  1.00  0.00    -0.000 C 
BRANCH  24  25
ATOM     25  C   UNL     1       7.583   4.753   5.902  1.00  0.00    -0.000 C 
BRANCH  25  26
ATOM     26  C   UNL     1       6.201   4.197   6.284  1.00  0.00    -0.000 C 
BRANCH  26  27
ATOM     27  C   UNL     1       5.291   3.977   5.067  1.00  0.00    -0.000 C 
BRANCH  27  28
ATOM     28  C   UNL     1       3.839   4.405   5.324  1.00  0.00    -0.000 C 
BRANCH  28  29
ATOM     29  C   UNL     1       3.762   5.445   6.446  1.00  0.00    -0.003 C 
ATOM     30  C   UNL     1       3.695   6.862   5.880  1.00  0.00     0.004 C 
ENDBRANCH  28  29
ENDBRANCH  27  28
ENDBRANCH  26  27
ENDBRANCH  25  26
ENDBRANCH  24  25
ENDBRANCH  23  24
ENDBRANCH  22  23
ENDBRANCH  21  22
ENDBRANCH  20  21
ENDBRANCH  19  20
ENDBRANCH  18  19
ENDBRANCH  17  18
ENDBRANCH   1  17
TORSDOF 26
ENDMDL
MODEL 2
REMARK VINA RESULT:    -4.142      3.640     10.058
REMARK INTER + INTRA:         -13.697
REMARK INTER:                  -9.701
REMARK INTRA:                  -3.996
REMARK UNBOUND:                -3.260
REMARK SMILES CCCCCCCCCCCCCCCCCCCCCCCCCCCC(=O)[O-]
REMARK SMILES IDX 15 1 16 2 17 3 18 4 19 5 20 6 21 7 22 8 23 9 24 10 25 11
REMARK SMILES IDX 26 12 27 13 28 14 29 15 30 16 14 17 13 18 12 19 11 20 10 21
REMARK SMILES IDX 9 22 8 23 7 24 6 25 5 26 4 27 3 28 2 29 1 30
REMARK H PARENT
REMARK Flexibility Score: inf
ROOT
ATOM      1  C   UNL     1       3.763  -2.142   6.491  1.00  0.00     0.000 C 
ENDROOT
BRANCH   1   2
ATOM      2  C   UNL     1       4.141  -2.196   4.995  1.00  0.00     0.000 C 
BRANCH   2   3
ATOM      3  C   UNL     1       5.634  -1.907   4.757  1.00  0.00     0.000 C 
BRANCH   3   4
ATOM      4  C   UNL     1       6.507  -2.277   5.967  1.00  0.00     0.000 C 
BRANCH   4   5
ATOM      5  C   UNL     1       7.998  -2.405   5.603  1.00  0.00     0.000 C 
BRANCH   5   6
ATOM      6  C   UNL     1       8.838  -1.220   6.114  1.00  0.00     0.000 C 
BRANCH   6   7
ATOM      7  C   UNL     1       9.513  -0.392   5.006  1.00  0.00     0.000 C 
BRANCH   7   8
ATOM      8  C   UNL     1       8.760   0.915   4.697  1.00  0.00     0.000 C 
BRANCH   8   9
ATOM      9  C   UNL     1       7.874   1.372   5.875  1.00  0.00     0.000 C 
BRANCH   9  10
ATOM     10  C   UNL     1       6.399   1.583   5.494  1.00  0.00     0.000 C 
BRANCH  10  11
ATOM     11  C   UNL     1       5.432   1.240   6.640  1.00  0.00     0.000 C 
BRANCH  11  12
ATOM     12  C   UNL     1       4.054   1.899   6.470  1.00  0.00     0.006 C 
BRANCH  12  13
ATOM     13  C   UNL     1       4.119   3.433   6.510  1.00  0.00     0.053 C 
BRANCH  13  14
ATOM     14  C   UNL     1       3.606   4.016   5.228  1.00  0.00     0.041 C 
ATOM     15  O   UNL     1       3.337   3.264   4.252  1.00  0.00    -0.550 OA
ATOM     16  O   UNL     1       3.389   5.385   5.121  1.00  0.00    -0.550 OA
ENDBRANCH  13  14
ENDBRANCH  12  13
ENDBRANCH  11  12
ENDBRANCH  10  11
ENDBRANCH   9  10
ENDBRANCH   8   9
ENDBRANCH   7   8
ENDBRANCH   6   7
ENDBRANCH   5   6
ENDBRANCH   4   5
ENDBRANCH   3   4
ENDBRANCH   2   3
ENDBRANCH   1   2
BRANCH   1  17
ATOM     17  C   UNL     1       2.903  -3.331   6.966  1.00  0.00     0.000 C 
BRANCH  17  18
ATOM     18  C   UNL     1       2.008  -3.967   5.887  1.00  0.00     0.000 C 
BRANCH  18  19
ATOM     19  C   UNL     1       1.003  -4.979   6.466  1.00  0.00     0.000 C 
BRANCH  19  20
ATOM     20  C   UNL     1       0.626  -6.083   5.464  1.00  0.00     0.000 C 
BRANCH  20  21
ATOM     21  C   UNL     1       0.366  -7.471   6.083  1.00  0.00     0.000 C 
BRANCH  21  22
ATOM     22  C   UNL     1       1.054  -8.652   5.369  1.00  0.00    -0.000 C 
BRANCH  22  23
ATOM     23  C   UNL     1       1.937  -8.260   4.169  1.00  0.00    -0.000 C 
BRANCH  23  24
ATOM     24  C   UNL     1       3.286  -9.001   4.088  1.00  0.00    -0.000 C 
BRANCH  24  25
ATOM     25  C   UNL     1       4.508  -8.094   4.354  1.00  0.00    -0.000 C 
BRANCH  25  26
ATOM     26  C   UNL     1       4.135  -6.826   5.140  1.00  0.00    -0.000 C 
BRANCH  26  27
ATOM     27  C   UNL     1       5.300  -5.832   5.253  1.00  0.00    -0.000 C 
BRANCH  27  28
ATOM     28  C   UNL     1       6.549  -6.288   4.485  1.00  0.00    -0.000 C 
BRANCH  28  29
ATOM     29  C   UNL     1       7.100  -5.157   3.610  1.00  0.00    -0.003 C 
ATOM     30  C   UNL     1       8.051  -5.698   2.546  1.00  0.00     0.004 C 
ENDBRANCH  28  29
ENDBRANCH  27  28
ENDBRANCH  26  27
ENDBRANCH  25  26
ENDBRANCH  24  25
ENDBRANCH  23  24
ENDBRANCH  22  23
ENDBRANCH  21  22
ENDBRANCH  20  21
ENDBRANCH  19  20
ENDBRANCH  18  19
ENDBRANCH  17  18
ENDBRANCH   1  17
TORSDOF 26
ENDMDL
MODEL 3
REMARK VINA RESULT:    -4.126      3.669     10.056
REMARK INTER + INTRA:         -13.656
REMARK INTER:                  -9.909
REMARK INTRA:                  -3.747
REMARK UNBOUND:                -3.260
REMARK SMILES CCCCCCCCCCCCCCCCCCCCCCCCCCCC(=O)[O-]
REMARK SMILES IDX 15 1 16 2 17 3 18 4 19 5 20 6 21 7 22 8 23 9 24 10 25 11
REMARK SMILES IDX 26 12 27 13 28 14 29 15 30 16 14 17 13 18 12 19 11 20 10 21
REMARK SMILES IDX 9 22 8 23 7 24 6 25 5 26 4 27 3 28 2 29 1 30
REMARK H PARENT
REMARK Flexibility Score: inf
ROOT
ATOM      1  C   UNL     1       0.735  -4.183   5.867  1.00  0.00     0.000 C 
ENDROOT
BRANCH   1   2
ATOM      2  C   UNL     1       1.334  -3.329   7.005  1.00  0.00     0.000 C 
BRANCH   2   3
ATOM      3  C   UNL     1       2.867  -3.446   7.082  1.00  0.00     0.000 C 
BRANCH   3   4
ATOM      4  C   UNL     1       3.581  -2.180   6.581  1.00  0.00     0.000 C 
BRANCH   4   5
ATOM      5  C   UNL     1       3.868  -2.223   5.069  1.00  0.00     0.000 C 
BRANCH   5   6
ATOM      6  C   UNL     1       5.343  -1.933   4.735  1.00  0.00     0.000 C 
BRANCH   6   7
ATOM      7  C   UNL     1       6.199  -1.512   5.942  1.00  0.00     0.000 C 
BRANCH   7   8
ATOM      8  C   UNL     1       7.662  -1.217   5.561  1.00  0.00     0.000 C 
BRANCH   8   9
ATOM      9  C   UNL     1       8.072   0.233   5.899  1.00  0.00     0.000 C 
BRANCH   9  10
ATOM     10  C   UNL     1       7.614   1.264   4.853  1.00  0.00     0.000 C 
BRANCH  10  11
ATOM     11  C   UNL     1       7.033   2.539   5.489  1.00  0.00     0.000 C 
BRANCH  11  12
ATOM     12  C   UNL     1       5.535   2.412   5.805  1.00  0.00     0.006 C 
BRANCH  12  13
ATOM     13  C   UNL     1       4.858   3.772   6.034  1.00  0.00     0.053 C 
BRANCH  13  14
ATOM     14  C   UNL     1       3.970   4.120   4.877  1.00  0.00     0.041 C 
ATOM     15  O   UNL     1       4.026   5.268   4.358  1.00  0.00    -0.550 OA
ATOM     16  O   UNL     1       3.108   3.167   4.347  1.00  0.00    -0.550 OA
ENDBRANCH  13  14
ENDBRANCH  12  13
ENDBRANCH  11  12
ENDBRANCH  10  11
ENDBRANCH   9  10
ENDBRANCH   8   9
ENDBRANCH   7   8
ENDBRANCH   6   7
ENDBRANCH   5   6
ENDBRANCH   4   5
ENDBRANCH   3   4
ENDBRANCH   2   3
ENDBRANCH   1   2
BRANCH   1  17
ATOM     17  C   UNL     1       1.500  -5.494   5.595  1.00  0.00     0.000 C 
BRANCH  17  18
ATOM     18  C   UNL     1       1.000  -6.721   6.377  1.00  0.00     0.000 C 
BRANCH  18  19
ATOM     19  C   UNL     1       1.671  -8.030   5.926  1.00  0.00     0.000 C 
BRANCH  19  20
ATOM     20  C   UNL     1       1.845  -8.116   4.400  1.00  0.00     0.000 C 
BRANCH  20  21
ATOM     21  C   UNL     1       2.750  -9.262   3.906  1.00  0.00     0.000 C 
BRANCH  21  22
ATOM     22  C   UNL     1       4.215  -8.871   3.624  1.00  0.00    -0.000 C 
BRANCH  22  23
ATOM     23  C   UNL     1       5.234  -9.372   4.666  1.00  0.00    -0.000 C 
BRANCH  23  24
ATOM     24  C   UNL     1       6.192  -8.293   5.206  1.00  0.00    -0.000 C 
BRANCH  24  25
ATOM     25  C   UNL     1       5.533  -7.328   6.216  1.00  0.00    -0.000 C 
BRANCH  25  26
ATOM     26  C   UNL     1       5.196  -5.965   5.588  1.00  0.00    -0.000 C 
BRANCH  26  27
ATOM     27  C   UNL     1       6.093  -5.625   4.390  1.00  0.00    -0.000 C 
BRANCH  27  28
ATOM     28  C   UNL     1       7.379  -4.892   4.797  1.00  0.00    -0.000 C 
BRANCH  28  29
ATOM     29  C   UNL     1       8.398  -4.890   3.653  1.00  0.00    -0.003 C 
ATOM     30  C   UNL     1       7.879  -5.679   2.453  1.00  0.00     0.004 C 
ENDBRANCH  28  29
ENDBRANCH  27  28
ENDBRANCH  26  27
ENDBRANCH  25  26
ENDBRANCH  24  25
ENDBRANCH  23  24
ENDBRANCH  22  23
ENDBRANCH  21  22
ENDBRANCH  20  21
ENDBRANCH  19  20
ENDBRANCH  18  19
ENDBRANCH  17  18
ENDBRANCH   1  17
TORSDOF 26
ENDMDL
MODEL 4
REMARK VINA RESULT:    -4.115      3.192      5.983
REMARK INTER + INTRA:         -13.631
REMARK INTER:                 -10.154
REMARK INTRA:                  -3.476
REMARK UNBOUND:                -3.260
REMARK SMILES CCCCCCCCCCCCCCCCCCCCCCCCCCCC(=O)[O-]
REMARK SMILES IDX 15 1 16 2 17 3 18 4 19 5 20 6 21 7 22 8 23 9 24 10 25 11
REMARK SMILES IDX 26 12 27 13 28 14 29 15 30 16 14 17 13 18 12 19 11 20 10 21
REMARK SMILES IDX 9 22 8 23 7 24 6 25 5 26 4 27 3 28 2 29 1 30
REMARK H PARENT
REMARK Flexibility Score: inf
ROOT
ATOM      1  C   UNL     1       2.328  -3.996   6.037  1.00  0.00     0.000 C 
ENDROOT
BRANCH   1   2
ATOM      2  C   UNL     1       1.263  -5.059   5.693  1.00  0.00     0.000 C 
BRANCH   2   3
ATOM      3  C   UNL     1       1.889  -6.409   5.298  1.00  0.00     0.000 C 
BRANCH   3   4
ATOM      4  C   UNL     1       0.844  -7.419   4.795  1.00  0.00     0.000 C 
BRANCH   4   5
ATOM      5  C   UNL     1       1.485  -8.642   4.114  1.00  0.00     0.000 C 
BRANCH   5   6
ATOM      6  C   UNL     1       2.949  -8.860   4.538  1.00  0.00     0.000 C 
BRANCH   6   7
ATOM      7  C   UNL     1       3.860  -9.407   3.425  1.00  0.00     0.000 C 
BRANCH   7   8
ATOM      8  C   UNL     1       5.281  -8.815   3.475  1.00  0.00     0.000 C 
BRANCH   8   9
ATOM      9  C   UNL     1       5.350  -7.530   4.328  1.00  0.00     0.000 C 
BRANCH   9  10
ATOM     10  C   UNL     1       6.718  -6.827   4.277  1.00  0.00     0.000 C 
BRANCH  10  11
ATOM     11  C   UNL     1       7.007  -6.184   2.910  1.00  0.00     0.000 C 
BRANCH  11  12
ATOM     12  C   UNL     1       8.388  -5.512   2.853  1.00  0.00     0.006 C 
BRANCH  12  13
ATOM     13  C   UNL     1       8.848  -4.981   4.218  1.00  0.00     0.053 C 
BRANCH  13  14
ATOM     14  C   UNL     1       8.973  -3.487   4.187  1.00  0.00     0.041 C 
ATOM     15  O   UNL     1       9.933  -2.943   3.574  1.00  0.00    -0.550 OA
ATOM     16  O   UNL     1       8.012  -2.693   4.802  1.00  0.00    -0.550 OA
ENDBRANCH  13  14
ENDBRANCH  12  13
ENDBRANCH  11  12
ENDBRANCH  10  11
ENDBRANCH   9  10
ENDBRANCH   8   9
ENDBRANCH   7   8
ENDBRANCH   6   7
ENDBRANCH   5   6
ENDBRANCH   4   5
ENDBRANCH   3   4
ENDBRANCH   2   3
ENDBRANCH   1   2
BRANCH   1  17
ATOM     17  C   UNL     1       3.761  -4.552   6.144  1.00  0.00     0.000 C 
BRANCH  17  18
ATOM     18  C   UNL     1       4.854  -3.680   5.501  1.00  0.00     0.000 C 
BRANCH  18  19
ATOM     19  C   UNL     1       4.290  -2.423   4.817  1.00  0.00     0.000 C 
BRANCH  19  20
ATOM     20  C   UNL     1       4.769  -1.119   5.477  1.00  0.00     0.000 C 
BRANCH  20  21
ATOM     21  C   UNL     1       5.239  -1.257   6.939  1.00  0.00     0.000 C 
BRANCH  21  22
ATOM     22  C   UNL     1       4.446  -0.425   7.968  1.00  0.00    -0.000 C 
BRANCH  22  23
ATOM     23  C   UNL     1       3.107   0.138   7.455  1.00  0.00    -0.000 C 
BRANCH  23  24
ATOM     24  C   UNL     1       3.030   1.677   7.400  1.00  0.00    -0.000 C 
BRANCH  24  25
ATOM     25  C   UNL     1       3.583   2.279   6.090  1.00  0.00    -0.000 C 
BRANCH  25  26
ATOM     26  C   UNL     1       4.399   3.560   6.335  1.00  0.00    -0.000 C 
BRANCH  26  27
ATOM     27  C   UNL     1       5.789   3.513   5.682  1.00  0.00    -0.000 C 
BRANCH  27  28
ATOM     28  C   UNL     1       6.299   2.081   5.470  1.00  0.00    -0.000 C 
BRANCH  28  29
ATOM     29  C   UNL     1       7.826   2.054   5.345  1.00  0.00    -0.003 C 
ATOM     30  C   UNL     1       8.397   0.736   5.863  1.00  0.00     0.004 C 
ENDBRANCH  28  29
ENDBRANCH  27  28
ENDBRANCH  26  27
ENDBRANCH  25  26
ENDBRANCH  24  25
ENDBRANCH  23  24
ENDBRANCH  22  23
ENDBRANCH  21  22
ENDBRANCH  20  21
ENDBRANCH  19  20
ENDBRANCH  18  19
ENDBRANCH  17  18
ENDBRANCH   1  17
TORSDOF 26
ENDMDL
MODEL 5
REMARK VINA RESULT:    -4.115      1.458      3.573
REMARK INTER + INTRA:         -13.629
REMARK INTER:                 -10.607
REMARK INTRA:                  -3.021
REMARK UNBOUND:                -3.260
REMARK SMILES CCCCCCCCCCCCCCCCCCCCCCCCCCCC(=O)[O-]
REMARK SMILES IDX 15 1 16 2 17 3 18 4 19 5 20 6 21 7 22 8 23 9 24 10 25 11
REMARK SMILES IDX 26 12 27 13 28 14 29 15 30 16 14 17 13 18 12 19 11 20 10 21
REMARK SMILES IDX 9 22 8 23 7 24 6 25 5 26 4 27 3 28 2 29 1 30
REMARK H PARENT
REMARK Flexibility Score: inf
ROOT
ATOM      1  C   UNL     1       4.136  -0.487   6.859  1.00  0.00     0.000 C 
ENDROOT
BRANCH   1   2
ATOM      2  C   UNL     1       3.845  -1.981   6.602  1.00  0.00     0.000 C 
BRANCH   2   3
ATOM      3  C   UNL     1       3.802  -2.321   5.101  1.00  0.00     0.000 C 
BRANCH   3   4
ATOM      4  C   UNL     1       5.162  -2.120   4.412  1.00  0.00     0.000 C 
BRANCH   4   5
ATOM      5  C   UNL     1       6.288  -2.932   5.078  1.00  0.00     0.000 C 
BRANCH   5   6
ATOM      6  C   UNL     1       6.384  -4.370   4.537  1.00  0.00     0.000 C 
BRANCH   6   7
ATOM      7  C   UNL     1       5.714  -5.433   5.426  1.00  0.00     0.000 C 
BRANCH   7   8
ATOM      8  C   UNL     1       5.342  -6.710   4.650  1.00  0.00     0.000 C 
BRANCH   8   9
ATOM      9  C   UNL     1       3.902  -7.179   4.952  1.00  0.00     0.000 C 
BRANCH   9  10
ATOM     10  C   UNL     1       3.036  -6.111   5.642  1.00  0.00     0.000 C 
BRANCH  10  11
ATOM     11  C   UNL     1       1.700  -6.671   6.161  1.00  0.00     0.000 C 
BRANCH  11  12
ATOM     12  C   UNL     1       0.569  -6.555   5.126  1.00  0.00     0.006 C 
BRANCH  12  13
ATOM     13  C   UNL     1       0.222  -7.900   4.472  1.00  0.00     0.053 C 
BRANCH  13  14
ATOM     14  C   UNL     1      -1.264  -8.082   4.397  1.00  0.00     0.041 C 
ATOM     15  O   UNL     1      -1.883  -7.814   3.331  1.00  0.00    -0.550 OA
ATOM     16  O   UNL     1      -1.962  -8.580   5.491  1.00  0.00    -0.550 OA
ENDBRANCH  13  14
ENDBRANCH  12  13
ENDBRANCH  11  12
ENDBRANCH  10  11
ENDBRANCH   9  10
ENDBRANCH   8   9
ENDBRANCH   7   8
ENDBRANCH   6   7
ENDBRANCH   5   6
ENDBRANCH   4   5
ENDBRANCH   3   4
ENDBRANCH   2   3
ENDBRANCH   1   2
BRANCH   1  17
ATOM     17  C   UNL     1       3.277   0.139   7.976  1.00  0.00     0.000 C 
BRANCH  17  18
ATOM     18  C   UNL     1       2.625   1.488   7.626  1.00  0.00     0.000 C 
BRANCH  18  19
ATOM     19  C   UNL     1       2.931   1.944   6.188  1.00  0.00     0.000 C 
BRANCH  19  20
ATOM     20  C   UNL     1       3.729   3.259   6.138  1.00  0.00     0.000 C 
BRANCH  20  21
ATOM     21  C   UNL     1       3.805   3.928   4.751  1.00  0.00     0.000 C 
BRANCH  21  22
ATOM     22  C   UNL     1       3.745   5.469   4.758  1.00  0.00    -0.000 C 
BRANCH  22  23
ATOM     23  C   UNL     1       4.249   6.133   6.054  1.00  0.00    -0.000 C 
BRANCH  23  24
ATOM     24  C   UNL     1       5.767   6.399   6.098  1.00  0.00    -0.000 C 
BRANCH  24  25
ATOM     25  C   UNL     1       6.520   5.524   7.125  1.00  0.00    -0.000 C 
BRANCH  25  26
ATOM     26  C   UNL     1       7.725   4.799   6.502  1.00  0.00    -0.000 C 
BRANCH  26  27
ATOM     27  C   UNL     1       7.310   3.655   5.566  1.00  0.00    -0.000 C 
BRANCH  27  28
ATOM     28  C   UNL     1       7.221   2.300   6.283  1.00  0.00    -0.000 C 
BRANCH  28  29
ATOM     29  C   UNL     1       7.150   1.148   5.276  1.00  0.00    -0.003 C 
ATOM     30  C   UNL     1       8.353   1.164   4.336  1.00  0.00     0.004 C 
ENDBRANCH  28  29
ENDBRANCH  27  28
ENDBRANCH  26  27
ENDBRANCH  25  26
ENDBRANCH  24  25
ENDBRANCH  23  24
ENDBRANCH  22  23
ENDBRANCH  21  22
ENDBRANCH  20  21
ENDBRANCH  19  20
ENDBRANCH  18  19
ENDBRANCH  17  18
ENDBRANCH   1  17
TORSDOF 26
ENDMDL
MODEL 6
REMARK VINA RESULT:    -4.080      3.655      9.520
REMARK INTER + INTRA:         -13.542
REMARK INTER:                  -8.648
REMARK INTRA:                  -4.894
REMARK UNBOUND:                -3.260
REMARK SMILES CCCCCCCCCCCCCCCCCCCCCCCCCCCC(=O)[O-]
REMARK SMILES IDX 15 1 16 2 17 3 18 4 19 5 20 6 21 7 22 8 23 9 24 10 25 11
REMARK SMILES IDX 26 12 27 13 28 14 29 15 30 16 14 17 13 18 12 19 11 20 10 21
REMARK SMILES IDX 9 22 8 23 7 24 6 25 5 26 4 27 3 28 2 29 1 30
REMARK H PARENT
REMARK Flexibility Score: inf
ROOT
ATOM      1  C   UNL     1       4.524  -3.488   5.121  1.00  0.00     0.000 C 
ENDROOT
BRANCH   1   2
ATOM      2  C   UNL     1       3.802  -2.128   5.243  1.00  0.00     0.000 C 
BRANCH   2   3
ATOM      3  C   UNL     1       3.793  -1.596   6.687  1.00  0.00     0.000 C 
BRANCH   3   4
ATOM      4  C   UNL     1       4.475  -0.223   6.814  1.00  0.00     0.000 C 
BRANCH   4   5
ATOM      5  C   UNL     1       5.745  -0.272   7.683  1.00  0.00     0.000 C 
BRANCH   5   6
ATOM      6  C   UNL     1       7.038  -0.269   6.847  1.00  0.00     0.000 C 
BRANCH   6   7
ATOM      7  C   UNL     1       6.847   0.148   5.378  1.00  0.00     0.000 C 
BRANCH   7   8
ATOM      8  C   UNL     1       7.176   1.632   5.133  1.00  0.00     0.000 C 
BRANCH   8   9
ATOM      9  C   UNL     1       7.992   2.249   6.289  1.00  0.00     0.000 C 
BRANCH   9  10
ATOM     10  C   UNL     1       7.422   3.582   6.806  1.00  0.00     0.000 C 
BRANCH  10  11
ATOM     11  C   UNL     1       6.148   3.398   7.649  1.00  0.00     0.000 C 
BRANCH  11  12
ATOM     12  C   UNL     1       4.999   4.310   7.191  1.00  0.00     0.006 C 
BRANCH  12  13
ATOM     13  C   UNL     1       3.829   3.529   6.576  1.00  0.00     0.053 C 
BRANCH  13  14
ATOM     14  C   UNL     1       3.807   3.698   5.086  1.00  0.00     0.041 C 
ATOM     15  O   UNL     1       2.877   3.190   4.404  1.00  0.00    -0.550 OA
ATOM     16  O   UNL     1       4.793   4.448   4.455  1.00  0.00    -0.550 OA
ENDBRANCH  13  14
ENDBRANCH  12  13
ENDBRANCH  11  12
ENDBRANCH  10  11
ENDBRANCH   9  10
ENDBRANCH   8   9
ENDBRANCH   7   8
ENDBRANCH   6   7
ENDBRANCH   5   6
ENDBRANCH   4   5
ENDBRANCH   3   4
ENDBRANCH   2   3
ENDBRANCH   1   2
BRANCH   1  17
ATOM     17  C   UNL     1       5.409  -3.840   6.333  1.00  0.00     0.000 C 
BRANCH  17  18
ATOM     18  C   UNL     1       6.911  -3.985   6.031  1.00  0.00     0.000 C 
BRANCH  18  19
ATOM     19  C   UNL     1       7.235  -3.836   4.534  1.00  0.00     0.000 C 
BRANCH  19  20
ATOM     20  C   UNL     1       7.411  -5.190   3.824  1.00  0.00     0.000 C 
BRANCH  20  21
ATOM     21  C   UNL     1       7.824  -6.361   4.737  1.00  0.00     0.000 C 
BRANCH  21  22
ATOM     22  C   UNL     1       6.783  -7.492   4.870  1.00  0.00    -0.000 C 
BRANCH  22  23
ATOM     23  C   UNL     1       5.351  -7.110   4.450  1.00  0.00    -0.000 C 
BRANCH  23  24
ATOM     24  C   UNL     1       4.243  -7.608   5.399  1.00  0.00    -0.000 C 
BRANCH  24  25
ATOM     25  C   UNL     1       2.834  -7.602   4.764  1.00  0.00    -0.000 C 
BRANCH  25  26
ATOM     26  C   UNL     1       1.985  -6.410   5.238  1.00  0.00    -0.000 C 
BRANCH  26  27
ATOM     27  C   UNL     1       2.314  -5.980   6.675  1.00  0.00    -0.000 C 
BRANCH  27  28
ATOM     28  C   UNL     1       1.630  -4.665   7.075  1.00  0.00    -0.000 C 
BRANCH  28  29
ATOM     29  C   UNL     1       0.755  -4.132   5.935  1.00  0.00    -0.003 C 
ATOM     30  C   UNL     1      -0.535  -3.517   6.473  1.00  0.00     0.004 C 
ENDBRANCH  28  29
ENDBRANCH  27  28
ENDBRANCH  26  27
ENDBRANCH  25  26
ENDBRANCH  24  25
ENDBRANCH  23  24
ENDBRANCH  22  23
ENDBRANCH  21  22
ENDBRANCH  20  21
ENDBRANCH  19  20
ENDBRANCH  18  19
ENDBRANCH  17  18
ENDBRANCH   1  17
TORSDOF 26
ENDMDL
MODEL 7
REMARK VINA RESULT:    -4.055      3.141      5.330
REMARK INTER + INTRA:         -13.477
REMARK INTER:                 -10.144
REMARK INTRA:                  -3.333
REMARK UNBOUND:                -3.260
REMARK SMILES CCCCCCCCCCCCCCCCCCCCCCCCCCCC(=O)[O-]
REMARK SMILES IDX 15 1 16 2 17 3 18 4 19 5 20 6 21 7 22 8 23 9 24 10 25 11
REMARK SMILES IDX 26 12 27 13 28 14 29 15 30 16 14 17 13 18 12 19 11 20 10 21
REMARK SMILES IDX 9 22 8 23 7 24 6 25 5 26 4 27 3 28 2 29 1 30
REMARK H PARENT
REMARK Flexibility Score: inf
ROOT
ATOM      1  C   UNL     1       1.018  -5.782   5.684  1.00  0.00     0.000 C 
ENDROOT
BRANCH   1   2
ATOM      2  C   UNL     1       1.931  -6.878   5.094  1.00  0.00     0.000 C 
BRANCH   2   3
ATOM      3  C   UNL     1       1.141  -8.121   4.647  1.00  0.00     0.000 C 
BRANCH   3   4
ATOM      4  C   UNL     1       2.018  -9.142   3.904  1.00  0.00     0.000 C 
BRANCH   4   5
ATOM      5  C   UNL     1       3.495  -8.713   3.835  1.00  0.00     0.000 C 
BRANCH   5   6
ATOM      6  C   UNL     1       4.459  -9.911   3.765  1.00  0.00     0.000 C 
BRANCH   6   7
ATOM      7  C   UNL     1       5.445 -10.006   4.943  1.00  0.00     0.000 C 
BRANCH   7   8
ATOM      8  C   UNL     1       4.815  -9.580   6.282  1.00  0.00     0.000 C 
BRANCH   8   9
ATOM      9  C   UNL     1       5.692  -8.561   7.042  1.00  0.00     0.000 C 
BRANCH   9  10
ATOM     10  C   UNL     1       5.091  -7.145   7.091  1.00  0.00     0.000 C 
BRANCH  10  11
ATOM     11  C   UNL     1       5.962  -6.103   6.368  1.00  0.00     0.000 C 
BRANCH  11  12
ATOM     12  C   UNL     1       5.685  -6.047   4.857  1.00  0.00     0.006 C 
BRANCH  12  13
ATOM     13  C   UNL     1       6.854  -6.582   4.017  1.00  0.00     0.053 C 
BRANCH  13  14
ATOM     14  C   UNL     1       7.518  -5.466   3.267  1.00  0.00     0.041 C 
ATOM     15  O   UNL     1       7.526  -4.298   3.744  1.00  0.00    -0.550 OA
ATOM     16  O   UNL     1       8.158  -5.721   2.060  1.00  0.00    -0.550 OA
ENDBRANCH  13  14
ENDBRANCH  12  13
ENDBRANCH  11  12
ENDBRANCH  10  11
ENDBRANCH   9  10
ENDBRANCH   8   9
ENDBRANCH   7   8
ENDBRANCH   6   7
ENDBRANCH   5   6
ENDBRANCH   4   5
ENDBRANCH   3   4
ENDBRANCH   2   3
ENDBRANCH   1   2
BRANCH   1  17
ATOM     17  C   UNL     1       1.727  -4.840   6.678  1.00  0.00     0.000 C 
BRANCH  17  18
ATOM     18  C   UNL     1       2.087  -3.451   6.124  1.00  0.00     0.000 C 
BRANCH  18  19
ATOM     19  C   UNL     1       3.592  -3.290   5.846  1.00  0.00     0.000 C 
BRANCH  19  20
ATOM     20  C   UNL     1       3.904  -2.100   4.921  1.00  0.00     0.000 C 
BRANCH  20  21
ATOM     21  C   UNL     1       5.304  -1.479   5.100  1.00  0.00     0.000 C 
BRANCH  21  22
ATOM     22  C   UNL     1       5.378  -0.293   6.083  1.00  0.00    -0.000 C 
BRANCH  22  23
ATOM     23  C   UNL     1       4.017   0.203   6.608  1.00  0.00    -0.000 C 
BRANCH  23  24
ATOM     24  C   UNL     1       3.657   1.648   6.211  1.00  0.00    -0.000 C 
BRANCH  24  25
ATOM     25  C   UNL     1       4.792   2.663   6.470  1.00  0.00    -0.000 C 
BRANCH  25  26
ATOM     26  C   UNL     1       5.094   3.529   5.235  1.00  0.00    -0.000 C 
BRANCH  26  27
ATOM     27  C   UNL     1       3.891   4.376   4.795  1.00  0.00    -0.000 C 
BRANCH  27  28
ATOM     28  C   UNL     1       3.375   5.302   5.905  1.00  0.00    -0.000 C 
BRANCH  28  29
ATOM     29  C   UNL     1       4.282   6.527   6.066  1.00  0.00    -0.003 C 
ATOM     30  C   UNL     1       3.480   7.822   5.967  1.00  0.00     0.004 C 
ENDBRANCH  28  29
ENDBRANCH  27  28
ENDBRANCH  26  27
ENDBRANCH  25  26
ENDBRANCH  24  25
ENDBRANCH  23  24
ENDBRANCH  22  23
ENDBRANCH  21  22
ENDBRANCH  20  21
ENDBRANCH  19  20
ENDBRANCH  18  19
ENDBRANCH  17  18
ENDBRANCH   1  17
TORSDOF 26
ENDMDL
MODEL 8
REMARK VINA RESULT:    -4.041      4.397     10.419
REMARK INTER + INTRA:         -13.444
REMARK INTER:                  -8.893
REMARK INTRA:                  -4.551
REMARK UNBOUND:                -3.260
REMARK SMILES CCCCCCCCCCCCCCCCCCCCCCCCCCCC(=O)[O-]
REMARK SMILES IDX 15 1 16 2 17 3 18 4 19 5 20 6 21 7 22 8 23 9 24 10 25 11
REMARK SMILES IDX 26 12 27 13 28 14 29 15 30 16 14 17 13 18 12 19 11 20 10 21
REMARK SMILES IDX 9 22 8 23 7 24 6 25 5 26 4 27 3 28 2 29 1 30
REMARK H PARENT
REMARK Flexibility Score: inf
ROOT
ATOM      1  C   UNL     1       6.232  -1.569   5.930  1.00  0.00     0.000 C 
ENDROOT
BRANCH   1   2
ATOM      2  C   UNL     1       7.728  -1.444   5.570  1.00  0.00     0.000 C 
BRANCH   2   3
ATOM      3  C   UNL     1       8.262  -0.014   5.768  1.00  0.00     0.000 C 
BRANCH   3   4
ATOM      4  C   UNL     1       7.567   1.008   4.853  1.00  0.00     0.000 C 
BRANCH   4   5
ATOM      5  C   UNL     1       7.165   2.293   5.600  1.00  0.00     0.000 C 
BRANCH   5   6
ATOM      6  C   UNL     1       7.091   2.095   7.125  1.00  0.00     0.000 C 
BRANCH   6   7
ATOM      7  C   UNL     1       5.694   2.321   7.730  1.00  0.00     0.000 C 
BRANCH   7   8
ATOM      8  C   UNL     1       4.781   1.087   7.598  1.00  0.00     0.000 C 
BRANCH   8   9
ATOM      9  C   UNL     1       3.733   1.253   6.476  1.00  0.00     0.000 C 
BRANCH   9  10
ATOM     10  C   UNL     1       3.221   2.695   6.317  1.00  0.00     0.000 C 
BRANCH  10  11
ATOM     11  C   UNL     1       3.072   3.115   4.845  1.00  0.00     0.000 C 
BRANCH  11  12
ATOM     12  C   UNL     1       3.443   4.588   4.609  1.00  0.00     0.006 C 
BRANCH  12  13
ATOM     13  C   UNL     1       4.749   4.991   5.309  1.00  0.00     0.053 C 
BRANCH  13  14
ATOM     14  C   UNL     1       4.559   6.257   6.089  1.00  0.00     0.041 C 
ATOM     15  O   UNL     1       3.475   6.471   6.697  1.00  0.00    -0.550 OA
ATOM     16  O   UNL     1       5.591   7.184   6.177  1.00  0.00    -0.550 OA
ENDBRANCH  13  14
ENDBRANCH  12  13
ENDBRANCH  11  12
ENDBRANCH  10  11
ENDBRANCH   9  10
ENDBRANCH   8   9
ENDBRANCH   7   8
ENDBRANCH   6   7
ENDBRANCH   5   6
ENDBRANCH   4   5
ENDBRANCH   3   4
ENDBRANCH   2   3
ENDBRANCH   1   2
BRANCH   1  17
ATOM     17  C   UNL     1       5.309  -1.800   4.717  1.00  0.00     0.000 C 
BRANCH  17  18
ATOM     18  C   UNL     1       3.955  -2.457   5.037  1.00  0.00     0.000 C 
BRANCH  18  19
ATOM     19  C   UNL     1       3.647  -2.486   6.544  1.00  0.00     0.000 C 
BRANCH  19  20
ATOM     20  C   UNL     1       2.380  -3.293   6.878  1.00  0.00     0.000 C 
BRANCH  20  21
ATOM     21  C   UNL     1       1.592  -3.812   5.659  1.00  0.00     0.000 C 
BRANCH  21  22
ATOM     22  C   UNL     1       0.448  -4.795   5.983  1.00  0.00    -0.000 C 
BRANCH  22  23
ATOM     23  C   UNL     1       0.673  -6.239   5.495  1.00  0.00    -0.000 C 
BRANCH  23  24
ATOM     24  C   UNL     1       1.920  -6.932   6.078  1.00  0.00    -0.000 C 
BRANCH  24  25
ATOM     25  C   UNL     1       2.772  -7.667   5.019  1.00  0.00    -0.000 C 
BRANCH  25  26
ATOM     26  C   UNL     1       4.120  -6.971   4.767  1.00  0.00    -0.000 C 
BRANCH  26  27
ATOM     27  C   UNL     1       4.585  -6.127   5.963  1.00  0.00    -0.000 C 
BRANCH  27  28
ATOM     28  C   UNL     1       5.952  -5.469   5.731  1.00  0.00    -0.000 C 
BRANCH  28  29
ATOM     29  C   UNL     1       6.437  -5.698   4.296  1.00  0.00    -0.003 C 
ATOM     30  C   UNL     1       7.555  -4.725   3.930  1.00  0.00     0.004 C 
ENDBRANCH  28  29
ENDBRANCH  27  28
ENDBRANCH  26  27
ENDBRANCH  25  26
ENDBRANCH  24  25
ENDBRANCH  23  24
ENDBRANCH  22  23
ENDBRANCH  21  22
ENDBRANCH  20  21
ENDBRANCH  19  20
ENDBRANCH  18  19
ENDBRANCH  17  18
ENDBRANCH   1  17
TORSDOF 26
ENDMDL
MODEL 9
REMARK VINA RESULT:    -4.021      3.320      5.239
REMARK INTER + INTRA:         -13.394
REMARK INTER:                 -10.215
REMARK INTRA:                  -3.178
REMARK UNBOUND:                -3.260
REMARK SMILES CCCCCCCCCCCCCCCCCCCCCCCCCCCC(=O)[O-]
REMARK SMILES IDX 15 1 16 2 17 3 18 4 19 5 20 6 21 7 22 8 23 9 24 10 25 11
REMARK SMILES IDX 26 12 27 13 28 14 29 15 30 16 14 17 13 18 12 19 11 20 10 21
REMARK SMILES IDX 9 22 8 23 7 24 6 25 5 26 4 27 3 28 2 29 1 30
REMARK H PARENT
REMARK Flexibility Score: inf
ROOT
ATOM      1  C   UNL     1       3.331  -4.261   6.942  1.00  0.00     0.000 C 
ENDROOT
BRANCH   1   2
ATOM      2  C   UNL     1       2.123  -3.381   6.557  1.00  0.00     0.000 C 
BRANCH   2   3
ATOM      3  C   UNL     1       1.158  -4.097   5.595  1.00  0.00     0.000 C 
BRANCH   3   4
ATOM      4  C   UNL     1       0.052  -4.868   6.334  1.00  0.00     0.000 C 
BRANCH   4   5
ATOM      5  C   UNL     1      -0.177  -6.275   5.752  1.00  0.00     0.000 C 
BRANCH   5   6
ATOM      6  C   UNL     1       1.107  -6.896   5.175  1.00  0.00     0.000 C 
BRANCH   6   7
ATOM      7  C   UNL     1       0.890  -8.210   4.404  1.00  0.00     0.000 C 
BRANCH   7   8
ATOM      8  C   UNL     1       2.211  -8.896   4.010  1.00  0.00     0.000 C 
BRANCH   8   9
ATOM      9  C   UNL     1       3.445  -8.049   4.390  1.00  0.00     0.000 C 
BRANCH   9  10
ATOM     10  C   UNL     1       4.782  -8.674   3.955  1.00  0.00     0.000 C 
BRANCH  10  11
ATOM     11  C   UNL     1       5.875  -8.552   5.030  1.00  0.00     0.000 C 
BRANCH  11  12
ATOM     12  C   UNL     1       6.757  -7.308   4.839  1.00  0.00     0.006 C 
BRANCH  12  13
ATOM     13  C   UNL     1       6.738  -6.781   3.396  1.00  0.00     0.053 C 
BRANCH  13  14
ATOM     14  C   UNL     1       7.884  -5.843   3.163  1.00  0.00     0.041 C 
ATOM     15  O   UNL     1       8.204  -5.512   1.988  1.00  0.00    -0.550 OA
ATOM     16  O   UNL     1       8.576  -5.305   4.241  1.00  0.00    -0.550 OA
ENDBRANCH  13  14
ENDBRANCH  12  13
ENDBRANCH  11  12
ENDBRANCH  10  11
ENDBRANCH   9  10
ENDBRANCH   8   9
ENDBRANCH   7   8
ENDBRANCH   6   7
ENDBRANCH   5   6
ENDBRANCH   4   5
ENDBRANCH   3   4
ENDBRANCH   2   3
ENDBRANCH   1   2
BRANCH   1  17
ATOM     17  C   UNL     1       4.184  -4.719   5.743  1.00  0.00     0.000 C 
BRANCH  17  18
ATOM     18  C   UNL     1       5.469  -3.907   5.503  1.00  0.00     0.000 C 
BRANCH  18  19
ATOM     19  C   UNL     1       5.268  -2.750   4.509  1.00  0.00     0.000 C 
BRANCH  19  20
ATOM     20  C   UNL     1       5.544  -1.372   5.134  1.00  0.00     0.000 C 
BRANCH  20  21
ATOM     21  C   UNL     1       5.707  -1.367   6.667  1.00  0.00     0.000 C 
BRANCH  21  22
ATOM     22  C   UNL     1       4.618  -0.600   7.445  1.00  0.00    -0.000 C 
BRANCH  22  23
ATOM     23  C   UNL     1       3.583   0.127   6.566  1.00  0.00    -0.000 C 
BRANCH  23  24
ATOM     24  C   UNL     1       3.281   1.579   6.987  1.00  0.00    -0.000 C 
BRANCH  24  25
ATOM     25  C   UNL     1       3.777   2.634   5.973  1.00  0.00    -0.000 C 
BRANCH  25  26
ATOM     26  C   UNL     1       4.059   3.993   6.636  1.00  0.00    -0.000 C 
BRANCH  26  27
ATOM     27  C   UNL     1       4.103   5.149   5.625  1.00  0.00    -0.000 C 
BRANCH  27  28
ATOM     28  C   UNL     1       5.275   6.110   5.870  1.00  0.00    -0.000 C 
BRANCH  28  29
ATOM     29  C   UNL     1       4.785   7.438   6.456  1.00  0.00    -0.003 C 
ATOM     30  C   UNL     1       3.390   7.784   5.943  1.00  0.00     0.004 C 
ENDBRANCH  28  29
ENDBRANCH  27  28
ENDBRANCH  26  27
ENDBRANCH  25  26
ENDBRANCH  24  25
ENDBRANCH  23  24
ENDBRANCH  22  23
ENDBRANCH  21  22
ENDBRANCH  20  21
ENDBRANCH  19  20
ENDBRANCH  18  19
ENDBRANCH  17  18
ENDBRANCH   1  17
TORSDOF 26
ENDMDL
