MODEL 1
REMARK VINA RESULT:    74.753      0.000      0.000
REMARK INTER + INTRA:         104.884
REMARK INTER:                 105.344
REMARK INTRA:                  -0.461
REMARK UNBOUND:                -0.461
REMARK SMILES O=c1cc(-c2ccc(O)c(O)c2)oc2cc(O)c([C@@H]3O[C@@H](CO)[C@H](O)[C@H](O)[C@H]3O)c(O)c12
REMARK SMILES IDX 4 1 3 2 2 3 1 4 32 5 14 6 13 7 15 8 16 9 18 10 30 11 5 12
REMARK SMILES IDX 6 13 7 14 8 15 12 16 10 17 9 18 11 20 31 22 17 24 19 26
REMARK SMILES IDX 28 27 20 28 26 29 21 30 24 31 29 32 27 34 22 36 23 37 25 39
REMARK H PARENT 9 19 11 21 31 23 17 25 29 33 27 35 23 38 25 40
REMARK Flexibility Score: inf
ROOT
ATOM      1  C   UNL     1       2.766   0.297   3.418  1.00  0.00     0.138 A 
ATOM      2  C   UNL     1       2.736  -0.877   2.651  1.00  0.00     0.100 A 
ATOM      3  C   UNL     1       1.507  -1.432   2.294  1.00  0.00     0.197 A 
ATOM      4  O   UNL     1       1.496  -2.484   1.601  1.00  0.00    -0.289 OA
ATOM      5  C   UNL     1       0.308  -0.804   2.704  1.00  0.00     0.107 A 
ATOM      6  C   UNL     1       0.427   0.378   3.467  1.00  0.00     0.146 A 
ATOM      7  O   UNL     1       1.621   0.868   3.782  1.00  0.00    -0.456 OA
ATOM      8  C   UNL     1      -0.711   1.045   3.907  1.00  0.00     0.094 A 
ATOM      9  C   UNL     1      -1.985   0.573   3.588  1.00  0.00     0.128 A 
ATOM     10  C   UNL     1      -2.144  -0.590   2.797  1.00  0.00     0.068 A 
ATOM     11  C   UNL     1      -0.980  -1.311   2.392  1.00  0.00     0.140 A 
ENDROOT
BRANCH   1  12
ATOM     12  C   UNL     1       4.044   0.934   3.827  1.00  0.00     0.021 A 
ATOM     13  C   UNL     1       4.471   0.831   5.161  1.00  0.00     0.016 A 
ATOM     14  C   UNL     1       5.674   1.415   5.571  1.00  0.00     0.051 A 
ATOM     15  C   UNL     1       6.473   2.103   4.650  1.00  0.00     0.157 A 
ATOM     16  C   UNL     1       4.860   1.617   2.904  1.00  0.00     0.062 A 
ATOM     17  C   UNL     1       6.066   2.200   3.310  1.00  0.00     0.158 A 
BRANCH  15  18
ATOM     18  O   UNL     1       7.672   2.685   5.062  1.00  0.00    -0.504 OA
ATOM     19  H   UNL     1       8.447   2.124   5.395  1.00  0.00     0.293 HD
ENDBRANCH  15  18
BRANCH  17  20
ATOM     20  O   UNL     1       6.846   2.869   2.367  1.00  0.00    -0.504 OA
ATOM     21  H   UNL     1       6.444   3.304   1.546  1.00  0.00     0.293 HD
ENDBRANCH  17  20
ENDBRANCH   1  12
BRANCH  11  22
ATOM     22  O   UNL     1      -1.064  -2.525   1.698  1.00  0.00    -0.506 OA
ATOM     23  H   UNL     1      -1.049  -2.627   0.695  1.00  0.00     0.293 HD
ENDBRANCH  11  22
BRANCH   9  24
ATOM     24  O   UNL     1      -3.100   1.267   4.061  1.00  0.00    -0.507 OA
ATOM     25  H   UNL     1      -3.751   0.849   4.717  1.00  0.00     0.293 HD
ENDBRANCH   9  24
BRANCH  10  26
ATOM     26  C   UNL     1      -3.554  -1.046   2.424  1.00  0.00     0.188 C 
ATOM     27  C   UNL     1      -4.056  -0.256   1.191  1.00  0.00     0.179 C 
ATOM     28  O   UNL     1      -3.531  -2.447   2.171  1.00  0.00    -0.362 OA
ATOM     29  C   UNL     1      -5.449  -0.764   0.767  1.00  0.00     0.177 C 
ATOM     30  C   UNL     1      -4.810  -2.987   1.852  1.00  0.00     0.176 C 
ATOM     31  C   UNL     1      -5.454  -2.300   0.620  1.00  0.00     0.177 C 
BRANCH  27  32
ATOM     32  O   UNL     1      -4.090   1.126   1.452  1.00  0.00    -0.387 OA
ATOM     33  H   UNL     1      -4.984   1.464   1.181  1.00  0.00     0.211 HD
ENDBRANCH  27  32
BRANCH  29  34
ATOM     34  O   UNL     1      -5.892  -0.137  -0.411  1.00  0.00    -0.387 OA
ATOM     35  H   UNL     1      -5.143  -0.143  -1.064  1.00  0.00     0.211 HD
ENDBRANCH  29  34
BRANCH  30  36
ATOM     36  C   UNL     1      -5.755  -3.055   3.072  1.00  0.00     0.191 C 
BRANCH  36  37
ATOM     37  O   UNL     1      -5.018  -3.036   4.265  1.00  0.00    -0.394 OA
ATOM     38  H   UNL     1      -5.338  -3.800   4.811  1.00  0.00     0.210 HD
ENDBRANCH  36  37
ENDBRANCH  30  36
BRANCH  31  39
ATOM     39  O   UNL     1      -4.815  -2.703  -0.568  1.00  0.00    -0.388 OA
ATOM     40  H   UNL     1      -3.874  -2.928  -0.352  1.00  0.00     0.211 HD
ENDBRANCH  31  39
ENDBRANCH  10  26
TORSDOF 11
ENDMDL
MODEL 2
REMARK VINA RESULT:    75.197      1.474      1.848
REMARK INTER + INTRA:         105.508
REMARK INTER:                 105.377
REMARK INTRA:                   0.131
REMARK UNBOUND:                -0.461
REMARK SMILES O=c1cc(-c2ccc(O)c(O)c2)oc2cc(O)c([C@@H]3O[C@@H](CO)[C@H](O)[C@H](O)[C@H]3O)c(O)c12
REMARK SMILES IDX 4 1 3 2 2 3 1 4 32 5 14 6 13 7 15 8 16 9 18 10 30 11 5 12
REMARK SMILES IDX 6 13 7 14 8 15 12 16 10 17 9 18 11 20 31 22 17 24 19 26
REMARK SMILES IDX 28 27 20 28 26 29 21 30 24 31 29 32 27 34 22 36 23 37 25 39
REMARK H PARENT 9 19 11 21 31 23 17 25 29 33 27 35 23 38 25 40
REMARK Flexibility Score: inf
ROOT
ATOM      1  C   UNL     1       3.127   0.565   3.779  1.00  0.00     0.138 A 
ATOM      2  C   UNL     1       2.856  -0.611   4.496  1.00  0.00     0.100 A 
ATOM      3  C   UNL     1       1.567  -1.142   4.480  1.00  0.00     0.197 A 
ATOM      4  O   UNL     1       1.340  -2.201   5.125  1.00  0.00    -0.289 OA
ATOM      5  C   UNL     1       0.551  -0.496   3.740  1.00  0.00     0.107 A 
ATOM      6  C   UNL     1       0.908   0.677   3.040  1.00  0.00     0.146 A 
ATOM      7  O   UNL     1       2.151   1.145   3.086  1.00  0.00    -0.456 OA
ATOM      8  C   UNL     1      -0.043   1.366   2.296  1.00  0.00     0.094 A 
ATOM      9  C   UNL     1      -1.356   0.903   2.209  1.00  0.00     0.128 A 
ATOM     10  C   UNL     1      -1.745  -0.288   2.869  1.00  0.00     0.068 A 
ATOM     11  C   UNL     1      -0.787  -0.967   3.682  1.00  0.00     0.140 A 
ENDROOT
BRANCH   1  12
ATOM     12  C   UNL     1       4.480   1.176   3.758  1.00  0.00     0.021 A 
ATOM     13  C   UNL     1       5.310   1.056   4.886  1.00  0.00     0.016 A 
ATOM     14  C   UNL     1       6.591   1.615   4.889  1.00  0.00     0.051 A 
ATOM     15  C   UNL     1       7.067   2.295   3.762  1.00  0.00     0.157 A 
ATOM     16  C   UNL     1       4.971   1.849   2.623  1.00  0.00     0.062 A 
ATOM     17  C   UNL     1       6.255   2.408   2.622  1.00  0.00     0.158 A 
BRANCH  15  18
ATOM     18  O   UNL     1       8.346   2.852   3.769  1.00  0.00    -0.504 OA
ATOM     19  H   UNL     1       9.122   2.405   3.296  1.00  0.00     0.293 HD
ENDBRANCH  15  18
BRANCH  17  20
ATOM     20  O   UNL     1       6.705   3.069   1.480  1.00  0.00    -0.504 OA
ATOM     21  H   UNL     1       7.088   2.572   0.685  1.00  0.00     0.293 HD
ENDBRANCH  17  20
ENDBRANCH   1  12
BRANCH  11  22
ATOM     22  O   UNL     1      -1.128  -2.090   4.447  1.00  0.00    -0.506 OA
ATOM     23  H   UNL     1      -1.032  -2.166   5.447  1.00  0.00     0.293 HD
ENDBRANCH  11  22
BRANCH   9  24
ATOM     24  O   UNL     1      -2.282   1.632   1.461  1.00  0.00    -0.507 OA
ATOM     25  H   UNL     1      -3.240   1.755   1.767  1.00  0.00     0.293 HD
ENDBRANCH   9  24
BRANCH  10  26
ATOM     26  C   UNL     1      -3.178  -0.792   2.707  1.00  0.00     0.188 C 
ATOM     27  C   UNL     1      -4.178   0.319   3.110  1.00  0.00     0.179 C 
ATOM     28  O   UNL     1      -3.369  -1.200   1.356  1.00  0.00    -0.362 OA
ATOM     29  C   UNL     1      -5.625  -0.160   2.877  1.00  0.00     0.177 C 
ATOM     30  C   UNL     1      -4.667  -1.728   1.102  1.00  0.00     0.176 C 
ATOM     31  C   UNL     1      -5.797  -0.724   1.451  1.00  0.00     0.177 C 
BRANCH  27  32
ATOM     32  O   UNL     1      -3.993   0.708   4.449  1.00  0.00    -0.387 OA
ATOM     33  H   UNL     1      -4.326  -0.028   5.027  1.00  0.00     0.211 HD
ENDBRANCH  27  32
BRANCH  29  34
ATOM     34  O   UNL     1      -6.557   0.861   3.137  1.00  0.00    -0.387 OA
ATOM     35  H   UNL     1      -6.084   1.596   3.610  1.00  0.00     0.211 HD
ENDBRANCH  29  34
BRANCH  30  36
ATOM     36  C   UNL     1      -4.882  -3.123   1.728  1.00  0.00     0.191 C 
BRANCH  36  37
ATOM     37  O   UNL     1      -5.095  -3.014   3.109  1.00  0.00    -0.394 OA
ATOM     38  H   UNL     1      -5.384  -3.909   3.426  1.00  0.00     0.210 HD
ENDBRANCH  36  37
ENDBRANCH  30  36
BRANCH  31  39
ATOM     39  O   UNL     1      -5.859   0.308   0.496  1.00  0.00    -0.388 OA
ATOM     40  H   UNL     1      -4.956   0.424   0.105  1.00  0.00     0.211 HD
ENDBRANCH  31  39
ENDBRANCH  10  26
TORSDOF 11
ENDMDL
MODEL 3
REMARK VINA RESULT:    76.964      1.560      2.237
REMARK INTER + INTRA:         107.999
REMARK INTER:                 108.044
REMARK INTRA:                  -0.044
REMARK UNBOUND:                -0.461
REMARK SMILES O=c1cc(-c2ccc(O)c(O)c2)oc2cc(O)c([C@@H]3O[C@@H](CO)[C@H](O)[C@H](O)[C@H]3O)c(O)c12
REMARK SMILES IDX 4 1 3 2 2 3 1 4 32 5 14 6 13 7 15 8 16 9 18 10 30 11 5 12
REMARK SMILES IDX 6 13 7 14 8 15 12 16 10 17 9 18 11 20 31 22 17 24 19 26
REMARK SMILES IDX 28 27 20 28 26 29 21 30 24 31 29 32 27 34 22 36 23 37 25 39
REMARK H PARENT 9 19 11 21 31 23 17 25 29 33 27 35 23 38 25 40
REMARK Flexibility Score: inf
ROOT
ATOM      1  C   UNL     1       2.920   0.247   4.222  1.00  0.00     0.138 A 
ATOM      2  C   UNL     1       2.493  -0.821   5.027  1.00  0.00     0.100 A 
ATOM      3  C   UNL     1       1.183  -1.285   4.912  1.00  0.00     0.197 A 
ATOM      4  O   UNL     1       0.816  -2.248   5.638  1.00  0.00    -0.289 OA
ATOM      5  C   UNL     1       0.303  -0.681   3.985  1.00  0.00     0.107 A 
ATOM      6  C   UNL     1       0.814   0.381   3.208  1.00  0.00     0.146 A 
ATOM      7  O   UNL     1       2.070   0.789   3.355  1.00  0.00    -0.456 OA
ATOM      8  C   UNL     1       0.002   1.024   2.280  1.00  0.00     0.094 A 
ATOM      9  C   UNL     1      -1.319   0.621   2.085  1.00  0.00     0.128 A 
ATOM     10  C   UNL     1      -1.857  -0.463   2.821  1.00  0.00     0.068 A 
ATOM     11  C   UNL     1      -1.046  -1.088   3.816  1.00  0.00     0.140 A 
ENDROOT
BRANCH   1  12
ATOM     12  C   UNL     1       4.302   0.783   4.300  1.00  0.00     0.021 A 
ATOM     13  C   UNL     1       4.849   1.445   3.188  1.00  0.00     0.016 A 
ATOM     14  C   UNL     1       6.145   1.966   3.236  1.00  0.00     0.051 A 
ATOM     15  C   UNL     1       6.912   1.841   4.400  1.00  0.00     0.157 A 
ATOM     16  C   UNL     1       5.075   0.673   5.472  1.00  0.00     0.062 A 
ATOM     17  C   UNL     1       6.373   1.196   5.525  1.00  0.00     0.158 A 
BRANCH  15  18
ATOM     18  O   UNL     1       8.206   2.361   4.445  1.00  0.00    -0.504 OA
ATOM     19  H   UNL     1       8.403   3.317   4.172  1.00  0.00     0.293 HD
ENDBRANCH  15  18
BRANCH  17  20
ATOM     20  O   UNL     1       7.108   1.067   6.702  1.00  0.00    -0.504 OA
ATOM     21  H   UNL     1       7.489   0.178   7.005  1.00  0.00     0.293 HD
ENDBRANCH  17  20
ENDBRANCH   1  12
BRANCH  11  22
ATOM     22  O   UNL     1      -1.545  -2.095   4.653  1.00  0.00    -0.506 OA
ATOM     23  H   UNL     1      -2.199  -1.956   5.407  1.00  0.00     0.293 HD
ENDBRANCH  11  22
BRANCH   9  24
ATOM     24  O   UNL     1      -2.103   1.301   1.151  1.00  0.00    -0.507 OA
ATOM     25  H   UNL     1      -2.603   0.815   0.416  1.00  0.00     0.293 HD
ENDBRANCH   9  24
BRANCH  10  26
ATOM     26  C   UNL     1      -3.291  -0.910   2.540  1.00  0.00     0.188 C 
ATOM     27  C   UNL     1      -4.283   0.206   2.947  1.00  0.00     0.179 C 
ATOM     28  O   UNL     1      -3.408  -1.232   1.158  1.00  0.00    -0.362 OA
ATOM     29  C   UNL     1      -5.725  -0.212   2.597  1.00  0.00     0.177 C 
ATOM     30  C   UNL     1      -4.702  -1.703   0.793  1.00  0.00     0.176 C 
ATOM     31  C   UNL     1      -5.822  -0.685   1.132  1.00  0.00     0.177 C 
BRANCH  27  32
ATOM     32  O   UNL     1      -4.172   0.510   4.317  1.00  0.00    -0.387 OA
ATOM     33  H   UNL     1      -4.690   1.341   4.486  1.00  0.00     0.211 HD
ENDBRANCH  27  32
BRANCH  29  34
ATOM     34  O   UNL     1      -6.642   0.821   2.862  1.00  0.00    -0.387 OA
ATOM     35  H   UNL     1      -6.529   1.099   3.808  1.00  0.00     0.211 HD
ENDBRANCH  29  34
BRANCH  30  36
ATOM     36  C   UNL     1      -4.995  -3.125   1.318  1.00  0.00     0.191 C 
BRANCH  36  37
ATOM     37  O   UNL     1      -5.072  -3.124   2.718  1.00  0.00    -0.394 OA
ATOM     38  H   UNL     1      -4.231  -3.532   3.051  1.00  0.00     0.210 HD
ENDBRANCH  36  37
ENDBRANCH  30  36
BRANCH  31  39
ATOM     39  O   UNL     1      -5.795   0.403   0.239  1.00  0.00    -0.388 OA
ATOM     40  H   UNL     1      -5.556   0.060  -0.659  1.00  0.00     0.211 HD
ENDBRANCH  31  39
ENDBRANCH  10  26
TORSDOF 11
ENDMDL
