MODEL 1
REMARK VINA RESULT:     4.333      0.000      0.000
REMARK INTER + INTRA:           6.989
REMARK INTER:                   6.866
REMARK INTRA:                   0.123
REMARK UNBOUND:                 0.123
REMARK SMILES CCCCCCCCCCCC(=O)[O-]
REMARK SMILES IDX 7 1 8 2 9 3 10 4 11 5 12 6 13 7 14 8 6 9 5 10 4 11 3 12 2 13
REMARK SMILES IDX 1 14
REMARK H PARENT
REMARK Flexibility Score: inf
ROOT
ATOM      1  C   UNL     1      14.700 -14.075   7.112  1.00  0.00     0.000 C 
ENDROOT
BRANCH   1   2
ATOM      2  C   UNL     1      13.253 -13.567   7.190  1.00  0.00     0.000 C 
BRANCH   2   3
ATOM      3  C   UNL     1      12.555 -13.555   5.821  1.00  0.00     0.000 C 
BRANCH   3   4
ATOM      4  C   UNL     1      12.050 -12.155   5.427  1.00  0.00     0.006 C 
BRANCH   4   5
ATOM      5  C   UNL     1      10.647 -11.870   5.978  1.00  0.00     0.053 C 
BRANCH   5   6
ATOM      6  C   UNL     1       9.612 -12.749   5.344  1.00  0.00     0.041 C 
ATOM      7  O   UNL     1       9.825 -13.982   5.209  1.00  0.00    -0.550 OA
ATOM      8  O   UNL     1       8.398 -12.210   4.934  1.00  0.00    -0.550 OA
ENDBRANCH   5   6
ENDBRANCH   4   5
ENDBRANCH   3   4
ENDBRANCH   2   3
ENDBRANCH   1   2
BRANCH   1   9
ATOM      9  C   UNL     1      14.746 -15.528   6.620  1.00  0.00     0.000 C 
BRANCH   9  10
ATOM     10  C   UNL     1      15.993 -16.250   7.153  1.00  0.00    -0.000 C 
BRANCH  10  11
ATOM     11  C   UNL     1      17.301 -15.583   6.699  1.00  0.00    -0.000 C 
BRANCH  11  12
ATOM     12  C   UNL     1      18.478 -16.572   6.641  1.00  0.00    -0.000 C 
BRANCH  12  13
ATOM     13  C   UNL     1      19.124 -16.635   5.248  1.00  0.00    -0.003 C 
ATOM     14  C   UNL     1      19.124 -18.046   4.660  1.00  0.00     0.004 C 
ENDBRANCH  12  13
ENDBRANCH  11  12
ENDBRANCH  10  11
ENDBRANCH   9  10
ENDBRANCH   1   9
TORSDOF 10
ENDMDL
MODEL 2
REMARK VINA RESULT:     4.827      1.570      1.831
REMARK INTER + INTRA:           7.772
REMARK INTER:                   8.091
REMARK INTRA:                  -0.319
REMARK UNBOUND:                 0.123
REMARK SMILES CCCCCCCCCCCC(=O)[O-]
REMARK SMILES IDX 7 1 8 2 9 3 10 4 11 5 12 6 13 7 14 8 6 9 5 10 4 11 3 12 2 13
REMARK SMILES IDX 1 14
REMARK H PARENT
REMARK Flexibility Score: inf
ROOT
ATOM      1  C   UNL     1      14.406 -14.016   7.301  1.00  0.00     0.000 C 
ENDROOT
BRANCH   1   2
ATOM      2  C   UNL     1      12.996 -13.493   6.993  1.00  0.00     0.000 C 
BRANCH   2   3
ATOM      3  C   UNL     1      12.463 -13.989   5.639  1.00  0.00     0.000 C 
BRANCH   3   4
ATOM      4  C   UNL     1      11.119 -13.343   5.259  1.00  0.00     0.006 C 
BRANCH   4   5
ATOM      5  C   UNL     1      10.829 -12.083   6.085  1.00  0.00     0.053 C 
BRANCH   5   6
ATOM      6  C   UNL     1      11.344 -10.848   5.414  1.00  0.00     0.041 C 
ATOM      7  O   UNL     1      10.879  -9.718   5.720  1.00  0.00    -0.550 OA
ATOM      8  O   UNL     1      12.364 -10.940   4.473  1.00  0.00    -0.550 OA
ENDBRANCH   5   6
ENDBRANCH   4   5
ENDBRANCH   3   4
ENDBRANCH   2   3
ENDBRANCH   1   2
BRANCH   1   9
ATOM      9  C   UNL     1      14.749 -15.225   6.421  1.00  0.00     0.000 C 
BRANCH   9  10
ATOM     10  C   UNL     1      15.887 -16.050   7.039  1.00  0.00    -0.000 C 
BRANCH  10  11
ATOM     11  C   UNL     1      17.273 -15.444   6.766  1.00  0.00    -0.000 C 
BRANCH  11  12
ATOM     12  C   UNL     1      18.388 -16.504   6.748  1.00  0.00    -0.000 C 
BRANCH  12  13
ATOM     13  C   UNL     1      19.125 -16.559   5.401  1.00  0.00    -0.003 C 
ATOM     14  C   UNL     1      18.952 -17.899   4.687  1.00  0.00     0.004 C 
ENDBRANCH  12  13
ENDBRANCH  11  12
ENDBRANCH  10  11
ENDBRANCH   9  10
ENDBRANCH   1   9
TORSDOF 10
ENDMDL
MODEL 3
REMARK VINA RESULT:     4.951      0.547      1.043
REMARK INTER + INTRA:           7.969
REMARK INTER:                   8.402
REMARK INTRA:                  -0.433
REMARK UNBOUND:                 0.123
REMARK SMILES CCCCCCCCCCCC(=O)[O-]
REMARK SMILES IDX 7 1 8 2 9 3 10 4 11 5 12 6 13 7 14 8 6 9 5 10 4 11 3 12 2 13
REMARK SMILES IDX 1 14
REMARK H PARENT
REMARK Flexibility Score: inf
ROOT
ATOM      1  C   UNL     1      14.630 -15.415   6.428  1.00  0.00     0.000 C 
ENDROOT
BRANCH   1   2
ATOM      2  C   UNL     1      14.424 -14.018   7.033  1.00  0.00     0.000 C 
BRANCH   2   3
ATOM      3  C   UNL     1      12.940 -13.631   7.134  1.00  0.00     0.000 C 
BRANCH   3   4
ATOM      4  C   UNL     1      12.368 -13.124   5.798  1.00  0.00     0.006 C 
BRANCH   4   5
ATOM      5  C   UNL     1      11.141 -12.224   5.997  1.00  0.00     0.053 C 
BRANCH   5   6
ATOM      6  C   UNL     1       9.898 -12.851   5.445  1.00  0.00     0.041 C 
ATOM      7  O   UNL     1       9.828 -14.099   5.299  1.00  0.00    -0.550 OA
ATOM      8  O   UNL     1       8.802 -12.058   5.122  1.00  0.00    -0.550 OA
ENDBRANCH   5   6
ENDBRANCH   4   5
ENDBRANCH   3   4
ENDBRANCH   2   3
ENDBRANCH   1   2
BRANCH   1   9
ATOM      9  C   UNL     1      15.777 -16.153   7.130  1.00  0.00     0.000 C 
BRANCH   9  10
ATOM     10  C   UNL     1      17.134 -15.530   6.770  1.00  0.00    -0.000 C 
BRANCH  10  11
ATOM     11  C   UNL     1      18.318 -16.307   7.366  1.00  0.00    -0.000 C 
BRANCH  11  12
ATOM     12  C   UNL     1      19.119 -17.073   6.300  1.00  0.00    -0.000 C 
BRANCH  12  13
ATOM     13  C   UNL     1      18.825 -16.578   4.875  1.00  0.00    -0.003 C 
ATOM     14  C   UNL     1      19.125 -17.631   3.810  1.00  0.00     0.004 C 
ENDBRANCH  12  13
ENDBRANCH  11  12
ENDBRANCH  10  11
ENDBRANCH   9  10
ENDBRANCH   1   9
TORSDOF 10
ENDMDL
MODEL 4
REMARK VINA RESULT:     5.005      4.120      7.997
REMARK INTER + INTRA:           8.055
REMARK INTER:                   8.038
REMARK INTRA:                   0.017
REMARK UNBOUND:                 0.123
REMARK SMILES CCCCCCCCCCCC(=O)[O-]
REMARK SMILES IDX 7 1 8 2 9 3 10 4 11 5 12 6 13 7 14 8 6 9 5 10 4 11 3 12 2 13
REMARK SMILES IDX 1 14
REMARK H PARENT
REMARK Flexibility Score: inf
ROOT
ATOM      1  C   UNL     1      14.578 -14.688   7.100  1.00  0.00     0.000 C 
ENDROOT
BRANCH   1   2
ATOM      2  C   UNL     1      15.517 -15.822   6.662  1.00  0.00     0.000 C 
BRANCH   2   3
ATOM      3  C   UNL     1      17.001 -15.452   6.810  1.00  0.00     0.000 C 
BRANCH   3   4
ATOM      4  C   UNL     1      17.910 -16.688   6.926  1.00  0.00     0.006 C 
BRANCH   4   5
ATOM      5  C   UNL     1      19.125 -16.604   5.992  1.00  0.00     0.053 C 
BRANCH   5   6
ATOM      6  C   UNL     1      18.965 -17.489   4.793  1.00  0.00     0.041 C 
ATOM      7  O   UNL     1      18.923 -16.989   3.638  1.00  0.00    -0.550 OA
ATOM      8  O   UNL     1      18.896 -18.868   4.950  1.00  0.00    -0.550 OA
ENDBRANCH   5   6
ENDBRANCH   4   5
ENDBRANCH   3   4
ENDBRANCH   2   3
ENDBRANCH   1   2
BRANCH   1   9
ATOM      9  C   UNL     1      13.495 -14.433   6.043  1.00  0.00     0.000 C 
BRANCH   9  10
ATOM     10  C   UNL     1      12.554 -13.302   6.483  1.00  0.00    -0.000 C 
BRANCH  10  11
ATOM     11  C   UNL     1      11.333 -13.157   5.561  1.00  0.00    -0.000 C 
BRANCH  11  12
ATOM     12  C   UNL     1      10.491 -11.911   5.887  1.00  0.00    -0.000 C 
BRANCH  12  13
ATOM     13  C   UNL     1      11.240 -10.602   5.592  1.00  0.00    -0.003 C 
ATOM     14  C   UNL     1      12.384 -10.789   4.596  1.00  0.00     0.004 C 
ENDBRANCH  12  13
ENDBRANCH  11  12
ENDBRANCH  10  11
ENDBRANCH   9  10
ENDBRANCH   1   9
TORSDOF 10
ENDMDL
MODEL 5
REMARK VINA RESULT:     5.147      1.497      2.272
REMARK INTER + INTRA:           8.278
REMARK INTER:                   8.576
REMARK INTRA:                  -0.297
REMARK UNBOUND:                 0.123
REMARK SMILES CCCCCCCCCCCC(=O)[O-]
REMARK SMILES IDX 7 1 8 2 9 3 10 4 11 5 12 6 13 7 14 8 6 9 5 10 4 11 3 12 2 13
REMARK SMILES IDX 1 14
REMARK H PARENT
REMARK Flexibility Score: inf
ROOT
ATOM      1  C   UNL     1      15.826 -15.840   7.067  1.00  0.00     0.000 C 
ENDROOT
BRANCH   1   2
ATOM      2  C   UNL     1      14.907 -14.625   7.260  1.00  0.00     0.000 C 
BRANCH   2   3
ATOM      3  C   UNL     1      13.720 -14.619   6.283  1.00  0.00     0.000 C 
BRANCH   3   4
ATOM      4  C   UNL     1      12.861 -13.348   6.404  1.00  0.00     0.006 C 
BRANCH   4   5
ATOM      5  C   UNL     1      11.499 -13.501   5.713  1.00  0.00     0.053 C 
BRANCH   5   6
ATOM      6  C   UNL     1      10.796 -12.186   5.575  1.00  0.00     0.041 C 
ATOM      7  O   UNL     1      11.458 -11.120   5.483  1.00  0.00    -0.550 OA
ATOM      8  O   UNL     1       9.408 -12.142   5.513  1.00  0.00    -0.550 OA
ENDBRANCH   5   6
ENDBRANCH   4   5
ENDBRANCH   3   4
ENDBRANCH   2   3
ENDBRANCH   1   2
BRANCH   1   9
ATOM      9  C   UNL     1      17.193 -15.413   6.519  1.00  0.00     0.000 C 
BRANCH   9  10
ATOM     10  C   UNL     1      18.163 -16.603   6.473  1.00  0.00    -0.000 C 
BRANCH  10  11
ATOM     11  C   UNL     1      19.120 -16.539   5.272  1.00  0.00    -0.000 C 
BRANCH  11  12
ATOM     12  C   UNL     1      18.851 -17.650   4.242  1.00  0.00    -0.000 C 
BRANCH  12  13
ATOM     13  C   UNL     1      18.997 -17.157   2.794  1.00  0.00    -0.003 C 
ATOM     14  C   UNL     1      17.658 -17.074   2.061  1.00  0.00     0.004 C 
ENDBRANCH  12  13
ENDBRANCH  11  12
ENDBRANCH  10  11
ENDBRANCH   9  10
ENDBRANCH   1   9
TORSDOF 10
ENDMDL
MODEL 6
REMARK VINA RESULT:     5.946      4.195      7.827
REMARK INTER + INTRA:           9.546
REMARK INTER:                   9.828
REMARK INTRA:                  -0.283
REMARK UNBOUND:                 0.123
REMARK SMILES CCCCCCCCCCCC(=O)[O-]
REMARK SMILES IDX 7 1 8 2 9 3 10 4 11 5 12 6 13 7 14 8 6 9 5 10 4 11 3 12 2 13
REMARK SMILES IDX 1 14
REMARK H PARENT
REMARK Flexibility Score: inf
ROOT
ATOM      1  C   UNL     1      13.442 -14.240   5.884  1.00  0.00     0.000 C 
ENDROOT
BRANCH   1   2
ATOM      2  C   UNL     1      14.303 -14.702   7.069  1.00  0.00     0.000 C 
BRANCH   2   3
ATOM      3  C   UNL     1      15.181 -15.916   6.726  1.00  0.00     0.000 C 
BRANCH   3   4
ATOM      4  C   UNL     1      16.576 -15.838   7.372  1.00  0.00     0.006 C 
BRANCH   4   5
ATOM      5  C   UNL     1      17.667 -15.483   6.353  1.00  0.00     0.053 C 
BRANCH   5   6
ATOM      6  C   UNL     1      18.684 -16.575   6.225  1.00  0.00     0.041 C 
ATOM      7  O   UNL     1      19.121 -17.157   7.252  1.00  0.00    -0.550 OA
ATOM      8  O   UNL     1      19.125 -16.972   4.968  1.00  0.00    -0.550 OA
ENDBRANCH   5   6
ENDBRANCH   4   5
ENDBRANCH   3   4
ENDBRANCH   2   3
ENDBRANCH   1   2
BRANCH   1   9
ATOM      9  C   UNL     1      12.374 -13.237   6.338  1.00  0.00     0.000 C 
BRANCH   9  10
ATOM     10  C   UNL     1      11.038 -13.497   5.628  1.00  0.00    -0.000 C 
BRANCH  10  11
ATOM     11  C   UNL     1      10.162 -12.237   5.536  1.00  0.00    -0.000 C 
BRANCH  11  12
ATOM     12  C   UNL     1      10.827 -11.007   6.177  1.00  0.00    -0.000 C 
BRANCH  12  13
ATOM     13  C   UNL     1      11.346 -10.008   5.132  1.00  0.00    -0.003 C 
ATOM     14  C   UNL     1      12.626 -10.484   4.444  1.00  0.00     0.004 C 
ENDBRANCH  12  13
ENDBRANCH  11  12
ENDBRANCH  10  11
ENDBRANCH   9  10
ENDBRANCH   1   9
TORSDOF 10
ENDMDL
