MODEL 1
REMARK VINA RESULT:    -3.562      0.000      0.000
REMARK INTER + INTRA:         -13.466
REMARK INTER:                  -8.977
REMARK INTRA:                  -4.489
REMARK UNBOUND:                -4.489
REMARK SMILES CCCCCCCCCCCCCCCCCCCCCCCCCCCC(=O)[O-]
REMARK SMILES IDX 15 1 16 2 17 3 18 4 19 5 20 6 21 7 22 8 23 9 24 10 25 11
REMARK SMILES IDX 26 12 27 13 28 14 29 15 30 16 14 17 13 18 12 19 11 20 10 21
REMARK SMILES IDX 9 22 8 23 7 24 6 25 5 26 4 27 3 28 2 29 1 30
REMARK H PARENT
REMARK Flexibility Score: inf
ROOT
ATOM      1  C   UNL     1       3.338 108.989 180.607  1.00  0.00     0.000 C 
ENDROOT
BRANCH   1   2
ATOM      2  C   UNL     1       2.598 108.507 179.345  1.00  0.00     0.000 C 
BRANCH   2   3
ATOM      3  C   UNL     1       1.216 107.882 179.607  1.00  0.00     0.000 C 
BRANCH   3   4
ATOM      4  C   UNL     1       1.054 106.499 178.952  1.00  0.00     0.000 C 
BRANCH   4   5
ATOM      5  C   UNL     1       2.071 105.475 179.478  1.00  0.00     0.000 C 
BRANCH   5   6
ATOM      6  C   UNL     1       2.662 104.602 178.357  1.00  0.00     0.000 C 
BRANCH   6   7
ATOM      7  C   UNL     1       4.198 104.663 178.307  1.00  0.00     0.000 C 
BRANCH   7   8
ATOM      8  C   UNL     1       4.791 105.519 179.439  1.00  0.00     0.000 C 
BRANCH   8   9
ATOM      9  C   UNL     1       6.163 106.111 179.076  1.00  0.00     0.000 C 
BRANCH   9  10
ATOM     10  C   UNL     1       7.067 106.313 180.302  1.00  0.00     0.000 C 
BRANCH  10  11
ATOM     11  C   UNL     1       8.281 105.378 180.247  1.00  0.00     0.000 C 
BRANCH  11  12
ATOM     12  C   UNL     1       8.409 104.563 181.542  1.00  0.00     0.006 C 
BRANCH  12  13
ATOM     13  C   UNL     1       9.426 105.175 182.515  1.00  0.00     0.053 C 
BRANCH  13  14
ATOM     14  C   UNL     1       8.807 105.477 183.846  1.00  0.00     0.041 C 
ATOM     15  O   UNL     1       9.184 106.480 184.508  1.00  0.00    -0.550 OA
ATOM     16  O   UNL     1       7.789 104.671 184.338  1.00  0.00    -0.550 OA
ENDBRANCH  13  14
ENDBRANCH  12  13
ENDBRANCH  11  12
ENDBRANCH  10  11
ENDBRANCH   9  10
ENDBRANCH   8   9
ENDBRANCH   7   8
ENDBRANCH   6   7
ENDBRANCH   5   6
ENDBRANCH   4   5
ENDBRANCH   3   4
ENDBRANCH   2   3
ENDBRANCH   1   2
BRANCH   1  17
ATOM     17  C   UNL     1       2.522 108.928 181.916  1.00  0.00     0.000 C 
BRANCH  17  18
ATOM     18  C   UNL     1       3.151 108.100 183.055  1.00  0.00     0.000 C 
BRANCH  18  19
ATOM     19  C   UNL     1       4.192 107.050 182.602  1.00  0.00     0.000 C 
BRANCH  19  20
ATOM     20  C   UNL     1       5.505 107.080 183.409  1.00  0.00     0.000 C 
BRANCH  20  21
ATOM     21  C   UNL     1       6.402 108.307 183.161  1.00  0.00     0.000 C 
BRANCH  21  22
ATOM     22  C   UNL     1       6.689 109.177 184.399  1.00  0.00    -0.000 C 
BRANCH  22  23
ATOM     23  C   UNL     1       5.969 110.535 184.358  1.00  0.00    -0.000 C 
BRANCH  23  24
ATOM     24  C   UNL     1       5.590 110.967 182.930  1.00  0.00    -0.000 C 
BRANCH  24  25
ATOM     25  C   UNL     1       4.343 111.869 182.820  1.00  0.00    -0.000 C 
BRANCH  25  26
ATOM     26  C   UNL     1       3.432 111.882 184.063  1.00  0.00    -0.000 C 
BRANCH  26  27
ATOM     27  C   UNL     1       2.973 113.281 184.515  1.00  0.00    -0.000 C 
BRANCH  27  28
ATOM     28  C   UNL     1       4.064 114.365 184.381  1.00  0.00    -0.000 C 
BRANCH  28  29
ATOM     29  C   UNL     1       3.592 115.577 183.565  1.00  0.00    -0.003 C 
ATOM     30  C   UNL     1       3.943 115.419 182.088  1.00  0.00     0.004 C 
ENDBRANCH  28  29
ENDBRANCH  27  28
ENDBRANCH  26  27
ENDBRANCH  25  26
ENDBRANCH  24  25
ENDBRANCH  23  24
ENDBRANCH  22  23
ENDBRANCH  21  22
ENDBRANCH  20  21
ENDBRANCH  19  20
ENDBRANCH  18  19
ENDBRANCH  17  18
ENDBRANCH   1  17
TORSDOF 26
ENDMDL
MODEL 2
REMARK VINA RESULT:    -3.551      3.089      4.868
REMARK INTER + INTRA:         -13.438
REMARK INTER:                  -9.327
REMARK INTRA:                  -4.111
REMARK UNBOUND:                -4.489
REMARK SMILES CCCCCCCCCCCCCCCCCCCCCCCCCCCC(=O)[O-]
REMARK SMILES IDX 15 1 16 2 17 3 18 4 19 5 20 6 21 7 22 8 23 9 24 10 25 11
REMARK SMILES IDX 26 12 27 13 28 14 29 15 30 16 14 17 13 18 12 19 11 20 10 21
REMARK SMILES IDX 9 22 8 23 7 24 6 25 5 26 4 27 3 28 2 29 1 30
REMARK H PARENT
REMARK Flexibility Score: inf
ROOT
ATOM      1  C   UNL     1       5.345 106.472 180.998  1.00  0.00     0.000 C 
ENDROOT
BRANCH   1   2
ATOM      2  C   UNL     1       4.081 106.602 181.870  1.00  0.00     0.000 C 
BRANCH   2   3
ATOM      3  C   UNL     1       3.055 107.635 181.368  1.00  0.00     0.000 C 
BRANCH   3   4
ATOM      4  C   UNL     1       3.466 108.281 180.034  1.00  0.00     0.000 C 
BRANCH   4   5
ATOM      5  C   UNL     1       2.312 108.331 179.022  1.00  0.00     0.000 C 
BRANCH   5   6
ATOM      6  C   UNL     1       1.139 107.418 179.419  1.00  0.00     0.000 C 
BRANCH   6   7
ATOM      7  C   UNL     1       0.523 106.687 178.215  1.00  0.00     0.000 C 
BRANCH   7   8
ATOM      8  C   UNL     1       1.401 105.526 177.717  1.00  0.00     0.000 C 
BRANCH   8   9
ATOM      9  C   UNL     1       2.147 104.817 178.859  1.00  0.00     0.000 C 
BRANCH   9  10
ATOM     10  C   UNL     1       3.621 104.541 178.527  1.00  0.00     0.000 C 
BRANCH  10  11
ATOM     11  C   UNL     1       3.816 104.353 177.018  1.00  0.00     0.000 C 
BRANCH  11  12
ATOM     12  C   UNL     1       5.124 103.605 176.720  1.00  0.00     0.006 C 
BRANCH  12  13
ATOM     13  C   UNL     1       5.109 102.936 175.339  1.00  0.00     0.053 C 
BRANCH  13  14
ATOM     14  C   UNL     1       5.775 101.594 175.366  1.00  0.00     0.041 C 
ATOM     15  O   UNL     1       5.141 100.564 175.015  1.00  0.00    -0.550 OA
ATOM     16  O   UNL     1       7.106 101.487 175.745  1.00  0.00    -0.550 OA
ENDBRANCH  13  14
ENDBRANCH  12  13
ENDBRANCH  11  12
ENDBRANCH  10  11
ENDBRANCH   9  10
ENDBRANCH   8   9
ENDBRANCH   7   8
ENDBRANCH   6   7
ENDBRANCH   5   6
ENDBRANCH   4   5
ENDBRANCH   3   4
ENDBRANCH   2   3
ENDBRANCH   1   2
BRANCH   1  17
ATOM     17  C   UNL     1       6.667 106.290 181.774  1.00  0.00     0.000 C 
BRANCH  17  18
ATOM     18  C   UNL     1       6.601 106.600 183.284  1.00  0.00     0.000 C 
BRANCH  18  19
ATOM     19  C   UNL     1       7.550 107.723 183.762  1.00  0.00     0.000 C 
BRANCH  19  20
ATOM     20  C   UNL     1       6.825 108.931 184.389  1.00  0.00     0.000 C 
BRANCH  20  21
ATOM     21  C   UNL     1       5.506 109.335 183.705  1.00  0.00     0.000 C 
BRANCH  21  22
ATOM     22  C   UNL     1       5.656 110.163 182.415  1.00  0.00    -0.000 C 
BRANCH  22  23
ATOM     23  C   UNL     1       4.497 111.149 182.197  1.00  0.00    -0.000 C 
BRANCH  23  24
ATOM     24  C   UNL     1       3.354 110.962 183.211  1.00  0.00    -0.000 C 
BRANCH  24  25
ATOM     25  C   UNL     1       3.108 112.155 184.158  1.00  0.00    -0.000 C 
BRANCH  25  26
ATOM     26  C   UNL     1       4.376 112.772 184.777  1.00  0.00    -0.000 C 
BRANCH  26  27
ATOM     27  C   UNL     1       4.792 114.130 184.181  1.00  0.00    -0.000 C 
BRANCH  27  28
ATOM     28  C   UNL     1       6.308 114.410 184.273  1.00  0.00    -0.000 C 
BRANCH  28  29
ATOM     29  C   UNL     1       7.123 113.569 183.280  1.00  0.00    -0.003 C 
ATOM     30  C   UNL     1       6.911 114.049 181.847  1.00  0.00     0.004 C 
ENDBRANCH  28  29
ENDBRANCH  27  28
ENDBRANCH  26  27
ENDBRANCH  25  26
ENDBRANCH  24  25
ENDBRANCH  23  24
ENDBRANCH  22  23
ENDBRANCH  21  22
ENDBRANCH  20  21
ENDBRANCH  19  20
ENDBRANCH  18  19
ENDBRANCH  17  18
ENDBRANCH   1  17
TORSDOF 26
ENDMDL
MODEL 3
REMARK VINA RESULT:    -3.422      2.962      8.519
REMARK INTER + INTRA:         -13.113
REMARK INTER:                  -7.901
REMARK INTRA:                  -5.212
REMARK UNBOUND:                -4.489
REMARK SMILES CCCCCCCCCCCCCCCCCCCCCCCCCCCC(=O)[O-]
REMARK SMILES IDX 15 1 16 2 17 3 18 4 19 5 20 6 21 7 22 8 23 9 24 10 25 11
REMARK SMILES IDX 26 12 27 13 28 14 29 15 30 16 14 17 13 18 12 19 11 20 10 21
REMARK SMILES IDX 9 22 8 23 7 24 6 25 5 26 4 27 3 28 2 29 1 30
REMARK H PARENT
REMARK Flexibility Score: inf
ROOT
ATOM      1  C   UNL     1       3.286 108.764 177.817  1.00  0.00     0.000 C 
ENDROOT
BRANCH   1   2
ATOM      2  C   UNL     1       4.045 109.263 179.061  1.00  0.00     0.000 C 
BRANCH   2   3
ATOM      3  C   UNL     1       5.463 108.686 179.226  1.00  0.00     0.000 C 
BRANCH   3   4
ATOM      4  C   UNL     1       5.625 107.308 178.562  1.00  0.00     0.000 C 
BRANCH   4   5
ATOM      5  C   UNL     1       5.655 106.161 179.583  1.00  0.00     0.000 C 
BRANCH   5   6
ATOM      6  C   UNL     1       4.252 105.618 179.903  1.00  0.00     0.000 C 
BRANCH   6   7
ATOM      7  C   UNL     1       3.700 106.150 181.235  1.00  0.00     0.000 C 
BRANCH   7   8
ATOM      8  C   UNL     1       4.808 106.677 182.164  1.00  0.00     0.000 C 
BRANCH   8   9
ATOM      9  C   UNL     1       4.405 107.968 182.892  1.00  0.00     0.000 C 
BRANCH   9  10
ATOM     10  C   UNL     1       2.963 108.399 182.586  1.00  0.00     0.000 C 
BRANCH  10  11
ATOM     11  C   UNL     1       2.756 109.885 182.902  1.00  0.00     0.000 C 
BRANCH  11  12
ATOM     12  C   UNL     1       4.101 110.603 183.079  1.00  0.00     0.006 C 
BRANCH  12  13
ATOM     13  C   UNL     1       4.372 111.615 181.957  1.00  0.00     0.053 C 
BRANCH  13  14
ATOM     14  C   UNL     1       5.806 111.590 181.523  1.00  0.00     0.041 C 
ATOM     15  O   UNL     1       6.590 110.713 181.974  1.00  0.00    -0.550 OA
ATOM     16  O   UNL     1       6.267 112.514 180.594  1.00  0.00    -0.550 OA
ENDBRANCH  13  14
ENDBRANCH  12  13
ENDBRANCH  11  12
ENDBRANCH  10  11
ENDBRANCH   9  10
ENDBRANCH   8   9
ENDBRANCH   7   8
ENDBRANCH   6   7
ENDBRANCH   5   6
ENDBRANCH   4   5
ENDBRANCH   3   4
ENDBRANCH   2   3
ENDBRANCH   1   2
BRANCH   1  17
ATOM     17  C   UNL     1       1.754 108.659 177.975  1.00  0.00     0.000 C 
BRANCH  17  18
ATOM     18  C   UNL     1       1.262 108.016 179.287  1.00  0.00     0.000 C 
BRANCH  18  19
ATOM     19  C   UNL     1       0.742 106.566 179.149  1.00  0.00     0.000 C 
BRANCH  19  20
ATOM     20  C   UNL     1       0.640 106.073 177.692  1.00  0.00     0.000 C 
BRANCH  20  21
ATOM     21  C   UNL     1       1.663 104.995 177.289  1.00  0.00     0.000 C 
BRANCH  21  22
ATOM     22  C   UNL     1       2.684 105.421 176.217  1.00  0.00    -0.000 C 
BRANCH  22  23
ATOM     23  C   UNL     1       4.044 104.720 176.371  1.00  0.00    -0.000 C 
BRANCH  23  24
ATOM     24  C   UNL     1       4.990 104.984 175.186  1.00  0.00    -0.000 C 
BRANCH  24  25
ATOM     25  C   UNL     1       5.444 103.731 174.409  1.00  0.00    -0.000 C 
BRANCH  25  26
ATOM     26  C   UNL     1       5.027 102.386 175.034  1.00  0.00    -0.000 C 
BRANCH  26  27
ATOM     27  C   UNL     1       6.156 101.344 175.141  1.00  0.00    -0.000 C 
BRANCH  27  28
ATOM     28  C   UNL     1       7.534 101.955 175.477  1.00  0.00    -0.000 C 
BRANCH  28  29
ATOM     29  C   UNL     1       7.778 102.060 176.989  1.00  0.00    -0.003 C 
ATOM     30  C   UNL     1       7.591 103.494 177.480  1.00  0.00     0.004 C 
ENDBRANCH  28  29
ENDBRANCH  27  28
ENDBRANCH  26  27
ENDBRANCH  25  26
ENDBRANCH  24  25
ENDBRANCH  23  24
ENDBRANCH  22  23
ENDBRANCH  21  22
ENDBRANCH  20  21
ENDBRANCH  19  20
ENDBRANCH  18  19
ENDBRANCH  17  18
ENDBRANCH   1  17
TORSDOF 26
ENDMDL
MODEL 4
REMARK VINA RESULT:    -3.420      3.395      5.960
REMARK INTER + INTRA:         -13.107
REMARK INTER:                  -8.343
REMARK INTRA:                  -4.765
REMARK UNBOUND:                -4.489
REMARK SMILES CCCCCCCCCCCCCCCCCCCCCCCCCCCC(=O)[O-]
REMARK SMILES IDX 15 1 16 2 17 3 18 4 19 5 20 6 21 7 22 8 23 9 24 10 25 11
REMARK SMILES IDX 26 12 27 13 28 14 29 15 30 16 14 17 13 18 12 19 11 20 10 21
REMARK SMILES IDX 9 22 8 23 7 24 6 25 5 26 4 27 3 28 2 29 1 30
REMARK H PARENT
REMARK Flexibility Score: inf
ROOT
ATOM      1  C   UNL     1       2.739 105.075 179.493  1.00  0.00     0.000 C 
ENDROOT
BRANCH   1   2
ATOM      2  C   UNL     1       2.240 104.678 178.090  1.00  0.00     0.000 C 
BRANCH   2   3
ATOM      3  C   UNL     1       1.093 105.547 177.544  1.00  0.00     0.000 C 
BRANCH   3   4
ATOM      4  C   UNL     1       1.035 106.936 178.202  1.00  0.00     0.000 C 
BRANCH   4   5
ATOM      5  C   UNL     1       1.330 108.072 177.210  1.00  0.00     0.000 C 
BRANCH   5   6
ATOM      6  C   UNL     1       2.519 108.944 177.649  1.00  0.00     0.000 C 
BRANCH   6   7
ATOM      7  C   UNL     1       3.875 108.353 177.227  1.00  0.00     0.000 C 
BRANCH   7   8
ATOM      8  C   UNL     1       3.810 107.641 175.865  1.00  0.00     0.000 C 
BRANCH   8   9
ATOM      9  C   UNL     1       4.529 106.283 175.873  1.00  0.00     0.000 C 
BRANCH   9  10
ATOM     10  C   UNL     1       3.942 105.293 174.855  1.00  0.00     0.000 C 
BRANCH  10  11
ATOM     11  C   UNL     1       4.852 104.070 174.694  1.00  0.00     0.000 C 
BRANCH  11  12
ATOM     12  C   UNL     1       5.643 103.798 175.981  1.00  0.00     0.006 C 
BRANCH  12  13
ATOM     13  C   UNL     1       5.502 102.344 176.453  1.00  0.00     0.053 C 
BRANCH  13  14
ATOM     14  C   UNL     1       5.896 101.373 175.383  1.00  0.00     0.041 C 
ATOM     15  O   UNL     1       5.057 100.549 174.934  1.00  0.00    -0.550 OA
ATOM     16  O   UNL     1       7.181 101.402 174.857  1.00  0.00    -0.550 OA
ENDBRANCH  13  14
ENDBRANCH  12  13
ENDBRANCH  11  12
ENDBRANCH  10  11
ENDBRANCH   9  10
ENDBRANCH   8   9
ENDBRANCH   7   8
ENDBRANCH   6   7
ENDBRANCH   5   6
ENDBRANCH   4   5
ENDBRANCH   3   4
ENDBRANCH   2   3
ENDBRANCH   1   2
BRANCH   1  17
ATOM     17  C   UNL     1       4.197 105.581 179.557  1.00  0.00     0.000 C 
BRANCH  17  18
ATOM     18  C   UNL     1       4.454 106.750 180.530  1.00  0.00     0.000 C 
BRANCH  18  19
ATOM     19  C   UNL     1       3.335 106.993 181.569  1.00  0.00     0.000 C 
BRANCH  19  20
ATOM     20  C   UNL     1       2.555 108.305 181.353  1.00  0.00     0.000 C 
BRANCH  20  21
ATOM     21  C   UNL     1       2.132 109.039 182.639  1.00  0.00     0.000 C 
BRANCH  21  22
ATOM     22  C   UNL     1       3.069 110.175 183.090  1.00  0.00    -0.000 C 
BRANCH  22  23
ATOM     23  C   UNL     1       3.991 110.674 181.965  1.00  0.00    -0.000 C 
BRANCH  23  24
ATOM     24  C   UNL     1       5.264 111.360 182.496  1.00  0.00    -0.000 C 
BRANCH  24  25
ATOM     25  C   UNL     1       5.980 110.626 183.648  1.00  0.00    -0.000 C 
BRANCH  25  26
ATOM     26  C   UNL     1       7.275 109.892 183.252  1.00  0.00    -0.000 C 
BRANCH  26  27
ATOM     27  C   UNL     1       7.064 108.503 182.619  1.00  0.00    -0.000 C 
BRANCH  27  28
ATOM     28  C   UNL     1       6.334 107.505 183.544  1.00  0.00    -0.000 C 
BRANCH  28  29
ATOM     29  C   UNL     1       6.984 106.114 183.538  1.00  0.00    -0.003 C 
ATOM     30  C   UNL     1       7.579 105.788 182.170  1.00  0.00     0.004 C 
ENDBRANCH  28  29
ENDBRANCH  27  28
ENDBRANCH  26  27
ENDBRANCH  25  26
ENDBRANCH  24  25
ENDBRANCH  23  24
ENDBRANCH  22  23
ENDBRANCH  21  22
ENDBRANCH  20  21
ENDBRANCH  19  20
ENDBRANCH  18  19
ENDBRANCH  17  18
ENDBRANCH   1  17
TORSDOF 26
ENDMDL
MODEL 5
REMARK VINA RESULT:    -3.420      4.105      9.036
REMARK INTER + INTRA:         -13.107
REMARK INTER:                  -7.988
REMARK INTRA:                  -5.119
REMARK UNBOUND:                -4.489
REMARK SMILES CCCCCCCCCCCCCCCCCCCCCCCCCCCC(=O)[O-]
REMARK SMILES IDX 15 1 16 2 17 3 18 4 19 5 20 6 21 7 22 8 23 9 24 10 25 11
REMARK SMILES IDX 26 12 27 13 28 14 29 15 30 16 14 17 13 18 12 19 11 20 10 21
REMARK SMILES IDX 9 22 8 23 7 24 6 25 5 26 4 27 3 28 2 29 1 30
REMARK H PARENT
REMARK Flexibility Score: inf
ROOT
ATOM      1  C   UNL     1       4.264 108.625 176.699  1.00  0.00     0.000 C 
ENDROOT
BRANCH   1   2
ATOM      2  C   UNL     1       3.354 108.967 177.894  1.00  0.00     0.000 C 
BRANCH   2   3
ATOM      3  C   UNL     1       1.885 108.539 177.729  1.00  0.00     0.000 C 
BRANCH   3   4
ATOM      4  C   UNL     1       1.190 108.269 179.075  1.00  0.00     0.000 C 
BRANCH   4   5
ATOM      5  C   UNL     1       0.788 106.797 179.247  1.00  0.00     0.000 C 
BRANCH   5   6
ATOM      6  C   UNL     1       1.346 105.898 178.130  1.00  0.00     0.000 C 
BRANCH   6   7
ATOM      7  C   UNL     1       2.319 104.831 178.658  1.00  0.00     0.000 C 
BRANCH   7   8
ATOM      8  C   UNL     1       2.921 105.207 180.023  1.00  0.00     0.000 C 
BRANCH   8   9
ATOM      9  C   UNL     1       4.332 105.803 179.902  1.00  0.00     0.000 C 
BRANCH   9  10
ATOM     10  C   UNL     1       4.533 107.041 180.790  1.00  0.00     0.000 C 
BRANCH  10  11
ATOM     11  C   UNL     1       3.708 106.931 182.078  1.00  0.00     0.000 C 
BRANCH  11  12
ATOM     12  C   UNL     1       2.912 108.219 182.334  1.00  0.00     0.006 C 
BRANCH  12  13
ATOM     13  C   UNL     1       3.524 109.432 181.620  1.00  0.00     0.053 C 
BRANCH  13  14
ATOM     14  C   UNL     1       3.785 110.560 182.570  1.00  0.00     0.041 C 
ATOM     15  O   UNL     1       2.906 110.905 183.403  1.00  0.00    -0.550 OA
ATOM     16  O   UNL     1       5.014 111.206 182.560  1.00  0.00    -0.550 OA
ENDBRANCH  13  14
ENDBRANCH  12  13
ENDBRANCH  11  12
ENDBRANCH  10  11
ENDBRANCH   9  10
ENDBRANCH   8   9
ENDBRANCH   7   8
ENDBRANCH   6   7
ENDBRANCH   5   6
ENDBRANCH   4   5
ENDBRANCH   3   4
ENDBRANCH   2   3
ENDBRANCH   1   2
BRANCH   1  17
ATOM     17  C   UNL     1       4.069 107.215 176.101  1.00  0.00     0.000 C 
BRANCH  17  18
ATOM     18  C   UNL     1       5.146 106.177 176.476  1.00  0.00     0.000 C 
BRANCH  18  19
ATOM     19  C   UNL     1       4.863 104.737 175.989  1.00  0.00     0.000 C 
BRANCH  19  20
ATOM     20  C   UNL     1       5.418 103.640 176.919  1.00  0.00     0.000 C 
BRANCH  20  21
ATOM     21  C   UNL     1       5.496 102.231 176.303  1.00  0.00     0.000 C 
BRANCH  21  22
ATOM     22  C   UNL     1       6.918 101.707 176.032  1.00  0.00    -0.000 C 
BRANCH  22  23
ATOM     23  C   UNL     1       7.318 101.797 174.549  1.00  0.00    -0.000 C 
BRANCH  23  24
ATOM     24  C   UNL     1       7.943 103.155 174.181  1.00  0.00    -0.000 C 
BRANCH  24  25
ATOM     25  C   UNL     1       7.173 103.973 173.123  1.00  0.00    -0.000 C 
BRANCH  25  26
ATOM     26  C   UNL     1       6.939 103.253 171.781  1.00  0.00    -0.000 C 
BRANCH  26  27
ATOM     27  C   UNL     1       5.465 102.934 171.466  1.00  0.00    -0.000 C 
BRANCH  27  28
ATOM     28  C   UNL     1       4.485 103.371 172.577  1.00  0.00    -0.000 C 
BRANCH  28  29
ATOM     29  C   UNL     1       3.503 104.451 172.104  1.00  0.00    -0.003 C 
ATOM     30  C   UNL     1       3.962 105.842 172.536  1.00  0.00     0.004 C 
ENDBRANCH  28  29
ENDBRANCH  27  28
ENDBRANCH  26  27
ENDBRANCH  25  26
ENDBRANCH  24  25
ENDBRANCH  23  24
ENDBRANCH  22  23
ENDBRANCH  21  22
ENDBRANCH  20  21
ENDBRANCH  19  20
ENDBRANCH  18  19
ENDBRANCH  17  18
ENDBRANCH   1  17
TORSDOF 26
ENDMDL
MODEL 6
REMARK VINA RESULT:    -3.419      3.372      5.950
REMARK INTER + INTRA:         -13.105
REMARK INTER:                  -8.490
REMARK INTRA:                  -4.615
REMARK UNBOUND:                -4.489
REMARK SMILES CCCCCCCCCCCCCCCCCCCCCCCCCCCC(=O)[O-]
REMARK SMILES IDX 15 1 16 2 17 3 18 4 19 5 20 6 21 7 22 8 23 9 24 10 25 11
REMARK SMILES IDX 26 12 27 13 28 14 29 15 30 16 14 17 13 18 12 19 11 20 10 21
REMARK SMILES IDX 9 22 8 23 7 24 6 25 5 26 4 27 3 28 2 29 1 30
REMARK H PARENT
REMARK Flexibility Score: inf
ROOT
ATOM      1  C   UNL     1       3.313 109.912 182.685  1.00  0.00     0.000 C 
ENDROOT
BRANCH   1   2
ATOM      2  C   UNL     1       2.320 108.859 182.158  1.00  0.00     0.000 C 
BRANCH   2   3
ATOM      3  C   UNL     1       2.489 108.502 180.670  1.00  0.00     0.000 C 
BRANCH   3   4
ATOM      4  C   UNL     1       1.242 107.825 180.076  1.00  0.00     0.000 C 
BRANCH   4   5
ATOM      5  C   UNL     1       1.591 106.773 179.012  1.00  0.00     0.000 C 
BRANCH   5   6
ATOM      6  C   UNL     1       2.050 105.440 179.628  1.00  0.00     0.000 C 
BRANCH   6   7
ATOM      7  C   UNL     1       2.868 104.585 178.647  1.00  0.00     0.000 C 
BRANCH   7   8
ATOM      8  C   UNL     1       2.699 105.038 177.187  1.00  0.00     0.000 C 
BRANCH   8   9
ATOM      9  C   UNL     1       4.039 105.144 176.442  1.00  0.00     0.000 C 
BRANCH   9  10
ATOM     10  C   UNL     1       4.775 103.799 176.345  1.00  0.00     0.000 C 
BRANCH  10  11
ATOM     11  C   UNL     1       5.260 103.542 174.914  1.00  0.00     0.000 C 
BRANCH  11  12
ATOM     12  C   UNL     1       5.037 102.077 174.511  1.00  0.00     0.006 C 
BRANCH  12  13
ATOM     13  C   UNL     1       6.111 101.146 175.090  1.00  0.00     0.053 C 
BRANCH  13  14
ATOM     14  C   UNL     1       7.483 101.733 174.960  1.00  0.00     0.041 C 
ATOM     15  O   UNL     1       8.157 102.006 175.988  1.00  0.00    -0.550 OA
ATOM     16  O   UNL     1       8.031 101.946 173.701  1.00  0.00    -0.550 OA
ENDBRANCH  13  14
ENDBRANCH  12  13
ENDBRANCH  11  12
ENDBRANCH  10  11
ENDBRANCH   9  10
ENDBRANCH   8   9
ENDBRANCH   7   8
ENDBRANCH   6   7
ENDBRANCH   5   6
ENDBRANCH   4   5
ENDBRANCH   3   4
ENDBRANCH   2   3
ENDBRANCH   1   2
BRANCH   1  17
ATOM     17  C   UNL     1       4.484 110.251 181.738  1.00  0.00     0.000 C 
BRANCH  17  18
ATOM     18  C   UNL     1       5.874 110.333 182.400  1.00  0.00     0.000 C 
BRANCH  18  19
ATOM     19  C   UNL     1       5.864 110.304 183.946  1.00  0.00     0.000 C 
BRANCH  19  20
ATOM     20  C   UNL     1       6.665 109.138 184.556  1.00  0.00     0.000 C 
BRANCH  20  21
ATOM     21  C   UNL     1       7.649 108.441 183.598  1.00  0.00     0.000 C 
BRANCH  21  22
ATOM     22  C   UNL     1       7.353 106.958 183.310  1.00  0.00    -0.000 C 
BRANCH  22  23
ATOM     23  C   UNL     1       5.861 106.608 183.440  1.00  0.00    -0.000 C 
BRANCH  23  24
ATOM     24  C   UNL     1       5.139 106.556 182.081  1.00  0.00    -0.000 C 
BRANCH  24  25
ATOM     25  C   UNL     1       6.025 106.179 180.875  1.00  0.00    -0.000 C 
BRANCH  25  26
ATOM     26  C   UNL     1       5.553 106.733 179.517  1.00  0.00    -0.000 C 
BRANCH  26  27
ATOM     27  C   UNL     1       6.680 107.243 178.600  1.00  0.00    -0.000 C 
BRANCH  27  28
ATOM     28  C   UNL     1       6.320 108.536 177.835  1.00  0.00    -0.000 C 
BRANCH  28  29
ATOM     29  C   UNL     1       4.902 109.032 178.153  1.00  0.00    -0.003 C 
ATOM     30  C   UNL     1       3.957 108.791 176.979  1.00  0.00     0.004 C 
ENDBRANCH  28  29
ENDBRANCH  27  28
ENDBRANCH  26  27
ENDBRANCH  25  26
ENDBRANCH  24  25
ENDBRANCH  23  24
ENDBRANCH  22  23
ENDBRANCH  21  22
ENDBRANCH  20  21
ENDBRANCH  19  20
ENDBRANCH  18  19
ENDBRANCH  17  18
ENDBRANCH   1  17
TORSDOF 26
ENDMDL
MODEL 7
REMARK VINA RESULT:    -3.404      2.693      7.725
REMARK INTER + INTRA:         -13.068
REMARK INTER:                  -7.901
REMARK INTRA:                  -5.167
REMARK UNBOUND:                -4.489
REMARK SMILES CCCCCCCCCCCCCCCCCCCCCCCCCCCC(=O)[O-]
REMARK SMILES IDX 15 1 16 2 17 3 18 4 19 5 20 6 21 7 22 8 23 9 24 10 25 11
REMARK SMILES IDX 26 12 27 13 28 14 29 15 30 16 14 17 13 18 12 19 11 20 10 21
REMARK SMILES IDX 9 22 8 23 7 24 6 25 5 26 4 27 3 28 2 29 1 30
REMARK H PARENT
REMARK Flexibility Score: inf
ROOT
ATOM      1  C   UNL     1       2.154 108.554 181.681  1.00  0.00     0.000 C 
ENDROOT
BRANCH   1   2
ATOM      2  C   UNL     1       3.147 107.837 182.616  1.00  0.00     0.000 C 
BRANCH   2   3
ATOM      3  C   UNL     1       4.076 106.826 181.918  1.00  0.00     0.000 C 
BRANCH   3   4
ATOM      4  C   UNL     1       5.429 106.671 182.633  1.00  0.00     0.000 C 
BRANCH   4   5
ATOM      5  C   UNL     1       5.594 107.649 183.805  1.00  0.00     0.000 C 
BRANCH   5   6
ATOM      6  C   UNL     1       7.049 108.115 183.986  1.00  0.00     0.000 C 
BRANCH   6   7
ATOM      7  C   UNL     1       7.983 107.579 182.889  1.00  0.00     0.000 C 
BRANCH   7   8
ATOM      8  C   UNL     1       8.615 108.703 182.050  1.00  0.00     0.000 C 
BRANCH   8   9
ATOM      9  C   UNL     1       7.763 109.080 180.828  1.00  0.00     0.000 C 
BRANCH   9  10
ATOM     10  C   UNL     1       7.020 110.412 181.009  1.00  0.00     0.000 C 
BRANCH  10  11
ATOM     11  C   UNL     1       5.502 110.194 181.027  1.00  0.00     0.000 C 
BRANCH  11  12
ATOM     12  C   UNL     1       4.790 111.336 181.765  1.00  0.00     0.006 C 
BRANCH  12  13
ATOM     13  C   UNL     1       4.840 111.162 183.290  1.00  0.00     0.053 C 
BRANCH  13  14
ATOM     14  C   UNL     1       4.191 112.310 184.000  1.00  0.00     0.041 C 
ATOM     15  O   UNL     1       4.855 113.345 184.273  1.00  0.00    -0.550 OA
ATOM     16  O   UNL     1       2.843 112.251 184.329  1.00  0.00    -0.550 OA
ENDBRANCH  13  14
ENDBRANCH  12  13
ENDBRANCH  11  12
ENDBRANCH  10  11
ENDBRANCH   9  10
ENDBRANCH   8   9
ENDBRANCH   7   8
ENDBRANCH   6   7
ENDBRANCH   5   6
ENDBRANCH   4   5
ENDBRANCH   3   4
ENDBRANCH   2   3
ENDBRANCH   1   2
BRANCH   1  17
ATOM     17  C   UNL     1       2.387 108.329 180.172  1.00  0.00     0.000 C 
BRANCH  17  18
ATOM     18  C   UNL     1       1.113 108.170 179.317  1.00  0.00     0.000 C 
BRANCH  18  19
ATOM     19  C   UNL     1       0.621 106.714 179.143  1.00  0.00     0.000 C 
BRANCH  19  20
ATOM     20  C   UNL     1       0.979 106.092 177.779  1.00  0.00     0.000 C 
BRANCH  20  21
ATOM     21  C   UNL     1       1.778 104.777 177.843  1.00  0.00     0.000 C 
BRANCH  21  22
ATOM     22  C   UNL     1       2.891 104.733 178.907  1.00  0.00    -0.000 C 
BRANCH  22  23
ATOM     23  C   UNL     1       4.298 104.905 178.311  1.00  0.00    -0.000 C 
BRANCH  23  24
ATOM     24  C   UNL     1       4.734 106.380 178.225  1.00  0.00    -0.000 C 
BRANCH  24  25
ATOM     25  C   UNL     1       6.208 106.656 178.586  1.00  0.00    -0.000 C 
BRANCH  25  26
ATOM     26  C   UNL     1       6.843 105.649 179.565  1.00  0.00    -0.000 C 
BRANCH  26  27
ATOM     27  C   UNL     1       8.343 105.385 179.340  1.00  0.00    -0.000 C 
BRANCH  27  28
ATOM     28  C   UNL     1       8.669 103.917 178.989  1.00  0.00    -0.000 C 
BRANCH  28  29
ATOM     29  C   UNL     1       7.900 103.423 177.756  1.00  0.00    -0.003 C 
ATOM     30  C   UNL     1       8.248 101.972 177.433  1.00  0.00     0.004 C 
ENDBRANCH  28  29
ENDBRANCH  27  28
ENDBRANCH  26  27
ENDBRANCH  25  26
ENDBRANCH  24  25
ENDBRANCH  23  24
ENDBRANCH  22  23
ENDBRANCH  21  22
ENDBRANCH  20  21
ENDBRANCH  19  20
ENDBRANCH  18  19
ENDBRANCH  17  18
ENDBRANCH   1  17
TORSDOF 26
ENDMDL
MODEL 8
REMARK VINA RESULT:    -3.381      3.182      4.929
REMARK INTER + INTRA:         -13.008
REMARK INTER:                  -8.587
REMARK INTRA:                  -4.421
REMARK UNBOUND:                -4.489
REMARK SMILES CCCCCCCCCCCCCCCCCCCCCCCCCCCC(=O)[O-]
REMARK SMILES IDX 15 1 16 2 17 3 18 4 19 5 20 6 21 7 22 8 23 9 24 10 25 11
REMARK SMILES IDX 26 12 27 13 28 14 29 15 30 16 14 17 13 18 12 19 11 20 10 21
REMARK SMILES IDX 9 22 8 23 7 24 6 25 5 26 4 27 3 28 2 29 1 30
REMARK H PARENT
REMARK Flexibility Score: inf
ROOT
ATOM      1  C   UNL     1       6.747 109.247 180.615  1.00  0.00     0.000 C 
ENDROOT
BRANCH   1   2
ATOM      2  C   UNL     1       7.025 107.893 179.934  1.00  0.00     0.000 C 
BRANCH   2   3
ATOM      3  C   UNL     1       5.927 107.423 178.963  1.00  0.00     0.000 C 
BRANCH   3   4
ATOM      4  C   UNL     1       4.752 108.412 178.869  1.00  0.00     0.000 C 
BRANCH   4   5
ATOM      5  C   UNL     1       3.893 108.191 177.616  1.00  0.00     0.000 C 
BRANCH   5   6
ATOM      6  C   UNL     1       2.412 108.542 177.846  1.00  0.00     0.000 C 
BRANCH   6   7
ATOM      7  C   UNL     1       1.503 107.302 177.847  1.00  0.00     0.000 C 
BRANCH   7   8
ATOM      8  C   UNL     1       1.322 106.705 179.253  1.00  0.00     0.000 C 
BRANCH   8   9
ATOM      9  C   UNL     1       2.183 105.452 179.479  1.00  0.00     0.000 C 
BRANCH   9  10
ATOM     10  C   UNL     1       2.515 104.715 178.173  1.00  0.00     0.000 C 
BRANCH  10  11
ATOM     11  C   UNL     1       3.991 104.302 178.137  1.00  0.00     0.000 C 
BRANCH  11  12
ATOM     12  C   UNL     1       4.456 104.041 176.697  1.00  0.00     0.006 C 
BRANCH  12  13
ATOM     13  C   UNL     1       5.501 102.919 176.619  1.00  0.00     0.053 C 
BRANCH  13  14
ATOM     14  C   UNL     1       5.450 102.206 175.302  1.00  0.00     0.041 C 
ATOM     15  O   UNL     1       5.721 100.978 175.234  1.00  0.00    -0.550 OA
ATOM     16  O   UNL     1       5.068 102.891 174.156  1.00  0.00    -0.550 OA
ENDBRANCH  13  14
ENDBRANCH  12  13
ENDBRANCH  11  12
ENDBRANCH  10  11
ENDBRANCH   9  10
ENDBRANCH   8   9
ENDBRANCH   7   8
ENDBRANCH   6   7
ENDBRANCH   5   6
ENDBRANCH   4   5
ENDBRANCH   3   4
ENDBRANCH   2   3
ENDBRANCH   1   2
BRANCH   1  17
ATOM     17  C   UNL     1       7.443 109.457 181.977  1.00  0.00     0.000 C 
BRANCH  17  18
ATOM     18  C   UNL     1       7.504 108.217 182.892  1.00  0.00     0.000 C 
BRANCH  18  19
ATOM     19  C   UNL     1       6.176 107.861 183.599  1.00  0.00     0.000 C 
BRANCH  19  20
ATOM     20  C   UNL     1       5.468 106.623 183.015  1.00  0.00     0.000 C 
BRANCH  20  21
ATOM     21  C   UNL     1       4.175 106.912 182.230  1.00  0.00     0.000 C 
BRANCH  21  22
ATOM     22  C   UNL     1       3.252 107.979 182.848  1.00  0.00    -0.000 C 
BRANCH  22  23
ATOM     23  C   UNL     1       3.183 109.269 182.013  1.00  0.00    -0.000 C 
BRANCH  23  24
ATOM     24  C   UNL     1       3.134 110.540 182.881  1.00  0.00    -0.000 C 
BRANCH  24  25
ATOM     25  C   UNL     1       4.500 111.200 183.164  1.00  0.00    -0.000 C 
BRANCH  25  26
ATOM     26  C   UNL     1       4.519 112.181 184.352  1.00  0.00    -0.000 C 
BRANCH  26  27
ATOM     27  C   UNL     1       3.160 112.828 184.679  1.00  0.00    -0.000 C 
BRANCH  27  28
ATOM     28  C   UNL     1       3.074 114.321 184.293  1.00  0.00    -0.000 C 
BRANCH  28  29
ATOM     29  C   UNL     1       4.336 114.816 183.575  1.00  0.00    -0.003 C 
ATOM     30  C   UNL     1       4.012 115.314 182.169  1.00  0.00     0.004 C 
ENDBRANCH  28  29
ENDBRANCH  27  28
ENDBRANCH  26  27
ENDBRANCH  25  26
ENDBRANCH  24  25
ENDBRANCH  23  24
ENDBRANCH  22  23
ENDBRANCH  21  22
ENDBRANCH  20  21
ENDBRANCH  19  20
ENDBRANCH  18  19
ENDBRANCH  17  18
ENDBRANCH   1  17
TORSDOF 26
ENDMDL
MODEL 9
REMARK VINA RESULT:    -3.354      4.029      8.914
REMARK INTER + INTRA:         -12.941
REMARK INTER:                  -7.752
REMARK INTRA:                  -5.189
REMARK UNBOUND:                -4.489
REMARK SMILES CCCCCCCCCCCCCCCCCCCCCCCCCCCC(=O)[O-]
REMARK SMILES IDX 15 1 16 2 17 3 18 4 19 5 20 6 21 7 22 8 23 9 24 10 25 11
REMARK SMILES IDX 26 12 27 13 28 14 29 15 30 16 14 17 13 18 12 19 11 20 10 21
REMARK SMILES IDX 9 22 8 23 7 24 6 25 5 26 4 27 3 28 2 29 1 30
REMARK H PARENT
REMARK Flexibility Score: inf
ROOT
ATOM      1  C   UNL     1       3.988 107.563 175.612  1.00  0.00     0.000 C 
ENDROOT
BRANCH   1   2
ATOM      2  C   UNL     1       2.642 107.344 176.328  1.00  0.00     0.000 C 
BRANCH   2   3
ATOM      3  C   UNL     1       1.811 106.164 175.793  1.00  0.00     0.000 C 
BRANCH   3   4
ATOM      4  C   UNL     1       1.413 105.167 176.895  1.00  0.00     0.000 C 
BRANCH   4   5
ATOM      5  C   UNL     1       1.682 105.711 178.307  1.00  0.00     0.000 C 
BRANCH   5   6
ATOM      6  C   UNL     1       2.559 104.765 179.146  1.00  0.00     0.000 C 
BRANCH   6   7
ATOM      7  C   UNL     1       3.498 105.520 180.101  1.00  0.00     0.000 C 
BRANCH   7   8
ATOM      8  C   UNL     1       4.124 106.765 179.450  1.00  0.00     0.000 C 
BRANCH   8   9
ATOM      9  C   UNL     1       5.652 106.808 179.604  1.00  0.00     0.000 C 
BRANCH   9  10
ATOM     10  C   UNL     1       6.162 105.902 180.735  1.00  0.00     0.000 C 
BRANCH  10  11
ATOM     11  C   UNL     1       6.766 106.732 181.873  1.00  0.00     0.000 C 
BRANCH  11  12
ATOM     12  C   UNL     1       5.930 106.603 183.154  1.00  0.00     0.006 C 
BRANCH  12  13
ATOM     13  C   UNL     1       4.743 107.576 183.174  1.00  0.00     0.053 C 
BRANCH  13  14
ATOM     14  C   UNL     1       5.192 109.000 183.056  1.00  0.00     0.041 C 
ATOM     15  O   UNL     1       5.792 109.557 184.013  1.00  0.00    -0.550 OA
ATOM     16  O   UNL     1       4.979 109.701 181.876  1.00  0.00    -0.550 OA
ENDBRANCH  13  14
ENDBRANCH  12  13
ENDBRANCH  11  12
ENDBRANCH  10  11
ENDBRANCH   9  10
ENDBRANCH   8   9
ENDBRANCH   7   8
ENDBRANCH   6   7
ENDBRANCH   5   6
ENDBRANCH   4   5
ENDBRANCH   3   4
ENDBRANCH   2   3
ENDBRANCH   1   2
BRANCH   1  17
ATOM     17  C   UNL     1       4.609 106.304 174.972  1.00  0.00     0.000 C 
BRANCH  17  18
ATOM     18  C   UNL     1       5.306 105.335 175.949  1.00  0.00     0.000 C 
BRANCH  18  19
ATOM     19  C   UNL     1       4.743 103.894 175.953  1.00  0.00     0.000 C 
BRANCH  19  20
ATOM     20  C   UNL     1       5.198 103.047 177.157  1.00  0.00     0.000 C 
BRANCH  20  21
ATOM     21  C   UNL     1       6.116 101.858 176.816  1.00  0.00     0.000 C 
BRANCH  21  22
ATOM     22  C   UNL     1       6.020 101.344 175.367  1.00  0.00    -0.000 C 
BRANCH  22  23
ATOM     23  C   UNL     1       7.370 101.369 174.631  1.00  0.00    -0.000 C 
BRANCH  23  24
ATOM     24  C   UNL     1       8.341 102.421 175.199  1.00  0.00    -0.000 C 
BRANCH  24  25
ATOM     25  C   UNL     1       8.365 103.771 174.451  1.00  0.00    -0.000 C 
BRANCH  25  26
ATOM     26  C   UNL     1       8.036 103.693 172.948  1.00  0.00    -0.000 C 
BRANCH  26  27
ATOM     27  C   UNL     1       6.645 104.229 172.561  1.00  0.00    -0.000 C 
BRANCH  27  28
ATOM     28  C   UNL     1       5.788 103.218 171.770  1.00  0.00    -0.000 C 
BRANCH  28  29
ATOM     29  C   UNL     1       4.381 103.049 172.360  1.00  0.00    -0.003 C 
ATOM     30  C   UNL     1       3.488 104.235 172.007  1.00  0.00     0.004 C 
ENDBRANCH  28  29
ENDBRANCH  27  28
ENDBRANCH  26  27
ENDBRANCH  25  26
ENDBRANCH  24  25
ENDBRANCH  23  24
ENDBRANCH  22  23
ENDBRANCH  21  22
ENDBRANCH  20  21
ENDBRANCH  19  20
ENDBRANCH  18  19
ENDBRANCH  17  18
ENDBRANCH   1  17
TORSDOF 26
ENDMDL
