MODEL 1
REMARK VINA RESULT:    -3.150      0.000      0.000
REMARK INTER + INTRA:          -7.424
REMARK INTER:                  -5.728
REMARK INTRA:                  -1.696
REMARK UNBOUND:                -1.696
REMARK SMILES CCCCCCCCCCCCCCCC(=O)[O-]
REMARK SMILES IDX 9 1 10 2 11 3 12 4 13 5 14 6 15 7 16 8 17 9 18 10 8 11 7 12
REMARK SMILES IDX 6 13 5 14 4 15 3 16 2 17 1 18
REMARK H PARENT
REMARK Flexibility Score: inf
ROOT
ATOM      1  C   UNL     1     -13.891  13.521   8.023  1.00  0.00     0.000 C 
ENDROOT
BRANCH   1   2
ATOM      2  C   UNL     1     -14.866  12.924   6.993  1.00  0.00     0.000 C 
BRANCH   2   3
ATOM      3  C   UNL     1     -16.214  12.523   7.612  1.00  0.00     0.000 C 
BRANCH   3   4
ATOM      4  C   UNL     1     -16.737  11.173   7.090  1.00  0.00     0.000 C 
BRANCH   4   5
ATOM      5  C   UNL     1     -16.953  10.088   8.162  1.00  0.00     0.000 C 
BRANCH   5   6
ATOM      6  C   UNL     1     -15.678   9.363   8.637  1.00  0.00     0.006 C 
BRANCH   6   7
ATOM      7  C   UNL     1     -15.905   7.893   9.035  1.00  0.00     0.053 C 
BRANCH   7   8
ATOM      8  C   UNL     1     -15.555   7.620  10.466  1.00  0.00     0.041 C 
ATOM      9  O   UNL     1     -16.021   8.345  11.384  1.00  0.00    -0.550 OA
ATOM     10  O   UNL     1     -14.740   6.542  10.791  1.00  0.00    -0.550 OA
ENDBRANCH   7   8
ENDBRANCH   6   7
ENDBRANCH   5   6
ENDBRANCH   4   5
ENDBRANCH   3   4
ENDBRANCH   2   3
ENDBRANCH   1   2
BRANCH   1  11
ATOM     11  C   UNL     1     -14.281  13.227   9.488  1.00  0.00     0.000 C 
BRANCH  11  12
ATOM     12  C   UNL     1     -13.972  14.414  10.418  1.00  0.00    -0.000 C 
BRANCH  12  13
ATOM     13  C   UNL     1     -13.339  13.979  11.749  1.00  0.00    -0.000 C 
BRANCH  13  14
ATOM     14  C   UNL     1     -14.372  13.844  12.880  1.00  0.00    -0.000 C 
BRANCH  14  15
ATOM     15  C   UNL     1     -15.588  14.762  12.681  1.00  0.00    -0.000 C 
BRANCH  15  16
ATOM     16  C   UNL     1     -16.914  13.988  12.614  1.00  0.00    -0.000 C 
BRANCH  16  17
ATOM     17  C   UNL     1     -16.670  12.476  12.704  1.00  0.00    -0.003 C 
ATOM     18  C   UNL     1     -17.068  11.776  11.408  1.00  0.00     0.004 C 
ENDBRANCH  16  17
ENDBRANCH  15  16
ENDBRANCH  14  15
ENDBRANCH  13  14
ENDBRANCH  12  13
ENDBRANCH  11  12
ENDBRANCH   1  11
TORSDOF 14
ENDMDL
MODEL 2
REMARK VINA RESULT:    -3.019      2.413      6.084
REMARK INTER + INTRA:          -7.185
REMARK INTER:                  -6.202
REMARK INTRA:                  -0.983
REMARK UNBOUND:                -1.696
REMARK SMILES CCCCCCCCCCCCCCCC(=O)[O-]
REMARK SMILES IDX 9 1 10 2 11 3 12 4 13 5 14 6 15 7 16 8 17 9 18 10 8 11 7 12
REMARK SMILES IDX 6 13 5 14 4 15 3 16 2 17 1 18
REMARK H PARENT
REMARK Flexibility Score: inf
ROOT
ATOM      1  C   UNL     1     -16.301  11.957   7.847  1.00  0.00     0.000 C 
ENDROOT
BRANCH   1   2
ATOM      2  C   UNL     1     -15.188  12.714   7.103  1.00  0.00     0.000 C 
BRANCH   2   3
ATOM      3  C   UNL     1     -14.110  13.267   8.049  1.00  0.00     0.000 C 
BRANCH   3   4
ATOM      4  C   UNL     1     -14.458  13.076   9.536  1.00  0.00     0.000 C 
BRANCH   4   5
ATOM      5  C   UNL     1     -13.958  14.185  10.480  1.00  0.00     0.000 C 
BRANCH   5   6
ATOM      6  C   UNL     1     -13.432  13.704  11.847  1.00  0.00     0.006 C 
BRANCH   6   7
ATOM      7  C   UNL     1     -14.187  14.295  13.052  1.00  0.00     0.053 C 
BRANCH   7   8
ATOM      8  C   UNL     1     -15.674  14.285  12.863  1.00  0.00     0.041 C 
ATOM      9  O   UNL     1     -16.310  13.199  12.887  1.00  0.00    -0.550 OA
ATOM     10  O   UNL     1     -16.364  15.480  12.695  1.00  0.00    -0.550 OA
ENDBRANCH   7   8
ENDBRANCH   6   7
ENDBRANCH   5   6
ENDBRANCH   4   5
ENDBRANCH   3   4
ENDBRANCH   2   3
ENDBRANCH   1   2
BRANCH   1  11
ATOM     11  C   UNL     1     -16.394  10.463   7.471  1.00  0.00     0.000 C 
BRANCH  11  12
ATOM     12  C   UNL     1     -15.361   9.610   8.229  1.00  0.00    -0.000 C 
BRANCH  12  13
ATOM     13  C   UNL     1     -15.977   8.350   8.858  1.00  0.00    -0.000 C 
BRANCH  13  14
ATOM     14  C   UNL     1     -16.607   8.622  10.235  1.00  0.00    -0.000 C 
BRANCH  14  15
ATOM     15  C   UNL     1     -15.870   7.901  11.374  1.00  0.00    -0.000 C 
BRANCH  15  16
ATOM     16  C   UNL     1     -14.874   6.848  10.866  1.00  0.00    -0.000 C 
BRANCH  16  17
ATOM     17  C   UNL     1     -15.045   5.523  11.619  1.00  0.00    -0.003 C 
ATOM     18  C   UNL     1     -13.692   4.920  11.988  1.00  0.00     0.004 C 
ENDBRANCH  16  17
ENDBRANCH  15  16
ENDBRANCH  14  15
ENDBRANCH  13  14
ENDBRANCH  12  13
ENDBRANCH  11  12
ENDBRANCH   1  11
TORSDOF 14
ENDMDL
MODEL 3
REMARK VINA RESULT:    -3.015      2.869      6.591
REMARK INTER + INTRA:          -7.178
REMARK INTER:                  -5.499
REMARK INTRA:                  -1.679
REMARK UNBOUND:                -1.696
REMARK SMILES CCCCCCCCCCCCCCCC(=O)[O-]
REMARK SMILES IDX 9 1 10 2 11 3 12 4 13 5 14 6 15 7 16 8 17 9 18 10 8 11 7 12
REMARK SMILES IDX 6 13 5 14 4 15 3 16 2 17 1 18
REMARK H PARENT
REMARK Flexibility Score: inf
ROOT
ATOM      1  C   UNL     1     -16.083   9.273   8.443  1.00  0.00     0.000 C 
ENDROOT
BRANCH   1   2
ATOM      2  C   UNL     1     -17.125  10.223   9.058  1.00  0.00     0.000 C 
BRANCH   2   3
ATOM      3  C   UNL     1     -17.088  10.233  10.595  1.00  0.00     0.000 C 
BRANCH   3   4
ATOM      4  C   UNL     1     -16.192  11.346  11.167  1.00  0.00     0.000 C 
BRANCH   4   5
ATOM      5  C   UNL     1     -16.600  12.783  10.791  1.00  0.00     0.000 C 
BRANCH   5   6
ATOM      6  C   UNL     1     -15.501  13.629  10.117  1.00  0.00     0.006 C 
BRANCH   6   7
ATOM      7  C   UNL     1     -14.464  12.800   9.337  1.00  0.00     0.053 C 
BRANCH   7   8
ATOM      8  C   UNL     1     -14.410  13.162   7.884  1.00  0.00     0.041 C 
ATOM      9  O   UNL     1     -13.363  13.659   7.391  1.00  0.00    -0.550 OA
ATOM     10  O   UNL     1     -15.505  12.919   7.063  1.00  0.00    -0.550 OA
ENDBRANCH   7   8
ENDBRANCH   6   7
ENDBRANCH   5   6
ENDBRANCH   4   5
ENDBRANCH   3   4
ENDBRANCH   2   3
ENDBRANCH   1   2
BRANCH   1  11
ATOM     11  C   UNL     1     -15.867   7.979   9.256  1.00  0.00     0.000 C 
BRANCH  11  12
ATOM     12  C   UNL     1     -17.018   6.975   9.063  1.00  0.00    -0.000 C 
BRANCH  12  13
ATOM     13  C   UNL     1     -17.101   5.939  10.195  1.00  0.00    -0.000 C 
BRANCH  13  14
ATOM     14  C   UNL     1     -17.113   6.587  11.590  1.00  0.00    -0.000 C 
BRANCH  14  15
ATOM     15  C   UNL     1     -15.992   6.056  12.497  1.00  0.00    -0.000 C 
BRANCH  15  16
ATOM     16  C   UNL     1     -15.221   4.886  11.868  1.00  0.00    -0.000 C 
BRANCH  16  17
ATOM     17  C   UNL     1     -13.734   5.228  11.714  1.00  0.00    -0.003 C 
ATOM     18  C   UNL     1     -13.436   6.635  12.227  1.00  0.00     0.004 C 
ENDBRANCH  16  17
ENDBRANCH  15  16
ENDBRANCH  14  15
ENDBRANCH  13  14
ENDBRANCH  12  13
ENDBRANCH  11  12
ENDBRANCH   1  11
TORSDOF 14
ENDMDL
MODEL 4
REMARK VINA RESULT:    -2.904      1.493      3.265
REMARK INTER + INTRA:          -6.977
REMARK INTER:                  -5.845
REMARK INTRA:                  -1.132
REMARK UNBOUND:                -1.696
REMARK SMILES CCCCCCCCCCCCCCCC(=O)[O-]
REMARK SMILES IDX 9 1 10 2 11 3 12 4 13 5 14 6 15 7 16 8 17 9 18 10 8 11 7 12
REMARK SMILES IDX 6 13 5 14 4 15 3 16 2 17 1 18
REMARK H PARENT
REMARK Flexibility Score: inf
ROOT
ATOM      1  C   UNL     1     -16.877  11.394   8.693  1.00  0.00     0.000 C 
ENDROOT
BRANCH   1   2
ATOM      2  C   UNL     1     -16.381  10.291   7.742  1.00  0.00     0.000 C 
BRANCH   2   3
ATOM      3  C   UNL     1     -15.419   9.306   8.424  1.00  0.00     0.000 C 
BRANCH   3   4
ATOM      4  C   UNL     1     -16.110   8.009   8.881  1.00  0.00     0.000 C 
BRANCH   4   5
ATOM      5  C   UNL     1     -16.634   8.014  10.329  1.00  0.00     0.000 C 
BRANCH   5   6
ATOM      6  C   UNL     1     -15.629   7.545  11.400  1.00  0.00     0.006 C 
BRANCH   6   7
ATOM      7  C   UNL     1     -15.283   6.046  11.319  1.00  0.00     0.053 C 
BRANCH   7   8
ATOM      8  C   UNL     1     -13.880   5.752  11.755  1.00  0.00     0.041 C 
ATOM      9  O   UNL     1     -13.387   4.607  11.579  1.00  0.00    -0.550 OA
ATOM     10  O   UNL     1     -13.104   6.753  12.327  1.00  0.00    -0.550 OA
ENDBRANCH   7   8
ENDBRANCH   6   7
ENDBRANCH   5   6
ENDBRANCH   4   5
ENDBRANCH   3   4
ENDBRANCH   2   3
ENDBRANCH   1   2
BRANCH   1  11
ATOM     11  C   UNL     1     -16.614  12.824   8.174  1.00  0.00     0.000 C 
BRANCH  11  12
ATOM     12  C   UNL     1     -15.439  12.873   7.181  1.00  0.00    -0.000 C 
BRANCH  12  13
ATOM     13  C   UNL     1     -14.111  13.263   7.848  1.00  0.00    -0.000 C 
BRANCH  13  14
ATOM     14  C   UNL     1     -14.125  13.041   9.370  1.00  0.00    -0.000 C 
BRANCH  14  15
ATOM     15  C   UNL     1     -13.939  14.346  10.159  1.00  0.00    -0.000 C 
BRANCH  15  16
ATOM     16  C   UNL     1     -14.782  14.392  11.442  1.00  0.00    -0.000 C 
BRANCH  16  17
ATOM     17  C   UNL     1     -15.255  12.987  11.837  1.00  0.00    -0.003 C 
ATOM     18  C   UNL     1     -14.489  12.469  13.051  1.00  0.00     0.004 C 
ENDBRANCH  16  17
ENDBRANCH  15  16
ENDBRANCH  14  15
ENDBRANCH  13  14
ENDBRANCH  12  13
ENDBRANCH  11  12
ENDBRANCH   1  11
TORSDOF 14
ENDMDL
MODEL 5
REMARK VINA RESULT:    -2.889      1.476      5.284
REMARK INTER + INTRA:          -6.950
REMARK INTER:                  -5.732
REMARK INTRA:                  -1.218
REMARK UNBOUND:                -1.696
REMARK SMILES CCCCCCCCCCCCCCCC(=O)[O-]
REMARK SMILES IDX 9 1 10 2 11 3 12 4 13 5 14 6 15 7 16 8 17 9 18 10 8 11 7 12
REMARK SMILES IDX 6 13 5 14 4 15 3 16 2 17 1 18
REMARK H PARENT
REMARK Flexibility Score: inf
ROOT
ATOM      1  C   UNL     1     -13.721  13.591   7.848  1.00  0.00     0.000 C 
ENDROOT
BRANCH   1   2
ATOM      2  C   UNL     1     -14.224  13.294   9.271  1.00  0.00     0.000 C 
BRANCH   2   3
ATOM      3  C   UNL     1     -13.922  14.432  10.258  1.00  0.00     0.000 C 
BRANCH   3   4
ATOM      4  C   UNL     1     -13.443  13.926  11.631  1.00  0.00     0.000 C 
BRANCH   4   5
ATOM      5  C   UNL     1     -14.356  14.277  12.821  1.00  0.00     0.000 C 
BRANCH   5   6
ATOM      6  C   UNL     1     -15.861  14.368  12.497  1.00  0.00     0.006 C 
BRANCH   6   7
ATOM      7  C   UNL     1     -16.705  13.244  13.125  1.00  0.00     0.053 C 
BRANCH   7   8
ATOM      8  C   UNL     1     -16.549  11.937  12.410  1.00  0.00     0.041 C 
ATOM      9  O   UNL     1     -16.779  11.856  11.175  1.00  0.00    -0.550 OA
ATOM     10  O   UNL     1     -16.117  10.811  13.102  1.00  0.00    -0.550 OA
ENDBRANCH   7   8
ENDBRANCH   6   7
ENDBRANCH   5   6
ENDBRANCH   4   5
ENDBRANCH   3   4
ENDBRANCH   2   3
ENDBRANCH   1   2
BRANCH   1  11
ATOM     11  C   UNL     1     -14.648  13.052   6.737  1.00  0.00     0.000 C 
BRANCH  11  12
ATOM     12  C   UNL     1     -16.089  12.843   7.237  1.00  0.00    -0.000 C 
BRANCH  12  13
ATOM     13  C   UNL     1     -16.613  11.423   6.967  1.00  0.00    -0.000 C 
BRANCH  13  14
ATOM     14  C   UNL     1     -16.694  10.570   8.244  1.00  0.00    -0.000 C 
BRANCH  14  15
ATOM     15  C   UNL     1     -15.435   9.715   8.463  1.00  0.00    -0.000 C 
BRANCH  15  16
ATOM     16  C   UNL     1     -15.760   8.266   8.856  1.00  0.00    -0.000 C 
BRANCH  16  17
ATOM     17  C   UNL     1     -15.811   8.110  10.381  1.00  0.00    -0.003 C 
ATOM     18  C   UNL     1     -15.230   6.768  10.817  1.00  0.00     0.004 C 
ENDBRANCH  16  17
ENDBRANCH  15  16
ENDBRANCH  14  15
ENDBRANCH  13  14
ENDBRANCH  12  13
ENDBRANCH  11  12
ENDBRANCH   1  11
TORSDOF 14
ENDMDL
MODEL 6
REMARK VINA RESULT:    -2.886      2.893      5.855
REMARK INTER + INTRA:          -6.945
REMARK INTER:                  -5.534
REMARK INTRA:                  -1.411
REMARK UNBOUND:                -1.696
REMARK SMILES CCCCCCCCCCCCCCCC(=O)[O-]
REMARK SMILES IDX 9 1 10 2 11 3 12 4 13 5 14 6 15 7 16 8 17 9 18 10 8 11 7 12
REMARK SMILES IDX 6 13 5 14 4 15 3 16 2 17 1 18
REMARK H PARENT
REMARK Flexibility Score: inf
ROOT
ATOM      1  C   UNL     1     -15.243   9.382   8.255  1.00  0.00     0.000 C 
ENDROOT
BRANCH   1   2
ATOM      2  C   UNL     1     -16.195  10.348   7.529  1.00  0.00     0.000 C 
BRANCH   2   3
ATOM      3  C   UNL     1     -15.562  11.724   7.268  1.00  0.00     0.000 C 
BRANCH   3   4
ATOM      4  C   UNL     1     -16.364  12.883   7.886  1.00  0.00     0.000 C 
BRANCH   4   5
ATOM      5  C   UNL     1     -16.919  12.624   9.299  1.00  0.00     0.000 C 
BRANCH   5   6
ATOM      6  C   UNL     1     -16.276  13.456  10.427  1.00  0.00     0.006 C 
BRANCH   6   7
ATOM      7  C   UNL     1     -14.995  12.833  11.011  1.00  0.00     0.053 C 
BRANCH   7   8
ATOM      8  C   UNL     1     -13.867  13.815  11.107  1.00  0.00     0.041 C 
ATOM      9  O   UNL     1     -13.723  14.706  10.229  1.00  0.00    -0.550 OA
ATOM     10  O   UNL     1     -12.991  13.768  12.185  1.00  0.00    -0.550 OA
ENDBRANCH   7   8
ENDBRANCH   6   7
ENDBRANCH   5   6
ENDBRANCH   4   5
ENDBRANCH   3   4
ENDBRANCH   2   3
ENDBRANCH   1   2
BRANCH   1  11
ATOM     11  C   UNL     1     -15.965   8.379   9.180  1.00  0.00     0.000 C 
BRANCH  11  12
ATOM     12  C   UNL     1     -16.747   9.085  10.302  1.00  0.00    -0.000 C 
BRANCH  12  13
ATOM     13  C   UNL     1     -16.872   8.228  11.572  1.00  0.00    -0.000 C 
BRANCH  13  14
ATOM     14  C   UNL     1     -15.832   8.599  12.642  1.00  0.00    -0.000 C 
BRANCH  14  15
ATOM     15  C   UNL     1     -14.862   7.446  12.948  1.00  0.00    -0.000 C 
BRANCH  15  16
ATOM     16  C   UNL     1     -15.019   6.265  11.979  1.00  0.00    -0.000 C 
BRANCH  16  17
ATOM     17  C   UNL     1     -13.650   5.715  11.559  1.00  0.00    -0.003 C 
ATOM     18  C   UNL     1     -13.533   4.227  11.876  1.00  0.00     0.004 C 
ENDBRANCH  16  17
ENDBRANCH  15  16
ENDBRANCH  14  15
ENDBRANCH  13  14
ENDBRANCH  12  13
ENDBRANCH  11  12
ENDBRANCH   1  11
TORSDOF 14
ENDMDL
MODEL 7
REMARK VINA RESULT:    -2.879      1.711      3.846
REMARK INTER + INTRA:          -6.932
REMARK INTER:                  -5.594
REMARK INTRA:                  -1.338
REMARK UNBOUND:                -1.696
REMARK SMILES CCCCCCCCCCCCCCCC(=O)[O-]
REMARK SMILES IDX 9 1 10 2 11 3 12 4 13 5 14 6 15 7 16 8 17 9 18 10 8 11 7 12
REMARK SMILES IDX 6 13 5 14 4 15 3 16 2 17 1 18
REMARK H PARENT
REMARK Flexibility Score: inf
ROOT
ATOM      1  C   UNL     1     -15.635  10.342   7.134  1.00  0.00     0.000 C 
ENDROOT
BRANCH   1   2
ATOM      2  C   UNL     1     -15.447   9.300   8.249  1.00  0.00     0.000 C 
BRANCH   2   3
ATOM      3  C   UNL     1     -16.765   8.628   8.665  1.00  0.00     0.000 C 
BRANCH   3   4
ATOM      4  C   UNL     1     -16.584   7.594   9.791  1.00  0.00     0.000 C 
BRANCH   4   5
ATOM      5  C   UNL     1     -16.117   8.165  11.144  1.00  0.00     0.000 C 
BRANCH   5   6
ATOM      6  C   UNL     1     -15.909   7.126  12.264  1.00  0.00     0.006 C 
BRANCH   6   7
ATOM      7  C   UNL     1     -15.398   5.762  11.765  1.00  0.00     0.053 C 
BRANCH   7   8
ATOM      8  C   UNL     1     -13.909   5.631  11.865  1.00  0.00     0.041 C 
ATOM      9  O   UNL     1     -13.343   4.550  11.553  1.00  0.00    -0.550 OA
ATOM     10  O   UNL     1     -13.138   6.714  12.270  1.00  0.00    -0.550 OA
ENDBRANCH   7   8
ENDBRANCH   6   7
ENDBRANCH   5   6
ENDBRANCH   4   5
ENDBRANCH   3   4
ENDBRANCH   2   3
ENDBRANCH   1   2
BRANCH   1  11
ATOM     11  C   UNL     1     -16.907  11.201   7.296  1.00  0.00     0.000 C 
BRANCH  11  12
ATOM     12  C   UNL     1     -16.600  12.581   7.905  1.00  0.00    -0.000 C 
BRANCH  12  13
ATOM     13  C   UNL     1     -16.808  12.620   9.427  1.00  0.00    -0.000 C 
BRANCH  13  14
ATOM     14  C   UNL     1     -15.489  12.495  10.208  1.00  0.00    -0.000 C 
BRANCH  14  15
ATOM     15  C   UNL     1     -14.349  13.308   9.574  1.00  0.00    -0.000 C 
BRANCH  15  16
ATOM     16  C   UNL     1     -13.863  14.454  10.474  1.00  0.00    -0.000 C 
BRANCH  16  17
ATOM     17  C   UNL     1     -14.159  14.156  11.949  1.00  0.00    -0.003 C 
ATOM     18  C   UNL     1     -12.898  13.715  12.686  1.00  0.00     0.004 C 
ENDBRANCH  16  17
ENDBRANCH  15  16
ENDBRANCH  14  15
ENDBRANCH  13  14
ENDBRANCH  12  13
ENDBRANCH  11  12
ENDBRANCH   1  11
TORSDOF 14
ENDMDL
MODEL 8
REMARK VINA RESULT:    -2.813      1.498      2.889
REMARK INTER + INTRA:          -6.811
REMARK INTER:                  -5.071
REMARK INTRA:                  -1.740
REMARK UNBOUND:                -1.696
REMARK SMILES CCCCCCCCCCCCCCCC(=O)[O-]
REMARK SMILES IDX 9 1 10 2 11 3 12 4 13 5 14 6 15 7 16 8 17 9 18 10 8 11 7 12
REMARK SMILES IDX 6 13 5 14 4 15 3 16 2 17 1 18
REMARK H PARENT
REMARK Flexibility Score: inf
ROOT
ATOM      1  C   UNL     1     -15.466  11.350   8.650  1.00  0.00     0.000 C 
ENDROOT
BRANCH   1   2
ATOM      2  C   UNL     1     -15.772  10.615   7.334  1.00  0.00     0.000 C 
BRANCH   2   3
ATOM      3  C   UNL     1     -17.003   9.700   7.435  1.00  0.00     0.000 C 
BRANCH   3   4
ATOM      4  C   UNL     1     -17.086   8.949   8.776  1.00  0.00     0.000 C 
BRANCH   4   5
ATOM      5  C   UNL     1     -16.026   7.851   8.986  1.00  0.00     0.000 C 
BRANCH   5   6
ATOM      6  C   UNL     1     -15.449   7.752  10.412  1.00  0.00     0.006 C 
BRANCH   6   7
ATOM      7  C   UNL     1     -15.408   6.317  10.972  1.00  0.00     0.053 C 
BRANCH   7   8
ATOM      8  C   UNL     1     -14.073   5.960  11.549  1.00  0.00     0.041 C 
ATOM      9  O   UNL     1     -13.343   6.849  12.060  1.00  0.00    -0.550 OA
ATOM     10  O   UNL     1     -13.647   4.637  11.554  1.00  0.00    -0.550 OA
ENDBRANCH   7   8
ENDBRANCH   6   7
ENDBRANCH   5   6
ENDBRANCH   4   5
ENDBRANCH   3   4
ENDBRANCH   2   3
ENDBRANCH   1   2
BRANCH   1  11
ATOM     11  C   UNL     1     -16.334  12.607   8.875  1.00  0.00     0.000 C 
BRANCH  11  12
ATOM     12  C   UNL     1     -17.030  12.592  10.248  1.00  0.00    -0.000 C 
BRANCH  12  13
ATOM     13  C   UNL     1     -16.507  11.477  11.168  1.00  0.00    -0.000 C 
BRANCH  13  14
ATOM     14  C   UNL     1     -15.596  12.012  12.286  1.00  0.00    -0.000 C 
BRANCH  14  15
ATOM     15  C   UNL     1     -15.885  13.482  12.631  1.00  0.00    -0.000 C 
BRANCH  15  16
ATOM     16  C   UNL     1     -14.607  14.311  12.820  1.00  0.00    -0.000 C 
BRANCH  16  17
ATOM     17  C   UNL     1     -13.523  13.883  11.823  1.00  0.00    -0.003 C 
ATOM     18  C   UNL     1     -13.690  14.601  10.486  1.00  0.00     0.004 C 
ENDBRANCH  16  17
ENDBRANCH  15  16
ENDBRANCH  14  15
ENDBRANCH  13  14
ENDBRANCH  12  13
ENDBRANCH  11  12
ENDBRANCH   1  11
TORSDOF 14
ENDMDL
MODEL 9
REMARK VINA RESULT:    -2.670      1.144      1.986
REMARK INTER + INTRA:          -6.552
REMARK INTER:                  -5.056
REMARK INTRA:                  -1.496
REMARK UNBOUND:                -1.696
REMARK SMILES CCCCCCCCCCCCCCCC(=O)[O-]
REMARK SMILES IDX 9 1 10 2 11 3 12 4 13 5 14 6 15 7 16 8 17 9 18 10 8 11 7 12
REMARK SMILES IDX 6 13 5 14 4 15 3 16 2 17 1 18
REMARK H PARENT
REMARK Flexibility Score: inf
ROOT
ATOM      1  C   UNL     1     -15.212  12.902   7.219  1.00  0.00     0.000 C 
ENDROOT
BRANCH   1   2
ATOM      2  C   UNL     1     -16.232  11.788   7.510  1.00  0.00     0.000 C 
BRANCH   2   3
ATOM      3  C   UNL     1     -15.694  10.387   7.178  1.00  0.00     0.000 C 
BRANCH   3   4
ATOM      4  C   UNL     1     -15.653   9.453   8.401  1.00  0.00     0.000 C 
BRANCH   4   5
ATOM      5  C   UNL     1     -16.477   9.919   9.617  1.00  0.00     0.000 C 
BRANCH   5   6
ATOM      6  C   UNL     1     -16.497   8.948  10.815  1.00  0.00     0.006 C 
BRANCH   6   7
ATOM      7  C   UNL     1     -16.920   7.513  10.449  1.00  0.00     0.053 C 
BRANCH   7   8
ATOM      8  C   UNL     1     -15.914   6.488  10.875  1.00  0.00     0.041 C 
ATOM      9  O   UNL     1     -14.683   6.750  10.834  1.00  0.00    -0.550 OA
ATOM     10  O   UNL     1     -16.336   5.252  11.350  1.00  0.00    -0.550 OA
ENDBRANCH   7   8
ENDBRANCH   6   7
ENDBRANCH   5   6
ENDBRANCH   4   5
ENDBRANCH   3   4
ENDBRANCH   2   3
ENDBRANCH   1   2
BRANCH   1  11
ATOM     11  C   UNL     1     -14.156  13.081   8.330  1.00  0.00     0.000 C 
BRANCH  11  12
ATOM     12  C   UNL     1     -14.780  13.568   9.650  1.00  0.00    -0.000 C 
BRANCH  12  13
ATOM     13  C   UNL     1     -13.727  13.969  10.695  1.00  0.00    -0.000 C 
BRANCH  13  14
ATOM     14  C   UNL     1     -14.099  13.512  12.116  1.00  0.00    -0.000 C 
BRANCH  14  15
ATOM     15  C   UNL     1     -15.454  12.787  12.167  1.00  0.00    -0.000 C 
BRANCH  15  16
ATOM     16  C   UNL     1     -16.491  13.524  13.027  1.00  0.00    -0.000 C 
BRANCH  16  17
ATOM     17  C   UNL     1     -16.292  15.042  12.945  1.00  0.00    -0.003 C 
ATOM     18  C   UNL     1     -17.115  15.645  11.810  1.00  0.00     0.004 C 
ENDBRANCH  16  17
ENDBRANCH  15  16
ENDBRANCH  14  15
ENDBRANCH  13  14
ENDBRANCH  12  13
ENDBRANCH  11  12
ENDBRANCH   1  11
TORSDOF 14
ENDMDL
