MODEL 1
REMARK VINA RESULT:    -4.549      0.000      0.000
REMARK INTER + INTRA:          -5.627
REMARK INTER:                  -5.347
REMARK INTRA:                  -0.280
REMARK UNBOUND:                -0.280
REMARK SMILES O=C([O-])C=Cc1ccc(O)c(O)c1
REMARK SMILES IDX 6 1 13 2 7 3 11 4 8 5 9 6 5 7 4 8 2 9 1 10 3 11 12 12 10 14
REMARK H PARENT 12 13 10 15
REMARK Flexibility Score: inf
ROOT
ATOM      1  C   UNL     1       0.439   7.558   3.427  1.00  0.00    -0.022 A 
ATOM      2  C   UNL     1       0.674   8.600   2.515  1.00  0.00     0.058 A 
ATOM      3  C   UNL     1       0.784   6.246   3.074  1.00  0.00     0.012 A 
ATOM      4  C   UNL     1       1.199   8.327   1.244  1.00  0.00     0.157 A 
ATOM      5  C   UNL     1       1.306   5.970   1.808  1.00  0.00     0.051 A 
ATOM      6  C   UNL     1       1.511   7.004   0.888  1.00  0.00     0.157 A 
ENDROOT
BRANCH   1   7
ATOM      7  C   UNL     1      -0.064   7.831   4.790  1.00  0.00     0.010 C 
ATOM      8  C   UNL     1       0.698   8.131   5.854  1.00  0.00     0.025 C 
BRANCH   8   9
ATOM      9  C   UNL     1       2.145   8.416   5.827  1.00  0.00     0.064 C 
ATOM     10  O   UNL     1       2.999   7.515   6.038  1.00  0.00    -0.545 OA
ATOM     11  O   UNL     1       2.576   9.693   5.493  1.00  0.00    -0.545 OA
ENDBRANCH   8   9
ENDBRANCH   1   7
BRANCH   4  12
ATOM     12  O   UNL     1       1.415   9.363   0.337  1.00  0.00    -0.504 OA
ATOM     13  H   UNL     1       0.710  10.071   0.161  1.00  0.00     0.293 HD
ENDBRANCH   4  12
BRANCH   6  14
ATOM     14  O   UNL     1       2.032   6.698  -0.370  1.00  0.00    -0.504 OA
ATOM     15  H   UNL     1       1.581   6.040  -0.994  1.00  0.00     0.293 HD
ENDBRANCH   6  14
TORSDOF 4
ENDMDL
MODEL 2
REMARK VINA RESULT:    -4.142      1.535      4.669
REMARK INTER + INTRA:          -5.148
REMARK INTER:                  -4.869
REMARK INTRA:                  -0.279
REMARK UNBOUND:                -0.280
REMARK SMILES O=C([O-])C=Cc1ccc(O)c(O)c1
REMARK SMILES IDX 6 1 13 2 7 3 11 4 8 5 9 6 5 7 4 8 2 9 1 10 3 11 12 12 10 14
REMARK H PARENT 12 13 10 15
REMARK Flexibility Score: inf
ROOT
ATOM      1  C   UNL     1       0.743   6.978   2.445  1.00  0.00    -0.022 A 
ATOM      2  C   UNL     1       1.071   6.535   3.737  1.00  0.00     0.058 A 
ATOM      3  C   UNL     1       0.344   8.308   2.257  1.00  0.00     0.012 A 
ATOM      4  C   UNL     1       0.951   7.397   4.837  1.00  0.00     0.157 A 
ATOM      5  C   UNL     1       0.223   9.170   3.350  1.00  0.00     0.051 A 
ATOM      6  C   UNL     1       0.519   8.720   4.641  1.00  0.00     0.157 A 
ENDROOT
BRANCH   1   7
ATOM      7  C   UNL     1       0.913   6.101   1.268  1.00  0.00     0.010 C 
ATOM      8  C   UNL     1       1.994   6.068   0.473  1.00  0.00     0.025 C 
BRANCH   8   9
ATOM      9  C   UNL     1       3.272   6.762   0.724  1.00  0.00     0.064 C 
ATOM     10  O   UNL     1       4.225   6.194   1.320  1.00  0.00    -0.545 OA
ATOM     11  O   UNL     1       3.451   8.048   0.232  1.00  0.00    -0.545 OA
ENDBRANCH   8   9
ENDBRANCH   1   7
BRANCH   4  12
ATOM     12  O   UNL     1       1.262   6.947   6.119  1.00  0.00    -0.504 OA
ATOM     13  H   UNL     1       2.222   6.839   6.425  1.00  0.00     0.293 HD
ENDBRANCH   4  12
BRANCH   6  14
ATOM     14  O   UNL     1       0.386   9.603   5.713  1.00  0.00    -0.504 OA
ATOM     15  H   UNL     1       1.153  10.185   6.029  1.00  0.00     0.293 HD
ENDBRANCH   6  14
TORSDOF 4
ENDMDL
MODEL 3
REMARK VINA RESULT:    -4.040      3.860      5.134
REMARK INTER + INTRA:          -5.029
REMARK INTER:                  -4.741
REMARK INTRA:                  -0.288
REMARK UNBOUND:                -0.280
REMARK SMILES O=C([O-])C=Cc1ccc(O)c(O)c1
REMARK SMILES IDX 6 1 13 2 7 3 11 4 8 5 9 6 5 7 4 8 2 9 1 10 3 11 12 12 10 14
REMARK H PARENT 12 13 10 15
REMARK Flexibility Score: inf
ROOT
ATOM      1  C   UNL     1       4.267   7.046   1.998  1.00  0.00    -0.022 A 
ATOM      2  C   UNL     1       4.884   6.554   0.836  1.00  0.00     0.058 A 
ATOM      3  C   UNL     1       4.772   6.678   3.252  1.00  0.00     0.012 A 
ATOM      4  C   UNL     1       5.962   5.662   0.928  1.00  0.00     0.157 A 
ATOM      5  C   UNL     1       5.845   5.789   3.347  1.00  0.00     0.051 A 
ATOM      6  C   UNL     1       6.441   5.274   2.191  1.00  0.00     0.157 A 
ENDROOT
BRANCH   1   7
ATOM      7  C   UNL     1       3.164   8.028   1.922  1.00  0.00     0.010 C 
ATOM      8  C   UNL     1       1.864   7.727   1.779  1.00  0.00     0.025 C 
BRANCH   8   9
ATOM      9  C   UNL     1       1.278   6.374   1.851  1.00  0.00     0.064 C 
ATOM     10  O   UNL     1       0.885   5.883   2.941  1.00  0.00    -0.545 OA
ATOM     11  O   UNL     1       1.094   5.654   0.678  1.00  0.00    -0.545 OA
ENDBRANCH   8   9
ENDBRANCH   1   7
BRANCH   4  12
ATOM     12  O   UNL     1       6.561   5.163  -0.228  1.00  0.00    -0.504 OA
ATOM     13  H   UNL     1       6.211   5.398  -1.151  1.00  0.00     0.293 HD
ENDBRANCH   4  12
BRANCH   6  14
ATOM     14  O   UNL     1       7.509   4.386   2.317  1.00  0.00    -0.504 OA
ATOM     15  H   UNL     1       7.380   3.381   2.292  1.00  0.00     0.293 HD
ENDBRANCH   6  14
TORSDOF 4
ENDMDL
MODEL 4
REMARK VINA RESULT:    -3.966     11.374     13.221
REMARK INTER + INTRA:          -4.942
REMARK INTER:                  -4.652
REMARK INTRA:                  -0.290
REMARK UNBOUND:                -0.280
REMARK SMILES O=C([O-])C=Cc1ccc(O)c(O)c1
REMARK SMILES IDX 6 1 13 2 7 3 11 4 8 5 9 6 5 7 4 8 2 9 1 10 3 11 12 12 10 14
REMARK H PARENT 12 13 10 15
REMARK Flexibility Score: inf
ROOT
ATOM      1  C   UNL     1       9.519   2.170  -5.344  1.00  0.00    -0.022 A 
ATOM      2  C   UNL     1       9.751   1.347  -4.229  1.00  0.00     0.058 A 
ATOM      3  C   UNL     1       9.500   3.561  -5.178  1.00  0.00     0.012 A 
ATOM      4  C   UNL     1       9.909   1.907  -2.953  1.00  0.00     0.157 A 
ATOM      5  C   UNL     1       9.658   4.122  -3.908  1.00  0.00     0.051 A 
ATOM      6  C   UNL     1       9.857   3.302  -2.793  1.00  0.00     0.157 A 
ENDROOT
BRANCH   1   7
ATOM      7  C   UNL     1       9.402   1.602  -6.704  1.00  0.00     0.010 C 
ATOM      8  C   UNL     1       8.259   1.207  -7.286  1.00  0.00     0.025 C 
BRANCH   8   9
ATOM      9  C   UNL     1       6.899   1.427  -6.755  1.00  0.00     0.064 C 
ATOM     10  O   UNL     1       6.363   0.614  -5.957  1.00  0.00    -0.545 OA
ATOM     11  O   UNL     1       6.224   2.594  -7.089  1.00  0.00    -0.545 OA
ENDBRANCH   8   9
ENDBRANCH   1   7
BRANCH   4  12
ATOM     12  O   UNL     1      10.122   1.084  -1.848  1.00  0.00    -0.504 OA
ATOM     13  H   UNL     1      10.849   1.284  -1.170  1.00  0.00     0.293 HD
ENDBRANCH   4  12
BRANCH   6  14
ATOM     14  O   UNL     1      10.008   3.890  -1.537  1.00  0.00    -0.504 OA
ATOM     15  H   UNL     1      10.000   4.895  -1.409  1.00  0.00     0.293 HD
ENDBRANCH   6  14
TORSDOF 4
ENDMDL
MODEL 5
REMARK VINA RESULT:    -3.964      2.029      2.745
REMARK INTER + INTRA:          -4.939
REMARK INTER:                  -4.740
REMARK INTRA:                  -0.199
REMARK UNBOUND:                -0.280
REMARK SMILES O=C([O-])C=Cc1ccc(O)c(O)c1
REMARK SMILES IDX 6 1 13 2 7 3 11 4 8 5 9 6 5 7 4 8 2 9 1 10 3 11 12 12 10 14
REMARK H PARENT 12 13 10 15
REMARK Flexibility Score: inf
ROOT
ATOM      1  C   UNL     1       1.698   8.565   2.230  1.00  0.00    -0.022 A 
ATOM      2  C   UNL     1       1.251   7.786   1.150  1.00  0.00     0.058 A 
ATOM      3  C   UNL     1       3.004   8.393   2.706  1.00  0.00     0.012 A 
ATOM      4  C   UNL     1       2.084   6.810   0.585  1.00  0.00     0.157 A 
ATOM      5  C   UNL     1       3.837   7.421   2.147  1.00  0.00     0.051 A 
ATOM      6  C   UNL     1       3.382   6.623   1.092  1.00  0.00     0.157 A 
ENDROOT
BRANCH   1   7
ATOM      7  C   UNL     1       0.854   9.634   2.804  1.00  0.00     0.010 C 
ATOM      8  C   UNL     1       0.026   9.494   3.851  1.00  0.00     0.025 C 
BRANCH   8   9
ATOM      9  C   UNL     1      -0.064   8.310   4.728  1.00  0.00     0.064 C 
ATOM     10  O   UNL     1       0.232   8.372   5.951  1.00  0.00    -0.545 OA
ATOM     11  O   UNL     1      -0.550   7.119   4.207  1.00  0.00    -0.545 OA
ENDBRANCH   8   9
ENDBRANCH   1   7
BRANCH   4  12
ATOM     12  O   UNL     1       1.630   6.028  -0.476  1.00  0.00    -0.504 OA
ATOM     13  H   UNL     1       2.256   5.715  -1.210  1.00  0.00     0.293 HD
ENDBRANCH   4  12
BRANCH   6  14
ATOM     14  O   UNL     1       4.235   5.659   0.555  1.00  0.00    -0.504 OA
ATOM     15  H   UNL     1       4.455   4.801   1.047  1.00  0.00     0.293 HD
ENDBRANCH   6  14
TORSDOF 4
ENDMDL
MODEL 6
REMARK VINA RESULT:    -3.951      2.188      2.625
REMARK INTER + INTRA:          -4.924
REMARK INTER:                  -4.670
REMARK INTRA:                  -0.254
REMARK UNBOUND:                -0.280
REMARK SMILES O=C([O-])C=Cc1ccc(O)c(O)c1
REMARK SMILES IDX 6 1 13 2 7 3 11 4 8 5 9 6 5 7 4 8 2 9 1 10 3 11 12 12 10 14
REMARK H PARENT 12 13 10 15
REMARK Flexibility Score: inf
ROOT
ATOM      1  C   UNL     1       2.011   6.888   2.206  1.00  0.00    -0.022 A 
ATOM      2  C   UNL     1       1.855   7.728   1.091  1.00  0.00     0.058 A 
ATOM      3  C   UNL     1       3.301   6.573   2.652  1.00  0.00     0.012 A 
ATOM      4  C   UNL     1       2.977   8.206   0.399  1.00  0.00     0.157 A 
ATOM      5  C   UNL     1       4.421   7.047   1.965  1.00  0.00     0.051 A 
ATOM      6  C   UNL     1       4.266   7.858   0.836  1.00  0.00     0.157 A 
ENDROOT
BRANCH   1   7
ATOM      7  C   UNL     1       0.843   6.417   2.979  1.00  0.00     0.010 C 
ATOM      8  C   UNL     1       0.209   7.116   3.934  1.00  0.00     0.025 C 
BRANCH   8   9
ATOM      9  C   UNL     1       0.443   8.536   4.262  1.00  0.00     0.064 C 
ATOM     10  O   UNL     1       1.352   8.887   5.060  1.00  0.00    -0.545 OA
ATOM     11  O   UNL     1      -0.311   9.511   3.623  1.00  0.00    -0.545 OA
ENDBRANCH   8   9
ENDBRANCH   1   7
BRANCH   4  12
ATOM     12  O   UNL     1       2.816   9.027  -0.717  1.00  0.00    -0.504 OA
ATOM     13  H   UNL     1       2.913   8.666  -1.659  1.00  0.00     0.293 HD
ENDBRANCH   4  12
BRANCH   6  14
ATOM     14  O   UNL     1       5.403   8.315   0.168  1.00  0.00    -0.504 OA
ATOM     15  H   UNL     1       5.344   8.834  -0.700  1.00  0.00     0.293 HD
ENDBRANCH   6  14
TORSDOF 4
ENDMDL
MODEL 7
REMARK VINA RESULT:    -3.940      2.179      2.819
REMARK INTER + INTRA:          -4.912
REMARK INTER:                  -4.774
REMARK INTRA:                  -0.137
REMARK UNBOUND:                -0.280
REMARK SMILES O=C([O-])C=Cc1ccc(O)c(O)c1
REMARK SMILES IDX 6 1 13 2 7 3 11 4 8 5 9 6 5 7 4 8 2 9 1 10 3 11 12 12 10 14
REMARK H PARENT 12 13 10 15
REMARK Flexibility Score: inf
ROOT
ATOM      1  C   UNL     1       1.558   6.853   2.852  1.00  0.00    -0.022 A 
ATOM      2  C   UNL     1       2.845   7.117   3.348  1.00  0.00     0.058 A 
ATOM      3  C   UNL     1       1.407   6.435   1.523  1.00  0.00     0.012 A 
ATOM      4  C   UNL     1       3.965   7.014   2.509  1.00  0.00     0.157 A 
ATOM      5  C   UNL     1       2.520   6.332   0.685  1.00  0.00     0.051 A 
ATOM      6  C   UNL     1       3.799   6.625   1.169  1.00  0.00     0.157 A 
ENDROOT
BRANCH   1   7
ATOM      7  C   UNL     1       0.373   6.905   3.733  1.00  0.00     0.010 C 
ATOM      8  C   UNL     1      -0.072   7.996   4.375  1.00  0.00     0.025 C 
BRANCH   8   9
ATOM      9  C   UNL     1       0.426   9.373   4.184  1.00  0.00     0.064 C 
ATOM     10  O   UNL     1      -0.040  10.124   3.287  1.00  0.00    -0.545 OA
ATOM     11  O   UNL     1       1.381   9.873   5.059  1.00  0.00    -0.545 OA
ENDBRANCH   8   9
ENDBRANCH   1   7
BRANCH   4  12
ATOM     12  O   UNL     1       5.239   7.293   3.002  1.00  0.00    -0.504 OA
ATOM     13  H   UNL     1       5.686   8.188   2.842  1.00  0.00     0.293 HD
ENDBRANCH   4  12
BRANCH   6  14
ATOM     14  O   UNL     1       4.891   6.516   0.308  1.00  0.00    -0.504 OA
ATOM     15  H   UNL     1       5.030   5.707  -0.285  1.00  0.00     0.293 HD
ENDBRANCH   6  14
TORSDOF 4
ENDMDL
MODEL 8
REMARK VINA RESULT:    -3.831      9.280     11.815
REMARK INTER + INTRA:          -4.783
REMARK INTER:                  -4.534
REMARK INTRA:                  -0.250
REMARK UNBOUND:                -0.280
REMARK SMILES O=C([O-])C=Cc1ccc(O)c(O)c1
REMARK SMILES IDX 6 1 13 2 7 3 11 4 8 5 9 6 5 7 4 8 2 9 1 10 3 11 12 12 10 14
REMARK H PARENT 12 13 10 15
REMARK Flexibility Score: inf
ROOT
ATOM      1  C   UNL     1       9.327   4.031  -4.209  1.00  0.00    -0.022 A 
ATOM      2  C   UNL     1       9.725   4.062  -2.863  1.00  0.00     0.058 A 
ATOM      3  C   UNL     1       8.233   4.805  -4.619  1.00  0.00     0.012 A 
ATOM      4  C   UNL     1       9.006   4.819  -1.926  1.00  0.00     0.157 A 
ATOM      5  C   UNL     1       7.515   5.560  -3.690  1.00  0.00     0.051 A 
ATOM      6  C   UNL     1       7.892   5.567  -2.343  1.00  0.00     0.157 A 
ENDROOT
BRANCH   1   7
ATOM      7  C   UNL     1      10.102   3.281  -5.220  1.00  0.00     0.010 C 
ATOM      8  C   UNL     1      10.082   1.949  -5.385  1.00  0.00     0.025 C 
BRANCH   8   9
ATOM      9  C   UNL     1       9.160   1.011  -4.716  1.00  0.00     0.064 C 
ATOM     10  O   UNL     1       9.549   0.252  -3.789  1.00  0.00    -0.545 OA
ATOM     11  O   UNL     1       7.818   1.014  -5.072  1.00  0.00    -0.545 OA
ENDBRANCH   8   9
ENDBRANCH   1   7
BRANCH   4  12
ATOM     12  O   UNL     1       9.396   4.834  -0.588  1.00  0.00    -0.504 OA
ATOM     13  H   UNL     1       9.672   5.692  -0.124  1.00  0.00     0.293 HD
ENDBRANCH   4  12
BRANCH   6  14
ATOM     14  O   UNL     1       7.154   6.328  -1.436  1.00  0.00    -0.504 OA
ATOM     15  H   UNL     1       7.124   6.108  -0.447  1.00  0.00     0.293 HD
ENDBRANCH   6  14
TORSDOF 4
ENDMDL
MODEL 9
REMARK VINA RESULT:    -2.790      9.730     11.918
REMARK INTER + INTRA:          -3.560
REMARK INTER:                  -3.306
REMARK INTRA:                  -0.254
REMARK UNBOUND:                -0.280
REMARK SMILES O=C([O-])C=Cc1ccc(O)c(O)c1
REMARK SMILES IDX 6 1 13 2 7 3 11 4 8 5 9 6 5 7 4 8 2 9 1 10 3 11 12 12 10 14
REMARK H PARENT 12 13 10 15
REMARK Flexibility Score: inf
ROOT
ATOM      1  C   UNL     1       9.940   3.972  -4.227  1.00  0.00    -0.022 A 
ATOM      2  C   UNL     1      10.064   3.266  -3.019  1.00  0.00     0.058 A 
ATOM      3  C   UNL     1       9.684   3.268  -5.411  1.00  0.00     0.012 A 
ATOM      4  C   UNL     1       9.985   1.866  -3.003  1.00  0.00     0.157 A 
ATOM      5  C   UNL     1       9.606   1.873  -5.399  1.00  0.00     0.051 A 
ATOM      6  C   UNL     1       9.760   1.167  -4.202  1.00  0.00     0.157 A 
ENDROOT
BRANCH   1   7
ATOM      7  C   UNL     1       9.968   5.450  -4.257  1.00  0.00     0.010 C 
ATOM      8  C   UNL     1       8.916   6.252  -4.028  1.00  0.00     0.025 C 
BRANCH   8   9
ATOM      9  C   UNL     1       7.593   5.821  -3.534  1.00  0.00     0.064 C 
ATOM     10  O   UNL     1       7.252   5.988  -2.333  1.00  0.00    -0.545 OA
ATOM     11  O   UNL     1       6.680   5.282  -4.430  1.00  0.00    -0.545 OA
ENDBRANCH   8   9
ENDBRANCH   1   7
BRANCH   4  12
ATOM     12  O   UNL     1      10.125   1.169  -1.804  1.00  0.00    -0.504 OA
ATOM     13  H   UNL     1      10.325   1.647  -0.933  1.00  0.00     0.293 HD
ENDBRANCH   4  12
BRANCH   6  14
ATOM     14  O   UNL     1       9.679  -0.226  -4.220  1.00  0.00    -0.504 OA
ATOM     15  H   UNL     1       8.794  -0.714  -4.156  1.00  0.00     0.293 HD
ENDBRANCH   6  14
TORSDOF 4
ENDMDL
