MODEL 1
REMARK VINA RESULT:    -5.329      0.000      0.000
REMARK INTER + INTRA:          -5.640
REMARK INTER:                  -5.640
REMARK INTRA:                   0.000
REMARK UNBOUND:                 0.000
REMARK SMILES O=c1ccc2cc(O)c(O)cc2o1
REMARK SMILES IDX 4 1 3 2 2 3 1 4 13 5 12 6 11 7 9 8 7 9 6 10 5 11 8 12 10 14
REMARK H PARENT 8 13 10 15
REMARK Flexibility Score: inf
ROOT
ATOM      1  C   UNL     1      -5.735 -25.261  33.629  1.00  0.00     0.019 A 
ATOM      2  C   UNL     1      -5.197 -23.978  33.531  1.00  0.00     0.094 A 
ATOM      3  C   UNL     1      -5.755 -22.948  34.297  1.00  0.00     0.336 A 
ATOM      4  O   UNL     1      -5.284 -21.783  34.223  1.00  0.00    -0.246 OA
ATOM      5  O   UNL     1      -6.784 -23.193  35.107  1.00  0.00    -0.423 OA
ATOM      6  C   UNL     1      -7.326 -24.402  35.230  1.00  0.00     0.142 A 
ATOM      7  C   UNL     1      -8.406 -24.599  36.096  1.00  0.00     0.098 A 
ATOM      8  C   UNL     1      -8.983 -25.867  36.231  1.00  0.00     0.161 A 
ATOM      9  C   UNL     1      -8.475 -26.952  35.492  1.00  0.00     0.158 A 
ATOM     10  C   UNL     1      -7.392 -26.759  34.621  1.00  0.00     0.062 A 
ATOM     11  C   UNL     1      -6.816 -25.488  34.488  1.00  0.00     0.022 A 
ENDROOT
BRANCH   9  12
ATOM     12  O   UNL     1      -9.048 -28.216  35.626  1.00  0.00    -0.504 OA
ATOM     13  H   UNL     1      -9.526 -28.667  34.856  1.00  0.00     0.293 HD
ENDBRANCH   9  12
BRANCH   8  14
ATOM     14  O   UNL     1     -10.058 -26.031  37.103  1.00  0.00    -0.504 OA
ATOM     15  H   UNL     1     -10.557 -26.909  37.184  1.00  0.00     0.293 HD
ENDBRANCH   8  14
TORSDOF 2
ENDMDL
MODEL 2
REMARK VINA RESULT:    -5.174      1.497      2.692
REMARK INTER + INTRA:          -5.476
REMARK INTER:                  -5.476
REMARK INTRA:                   0.000
REMARK UNBOUND:                 0.000
REMARK SMILES O=c1ccc2cc(O)c(O)cc2o1
REMARK SMILES IDX 4 1 3 2 2 3 1 4 13 5 12 6 11 7 9 8 7 9 6 10 5 11 8 12 10 14
REMARK H PARENT 8 13 10 15
REMARK Flexibility Score: inf
ROOT
ATOM      1  C   UNL     1      -8.149 -24.182  37.125  1.00  0.00     0.019 A 
ATOM      2  C   UNL     1      -7.316 -23.070  37.013  1.00  0.00     0.094 A 
ATOM      3  C   UNL     1      -6.411 -23.005  35.948  1.00  0.00     0.336 A 
ATOM      4  O   UNL     1      -5.649 -22.009  35.829  1.00  0.00    -0.246 OA
ATOM      5  O   UNL     1      -6.349 -23.991  35.055  1.00  0.00    -0.423 OA
ATOM      6  C   UNL     1      -7.127 -25.069  35.124  1.00  0.00     0.142 A 
ATOM      7  C   UNL     1      -7.017 -26.073  34.158  1.00  0.00     0.098 A 
ATOM      8  C   UNL     1      -7.831 -27.211  34.224  1.00  0.00     0.161 A 
ATOM      9  C   UNL     1      -8.765 -27.346  35.268  1.00  0.00     0.158 A 
ATOM     10  C   UNL     1      -8.878 -26.341  36.240  1.00  0.00     0.062 A 
ATOM     11  C   UNL     1      -8.063 -25.203  36.172  1.00  0.00     0.022 A 
ENDROOT
BRANCH   9  12
ATOM     12  O   UNL     1      -9.576 -28.478  35.334  1.00  0.00    -0.504 OA
ATOM     13  H   UNL     1     -10.349 -28.616  34.694  1.00  0.00     0.293 HD
ENDBRANCH   9  12
BRANCH   8  14
ATOM     14  O   UNL     1      -7.697 -28.194  33.245  1.00  0.00    -0.504 OA
ATOM     15  H   UNL     1      -7.797 -29.181  33.455  1.00  0.00     0.293 HD
ENDBRANCH   8  14
TORSDOF 2
ENDMDL
MODEL 3
REMARK VINA RESULT:    -5.062      1.220      2.305
REMARK INTER + INTRA:          -5.358
REMARK INTER:                  -5.358
REMARK INTRA:                   0.000
REMARK UNBOUND:                 0.000
REMARK SMILES O=c1ccc2cc(O)c(O)cc2o1
REMARK SMILES IDX 4 1 3 2 2 3 1 4 13 5 12 6 11 7 9 8 7 9 6 10 5 11 8 12 10 14
REMARK H PARENT 8 13 10 15
REMARK Flexibility Score: inf
ROOT
ATOM      1  C   UNL     1      -6.928 -23.389  35.202  1.00  0.00     0.019 A 
ATOM      2  C   UNL     1      -5.814 -23.267  34.373  1.00  0.00     0.094 A 
ATOM      3  C   UNL     1      -5.329 -24.403  33.716  1.00  0.00     0.336 A 
ATOM      4  O   UNL     1      -4.324 -24.313  32.963  1.00  0.00    -0.246 OA
ATOM      5  O   UNL     1      -5.925 -25.582  33.880  1.00  0.00    -0.423 OA
ATOM      6  C   UNL     1      -6.991 -25.742  34.661  1.00  0.00     0.142 A 
ATOM      7  C   UNL     1      -7.575 -27.005  34.795  1.00  0.00     0.098 A 
ATOM      8  C   UNL     1      -8.696 -27.183  35.615  1.00  0.00     0.161 A 
ATOM      9  C   UNL     1      -9.240 -26.086  36.309  1.00  0.00     0.158 A 
ATOM     10  C   UNL     1      -8.656 -24.817  36.177  1.00  0.00     0.062 A 
ATOM     11  C   UNL     1      -7.534 -24.641  35.356  1.00  0.00     0.022 A 
ENDROOT
BRANCH   9  12
ATOM     12  O   UNL     1     -10.356 -26.261  37.125  1.00  0.00    -0.504 OA
ATOM     13  H   UNL     1     -10.527 -27.132  37.611  1.00  0.00     0.293 HD
ENDBRANCH   9  12
BRANCH   8  14
ATOM     14  O   UNL     1      -9.255 -28.455  35.728  1.00  0.00    -0.504 OA
ATOM     15  H   UNL     1      -9.544 -28.990  34.917  1.00  0.00     0.293 HD
ENDBRANCH   8  14
TORSDOF 2
ENDMDL
MODEL 4
REMARK VINA RESULT:    -5.049      1.582      2.135
REMARK INTER + INTRA:          -5.345
REMARK INTER:                  -5.345
REMARK INTRA:                   0.000
REMARK UNBOUND:                 0.000
REMARK SMILES O=c1ccc2cc(O)c(O)cc2o1
REMARK SMILES IDX 4 1 3 2 2 3 1 4 13 5 12 6 11 7 9 8 7 9 6 10 5 11 8 12 10 14
REMARK H PARENT 8 13 10 15
REMARK Flexibility Score: inf
ROOT
ATOM      1  C   UNL     1      -6.295 -23.726  34.289  1.00  0.00     0.019 A 
ATOM      2  C   UNL     1      -6.404 -22.644  35.162  1.00  0.00     0.094 A 
ATOM      3  C   UNL     1      -7.245 -22.753  36.276  1.00  0.00     0.336 A 
ATOM      4  O   UNL     1      -7.357 -21.787  37.075  1.00  0.00    -0.246 OA
ATOM      5  O   UNL     1      -7.928 -23.874  36.496  1.00  0.00    -0.423 OA
ATOM      6  C   UNL     1      -7.852 -24.929  35.690  1.00  0.00     0.142 A 
ATOM      7  C   UNL     1      -8.594 -26.080  35.972  1.00  0.00     0.098 A 
ATOM      8  C   UNL     1      -8.520 -27.194  35.128  1.00  0.00     0.161 A 
ATOM      9  C   UNL     1      -7.696 -27.159  33.988  1.00  0.00     0.158 A 
ATOM     10  C   UNL     1      -6.950 -26.006  33.700  1.00  0.00     0.062 A 
ATOM     11  C   UNL     1      -7.025 -24.891  34.547  1.00  0.00     0.022 A 
ENDROOT
BRANCH   9  12
ATOM     12  O   UNL     1      -7.621 -28.268  33.147  1.00  0.00    -0.504 OA
ATOM     13  H   UNL     1      -6.747 -28.753  32.984  1.00  0.00     0.293 HD
ENDBRANCH   9  12
BRANCH   8  14
ATOM     14  O   UNL     1      -9.272 -28.327  35.437  1.00  0.00    -0.504 OA
ATOM     15  H   UNL     1      -8.890 -29.263  35.367  1.00  0.00     0.293 HD
ENDBRANCH   8  14
TORSDOF 2
ENDMDL
MODEL 5
REMARK VINA RESULT:    -4.987      2.179      4.915
REMARK INTER + INTRA:          -5.278
REMARK INTER:                  -5.278
REMARK INTRA:                   0.000
REMARK UNBOUND:                 0.000
REMARK SMILES O=c1ccc2cc(O)c(O)cc2o1
REMARK SMILES IDX 4 1 3 2 2 3 1 4 13 5 12 6 11 7 9 8 7 9 6 10 5 11 8 12 10 14
REMARK H PARENT 8 13 10 15
REMARK Flexibility Score: inf
ROOT
ATOM      1  C   UNL     1      -6.128 -26.316  36.179  1.00  0.00     0.019 A 
ATOM      2  C   UNL     1      -6.826 -27.252  35.416  1.00  0.00     0.094 A 
ATOM      3  C   UNL     1      -7.145 -26.944  34.089  1.00  0.00     0.336 A 
ATOM      4  O   UNL     1      -7.774 -27.775  33.384  1.00  0.00    -0.246 OA
ATOM      5  O   UNL     1      -6.786 -25.774  33.565  1.00  0.00    -0.423 OA
ATOM      6  C   UNL     1      -6.119 -24.853  34.257  1.00  0.00     0.142 A 
ATOM      7  C   UNL     1      -5.770 -23.641  33.654  1.00  0.00     0.098 A 
ATOM      8  C   UNL     1      -5.070 -22.668  34.376  1.00  0.00     0.161 A 
ATOM      9  C   UNL     1      -4.714 -22.907  35.716  1.00  0.00     0.158 A 
ATOM     10  C   UNL     1      -5.063 -24.121  36.326  1.00  0.00     0.062 A 
ATOM     11  C   UNL     1      -5.765 -25.095  35.602  1.00  0.00     0.022 A 
ENDROOT
BRANCH   9  12
ATOM     12  O   UNL     1      -4.016 -21.939  36.435  1.00  0.00    -0.504 OA
ATOM     13  H   UNL     1      -3.035 -21.753  36.263  1.00  0.00     0.293 HD
ENDBRANCH   9  12
BRANCH   8  14
ATOM     14  O   UNL     1      -4.735 -21.470  33.745  1.00  0.00    -0.504 OA
ATOM     15  H   UNL     1      -4.576 -21.413  32.746  1.00  0.00     0.293 HD
ENDBRANCH   8  14
TORSDOF 2
ENDMDL
MODEL 6
REMARK VINA RESULT:    -4.966      3.390      4.266
REMARK INTER + INTRA:          -5.257
REMARK INTER:                  -5.257
REMARK INTRA:                   0.000
REMARK UNBOUND:                 0.000
REMARK SMILES O=c1ccc2cc(O)c(O)cc2o1
REMARK SMILES IDX 4 1 3 2 2 3 1 4 13 5 12 6 11 7 9 8 7 9 6 10 5 11 8 12 10 14
REMARK H PARENT 8 13 10 15
REMARK Flexibility Score: inf
ROOT
ATOM      1  C   UNL     1      -7.033 -23.942  32.104  1.00  0.00     0.019 A 
ATOM      2  C   UNL     1      -5.842 -24.600  32.409  1.00  0.00     0.094 A 
ATOM      3  C   UNL     1      -5.170 -24.273  33.592  1.00  0.00     0.336 A 
ATOM      4  O   UNL     1      -4.093 -24.856  33.885  1.00  0.00    -0.246 OA
ATOM      5  O   UNL     1      -5.663 -23.348  34.413  1.00  0.00    -0.423 OA
ATOM      6  C   UNL     1      -6.796 -22.697  34.161  1.00  0.00     0.142 A 
ATOM      7  C   UNL     1      -7.265 -21.735  35.060  1.00  0.00     0.098 A 
ATOM      8  C   UNL     1      -8.455 -21.046  34.801  1.00  0.00     0.161 A 
ATOM      9  C   UNL     1      -9.186 -21.320  33.631  1.00  0.00     0.158 A 
ATOM     10  C   UNL     1      -8.719 -22.285  32.725  1.00  0.00     0.062 A 
ATOM     11  C   UNL     1      -7.527 -22.974  32.986  1.00  0.00     0.022 A 
ENDROOT
BRANCH   9  12
ATOM     12  O   UNL     1     -10.372 -20.635  33.373  1.00  0.00    -0.504 OA
ATOM     13  H   UNL     1     -10.946 -20.266  34.121  1.00  0.00     0.293 HD
ENDBRANCH   9  12
BRANCH   8  14
ATOM     14  O   UNL     1      -8.896 -20.092  35.718  1.00  0.00    -0.504 OA
ATOM     15  H   UNL     1      -8.253 -19.503  36.234  1.00  0.00     0.293 HD
ENDBRANCH   8  14
TORSDOF 2
ENDMDL
MODEL 7
REMARK VINA RESULT:    -4.906      1.270      4.549
REMARK INTER + INTRA:          -5.193
REMARK INTER:                  -5.193
REMARK INTRA:                   0.000
REMARK UNBOUND:                 0.000
REMARK SMILES O=c1ccc2cc(O)c(O)cc2o1
REMARK SMILES IDX 4 1 3 2 2 3 1 4 13 5 12 6 11 7 9 8 7 9 6 10 5 11 8 12 10 14
REMARK H PARENT 8 13 10 15
REMARK Flexibility Score: inf
ROOT
ATOM      1  C   UNL     1      -6.799 -26.628  35.622  1.00  0.00     0.019 A 
ATOM      2  C   UNL     1      -7.956 -26.908  36.348  1.00  0.00     0.094 A 
ATOM      3  C   UNL     1      -8.936 -25.917  36.473  1.00  0.00     0.336 A 
ATOM      4  O   UNL     1      -9.987 -26.150  37.125  1.00  0.00    -0.246 OA
ATOM      5  O   UNL     1      -8.764 -24.725  35.905  1.00  0.00    -0.423 OA
ATOM      6  C   UNL     1      -7.676 -24.417  35.203  1.00  0.00     0.142 A 
ATOM      7  C   UNL     1      -7.550 -23.148  34.630  1.00  0.00     0.098 A 
ATOM      8  C   UNL     1      -6.409 -22.816  33.891  1.00  0.00     0.161 A 
ATOM      9  C   UNL     1      -5.381 -23.761  33.722  1.00  0.00     0.158 A 
ATOM     10  C   UNL     1      -5.502 -25.036  34.296  1.00  0.00     0.062 A 
ATOM     11  C   UNL     1      -6.646 -25.367  35.036  1.00  0.00     0.022 A 
ENDROOT
BRANCH   9  12
ATOM     12  O   UNL     1      -4.244 -23.432  32.986  1.00  0.00    -0.504 OA
ATOM     13  H   UNL     1      -3.452 -24.060  32.922  1.00  0.00     0.293 HD
ENDBRANCH   9  12
BRANCH   8  14
ATOM     14  O   UNL     1      -6.314 -21.542  33.331  1.00  0.00    -0.504 OA
ATOM     15  H   UNL     1      -7.046 -20.850  33.440  1.00  0.00     0.293 HD
ENDBRANCH   8  14
TORSDOF 2
ENDMDL
MODEL 8
REMARK VINA RESULT:    -4.687      1.394      4.984
REMARK INTER + INTRA:          -4.961
REMARK INTER:                  -4.961
REMARK INTRA:                   0.000
REMARK UNBOUND:                 0.000
REMARK SMILES O=c1ccc2cc(O)c(O)cc2o1
REMARK SMILES IDX 4 1 3 2 2 3 1 4 13 5 12 6 11 7 9 8 7 9 6 10 5 11 8 12 10 14
REMARK H PARENT 8 13 10 15
REMARK Flexibility Score: inf
ROOT
ATOM      1  C   UNL     1      -8.833 -24.473  36.298  1.00  0.00     0.019 A 
ATOM      2  C   UNL     1      -8.979 -25.732  36.878  1.00  0.00     0.094 A 
ATOM      3  C   UNL     1      -8.022 -26.717  36.611  1.00  0.00     0.336 A 
ATOM      4  O   UNL     1      -8.136 -27.861  37.125  1.00  0.00    -0.246 OA
ATOM      5  O   UNL     1      -6.988 -26.453  35.816  1.00  0.00    -0.423 OA
ATOM      6  C   UNL     1      -6.810 -25.265  35.243  1.00  0.00     0.142 A 
ATOM      7  C   UNL     1      -5.704 -25.045  34.417  1.00  0.00     0.098 A 
ATOM      8  C   UNL     1      -5.511 -23.799  33.810  1.00  0.00     0.161 A 
ATOM      9  C   UNL     1      -6.432 -22.759  34.032  1.00  0.00     0.158 A 
ATOM     10  C   UNL     1      -7.544 -22.975  34.860  1.00  0.00     0.062 A 
ATOM     11  C   UNL     1      -7.736 -24.224  35.466  1.00  0.00     0.022 A 
ENDROOT
BRANCH   9  12
ATOM     12  O   UNL     1      -6.241 -21.517  33.429  1.00  0.00    -0.504 OA
ATOM     13  H   UNL     1      -5.731 -21.421  32.559  1.00  0.00     0.293 HD
ENDBRANCH   9  12
BRANCH   8  14
ATOM     14  O   UNL     1      -4.397 -23.611  32.992  1.00  0.00    -0.504 OA
ATOM     15  H   UNL     1      -4.341 -24.006  32.060  1.00  0.00     0.293 HD
ENDBRANCH   8  14
TORSDOF 2
ENDMDL
