MODEL 1
REMARK VINA RESULT:    -4.623      0.000      0.000
REMARK INTER + INTRA:         -18.026
REMARK INTER:                 -12.190
REMARK INTRA:                  -5.836
REMARK UNBOUND:                -5.836
REMARK SMILES CCCCCCCCCCCCCCCCCCCCCCCCCCCCCC(=O)[O-]
REMARK SMILES IDX 16 1 17 2 18 3 19 4 20 5 21 6 22 7 23 8 24 9 25 10 26 11
REMARK SMILES IDX 27 12 28 13 29 14 30 15 31 16 32 17 15 18 14 19 13 20 12 21
REMARK SMILES IDX 11 22 10 23 9 24 8 25 7 26 6 27 5 28 4 29 3 30 2 31 1 32
REMARK H PARENT
REMARK Flexibility Score: inf
ROOT
ATOM      1  C   UNL     1       7.433 -19.243  22.129  1.00  0.00     0.000 C 
ENDROOT
BRANCH   1   2
ATOM      2  C   UNL     1       6.758 -19.994  23.290  1.00  0.00     0.000 C 
BRANCH   2   3
ATOM      3  C   UNL     1       7.767 -20.561  24.305  1.00  0.00     0.000 C 
BRANCH   3   4
ATOM      4  C   UNL     1       7.092 -20.994  25.618  1.00  0.00     0.000 C 
BRANCH   4   5
ATOM      5  C   UNL     1       7.609 -20.197  26.826  1.00  0.00     0.000 C 
BRANCH   5   6
ATOM      6  C   UNL     1       8.835 -20.877  27.450  1.00  0.00     0.000 C 
BRANCH   6   7
ATOM      7  C   UNL     1      10.105 -20.017  27.349  1.00  0.00     0.000 C 
BRANCH   7   8
ATOM      8  C   UNL     1      11.393 -20.854  27.389  1.00  0.00     0.000 C 
BRANCH   8   9
ATOM      9  C   UNL     1      12.163 -20.740  26.065  1.00  0.00     0.000 C 
BRANCH   9  10
ATOM     10  C   UNL     1      11.269 -20.300  24.894  1.00  0.00     0.000 C 
BRANCH  10  11
ATOM     11  C   UNL     1      11.934 -20.509  23.525  1.00  0.00     0.000 C 
BRANCH  11  12
ATOM     12  C   UNL     1      12.205 -22.002  23.233  1.00  0.00     0.000 C 
BRANCH  12  13
ATOM     13  C   UNL     1      11.043 -22.708  22.508  1.00  0.00     0.006 C 
BRANCH  13  14
ATOM     14  C   UNL     1      10.684 -22.092  21.148  1.00  0.00     0.053 C 
BRANCH  14  15
ATOM     15  C   UNL     1       9.224 -22.225  20.832  1.00  0.00     0.041 C 
ATOM     16  O   UNL     1       8.721 -21.563  19.886  1.00  0.00    -0.550 OA
ATOM     17  O   UNL     1       8.417 -23.066  21.586  1.00  0.00    -0.550 OA
ENDBRANCH  14  15
ENDBRANCH  13  14
ENDBRANCH  12  13
ENDBRANCH  11  12
ENDBRANCH  10  11
ENDBRANCH   9  10
ENDBRANCH   8   9
ENDBRANCH   7   8
ENDBRANCH   6   7
ENDBRANCH   5   6
ENDBRANCH   4   5
ENDBRANCH   3   4
ENDBRANCH   2   3
ENDBRANCH   1   2
BRANCH   1  18
ATOM     18  C   UNL     1       8.914 -18.889  22.351  1.00  0.00     0.000 C 
BRANCH  18  19
ATOM     19  C   UNL     1       9.264 -17.470  21.872  1.00  0.00     0.000 C 
BRANCH  19  20
ATOM     20  C   UNL     1      10.737 -17.098  22.130  1.00  0.00     0.000 C 
BRANCH  20  21
ATOM     21  C   UNL     1      10.955 -15.618  22.496  1.00  0.00     0.000 C 
BRANCH  21  22
ATOM     22  C   UNL     1      11.752 -15.427  23.804  1.00  0.00     0.000 C 
BRANCH  22  23
ATOM     23  C   UNL     1      11.718 -16.676  24.704  1.00  0.00     0.000 C 
BRANCH  23  24
ATOM     24  C   UNL     1      10.727 -16.572  25.882  1.00  0.00    -0.000 C 
BRANCH  24  25
ATOM     25  C   UNL     1       9.303 -17.082  25.581  1.00  0.00    -0.000 C 
BRANCH  25  26
ATOM     26  C   UNL     1       8.185 -16.241  26.233  1.00  0.00    -0.000 C 
BRANCH  26  27
ATOM     27  C   UNL     1       6.783 -16.765  25.879  1.00  0.00    -0.000 C 
BRANCH  27  28
ATOM     28  C   UNL     1       6.406 -16.478  24.416  1.00  0.00    -0.000 C 
BRANCH  28  29
ATOM     29  C   UNL     1       6.806 -15.062  23.977  1.00  0.00    -0.000 C 
BRANCH  29  30
ATOM     30  C   UNL     1       6.914 -14.976  22.447  1.00  0.00    -0.000 C 
BRANCH  30  31
ATOM     31  C   UNL     1       5.781 -14.147  21.824  1.00  0.00    -0.003 C 
ATOM     32  C   UNL     1       6.024 -13.823  20.350  1.00  0.00     0.004 C 
ENDBRANCH  30  31
ENDBRANCH  29  30
ENDBRANCH  28  29
ENDBRANCH  27  28
ENDBRANCH  26  27
ENDBRANCH  25  26
ENDBRANCH  24  25
ENDBRANCH  23  24
ENDBRANCH  22  23
ENDBRANCH  21  22
ENDBRANCH  20  21
ENDBRANCH  19  20
ENDBRANCH  18  19
ENDBRANCH   1  18
TORSDOF 28
ENDMDL
MODEL 2
REMARK VINA RESULT:    -4.609      2.662      6.597
REMARK INTER + INTRA:         -17.989
REMARK INTER:                 -10.968
REMARK INTRA:                  -7.021
REMARK UNBOUND:                -5.836
REMARK SMILES CCCCCCCCCCCCCCCCCCCCCCCCCCCCCC(=O)[O-]
REMARK SMILES IDX 16 1 17 2 18 3 19 4 20 5 21 6 22 7 23 8 24 9 25 10 26 11
REMARK SMILES IDX 27 12 28 13 29 14 30 15 31 16 32 17 15 18 14 19 13 20 12 21
REMARK SMILES IDX 11 22 10 23 9 24 8 25 7 26 6 27 5 28 4 29 3 30 2 31 1 32
REMARK H PARENT
REMARK Flexibility Score: inf
ROOT
ATOM      1  C   UNL     1       9.789 -21.093  24.287  1.00  0.00     0.000 C 
ENDROOT
BRANCH   1   2
ATOM      2  C   UNL     1       8.797 -21.156  25.463  1.00  0.00     0.000 C 
BRANCH   2   3
ATOM      3  C   UNL     1       7.407 -20.600  25.106  1.00  0.00     0.000 C 
BRANCH   3   4
ATOM      4  C   UNL     1       7.418 -19.072  24.926  1.00  0.00     0.000 C 
BRANCH   4   5
ATOM      5  C   UNL     1       7.241 -18.330  26.260  1.00  0.00     0.000 C 
BRANCH   5   6
ATOM      6  C   UNL     1       7.136 -16.816  26.036  1.00  0.00     0.000 C 
BRANCH   6   7
ATOM      7  C   UNL     1       6.823 -16.452  24.575  1.00  0.00     0.000 C 
BRANCH   7   8
ATOM      8  C   UNL     1       7.816 -15.436  23.990  1.00  0.00     0.000 C 
BRANCH   8   9
ATOM      9  C   UNL     1       9.052 -15.294  24.891  1.00  0.00     0.000 C 
BRANCH   9  10
ATOM     10  C   UNL     1      10.360 -15.177  24.090  1.00  0.00     0.000 C 
BRANCH  10  11
ATOM     11  C   UNL     1      11.387 -16.255  24.466  1.00  0.00     0.000 C 
BRANCH  11  12
ATOM     12  C   UNL     1      10.716 -17.515  25.057  1.00  0.00     0.000 C 
BRANCH  12  13
ATOM     13  C   UNL     1      11.482 -18.120  26.250  1.00  0.00     0.006 C 
BRANCH  13  14
ATOM     14  C   UNL     1      10.577 -18.658  27.369  1.00  0.00     0.053 C 
BRANCH  14  15
ATOM     15  C   UNL     1      11.265 -19.694  28.205  1.00  0.00     0.041 C 
ATOM     16  O   UNL     1      12.506 -19.621  28.406  1.00  0.00    -0.550 OA
ATOM     17  O   UNL     1      10.543 -20.747  28.752  1.00  0.00    -0.550 OA
ENDBRANCH  14  15
ENDBRANCH  13  14
ENDBRANCH  12  13
ENDBRANCH  11  12
ENDBRANCH  10  11
ENDBRANCH   9  10
ENDBRANCH   8   9
ENDBRANCH   7   8
ENDBRANCH   6   7
ENDBRANCH   5   6
ENDBRANCH   4   5
ENDBRANCH   3   4
ENDBRANCH   2   3
ENDBRANCH   1   2
BRANCH   1  18
ATOM     18  C   UNL     1      10.216 -22.458  23.718  1.00  0.00     0.000 C 
BRANCH  18  19
ATOM     19  C   UNL     1      10.064 -22.538  22.190  1.00  0.00     0.000 C 
BRANCH  19  20
ATOM     20  C   UNL     1       8.623 -22.859  21.748  1.00  0.00     0.000 C 
BRANCH  20  21
ATOM     21  C   UNL     1       8.076 -21.918  20.659  1.00  0.00     0.000 C 
BRANCH  21  22
ATOM     22  C   UNL     1       7.250 -20.744  21.230  1.00  0.00     0.000 C 
BRANCH  22  23
ATOM     23  C   UNL     1       7.509 -19.422  20.485  1.00  0.00     0.000 C 
BRANCH  23  24
ATOM     24  C   UNL     1       7.874 -18.243  21.410  1.00  0.00    -0.000 C 
BRANCH  24  25
ATOM     25  C   UNL     1       9.279 -18.321  22.040  1.00  0.00    -0.000 C 
BRANCH  25  26
ATOM     26  C   UNL     1      10.343 -18.957  21.120  1.00  0.00    -0.000 C 
BRANCH  26  27
ATOM     27  C   UNL     1      11.764 -18.473  21.455  1.00  0.00    -0.000 C 
BRANCH  27  28
ATOM     28  C   UNL     1      12.718 -19.638  21.767  1.00  0.00    -0.000 C 
BRANCH  28  29
ATOM     29  C   UNL     1      13.289 -19.561  23.191  1.00  0.00    -0.000 C 
BRANCH  29  30
ATOM     30  C   UNL     1      13.515 -20.967  23.765  1.00  0.00    -0.000 C 
BRANCH  30  31
ATOM     31  C   UNL     1      13.376 -21.007  25.294  1.00  0.00    -0.003 C 
ATOM     32  C   UNL     1      13.434 -22.427  25.858  1.00  0.00     0.004 C 
ENDBRANCH  30  31
ENDBRANCH  29  30
ENDBRANCH  28  29
ENDBRANCH  27  28
ENDBRANCH  26  27
ENDBRANCH  25  26
ENDBRANCH  24  25
ENDBRANCH  23  24
ENDBRANCH  22  23
ENDBRANCH  21  22
ENDBRANCH  20  21
ENDBRANCH  19  20
ENDBRANCH  18  19
ENDBRANCH   1  18
TORSDOF 28
ENDMDL
MODEL 3
REMARK VINA RESULT:    -4.503      2.958      6.843
REMARK INTER + INTRA:         -17.709
REMARK INTER:                 -11.149
REMARK INTRA:                  -6.561
REMARK UNBOUND:                -5.836
REMARK SMILES CCCCCCCCCCCCCCCCCCCCCCCCCCCCCC(=O)[O-]
REMARK SMILES IDX 16 1 17 2 18 3 19 4 20 5 21 6 22 7 23 8 24 9 25 10 26 11
REMARK SMILES IDX 27 12 28 13 29 14 30 15 31 16 32 17 15 18 14 19 13 20 12 21
REMARK SMILES IDX 11 22 10 23 9 24 8 25 7 26 6 27 5 28 4 29 3 30 2 31 1 32
REMARK H PARENT
REMARK Flexibility Score: inf
ROOT
ATOM      1  C   UNL     1       7.152 -16.605  19.872  1.00  0.00     0.000 C 
ENDROOT
BRANCH   1   2
ATOM      2  C   UNL     1       7.653 -15.376  19.091  1.00  0.00     0.000 C 
BRANCH   2   3
ATOM      3  C   UNL     1       6.735 -14.151  19.246  1.00  0.00     0.000 C 
BRANCH   3   4
ATOM      4  C   UNL     1       5.744 -14.308  20.412  1.00  0.00     0.000 C 
BRANCH   4   5
ATOM      5  C   UNL     1       6.272 -13.679  21.711  1.00  0.00     0.000 C 
BRANCH   5   6
ATOM      6  C   UNL     1       6.021 -14.602  22.910  1.00  0.00     0.000 C 
BRANCH   6   7
ATOM      7  C   UNL     1       7.176 -14.583  23.925  1.00  0.00     0.000 C 
BRANCH   7   8
ATOM      8  C   UNL     1       7.365 -15.933  24.635  1.00  0.00     0.000 C 
BRANCH   8   9
ATOM      9  C   UNL     1       6.474 -17.014  24.006  1.00  0.00     0.000 C 
BRANCH   9  10
ATOM     10  C   UNL     1       7.095 -18.418  24.090  1.00  0.00     0.000 C 
BRANCH  10  11
ATOM     11  C   UNL     1       7.650 -18.743  25.485  1.00  0.00     0.000 C 
BRANCH  11  12
ATOM     12  C   UNL     1       9.083 -19.318  25.420  1.00  0.00     0.000 C 
BRANCH  12  13
ATOM     13  C   UNL     1       9.960 -18.667  24.333  1.00  0.00     0.006 C 
BRANCH  13  14
ATOM     14  C   UNL     1      11.177 -17.907  24.880  1.00  0.00     0.053 C 
BRANCH  14  15
ATOM     15  C   UNL     1      10.832 -16.510  25.299  1.00  0.00     0.041 C 
ATOM     16  O   UNL     1      10.394 -16.289  26.459  1.00  0.00    -0.550 OA
ATOM     17  O   UNL     1      10.980 -15.454  24.410  1.00  0.00    -0.550 OA
ENDBRANCH  14  15
ENDBRANCH  13  14
ENDBRANCH  12  13
ENDBRANCH  11  12
ENDBRANCH  10  11
ENDBRANCH   9  10
ENDBRANCH   8   9
ENDBRANCH   7   8
ENDBRANCH   6   7
ENDBRANCH   5   6
ENDBRANCH   4   5
ENDBRANCH   3   4
ENDBRANCH   2   3
ENDBRANCH   1   2
BRANCH   1  18
ATOM     18  C   UNL     1       8.202 -17.281  20.771  1.00  0.00     0.000 C 
BRANCH  18  19
ATOM     19  C   UNL     1       9.202 -16.279  21.373  1.00  0.00     0.000 C 
BRANCH  19  20
ATOM     20  C   UNL     1      10.660 -16.572  20.964  1.00  0.00     0.000 C 
BRANCH  20  21
ATOM     21  C   UNL     1      11.049 -18.059  21.054  1.00  0.00     0.000 C 
BRANCH  21  22
ATOM     22  C   UNL     1      12.048 -18.492  19.958  1.00  0.00     0.000 C 
BRANCH  22  23
ATOM     23  C   UNL     1      11.657 -17.968  18.564  1.00  0.00     0.000 C 
BRANCH  23  24
ATOM     24  C   UNL     1      10.895 -18.994  17.700  1.00  0.00    -0.000 C 
BRANCH  24  25
ATOM     25  C   UNL     1       9.394 -18.695  17.509  1.00  0.00    -0.000 C 
BRANCH  25  26
ATOM     26  C   UNL     1       8.461 -19.778  18.090  1.00  0.00    -0.000 C 
BRANCH  26  27
ATOM     27  C   UNL     1       9.191 -20.708  19.074  1.00  0.00    -0.000 C 
BRANCH  27  28
ATOM     28  C   UNL     1       8.258 -21.239  20.175  1.00  0.00    -0.000 C 
BRANCH  28  29
ATOM     29  C   UNL     1       8.703 -20.804  21.579  1.00  0.00    -0.000 C 
BRANCH  29  30
ATOM     30  C   UNL     1       8.467 -21.928  22.598  1.00  0.00    -0.000 C 
BRANCH  30  31
ATOM     31  C   UNL     1       9.770 -22.408  23.256  1.00  0.00    -0.003 C 
ATOM     32  C   UNL     1      10.901 -22.617  22.249  1.00  0.00     0.004 C 
ENDBRANCH  30  31
ENDBRANCH  29  30
ENDBRANCH  28  29
ENDBRANCH  27  28
ENDBRANCH  26  27
ENDBRANCH  25  26
ENDBRANCH  24  25
ENDBRANCH  23  24
ENDBRANCH  22  23
ENDBRANCH  21  22
ENDBRANCH  20  21
ENDBRANCH  19  20
ENDBRANCH  18  19
ENDBRANCH   1  18
TORSDOF 28
ENDMDL
MODEL 4
REMARK VINA RESULT:    -4.479      1.833      6.028
REMARK INTER + INTRA:         -17.646
REMARK INTER:                 -11.717
REMARK INTRA:                  -5.928
REMARK UNBOUND:                -5.836
REMARK SMILES CCCCCCCCCCCCCCCCCCCCCCCCCCCCCC(=O)[O-]
REMARK SMILES IDX 16 1 17 2 18 3 19 4 20 5 21 6 22 7 23 8 24 9 25 10 26 11
REMARK SMILES IDX 27 12 28 13 29 14 30 15 31 16 32 17 15 18 14 19 13 20 12 21
REMARK SMILES IDX 11 22 10 23 9 24 8 25 7 26 6 27 5 28 4 29 3 30 2 31 1 32
REMARK H PARENT
REMARK Flexibility Score: inf
ROOT
ATOM      1  C   UNL     1       8.835 -17.954  26.595  1.00  0.00     0.000 C 
ENDROOT
BRANCH   1   2
ATOM      2  C   UNL     1       7.353 -17.691  26.274  1.00  0.00     0.000 C 
BRANCH   2   3
ATOM      3  C   UNL     1       7.107 -16.297  25.670  1.00  0.00     0.000 C 
BRANCH   3   4
ATOM      4  C   UNL     1       6.174 -16.346  24.448  1.00  0.00     0.000 C 
BRANCH   4   5
ATOM      5  C   UNL     1       6.838 -15.770  23.188  1.00  0.00     0.000 C 
BRANCH   5   6
ATOM      6  C   UNL     1       8.223 -16.391  22.964  1.00  0.00     0.000 C 
BRANCH   6   7
ATOM      7  C   UNL     1       8.162 -17.699  22.158  1.00  0.00     0.000 C 
BRANCH   7   8
ATOM      8  C   UNL     1       8.630 -18.918  22.968  1.00  0.00     0.000 C 
BRANCH   8   9
ATOM      9  C   UNL     1       7.433 -19.765  23.427  1.00  0.00     0.000 C 
BRANCH   9  10
ATOM     10  C   UNL     1       7.859 -21.037  24.179  1.00  0.00     0.000 C 
BRANCH  10  11
ATOM     11  C   UNL     1       9.267 -21.515  23.791  1.00  0.00     0.000 C 
BRANCH  11  12
ATOM     12  C   UNL     1       9.226 -22.646  22.738  1.00  0.00     0.000 C 
BRANCH  12  13
ATOM     13  C   UNL     1       9.634 -22.187  21.324  1.00  0.00     0.006 C 
BRANCH  13  14
ATOM     14  C   UNL     1       8.453 -21.777  20.432  1.00  0.00     0.053 C 
BRANCH  14  15
ATOM     15  C   UNL     1       8.872 -20.863  19.320  1.00  0.00     0.041 C 
ATOM     16  O   UNL     1       8.610 -21.162  18.125  1.00  0.00    -0.550 OA
ATOM     17  O   UNL     1       9.561 -19.690  19.598  1.00  0.00    -0.550 OA
ENDBRANCH  14  15
ENDBRANCH  13  14
ENDBRANCH  12  13
ENDBRANCH  11  12
ENDBRANCH  10  11
ENDBRANCH   9  10
ENDBRANCH   8   9
ENDBRANCH   7   8
ENDBRANCH   6   7
ENDBRANCH   5   6
ENDBRANCH   4   5
ENDBRANCH   3   4
ENDBRANCH   2   3
ENDBRANCH   1   2
BRANCH   1  18
ATOM     18  C   UNL     1       9.743 -16.712  26.559  1.00  0.00     0.000 C 
BRANCH  18  19
ATOM     19  C   UNL     1      10.860 -16.823  25.508  1.00  0.00     0.000 C 
BRANCH  19  20
ATOM     20  C   UNL     1      11.474 -18.235  25.435  1.00  0.00     0.000 C 
BRANCH  20  21
ATOM     21  C   UNL     1      12.285 -18.500  24.154  1.00  0.00     0.000 C 
BRANCH  21  22
ATOM     22  C   UNL     1      13.738 -18.942  24.436  1.00  0.00     0.000 C 
BRANCH  22  23
ATOM     23  C   UNL     1      14.030 -19.081  25.941  1.00  0.00     0.000 C 
BRANCH  23  24
ATOM     24  C   UNL     1      14.212 -20.539  26.412  1.00  0.00    -0.000 C 
BRANCH  24  25
ATOM     25  C   UNL     1      13.820 -21.610  25.374  1.00  0.00    -0.000 C 
BRANCH  25  26
ATOM     26  C   UNL     1      12.398 -22.179  25.567  1.00  0.00    -0.000 C 
BRANCH  26  27
ATOM     27  C   UNL     1      11.987 -22.225  27.048  1.00  0.00    -0.000 C 
BRANCH  27  28
ATOM     28  C   UNL     1      10.797 -21.300  27.352  1.00  0.00    -0.000 C 
BRANCH  28  29
ATOM     29  C   UNL     1      11.118 -20.279  28.453  1.00  0.00    -0.000 C 
BRANCH  29  30
ATOM     30  C   UNL     1      11.301 -20.978  29.808  1.00  0.00    -0.000 C 
BRANCH  30  31
ATOM     31  C   UNL     1      12.720 -20.803  30.372  1.00  0.00    -0.003 C 
ATOM     32  C   UNL     1      13.387 -19.508  29.909  1.00  0.00     0.004 C 
ENDBRANCH  30  31
ENDBRANCH  29  30
ENDBRANCH  28  29
ENDBRANCH  27  28
ENDBRANCH  26  27
ENDBRANCH  25  26
ENDBRANCH  24  25
ENDBRANCH  23  24
ENDBRANCH  22  23
ENDBRANCH  21  22
ENDBRANCH  20  21
ENDBRANCH  19  20
ENDBRANCH  18  19
ENDBRANCH   1  18
TORSDOF 28
ENDMDL
MODEL 5
REMARK VINA RESULT:    -4.465      2.589      6.612
REMARK INTER + INTRA:         -17.609
REMARK INTER:                 -11.122
REMARK INTRA:                  -6.487
REMARK UNBOUND:                -5.836
REMARK SMILES CCCCCCCCCCCCCCCCCCCCCCCCCCCCCC(=O)[O-]
REMARK SMILES IDX 16 1 17 2 18 3 19 4 20 5 21 6 22 7 23 8 24 9 25 10 26 11
REMARK SMILES IDX 27 12 28 13 29 14 30 15 31 16 32 17 15 18 14 19 13 20 12 21
REMARK SMILES IDX 11 22 10 23 9 24 8 25 7 26 6 27 5 28 4 29 3 30 2 31 1 32
REMARK H PARENT
REMARK Flexibility Score: inf
ROOT
ATOM      1  C   UNL     1      10.476 -16.307  24.401  1.00  0.00     0.000 C 
ENDROOT
BRANCH   1   2
ATOM      2  C   UNL     1      10.745 -16.609  25.886  1.00  0.00     0.000 C 
BRANCH   2   3
ATOM      3  C   UNL     1       9.490 -17.088  26.638  1.00  0.00     0.000 C 
BRANCH   3   4
ATOM      4  C   UNL     1       8.217 -16.364  26.167  1.00  0.00     0.000 C 
BRANCH   4   5
ATOM      5  C   UNL     1       7.102 -17.348  25.778  1.00  0.00     0.000 C 
BRANCH   5   6
ATOM      6  C   UNL     1       7.452 -18.776  26.216  1.00  0.00     0.000 C 
BRANCH   6   7
ATOM      7  C   UNL     1       7.361 -19.789  25.064  1.00  0.00     0.000 C 
BRANCH   7   8
ATOM      8  C   UNL     1       7.208 -19.116  23.691  1.00  0.00     0.000 C 
BRANCH   8   9
ATOM      9  C   UNL     1       6.979 -20.161  22.589  1.00  0.00     0.000 C 
BRANCH   9  10
ATOM     10  C   UNL     1       7.440 -19.674  21.205  1.00  0.00     0.000 C 
BRANCH  10  11
ATOM     11  C   UNL     1       8.158 -18.317  21.258  1.00  0.00     0.000 C 
BRANCH  11  12
ATOM     12  C   UNL     1       7.643 -17.345  20.173  1.00  0.00     0.000 C 
BRANCH  12  13
ATOM     13  C   UNL     1       7.395 -15.916  20.692  1.00  0.00     0.006 C 
BRANCH  13  14
ATOM     14  C   UNL     1       7.494 -15.777  22.219  1.00  0.00     0.053 C 
BRANCH  14  15
ATOM     15  C   UNL     1       6.791 -14.553  22.724  1.00  0.00     0.041 C 
ATOM     16  O   UNL     1       7.162 -14.011  23.799  1.00  0.00    -0.550 OA
ATOM     17  O   UNL     1       5.721 -14.018  22.020  1.00  0.00    -0.550 OA
ENDBRANCH  14  15
ENDBRANCH  13  14
ENDBRANCH  12  13
ENDBRANCH  11  12
ENDBRANCH  10  11
ENDBRANCH   9  10
ENDBRANCH   8   9
ENDBRANCH   7   8
ENDBRANCH   6   7
ENDBRANCH   5   6
ENDBRANCH   4   5
ENDBRANCH   3   4
ENDBRANCH   2   3
ENDBRANCH   1   2
BRANCH   1  18
ATOM     18  C   UNL     1      11.407 -17.026  23.408  1.00  0.00     0.000 C 
BRANCH  18  19
ATOM     19  C   UNL     1      11.041 -18.507  23.218  1.00  0.00     0.000 C 
BRANCH  19  20
ATOM     20  C   UNL     1      11.705 -19.132  21.975  1.00  0.00     0.000 C 
BRANCH  20  21
ATOM     21  C   UNL     1      12.711 -20.252  22.299  1.00  0.00     0.000 C 
BRANCH  21  22
ATOM     22  C   UNL     1      12.381 -21.587  21.596  1.00  0.00     0.000 C 
BRANCH  22  23
ATOM     23  C   UNL     1      11.055 -21.530  20.815  1.00  0.00     0.000 C 
BRANCH  23  24
ATOM     24  C   UNL     1       9.925 -22.376  21.438  1.00  0.00    -0.000 C 
BRANCH  24  25
ATOM     25  C   UNL     1      10.264 -23.011  22.801  1.00  0.00    -0.000 C 
BRANCH  25  26
ATOM     26  C   UNL     1       9.711 -22.229  24.012  1.00  0.00    -0.000 C 
BRANCH  26  27
ATOM     27  C   UNL     1      10.714 -22.174  25.176  1.00  0.00    -0.000 C 
BRANCH  27  28
ATOM     28  C   UNL     1      10.661 -20.835  25.929  1.00  0.00    -0.000 C 
BRANCH  28  29
ATOM     29  C   UNL     1      11.971 -20.528  26.669  1.00  0.00    -0.000 C 
BRANCH  29  30
ATOM     30  C   UNL     1      13.179 -21.060  25.883  1.00  0.00    -0.000 C 
BRANCH  30  31
ATOM     31  C   UNL     1      14.321 -20.036  25.798  1.00  0.00    -0.003 C 
ATOM     32  C   UNL     1      13.828 -18.591  25.863  1.00  0.00     0.004 C 
ENDBRANCH  30  31
ENDBRANCH  29  30
ENDBRANCH  28  29
ENDBRANCH  27  28
ENDBRANCH  26  27
ENDBRANCH  25  26
ENDBRANCH  24  25
ENDBRANCH  23  24
ENDBRANCH  22  23
ENDBRANCH  21  22
ENDBRANCH  20  21
ENDBRANCH  19  20
ENDBRANCH  18  19
ENDBRANCH   1  18
TORSDOF 28
ENDMDL
MODEL 6
REMARK VINA RESULT:    -4.448      2.535      4.684
REMARK INTER + INTRA:         -17.565
REMARK INTER:                 -11.225
REMARK INTRA:                  -6.340
REMARK UNBOUND:                -5.836
REMARK SMILES CCCCCCCCCCCCCCCCCCCCCCCCCCCCCC(=O)[O-]
REMARK SMILES IDX 16 1 17 2 18 3 19 4 20 5 21 6 22 7 23 8 24 9 25 10 26 11
REMARK SMILES IDX 27 12 28 13 29 14 30 15 31 16 32 17 15 18 14 19 13 20 12 21
REMARK SMILES IDX 11 22 10 23 9 24 8 25 7 26 6 27 5 28 4 29 3 30 2 31 1 32
REMARK H PARENT
REMARK Flexibility Score: inf
ROOT
ATOM      1  C   UNL     1       9.893 -18.829  21.200  1.00  0.00     0.000 C 
ENDROOT
BRANCH   1   2
ATOM      2  C   UNL     1       8.537 -18.937  21.919  1.00  0.00     0.000 C 
BRANCH   2   3
ATOM      3  C   UNL     1       7.529 -19.828  21.171  1.00  0.00     0.000 C 
BRANCH   3   4
ATOM      4  C   UNL     1       8.220 -20.951  20.378  1.00  0.00     0.000 C 
BRANCH   4   5
ATOM      5  C   UNL     1       7.938 -22.339  20.973  1.00  0.00     0.000 C 
BRANCH   5   6
ATOM      6  C   UNL     1       8.896 -22.645  22.132  1.00  0.00     0.000 C 
BRANCH   6   7
ATOM      7  C   UNL     1      10.373 -22.601  21.707  1.00  0.00     0.000 C 
BRANCH   7   8
ATOM      8  C   UNL     1      11.337 -22.795  22.888  1.00  0.00     0.000 C 
BRANCH   8   9
ATOM      9  C   UNL     1      10.585 -22.743  24.225  1.00  0.00     0.000 C 
BRANCH   9  10
ATOM     10  C   UNL     1      11.526 -22.825  25.440  1.00  0.00     0.000 C 
BRANCH  10  11
ATOM     11  C   UNL     1      12.822 -23.592  25.138  1.00  0.00     0.000 C 
BRANCH  11  12
ATOM     12  C   UNL     1      14.049 -22.950  25.823  1.00  0.00     0.000 C 
BRANCH  12  13
ATOM     13  C   UNL     1      14.329 -21.507  25.357  1.00  0.00     0.006 C 
BRANCH  13  14
ATOM     14  C   UNL     1      14.994 -21.411  23.976  1.00  0.00     0.053 C 
BRANCH  14  15
ATOM     15  C   UNL     1      15.177 -19.991  23.532  1.00  0.00     0.041 C 
ATOM     16  O   UNL     1      15.624 -19.132  24.336  1.00  0.00    -0.550 OA
ATOM     17  O   UNL     1      14.842 -19.612  22.238  1.00  0.00    -0.550 OA
ENDBRANCH  14  15
ENDBRANCH  13  14
ENDBRANCH  12  13
ENDBRANCH  11  12
ENDBRANCH  10  11
ENDBRANCH   9  10
ENDBRANCH   8   9
ENDBRANCH   7   8
ENDBRANCH   6   7
ENDBRANCH   5   6
ENDBRANCH   4   5
ENDBRANCH   3   4
ENDBRANCH   2   3
ENDBRANCH   1   2
BRANCH   1  18
ATOM     18  C   UNL     1      11.127 -18.890  22.118  1.00  0.00     0.000 C 
BRANCH  18  19
ATOM     19  C   UNL     1      10.759 -19.121  23.593  1.00  0.00     0.000 C 
BRANCH  19  20
ATOM     20  C   UNL     1      11.957 -18.932  24.544  1.00  0.00     0.000 C 
BRANCH  20  21
ATOM     21  C   UNL     1      12.315 -17.460  24.816  1.00  0.00     0.000 C 
BRANCH  21  22
ATOM     22  C   UNL     1      11.102 -16.611  25.258  1.00  0.00     0.000 C 
BRANCH  22  23
ATOM     23  C   UNL     1      10.813 -15.448  24.292  1.00  0.00     0.000 C 
BRANCH  23  24
ATOM     24  C   UNL     1       9.567 -15.663  23.408  1.00  0.00    -0.000 C 
BRANCH  24  25
ATOM     25  C   UNL     1       8.232 -15.241  24.053  1.00  0.00    -0.000 C 
BRANCH  25  26
ATOM     26  C   UNL     1       6.999 -15.967  23.475  1.00  0.00    -0.000 C 
BRANCH  26  27
ATOM     27  C   UNL     1       6.533 -17.126  24.373  1.00  0.00    -0.000 C 
BRANCH  27  28
ATOM     28  C   UNL     1       6.972 -16.943  25.835  1.00  0.00    -0.000 C 
BRANCH  28  29
ATOM     29  C   UNL     1       7.119 -18.282  26.573  1.00  0.00    -0.000 C 
BRANCH  29  30
ATOM     30  C   UNL     1       8.464 -18.944  26.239  1.00  0.00    -0.000 C 
BRANCH  30  31
ATOM     31  C   UNL     1       8.327 -20.451  25.974  1.00  0.00    -0.003 C 
ATOM     32  C   UNL     1       7.246 -20.776  24.944  1.00  0.00     0.004 C 
ENDBRANCH  30  31
ENDBRANCH  29  30
ENDBRANCH  28  29
ENDBRANCH  27  28
ENDBRANCH  26  27
ENDBRANCH  25  26
ENDBRANCH  24  25
ENDBRANCH  23  24
ENDBRANCH  22  23
ENDBRANCH  21  22
ENDBRANCH  20  21
ENDBRANCH  19  20
ENDBRANCH  18  19
ENDBRANCH   1  18
TORSDOF 28
ENDMDL
MODEL 7
REMARK VINA RESULT:    -4.426      2.214      5.410
REMARK INTER + INTRA:         -17.506
REMARK INTER:                 -11.401
REMARK INTRA:                  -6.105
REMARK UNBOUND:                -5.836
REMARK SMILES CCCCCCCCCCCCCCCCCCCCCCCCCCCCCC(=O)[O-]
REMARK SMILES IDX 16 1 17 2 18 3 19 4 20 5 21 6 22 7 23 8 24 9 25 10 26 11
REMARK SMILES IDX 27 12 28 13 29 14 30 15 31 16 32 17 15 18 14 19 13 20 12 21
REMARK SMILES IDX 11 22 10 23 9 24 8 25 7 26 6 27 5 28 4 29 3 30 2 31 1 32
REMARK H PARENT
REMARK Flexibility Score: inf
ROOT
ATOM      1  C   UNL     1       5.990 -14.014  21.911  1.00  0.00     0.000 C 
ENDROOT
BRANCH   1   2
ATOM      2  C   UNL     1       6.349 -14.454  20.480  1.00  0.00     0.000 C 
BRANCH   2   3
ATOM      3  C   UNL     1       7.141 -15.774  20.440  1.00  0.00     0.000 C 
BRANCH   3   4
ATOM      4  C   UNL     1       7.901 -15.957  19.115  1.00  0.00     0.000 C 
BRANCH   4   5
ATOM      5  C   UNL     1       8.116 -17.439  18.771  1.00  0.00     0.000 C 
BRANCH   5   6
ATOM      6  C   UNL     1       7.445 -18.347  19.810  1.00  0.00     0.000 C 
BRANCH   6   7
ATOM      7  C   UNL     1       8.295 -19.580  20.158  1.00  0.00     0.000 C 
BRANCH   7   8
ATOM      8  C   UNL     1       7.525 -20.618  20.988  1.00  0.00     0.000 C 
BRANCH   8   9
ATOM      9  C   UNL     1       7.871 -22.046  20.540  1.00  0.00     0.000 C 
BRANCH   9  10
ATOM     10  C   UNL     1       8.845 -22.750  21.499  1.00  0.00     0.000 C 
BRANCH  10  11
ATOM     11  C   UNL     1       9.201 -21.892  22.723  1.00  0.00     0.000 C 
BRANCH  11  12
ATOM     12  C   UNL     1      10.128 -22.640  23.706  1.00  0.00     0.000 C 
BRANCH  12  13
ATOM     13  C   UNL     1      11.562 -22.075  23.753  1.00  0.00     0.006 C 
BRANCH  13  14
ATOM     14  C   UNL     1      11.678 -20.617  23.283  1.00  0.00     0.053 C 
BRANCH  14  15
ATOM     15  C   UNL     1      12.799 -19.890  23.962  1.00  0.00     0.041 C 
ATOM     16  O   UNL     1      13.399 -18.959  23.364  1.00  0.00    -0.550 OA
ATOM     17  O   UNL     1      13.190 -20.245  25.246  1.00  0.00    -0.550 OA
ENDBRANCH  14  15
ENDBRANCH  13  14
ENDBRANCH  12  13
ENDBRANCH  11  12
ENDBRANCH  10  11
ENDBRANCH   9  10
ENDBRANCH   8   9
ENDBRANCH   7   8
ENDBRANCH   6   7
ENDBRANCH   5   6
ENDBRANCH   4   5
ENDBRANCH   3   4
ENDBRANCH   2   3
ENDBRANCH   1   2
BRANCH   1  18
ATOM     18  C   UNL     1       6.827 -14.665  23.026  1.00  0.00     0.000 C 
BRANCH  18  19
ATOM     19  C   UNL     1       5.974 -15.498  23.998  1.00  0.00     0.000 C 
BRANCH  19  20
ATOM     20  C   UNL     1       6.747 -16.688  24.601  1.00  0.00     0.000 C 
BRANCH  20  21
ATOM     21  C   UNL     1       7.218 -17.720  23.560  1.00  0.00     0.000 C 
BRANCH  21  22
ATOM     22  C   UNL     1       7.677 -19.053  24.192  1.00  0.00     0.000 C 
BRANCH  22  23
ATOM     23  C   UNL     1       7.430 -19.102  25.711  1.00  0.00     0.000 C 
BRANCH  23  24
ATOM     24  C   UNL     1       8.591 -19.723  26.514  1.00  0.00    -0.000 C 
BRANCH  24  25
ATOM     25  C   UNL     1       9.972 -19.083  26.262  1.00  0.00    -0.000 C 
BRANCH  25  26
ATOM     26  C   UNL     1      10.194 -17.755  27.016  1.00  0.00    -0.000 C 
BRANCH  26  27
ATOM     27  C   UNL     1      10.158 -16.539  26.075  1.00  0.00    -0.000 C 
BRANCH  27  28
ATOM     28  C   UNL     1      10.794 -16.842  24.708  1.00  0.00    -0.000 C 
BRANCH  28  29
ATOM     29  C   UNL     1      10.832 -15.607  23.796  1.00  0.00    -0.000 C 
BRANCH  29  30
ATOM     30  C   UNL     1      10.230 -15.928  22.420  1.00  0.00    -0.000 C 
BRANCH  30  31
ATOM     31  C   UNL     1      10.571 -17.349  21.946  1.00  0.00    -0.003 C 
ATOM     32  C   UNL     1      11.358 -17.364  20.636  1.00  0.00     0.004 C 
ENDBRANCH  30  31
ENDBRANCH  29  30
ENDBRANCH  28  29
ENDBRANCH  27  28
ENDBRANCH  26  27
ENDBRANCH  25  26
ENDBRANCH  24  25
ENDBRANCH  23  24
ENDBRANCH  22  23
ENDBRANCH  21  22
ENDBRANCH  20  21
ENDBRANCH  19  20
ENDBRANCH  18  19
ENDBRANCH   1  18
TORSDOF 28
ENDMDL
MODEL 8
REMARK VINA RESULT:    -4.405      2.650      5.095
REMARK INTER + INTRA:         -17.451
REMARK INTER:                 -11.325
REMARK INTRA:                  -6.127
REMARK UNBOUND:                -5.836
REMARK SMILES CCCCCCCCCCCCCCCCCCCCCCCCCCCCCC(=O)[O-]
REMARK SMILES IDX 16 1 17 2 18 3 19 4 20 5 21 6 22 7 23 8 24 9 25 10 26 11
REMARK SMILES IDX 27 12 28 13 29 14 30 15 31 16 32 17 15 18 14 19 13 20 12 21
REMARK SMILES IDX 11 22 10 23 9 24 8 25 7 26 6 27 5 28 4 29 3 30 2 31 1 32
REMARK H PARENT
REMARK Flexibility Score: inf
ROOT
ATOM      1  C   UNL     1       9.756 -19.000  20.687  1.00  0.00     0.000 C 
ENDROOT
BRANCH   1   2
ATOM      2  C   UNL     1      10.680 -18.834  21.907  1.00  0.00     0.000 C 
BRANCH   2   3
ATOM      3  C   UNL     1      10.960 -20.162  22.634  1.00  0.00     0.000 C 
BRANCH   3   4
ATOM      4  C   UNL     1      11.349 -21.288  21.661  1.00  0.00     0.000 C 
BRANCH   4   5
ATOM      5  C   UNL     1      10.707 -22.631  22.044  1.00  0.00     0.000 C 
BRANCH   5   6
ATOM      6  C   UNL     1      10.221 -22.613  23.499  1.00  0.00     0.000 C 
BRANCH   6   7
ATOM      7  C   UNL     1      11.302 -23.072  24.491  1.00  0.00     0.000 C 
BRANCH   7   8
ATOM      8  C   UNL     1      11.232 -22.328  25.833  1.00  0.00     0.000 C 
BRANCH   8   9
ATOM      9  C   UNL     1      12.566 -21.635  26.148  1.00  0.00     0.000 C 
BRANCH   9  10
ATOM     10  C   UNL     1      12.635 -20.200  25.599  1.00  0.00     0.000 C 
BRANCH  10  11
ATOM     11  C   UNL     1      13.287 -19.216  26.582  1.00  0.00     0.000 C 
BRANCH  11  12
ATOM     12  C   UNL     1      13.493 -19.843  27.979  1.00  0.00     0.000 C 
BRANCH  12  13
ATOM     13  C   UNL     1      12.308 -19.614  28.938  1.00  0.00     0.006 C 
BRANCH  13  14
ATOM     14  C   UNL     1      12.127 -20.721  29.988  1.00  0.00     0.053 C 
BRANCH  14  15
ATOM     15  C   UNL     1      10.809 -21.421  29.854  1.00  0.00     0.041 C 
ATOM     16  O   UNL     1      10.050 -21.156  28.884  1.00  0.00    -0.550 OA
ATOM     17  O   UNL     1      10.409 -22.354  30.802  1.00  0.00    -0.550 OA
ENDBRANCH  14  15
ENDBRANCH  13  14
ENDBRANCH  12  13
ENDBRANCH  11  12
ENDBRANCH  10  11
ENDBRANCH   9  10
ENDBRANCH   8   9
ENDBRANCH   7   8
ENDBRANCH   6   7
ENDBRANCH   5   6
ENDBRANCH   4   5
ENDBRANCH   3   4
ENDBRANCH   2   3
ENDBRANCH   1   2
BRANCH   1  18
ATOM     18  C   UNL     1       8.271 -18.690  20.945  1.00  0.00     0.000 C 
BRANCH  18  19
ATOM     19  C   UNL     1       7.371 -19.927  20.791  1.00  0.00     0.000 C 
BRANCH  19  20
ATOM     20  C   UNL     1       7.308 -20.784  22.071  1.00  0.00     0.000 C 
BRANCH  20  21
ATOM     21  C   UNL     1       7.091 -19.969  23.360  1.00  0.00     0.000 C 
BRANCH  21  22
ATOM     22  C   UNL     1       7.438 -20.758  24.642  1.00  0.00     0.000 C 
BRANCH  22  23
ATOM     23  C   UNL     1       7.859 -19.839  25.804  1.00  0.00     0.000 C 
BRANCH  23  24
ATOM     24  C   UNL     1       9.031 -18.895  25.462  1.00  0.00    -0.000 C 
BRANCH  24  25
ATOM     25  C   UNL     1       9.665 -18.182  26.673  1.00  0.00    -0.000 C 
BRANCH  25  26
ATOM     26  C   UNL     1      10.228 -16.781  26.351  1.00  0.00    -0.000 C 
BRANCH  26  27
ATOM     27  C   UNL     1      10.748 -16.681  24.907  1.00  0.00    -0.000 C 
BRANCH  27  28
ATOM     28  C   UNL     1      10.350 -15.358  24.234  1.00  0.00    -0.000 C 
BRANCH  28  29
ATOM     29  C   UNL     1       8.988 -14.841  24.722  1.00  0.00    -0.000 C 
BRANCH  29  30
ATOM     30  C   UNL     1       7.958 -14.859  23.582  1.00  0.00    -0.000 C 
BRANCH  30  31
ATOM     31  C   UNL     1       7.246 -16.214  23.455  1.00  0.00    -0.003 C 
ATOM     32  C   UNL     1       6.334 -16.519  24.642  1.00  0.00     0.004 C 
ENDBRANCH  30  31
ENDBRANCH  29  30
ENDBRANCH  28  29
ENDBRANCH  27  28
ENDBRANCH  26  27
ENDBRANCH  25  26
ENDBRANCH  24  25
ENDBRANCH  23  24
ENDBRANCH  22  23
ENDBRANCH  21  22
ENDBRANCH  20  21
ENDBRANCH  19  20
ENDBRANCH  18  19
ENDBRANCH   1  18
TORSDOF 28
ENDMDL
MODEL 9
REMARK VINA RESULT:    -4.381      1.635      4.459
REMARK INTER + INTRA:         -17.388
REMARK INTER:                 -11.065
REMARK INTRA:                  -6.322
REMARK UNBOUND:                -5.836
REMARK SMILES CCCCCCCCCCCCCCCCCCCCCCCCCCCCCC(=O)[O-]
REMARK SMILES IDX 16 1 17 2 18 3 19 4 20 5 21 6 22 7 23 8 24 9 25 10 26 11
REMARK SMILES IDX 27 12 28 13 29 14 30 15 31 16 32 17 15 18 14 19 13 20 12 21
REMARK SMILES IDX 11 22 10 23 9 24 8 25 7 26 6 27 5 28 4 29 3 30 2 31 1 32
REMARK H PARENT
REMARK Flexibility Score: inf
ROOT
ATOM      1  C   UNL     1       8.085 -20.146  26.917  1.00  0.00     0.000 C 
ENDROOT
BRANCH   1   2
ATOM      2  C   UNL     1       9.429 -20.657  27.467  1.00  0.00     0.000 C 
BRANCH   2   3
ATOM      3  C   UNL     1      10.565 -19.629  27.327  1.00  0.00     0.000 C 
BRANCH   3   4
ATOM      4  C   UNL     1      11.474 -19.590  28.567  1.00  0.00     0.000 C 
BRANCH   4   5
ATOM      5  C   UNL     1      12.809 -20.313  28.330  1.00  0.00     0.000 C 
BRANCH   5   6
ATOM      6  C   UNL     1      13.216 -20.245  26.852  1.00  0.00     0.000 C 
BRANCH   6   7
ATOM      7  C   UNL     1      14.207 -21.352  26.458  1.00  0.00     0.000 C 
BRANCH   7   8
ATOM      8  C   UNL     1      13.638 -22.311  25.401  1.00  0.00     0.000 C 
BRANCH   8   9
ATOM      9  C   UNL     1      12.614 -23.271  26.023  1.00  0.00     0.000 C 
BRANCH   9  10
ATOM     10  C   UNL     1      11.335 -23.405  25.179  1.00  0.00     0.000 C 
BRANCH  10  11
ATOM     11  C   UNL     1      10.925 -22.086  24.505  1.00  0.00     0.000 C 
BRANCH  11  12
ATOM     12  C   UNL     1      10.700 -22.256  22.986  1.00  0.00     0.000 C 
BRANCH  12  13
ATOM     13  C   UNL     1       9.282 -22.740  22.624  1.00  0.00     0.006 C 
BRANCH  13  14
ATOM     14  C   UNL     1       9.040 -22.900  21.115  1.00  0.00     0.053 C 
BRANCH  14  15
ATOM     15  C   UNL     1       8.467 -21.661  20.498  1.00  0.00     0.041 C 
ATOM     16  O   UNL     1       9.012 -21.152  19.483  1.00  0.00    -0.550 OA
ATOM     17  O   UNL     1       7.342 -21.059  21.046  1.00  0.00    -0.550 OA
ENDBRANCH  14  15
ENDBRANCH  13  14
ENDBRANCH  12  13
ENDBRANCH  11  12
ENDBRANCH  10  11
ENDBRANCH   9  10
ENDBRANCH   8   9
ENDBRANCH   7   8
ENDBRANCH   6   7
ENDBRANCH   5   6
ENDBRANCH   4   5
ENDBRANCH   3   4
ENDBRANCH   2   3
ENDBRANCH   1   2
BRANCH   1  18
ATOM     18  C   UNL     1       7.377 -21.095  25.935  1.00  0.00     0.000 C 
BRANCH  18  19
ATOM     19  C   UNL     1       7.207 -20.483  24.535  1.00  0.00     0.000 C 
BRANCH  19  20
ATOM     20  C   UNL     1       7.834 -19.080  24.416  1.00  0.00     0.000 C 
BRANCH  20  21
ATOM     21  C   UNL     1       9.032 -19.009  23.452  1.00  0.00     0.000 C 
BRANCH  21  22
ATOM     22  C   UNL     1       8.830 -17.992  22.307  1.00  0.00     0.000 C 
BRANCH  22  23
ATOM     23  C   UNL     1       7.602 -17.090  22.529  1.00  0.00     0.000 C 
BRANCH  23  24
ATOM     24  C   UNL     1       7.954 -15.624  22.862  1.00  0.00    -0.000 C 
BRANCH  24  25
ATOM     25  C   UNL     1       8.254 -15.350  24.349  1.00  0.00    -0.000 C 
BRANCH  25  26
ATOM     26  C   UNL     1       9.755 -15.171  24.663  1.00  0.00    -0.000 C 
BRANCH  26  27
ATOM     27  C   UNL     1      10.262 -16.205  25.683  1.00  0.00    -0.000 C 
BRANCH  27  28
ATOM     28  C   UNL     1      11.530 -16.927  25.199  1.00  0.00    -0.000 C 
BRANCH  28  29
ATOM     29  C   UNL     1      12.209 -16.196  24.031  1.00  0.00    -0.000 C 
BRANCH  29  30
ATOM     30  C   UNL     1      12.634 -17.188  22.939  1.00  0.00    -0.000 C 
BRANCH  30  31
ATOM     31  C   UNL     1      12.661 -18.639  23.442  1.00  0.00    -0.003 C 
ATOM     32  C   UNL     1      14.018 -19.312  23.240  1.00  0.00     0.004 C 
ENDBRANCH  30  31
ENDBRANCH  29  30
ENDBRANCH  28  29
ENDBRANCH  27  28
ENDBRANCH  26  27
ENDBRANCH  25  26
ENDBRANCH  24  25
ENDBRANCH  23  24
ENDBRANCH  22  23
ENDBRANCH  21  22
ENDBRANCH  20  21
ENDBRANCH  19  20
ENDBRANCH  18  19
ENDBRANCH   1  18
TORSDOF 28
ENDMDL
