MODEL 1
REMARK VINA RESULT:    -4.215      0.000      0.000
REMARK INTER + INTRA:          -7.060
REMARK INTER:                  -6.679
REMARK INTRA:                  -0.380
REMARK UNBOUND:                -0.380
REMARK SMILES CCCCCCCCCCCC(=O)[O-]
REMARK SMILES IDX 7 1 8 2 9 3 10 4 11 5 12 6 13 7 14 8 6 9 5 10 4 11 3 12 2 13
REMARK SMILES IDX 1 14
REMARK H PARENT
REMARK Flexibility Score: inf
ROOT
ATOM      1  C   UNL     1      -4.168  -0.183  -0.759  1.00  0.00     0.000 C 
ENDROOT
BRANCH   1   2
ATOM      2  C   UNL     1      -3.329   0.860   0.000  1.00  0.00     0.000 C 
BRANCH   2   3
ATOM      3  C   UNL     1      -4.189   1.812   0.852  1.00  0.00     0.000 C 
BRANCH   3   4
ATOM      4  C   UNL     1      -3.869   3.308   0.673  1.00  0.00     0.006 C 
BRANCH   4   5
ATOM      5  C   UNL     1      -2.816   3.567  -0.411  1.00  0.00     0.053 C 
BRANCH   5   6
ATOM      6  C   UNL     1      -2.940   4.963  -0.935  1.00  0.00     0.041 C 
ATOM      7  O   UNL     1      -2.985   5.173  -2.176  1.00  0.00    -0.550 OA
ATOM      8  O   UNL     1      -2.958   6.037  -0.054  1.00  0.00    -0.550 OA
ENDBRANCH   5   6
ENDBRANCH   4   5
ENDBRANCH   3   4
ENDBRANCH   2   3
ENDBRANCH   1   2
BRANCH   1   9
ATOM      9  C   UNL     1      -3.372  -0.892  -1.867  1.00  0.00     0.000 C 
BRANCH   9  10
ATOM     10  C   UNL     1      -4.231  -1.891  -2.661  1.00  0.00    -0.000 C 
BRANCH  10  11
ATOM     11  C   UNL     1      -3.543  -3.256  -2.831  1.00  0.00    -0.000 C 
BRANCH  11  12
ATOM     12  C   UNL     1      -4.026  -4.293  -1.802  1.00  0.00    -0.000 C 
BRANCH  12  13
ATOM     13  C   UNL     1      -3.731  -3.868  -0.355  1.00  0.00    -0.003 C 
ATOM     14  C   UNL     1      -4.597  -4.603   0.668  1.00  0.00     0.004 C 
ENDBRANCH  12  13
ENDBRANCH  11  12
ENDBRANCH  10  11
ENDBRANCH   9  10
ENDBRANCH   1   9
TORSDOF 10
ENDMDL
MODEL 2
REMARK VINA RESULT:    -4.152      4.052      7.665
REMARK INTER + INTRA:          -6.959
REMARK INTER:                  -6.500
REMARK INTRA:                  -0.459
REMARK UNBOUND:                -0.380
REMARK SMILES CCCCCCCCCCCC(=O)[O-]
REMARK SMILES IDX 7 1 8 2 9 3 10 4 11 5 12 6 13 7 14 8 6 9 5 10 4 11 3 12 2 13
REMARK SMILES IDX 1 14
REMARK H PARENT
REMARK Flexibility Score: inf
ROOT
ATOM      1  C   UNL     1      -4.192  -0.094  -1.009  1.00  0.00     0.000 C 
ENDROOT
BRANCH   1   2
ATOM      2  C   UNL     1      -3.308  -1.129  -1.725  1.00  0.00     0.000 C 
BRANCH   2   3
ATOM      3  C   UNL     1      -4.119  -2.119  -2.580  1.00  0.00     0.000 C 
BRANCH   3   4
ATOM      4  C   UNL     1      -4.022  -3.590  -2.135  1.00  0.00     0.006 C 
BRANCH   4   5
ATOM      5  C   UNL     1      -3.522  -3.746  -0.693  1.00  0.00     0.053 C 
BRANCH   5   6
ATOM      6  C   UNL     1      -4.561  -4.415   0.149  1.00  0.00     0.041 C 
ATOM      7  O   UNL     1      -5.051  -3.818   1.144  1.00  0.00    -0.550 OA
ATOM      8  O   UNL     1      -4.953  -5.716  -0.134  1.00  0.00    -0.550 OA
ENDBRANCH   5   6
ENDBRANCH   4   5
ENDBRANCH   3   4
ENDBRANCH   2   3
ENDBRANCH   1   2
BRANCH   1   9
ATOM      9  C   UNL     1      -3.373   0.958  -0.243  1.00  0.00     0.000 C 
BRANCH   9  10
ATOM     10  C   UNL     1      -4.194   1.657   0.855  1.00  0.00    -0.000 C 
BRANCH  10  11
ATOM     11  C   UNL     1      -4.067   3.189   0.802  1.00  0.00    -0.000 C 
BRANCH  11  12
ATOM     12  C   UNL     1      -2.998   3.658  -0.199  1.00  0.00    -0.000 C 
BRANCH  12  13
ATOM     13  C   UNL     1      -2.862   5.188  -0.241  1.00  0.00    -0.003 C 
ATOM     14  C   UNL     1      -2.268   5.767   1.044  1.00  0.00     0.004 C 
ENDBRANCH  12  13
ENDBRANCH  11  12
ENDBRANCH  10  11
ENDBRANCH   9  10
ENDBRANCH   1   9
TORSDOF 10
ENDMDL
MODEL 3
REMARK VINA RESULT:    -3.793      1.094      1.687
REMARK INTER + INTRA:          -6.390
REMARK INTER:                  -5.901
REMARK INTRA:                  -0.489
REMARK UNBOUND:                -0.380
REMARK SMILES CCCCCCCCCCCC(=O)[O-]
REMARK SMILES IDX 7 1 8 2 9 3 10 4 11 5 12 6 13 7 14 8 6 9 5 10 4 11 3 12 2 13
REMARK SMILES IDX 1 14
REMARK H PARENT
REMARK Flexibility Score: inf
ROOT
ATOM      1  C   UNL     1      -3.285   1.056  -0.365  1.00  0.00     0.000 C 
ENDROOT
BRANCH   1   2
ATOM      2  C   UNL     1      -3.948   1.864   0.763  1.00  0.00     0.000 C 
BRANCH   2   3
ATOM      3  C   UNL     1      -3.894   3.384   0.520  1.00  0.00     0.000 C 
BRANCH   3   4
ATOM      4  C   UNL     1      -2.722   3.858  -0.359  1.00  0.00     0.006 C 
BRANCH   4   5
ATOM      5  C   UNL     1      -3.023   5.165  -1.102  1.00  0.00     0.053 C 
BRANCH   5   6
ATOM      6  C   UNL     1      -3.149   4.912  -2.571  1.00  0.00     0.041 C 
ATOM      7  O   UNL     1      -4.150   5.341  -3.205  1.00  0.00    -0.550 OA
ATOM      8  O   UNL     1      -2.186   4.161  -3.233  1.00  0.00    -0.550 OA
ENDBRANCH   5   6
ENDBRANCH   4   5
ENDBRANCH   3   4
ENDBRANCH   2   3
ENDBRANCH   1   2
BRANCH   1   9
ATOM      9  C   UNL     1      -4.149  -0.127  -0.834  1.00  0.00     0.000 C 
BRANCH   9  10
ATOM     10  C   UNL     1      -3.355  -1.135  -1.685  1.00  0.00    -0.000 C 
BRANCH  10  11
ATOM     11  C   UNL     1      -4.267  -2.114  -2.442  1.00  0.00    -0.000 C 
BRANCH  11  12
ATOM     12  C   UNL     1      -3.940  -3.585  -2.132  1.00  0.00    -0.000 C 
BRANCH  12  13
ATOM     13  C   UNL     1      -3.444  -3.787  -0.692  1.00  0.00    -0.003 C 
ATOM     14  C   UNL     1      -4.522  -4.352   0.234  1.00  0.00     0.004 C 
ENDBRANCH  12  13
ENDBRANCH  11  12
ENDBRANCH  10  11
ENDBRANCH   9  10
ENDBRANCH   1   9
TORSDOF 10
ENDMDL
MODEL 4
REMARK VINA RESULT:    -3.736      3.744      7.208
REMARK INTER + INTRA:          -6.300
REMARK INTER:                  -5.583
REMARK INTRA:                  -0.717
REMARK UNBOUND:                -0.380
REMARK SMILES CCCCCCCCCCCC(=O)[O-]
REMARK SMILES IDX 7 1 8 2 9 3 10 4 11 5 12 6 13 7 14 8 6 9 5 10 4 11 3 12 2 13
REMARK SMILES IDX 1 14
REMARK H PARENT
REMARK Flexibility Score: inf
ROOT
ATOM      1  C   UNL     1      -4.057   1.519   0.342  1.00  0.00     0.000 C 
ENDROOT
BRANCH   1   2
ATOM      2  C   UNL     1      -2.712   1.107  -0.281  1.00  0.00     0.000 C 
BRANCH   2   3
ATOM      3  C   UNL     1      -2.705  -0.351  -0.776  1.00  0.00     0.000 C 
BRANCH   3   4
ATOM      4  C   UNL     1      -4.072  -0.881  -1.246  1.00  0.00     0.006 C 
BRANCH   4   5
ATOM      5  C   UNL     1      -3.997  -1.616  -2.590  1.00  0.00     0.053 C 
BRANCH   5   6
ATOM      6  C   UNL     1      -3.834  -3.087  -2.372  1.00  0.00     0.041 C 
ATOM      7  O   UNL     1      -3.794  -3.873  -3.356  1.00  0.00    -0.550 OA
ATOM      8  O   UNL     1      -3.775  -3.596  -1.081  1.00  0.00    -0.550 OA
ENDBRANCH   5   6
ENDBRANCH   4   5
ENDBRANCH   3   4
ENDBRANCH   2   3
ENDBRANCH   1   2
BRANCH   1   9
ATOM      9  C   UNL     1      -4.084   2.995   0.772  1.00  0.00     0.000 C 
BRANCH   9  10
ATOM     10  C   UNL     1      -2.776   3.731   0.433  1.00  0.00    -0.000 C 
BRANCH  10  11
ATOM     11  C   UNL     1      -3.013   5.192   0.014  1.00  0.00    -0.000 C 
BRANCH  11  12
ATOM     12  C   UNL     1      -3.314   5.334  -1.488  1.00  0.00    -0.000 C 
BRANCH  12  13
ATOM     13  C   UNL     1      -2.600   4.269  -2.335  1.00  0.00    -0.003 C 
ATOM     14  C   UNL     1      -2.978   4.335  -3.814  1.00  0.00     0.004 C 
ENDBRANCH  12  13
ENDBRANCH  11  12
ENDBRANCH  10  11
ENDBRANCH   9  10
ENDBRANCH   1   9
TORSDOF 10
ENDMDL
MODEL 5
REMARK VINA RESULT:    -3.543      3.801      7.370
REMARK INTER + INTRA:          -5.994
REMARK INTER:                  -5.439
REMARK INTRA:                  -0.555
REMARK UNBOUND:                -0.380
REMARK SMILES CCCCCCCCCCCC(=O)[O-]
REMARK SMILES IDX 7 1 8 2 9 3 10 4 11 5 12 6 13 7 14 8 6 9 5 10 4 11 3 12 2 13
REMARK SMILES IDX 1 14
REMARK H PARENT
REMARK Flexibility Score: inf
ROOT
ATOM      1  C   UNL     1      -2.658   1.452  -0.037  1.00  0.00     0.000 C 
ENDROOT
BRANCH   1   2
ATOM      2  C   UNL     1      -4.142   1.135   0.212  1.00  0.00     0.000 C 
BRANCH   2   3
ATOM      3  C   UNL     1      -4.592  -0.179  -0.452  1.00  0.00     0.000 C 
BRANCH   3   4
ATOM      4  C   UNL     1      -3.488  -0.927  -1.220  1.00  0.00     0.006 C 
BRANCH   4   5
ATOM      5  C   UNL     1      -4.009  -1.634  -2.478  1.00  0.00     0.053 C 
BRANCH   5   6
ATOM      6  C   UNL     1      -3.829  -3.114  -2.357  1.00  0.00     0.041 C 
ATOM      7  O   UNL     1      -3.816  -3.837  -3.388  1.00  0.00    -0.550 OA
ATOM      8  O   UNL     1      -3.722  -3.701  -1.103  1.00  0.00    -0.550 OA
ENDBRANCH   5   6
ENDBRANCH   4   5
ENDBRANCH   3   4
ENDBRANCH   2   3
ENDBRANCH   1   2
BRANCH   1   9
ATOM      9  C   UNL     1      -2.395   2.955  -0.224  1.00  0.00     0.000 C 
BRANCH   9  10
ATOM     10  C   UNL     1      -2.841   3.463  -1.607  1.00  0.00    -0.000 C 
BRANCH  10  11
ATOM     11  C   UNL     1      -2.967   4.995  -1.659  1.00  0.00    -0.000 C 
BRANCH  11  12
ATOM     12  C   UNL     1      -3.399   5.599  -0.312  1.00  0.00    -0.000 C 
BRANCH  12  13
ATOM     13  C   UNL     1      -2.258   6.354   0.387  1.00  0.00    -0.003 C 
ATOM     14  C   UNL     1      -2.055   5.914   1.837  1.00  0.00     0.004 C 
ENDBRANCH  12  13
ENDBRANCH  11  12
ENDBRANCH  10  11
ENDBRANCH   9  10
ENDBRANCH   1   9
TORSDOF 10
ENDMDL
MODEL 6
REMARK VINA RESULT:    -3.321      1.470      2.187
REMARK INTER + INTRA:          -5.643
REMARK INTER:                  -5.288
REMARK INTRA:                  -0.355
REMARK UNBOUND:                -0.380
REMARK SMILES CCCCCCCCCCCC(=O)[O-]
REMARK SMILES IDX 7 1 8 2 9 3 10 4 11 5 12 6 13 7 14 8 6 9 5 10 4 11 3 12 2 13
REMARK SMILES IDX 1 14
REMARK H PARENT
REMARK Flexibility Score: inf
ROOT
ATOM      1  C   UNL     1      -4.085   1.436   0.190  1.00  0.00     0.000 C 
ENDROOT
BRANCH   1   2
ATOM      2  C   UNL     1      -2.577   1.705   0.058  1.00  0.00     0.000 C 
BRANCH   2   3
ATOM      3  C   UNL     1      -2.267   3.091  -0.536  1.00  0.00     0.000 C 
BRANCH   3   4
ATOM      4  C   UNL     1      -3.401   4.123  -0.397  1.00  0.00     0.006 C 
BRANCH   4   5
ATOM      5  C   UNL     1      -2.892   5.569  -0.362  1.00  0.00     0.053 C 
BRANCH   5   6
ATOM      6  C   UNL     1      -2.311   5.885   0.980  1.00  0.00     0.041 C 
ATOM      7  O   UNL     1      -2.524   5.120   1.959  1.00  0.00    -0.550 OA
ATOM      8  O   UNL     1      -1.576   7.049   1.163  1.00  0.00    -0.550 OA
ENDBRANCH   5   6
ENDBRANCH   4   5
ENDBRANCH   3   4
ENDBRANCH   2   3
ENDBRANCH   1   2
BRANCH   1   9
ATOM      9  C   UNL     1      -4.476   0.015  -0.252  1.00  0.00     0.000 C 
BRANCH   9  10
ATOM     10  C   UNL     1      -3.413  -0.632  -1.158  1.00  0.00    -0.000 C 
BRANCH  10  11
ATOM     11  C   UNL     1      -4.032  -1.382  -2.350  1.00  0.00    -0.000 C 
BRANCH  11  12
ATOM     12  C   UNL     1      -3.301  -2.698  -2.663  1.00  0.00    -0.000 C 
BRANCH  12  13
ATOM     13  C   UNL     1      -3.981  -3.917  -2.021  1.00  0.00    -0.003 C 
ATOM     14  C   UNL     1      -3.795  -3.970  -0.504  1.00  0.00     0.004 C 
ENDBRANCH  12  13
ENDBRANCH  11  12
ENDBRANCH  10  11
ENDBRANCH   9  10
ENDBRANCH   1   9
TORSDOF 10
ENDMDL
MODEL 7
REMARK VINA RESULT:    -3.038      4.957      7.386
REMARK INTER + INTRA:          -5.194
REMARK INTER:                  -4.713
REMARK INTRA:                  -0.481
REMARK UNBOUND:                -0.380
REMARK SMILES CCCCCCCCCCCC(=O)[O-]
REMARK SMILES IDX 7 1 8 2 9 3 10 4 11 5 12 6 13 7 14 8 6 9 5 10 4 11 3 12 2 13
REMARK SMILES IDX 1 14
REMARK H PARENT
REMARK Flexibility Score: inf
ROOT
ATOM      1  C   UNL     1      -3.748   5.248  -3.724  1.00  0.00     0.000 C 
ENDROOT
BRANCH   1   2
ATOM      2  C   UNL     1      -5.239   5.626  -3.765  1.00  0.00     0.000 C 
BRANCH   2   3
ATOM      3  C   UNL     1      -5.628   6.383  -5.047  1.00  0.00     0.000 C 
BRANCH   3   4
ATOM      4  C   UNL     1      -6.998   6.000  -5.635  1.00  0.00     0.006 C 
BRANCH   4   5
ATOM      5  C   UNL     1      -6.966   5.821  -7.158  1.00  0.00     0.053 C 
BRANCH   5   6
ATOM      6  C   UNL     1      -7.180   7.135  -7.841  1.00  0.00     0.041 C 
ATOM      7  O   UNL     1      -8.117   7.893  -7.478  1.00  0.00    -0.550 OA
ATOM      8  O   UNL     1      -6.374   7.501  -8.912  1.00  0.00    -0.550 OA
ENDBRANCH   5   6
ENDBRANCH   4   5
ENDBRANCH   3   4
ENDBRANCH   2   3
ENDBRANCH   1   2
BRANCH   1   9
ATOM      9  C   UNL     1      -3.397   4.348  -2.527  1.00  0.00     0.000 C 
BRANCH   9  10
ATOM     10  C   UNL     1      -3.321   5.131  -1.204  1.00  0.00    -0.000 C 
BRANCH  10  11
ATOM     11  C   UNL     1      -3.001   4.227  -0.002  1.00  0.00    -0.000 C 
BRANCH  11  12
ATOM     12  C   UNL     1      -2.554   2.818  -0.425  1.00  0.00    -0.000 C 
BRANCH  12  13
ATOM     13  C   UNL     1      -3.475   1.718   0.126  1.00  0.00    -0.003 C 
ATOM     14  C   UNL     1      -4.504   2.250   1.124  1.00  0.00     0.004 C 
ENDBRANCH  12  13
ENDBRANCH  11  12
ENDBRANCH  10  11
ENDBRANCH   9  10
ENDBRANCH   1   9
TORSDOF 10
ENDMDL
MODEL 8
REMARK VINA RESULT:    -2.594      3.540      7.221
REMARK INTER + INTRA:          -4.491
REMARK INTER:                  -3.790
REMARK INTRA:                  -0.701
REMARK UNBOUND:                -0.380
REMARK SMILES CCCCCCCCCCCC(=O)[O-]
REMARK SMILES IDX 7 1 8 2 9 3 10 4 11 5 12 6 13 7 14 8 6 9 5 10 4 11 3 12 2 13
REMARK SMILES IDX 1 14
REMARK H PARENT
REMARK Flexibility Score: inf
ROOT
ATOM      1  C   UNL     1      -2.985  -0.230  -1.395  1.00  0.00     0.000 C 
ENDROOT
BRANCH   1   2
ATOM      2  C   UNL     1      -4.219  -1.096  -1.089  1.00  0.00     0.000 C 
BRANCH   2   3
ATOM      3  C   UNL     1      -3.863  -2.408  -0.366  1.00  0.00     0.000 C 
BRANCH   3   4
ATOM      4  C   UNL     1      -3.741  -3.639  -1.283  1.00  0.00     0.006 C 
BRANCH   4   5
ATOM      5  C   UNL     1      -4.247  -3.376  -2.706  1.00  0.00     0.053 C 
BRANCH   5   6
ATOM      6  C   UNL     1      -3.134  -3.535  -3.693  1.00  0.00     0.041 C 
ATOM      7  O   UNL     1      -2.249  -2.646  -3.799  1.00  0.00    -0.550 OA
ATOM      8  O   UNL     1      -3.101  -4.644  -4.530  1.00  0.00    -0.550 OA
ENDBRANCH   5   6
ENDBRANCH   4   5
ENDBRANCH   3   4
ENDBRANCH   2   3
ENDBRANCH   1   2
BRANCH   1   9
ATOM      9  C   UNL     1      -2.751   0.864  -0.340  1.00  0.00     0.000 C 
BRANCH   9  10
ATOM     10  C   UNL     1      -4.057   1.320   0.335  1.00  0.00    -0.000 C 
BRANCH  10  11
ATOM     11  C   UNL     1      -4.067   2.827   0.643  1.00  0.00    -0.000 C 
BRANCH  11  12
ATOM     12  C   UNL     1      -2.795   3.538   0.153  1.00  0.00    -0.000 C 
BRANCH  12  13
ATOM     13  C   UNL     1      -3.096   4.887  -0.519  1.00  0.00    -0.003 C 
ATOM     14  C   UNL     1      -2.999   4.825  -2.044  1.00  0.00     0.004 C 
ENDBRANCH  12  13
ENDBRANCH  11  12
ENDBRANCH  10  11
ENDBRANCH   9  10
ENDBRANCH   1   9
TORSDOF 10
ENDMDL
MODEL 9
REMARK VINA RESULT:    -2.323      5.966      8.335
REMARK INTER + INTRA:          -4.061
REMARK INTER:                  -3.764
REMARK INTRA:                  -0.298
REMARK UNBOUND:                -0.380
REMARK SMILES CCCCCCCCCCCC(=O)[O-]
REMARK SMILES IDX 7 1 8 2 9 3 10 4 11 5 12 6 13 7 14 8 6 9 5 10 4 11 3 12 2 13
REMARK SMILES IDX 1 14
REMARK H PARENT
REMARK Flexibility Score: inf
ROOT
ATOM      1  C   UNL     1      -5.060   5.644  -4.791  1.00  0.00     0.000 C 
ENDROOT
BRANCH   1   2
ATOM      2  C   UNL     1      -6.335   6.448  -5.091  1.00  0.00     0.000 C 
BRANCH   2   3
ATOM      3  C   UNL     1      -7.237   5.769  -6.139  1.00  0.00     0.000 C 
BRANCH   3   4
ATOM      4  C   UNL     1      -7.103   6.329  -7.567  1.00  0.00     0.006 C 
BRANCH   4   5
ATOM      5  C   UNL     1      -6.964   7.856  -7.600  1.00  0.00     0.053 C 
BRANCH   5   6
ATOM      6  C   UNL     1      -6.787   8.333  -9.007  1.00  0.00     0.041 C 
ATOM      7  O   UNL     1      -7.707   8.170  -9.852  1.00  0.00    -0.550 OA
ATOM      8  O   UNL     1      -5.587   8.913  -9.398  1.00  0.00    -0.550 OA
ENDBRANCH   5   6
ENDBRANCH   4   5
ENDBRANCH   3   4
ENDBRANCH   2   3
ENDBRANCH   1   2
BRANCH   1   9
ATOM      9  C   UNL     1      -4.836   5.427  -3.285  1.00  0.00     0.000 C 
BRANCH   9  10
ATOM     10  C   UNL     1      -3.409   4.947  -2.965  1.00  0.00    -0.000 C 
BRANCH  10  11
ATOM     11  C   UNL     1      -3.093   4.997  -1.461  1.00  0.00    -0.000 C 
BRANCH  11  12
ATOM     12  C   UNL     1      -2.726   3.618  -0.888  1.00  0.00    -0.000 C 
BRANCH  12  13
ATOM     13  C   UNL     1      -3.421   3.334   0.453  1.00  0.00    -0.003 C 
ATOM     14  C   UNL     1      -4.091   1.960   0.496  1.00  0.00     0.004 C 
ENDBRANCH  12  13
ENDBRANCH  11  12
ENDBRANCH  10  11
ENDBRANCH   9  10
ENDBRANCH   1   9
TORSDOF 10
ENDMDL
