MODEL 1
REMARK VINA RESULT:    -2.466      0.000      0.000
REMARK INTER + INTRA:         -12.601
REMARK INTER:                  -6.214
REMARK INTRA:                  -6.387
REMARK UNBOUND:                -6.387
REMARK SMILES CCCCCCCCCCCCCCCCCCCCCCCCCCCC(=O)[O-]
REMARK SMILES IDX 15 1 16 2 17 3 18 4 19 5 20 6 21 7 22 8 23 9 24 10 25 11
REMARK SMILES IDX 26 12 27 13 28 14 29 15 30 16 14 17 13 18 12 19 11 20 10 21
REMARK SMILES IDX 9 22 8 23 7 24 6 25 5 26 4 27 3 28 2 29 1 30
REMARK H PARENT
REMARK Flexibility Score: inf
ROOT
ATOM      1  C   UNL     1    -108.831 -48.786 -58.560  1.00  0.00     0.000 C 
ENDROOT
BRANCH   1   2
ATOM      2  C   UNL     1    -108.254 -47.669 -59.447  1.00  0.00     0.000 C 
BRANCH   2   3
ATOM      3  C   UNL     1    -109.311 -46.627 -59.852  1.00  0.00     0.000 C 
BRANCH   3   4
ATOM      4  C   UNL     1    -109.266 -46.299 -61.354  1.00  0.00     0.000 C 
BRANCH   4   5
ATOM      5  C   UNL     1    -110.498 -46.822 -62.111  1.00  0.00     0.000 C 
BRANCH   5   6
ATOM      6  C   UNL     1    -111.567 -47.408 -61.172  1.00  0.00     0.000 C 
BRANCH   6   7
ATOM      7  C   UNL     1    -111.961 -48.844 -61.553  1.00  0.00     0.000 C 
BRANCH   7   8
ATOM      8  C   UNL     1    -111.762 -49.839 -60.398  1.00  0.00     0.000 C 
BRANCH   8   9
ATOM      9  C   UNL     1    -110.872 -51.012 -60.836  1.00  0.00     0.000 C 
BRANCH   9  10
ATOM     10  C   UNL     1    -109.997 -50.672 -62.055  1.00  0.00     0.000 C 
BRANCH  10  11
ATOM     11  C   UNL     1    -108.482 -50.632 -61.774  1.00  0.00     0.000 C 
BRANCH  11  12
ATOM     12  C   UNL     1    -107.730 -49.550 -62.578  1.00  0.00     0.006 C 
BRANCH  12  13
ATOM     13  C   UNL     1    -108.377 -49.284 -63.944  1.00  0.00     0.053 C 
BRANCH  13  14
ATOM     14  C   UNL     1    -107.642 -50.017 -65.022  1.00  0.00     0.041 C 
ATOM     15  O   UNL     1    -108.100 -50.043 -66.195  1.00  0.00    -0.550 OA
ATOM     16  O   UNL     1    -106.478 -50.712 -64.722  1.00  0.00    -0.550 OA
ENDBRANCH  13  14
ENDBRANCH  12  13
ENDBRANCH  11  12
ENDBRANCH  10  11
ENDBRANCH   9  10
ENDBRANCH   8   9
ENDBRANCH   7   8
ENDBRANCH   6   7
ENDBRANCH   5   6
ENDBRANCH   4   5
ENDBRANCH   3   4
ENDBRANCH   2   3
ENDBRANCH   1   2
BRANCH   1  17
ATOM     17  C   UNL     1    -108.098 -48.906 -57.215  1.00  0.00     0.000 C 
BRANCH  17  18
ATOM     18  C   UNL     1    -107.280 -47.649 -56.872  1.00  0.00     0.000 C 
BRANCH  18  19
ATOM     19  C   UNL     1    -107.834 -46.903 -55.640  1.00  0.00     0.000 C 
BRANCH  19  20
ATOM     20  C   UNL     1    -108.983 -45.928 -55.962  1.00  0.00     0.000 C 
BRANCH  20  21
ATOM     21  C   UNL     1    -110.397 -46.490 -55.742  1.00  0.00     0.000 C 
BRANCH  21  22
ATOM     22  C   UNL     1    -111.368 -46.302 -56.924  1.00  0.00    -0.000 C 
BRANCH  22  23
ATOM     23  C   UNL     1    -112.034 -47.609 -57.404  1.00  0.00    -0.000 C 
BRANCH  23  24
ATOM     24  C   UNL     1    -111.809 -48.776 -56.424  1.00  0.00    -0.000 C 
BRANCH  24  25
ATOM     25  C   UNL     1    -112.642 -50.018 -56.777  1.00  0.00    -0.000 C 
BRANCH  25  26
ATOM     26  C   UNL     1    -111.771 -51.263 -57.027  1.00  0.00    -0.000 C 
BRANCH  26  27
ATOM     27  C   UNL     1    -110.531 -51.301 -56.108  1.00  0.00    -0.000 C 
BRANCH  27  28
ATOM     28  C   UNL     1    -109.584 -52.482 -56.401  1.00  0.00    -0.000 C 
BRANCH  28  29
ATOM     29  C   UNL     1    -109.599 -52.967 -57.861  1.00  0.00    -0.003 C 
ATOM     30  C   UNL     1    -108.324 -52.597 -58.619  1.00  0.00     0.004 C 
ENDBRANCH  28  29
ENDBRANCH  27  28
ENDBRANCH  26  27
ENDBRANCH  25  26
ENDBRANCH  24  25
ENDBRANCH  23  24
ENDBRANCH  22  23
ENDBRANCH  21  22
ENDBRANCH  20  21
ENDBRANCH  19  20
ENDBRANCH  18  19
ENDBRANCH  17  18
ENDBRANCH   1  17
TORSDOF 26
ENDMDL
MODEL 2
REMARK VINA RESULT:    -2.376      1.601      2.688
REMARK INTER + INTRA:         -12.375
REMARK INTER:                  -7.134
REMARK INTRA:                  -5.241
REMARK UNBOUND:                -6.387
REMARK SMILES CCCCCCCCCCCCCCCCCCCCCCCCCCCC(=O)[O-]
REMARK SMILES IDX 15 1 16 2 17 3 18 4 19 5 20 6 21 7 22 8 23 9 24 10 25 11
REMARK SMILES IDX 26 12 27 13 28 14 29 15 30 16 14 17 13 18 12 19 11 20 10 21
REMARK SMILES IDX 9 22 8 23 7 24 6 25 5 26 4 27 3 28 2 29 1 30
REMARK H PARENT
REMARK Flexibility Score: inf
ROOT
ATOM      1  C   UNL     1    -108.788 -48.766 -58.560  1.00  0.00     0.000 C 
ENDROOT
BRANCH   1   2
ATOM      2  C   UNL     1    -110.317 -48.808 -58.395  1.00  0.00     0.000 C 
BRANCH   2   3
ATOM      3  C   UNL     1    -110.927 -47.417 -58.158  1.00  0.00     0.000 C 
BRANCH   3   4
ATOM      4  C   UNL     1    -111.734 -46.915 -59.367  1.00  0.00     0.000 C 
BRANCH   4   5
ATOM      5  C   UNL     1    -111.334 -45.495 -59.799  1.00  0.00     0.000 C 
BRANCH   5   6
ATOM      6  C   UNL     1    -109.846 -45.388 -60.179  1.00  0.00     0.000 C 
BRANCH   6   7
ATOM      7  C   UNL     1    -109.574 -45.842 -61.622  1.00  0.00     0.000 C 
BRANCH   7   8
ATOM      8  C   UNL     1    -108.826 -47.183 -61.690  1.00  0.00     0.000 C 
BRANCH   8   9
ATOM      9  C   UNL     1    -109.476 -48.118 -62.721  1.00  0.00     0.000 C 
BRANCH   9  10
ATOM     10  C   UNL     1    -109.832 -49.494 -62.135  1.00  0.00     0.000 C 
BRANCH  10  11
ATOM     11  C   UNL     1    -108.622 -50.384 -61.789  1.00  0.00     0.000 C 
BRANCH  11  12
ATOM     12  C   UNL     1    -107.449 -50.251 -62.784  1.00  0.00     0.006 C 
BRANCH  12  13
ATOM     13  C   UNL     1    -107.593 -51.197 -63.984  1.00  0.00     0.053 C 
BRANCH  13  14
ATOM     14  C   UNL     1    -107.573 -50.424 -65.265  1.00  0.00     0.041 C 
ATOM     15  O   UNL     1    -106.587 -49.694 -65.548  1.00  0.00    -0.550 OA
ATOM     16  O   UNL     1    -108.665 -50.470 -66.122  1.00  0.00    -0.550 OA
ENDBRANCH  13  14
ENDBRANCH  12  13
ENDBRANCH  11  12
ENDBRANCH  10  11
ENDBRANCH   9  10
ENDBRANCH   8   9
ENDBRANCH   7   8
ENDBRANCH   6   7
ENDBRANCH   5   6
ENDBRANCH   4   5
ENDBRANCH   3   4
ENDBRANCH   2   3
ENDBRANCH   1   2
BRANCH   1  17
ATOM     17  C   UNL     1    -108.169 -47.483 -57.983  1.00  0.00     0.000 C 
BRANCH  17  18
ATOM     18  C   UNL     1    -107.070 -47.771 -56.945  1.00  0.00     0.000 C 
BRANCH  18  19
ATOM     19  C   UNL     1    -107.270 -46.973 -55.639  1.00  0.00     0.000 C 
BRANCH  19  20
ATOM     20  C   UNL     1    -108.648 -46.292 -55.526  1.00  0.00     0.000 C 
BRANCH  20  21
ATOM     21  C   UNL     1    -109.505 -46.746 -54.333  1.00  0.00     0.000 C 
BRANCH  21  22
ATOM     22  C   UNL     1    -110.235 -48.091 -54.524  1.00  0.00    -0.000 C 
BRANCH  22  23
ATOM     23  C   UNL     1    -109.423 -49.317 -54.056  1.00  0.00    -0.000 C 
BRANCH  23  24
ATOM     24  C   UNL     1    -109.196 -50.337 -55.187  1.00  0.00    -0.000 C 
BRANCH  24  25
ATOM     25  C   UNL     1    -107.741 -50.824 -55.266  1.00  0.00    -0.000 C 
BRANCH  25  26
ATOM     26  C   UNL     1    -107.465 -51.662 -56.527  1.00  0.00    -0.000 C 
BRANCH  26  27
ATOM     27  C   UNL     1    -108.747 -52.318 -57.084  1.00  0.00    -0.000 C 
BRANCH  27  28
ATOM     28  C   UNL     1    -108.722 -52.520 -58.613  1.00  0.00    -0.000 C 
BRANCH  28  29
ATOM     29  C   UNL     1    -110.110 -52.575 -59.273  1.00  0.00    -0.003 C 
ATOM     30  C   UNL     1    -110.877 -53.853 -58.932  1.00  0.00     0.004 C 
ENDBRANCH  28  29
ENDBRANCH  27  28
ENDBRANCH  26  27
ENDBRANCH  25  26
ENDBRANCH  24  25
ENDBRANCH  23  24
ENDBRANCH  22  23
ENDBRANCH  21  22
ENDBRANCH  20  21
ENDBRANCH  19  20
ENDBRANCH  18  19
ENDBRANCH  17  18
ENDBRANCH   1  17
TORSDOF 26
ENDMDL
MODEL 3
REMARK VINA RESULT:    -2.348      1.407      4.159
REMARK INTER + INTRA:         -12.303
REMARK INTER:                  -6.312
REMARK INTRA:                  -5.991
REMARK UNBOUND:                -6.387
REMARK SMILES CCCCCCCCCCCCCCCCCCCCCCCCCCCC(=O)[O-]
REMARK SMILES IDX 15 1 16 2 17 3 18 4 19 5 20 6 21 7 22 8 23 9 24 10 25 11
REMARK SMILES IDX 26 12 27 13 28 14 29 15 30 16 14 17 13 18 12 19 11 20 10 21
REMARK SMILES IDX 9 22 8 23 7 24 6 25 5 26 4 27 3 28 2 29 1 30
REMARK H PARENT
REMARK Flexibility Score: inf
ROOT
ATOM      1  C   UNL     1    -107.448 -47.847 -55.436  1.00  0.00     0.000 C 
ENDROOT
BRANCH   1   2
ATOM      2  C   UNL     1    -108.086 -46.466 -55.670  1.00  0.00     0.000 C 
BRANCH   2   3
ATOM      3  C   UNL     1    -109.375 -46.262 -54.857  1.00  0.00     0.000 C 
BRANCH   3   4
ATOM      4  C   UNL     1    -110.134 -44.990 -55.269  1.00  0.00     0.000 C 
BRANCH   4   5
ATOM      5  C   UNL     1    -111.562 -45.285 -55.759  1.00  0.00     0.000 C 
BRANCH   5   6
ATOM      6  C   UNL     1    -111.671 -45.294 -57.294  1.00  0.00     0.000 C 
BRANCH   6   7
ATOM      7  C   UNL     1    -110.622 -44.392 -57.964  1.00  0.00     0.000 C 
BRANCH   7   8
ATOM      8  C   UNL     1    -109.757 -45.146 -58.986  1.00  0.00     0.000 C 
BRANCH   8   9
ATOM      9  C   UNL     1    -110.103 -44.713 -60.418  1.00  0.00     0.000 C 
BRANCH   9  10
ATOM     10  C   UNL     1    -111.144 -45.629 -61.083  1.00  0.00     0.000 C 
BRANCH  10  11
ATOM     11  C   UNL     1    -110.652 -47.060 -61.380  1.00  0.00     0.000 C 
BRANCH  11  12
ATOM     12  C   UNL     1    -109.414 -47.111 -62.301  1.00  0.00     0.006 C 
BRANCH  12  13
ATOM     13  C   UNL     1    -108.355 -48.103 -61.799  1.00  0.00     0.053 C 
BRANCH  13  14
ATOM     14  C   UNL     1    -108.018 -49.093 -62.868  1.00  0.00     0.041 C 
ATOM     15  O   UNL     1    -108.431 -48.919 -64.044  1.00  0.00    -0.550 OA
ATOM     16  O   UNL     1    -107.289 -50.234 -62.556  1.00  0.00    -0.550 OA
ENDBRANCH  13  14
ENDBRANCH  12  13
ENDBRANCH  11  12
ENDBRANCH  10  11
ENDBRANCH   9  10
ENDBRANCH   8   9
ENDBRANCH   7   8
ENDBRANCH   6   7
ENDBRANCH   5   6
ENDBRANCH   4   5
ENDBRANCH   3   4
ENDBRANCH   2   3
ENDBRANCH   1   2
BRANCH   1  17
ATOM     17  C   UNL     1    -107.211 -48.616 -56.745  1.00  0.00     0.000 C 
BRANCH  17  18
ATOM     18  C   UNL     1    -107.932 -47.976 -57.945  1.00  0.00     0.000 C 
BRANCH  18  19
ATOM     19  C   UNL     1    -109.062 -48.870 -58.497  1.00  0.00     0.000 C 
BRANCH  19  20
ATOM     20  C   UNL     1    -110.466 -48.491 -57.986  1.00  0.00     0.000 C 
BRANCH  20  21
ATOM     21  C   UNL     1    -111.169 -49.572 -57.148  1.00  0.00     0.000 C 
BRANCH  21  22
ATOM     22  C   UNL     1    -110.862 -49.533 -55.637  1.00  0.00    -0.000 C 
BRANCH  22  23
ATOM     23  C   UNL     1    -109.835 -50.590 -55.178  1.00  0.00    -0.000 C 
BRANCH  23  24
ATOM     24  C   UNL     1    -109.891 -51.871 -56.030  1.00  0.00    -0.000 C 
BRANCH  24  25
ATOM     25  C   UNL     1    -108.570 -52.158 -56.760  1.00  0.00    -0.000 C 
BRANCH  25  26
ATOM     26  C   UNL     1    -108.756 -53.076 -57.982  1.00  0.00    -0.000 C 
BRANCH  26  27
ATOM     27  C   UNL     1    -108.921 -52.276 -59.292  1.00  0.00    -0.000 C 
BRANCH  27  28
ATOM     28  C   UNL     1    -110.386 -52.146 -59.754  1.00  0.00    -0.000 C 
BRANCH  28  29
ATOM     29  C   UNL     1    -110.601 -51.187 -60.937  1.00  0.00    -0.003 C 
ATOM     30  C   UNL     1    -111.938 -50.449 -60.866  1.00  0.00     0.004 C 
ENDBRANCH  28  29
ENDBRANCH  27  28
ENDBRANCH  26  27
ENDBRANCH  25  26
ENDBRANCH  24  25
ENDBRANCH  23  24
ENDBRANCH  22  23
ENDBRANCH  21  22
ENDBRANCH  20  21
ENDBRANCH  19  20
ENDBRANCH  18  19
ENDBRANCH  17  18
ENDBRANCH   1  17
TORSDOF 26
ENDMDL
MODEL 4
REMARK VINA RESULT:    -2.316      1.455      3.299
REMARK INTER + INTRA:         -12.224
REMARK INTER:                  -6.830
REMARK INTRA:                  -5.394
REMARK UNBOUND:                -6.387
REMARK SMILES CCCCCCCCCCCCCCCCCCCCCCCCCCCC(=O)[O-]
REMARK SMILES IDX 15 1 16 2 17 3 18 4 19 5 20 6 21 7 22 8 23 9 24 10 25 11
REMARK SMILES IDX 26 12 27 13 28 14 29 15 30 16 14 17 13 18 12 19 11 20 10 21
REMARK SMILES IDX 9 22 8 23 7 24 6 25 5 26 4 27 3 28 2 29 1 30
REMARK H PARENT
REMARK Flexibility Score: inf
ROOT
ATOM      1  C   UNL     1    -107.644 -48.062 -55.220  1.00  0.00     0.000 C 
ENDROOT
BRANCH   1   2
ATOM      2  C   UNL     1    -107.868 -46.539 -55.248  1.00  0.00     0.000 C 
BRANCH   2   3
ATOM      3  C   UNL     1    -109.341 -46.152 -55.033  1.00  0.00     0.000 C 
BRANCH   3   4
ATOM      4  C   UNL     1    -109.803 -45.046 -55.997  1.00  0.00     0.000 C 
BRANCH   4   5
ATOM      5  C   UNL     1    -110.582 -45.598 -57.203  1.00  0.00     0.000 C 
BRANCH   5   6
ATOM      6  C   UNL     1    -110.245 -44.862 -58.512  1.00  0.00     0.000 C 
BRANCH   6   7
ATOM      7  C   UNL     1    -111.021 -45.420 -59.716  1.00  0.00     0.000 C 
BRANCH   7   8
ATOM      8  C   UNL     1    -110.150 -45.544 -60.976  1.00  0.00     0.000 C 
BRANCH   8   9
ATOM      9  C   UNL     1    -110.986 -46.024 -62.172  1.00  0.00     0.000 C 
BRANCH   9  10
ATOM     10  C   UNL     1    -110.272 -47.102 -63.004  1.00  0.00     0.000 C 
BRANCH  10  11
ATOM     11  C   UNL     1    -109.016 -47.704 -62.344  1.00  0.00     0.000 C 
BRANCH  11  12
ATOM     12  C   UNL     1    -108.999 -49.248 -62.335  1.00  0.00     0.006 C 
BRANCH  12  13
ATOM     13  C   UNL     1    -107.602 -49.817 -62.615  1.00  0.00     0.053 C 
BRANCH  13  14
ATOM     14  C   UNL     1    -107.526 -50.355 -64.009  1.00  0.00     0.041 C 
ATOM     15  O   UNL     1    -107.921 -51.523 -64.259  1.00  0.00    -0.550 OA
ATOM     16  O   UNL     1    -106.972 -49.583 -65.022  1.00  0.00    -0.550 OA
ENDBRANCH  13  14
ENDBRANCH  12  13
ENDBRANCH  11  12
ENDBRANCH  10  11
ENDBRANCH   9  10
ENDBRANCH   8   9
ENDBRANCH   7   8
ENDBRANCH   6   7
ENDBRANCH   5   6
ENDBRANCH   4   5
ENDBRANCH   3   4
ENDBRANCH   2   3
ENDBRANCH   1   2
BRANCH   1  17
ATOM     17  C   UNL     1    -107.382 -48.644 -56.617  1.00  0.00     0.000 C 
BRANCH  17  18
ATOM     18  C   UNL     1    -107.241 -47.555 -57.695  1.00  0.00     0.000 C 
BRANCH  18  19
ATOM     19  C   UNL     1    -108.193 -47.780 -58.889  1.00  0.00     0.000 C 
BRANCH  19  20
ATOM     20  C   UNL     1    -109.007 -49.086 -58.802  1.00  0.00     0.000 C 
BRANCH  20  21
ATOM     21  C   UNL     1    -110.532 -48.902 -58.737  1.00  0.00     0.000 C 
BRANCH  21  22
ATOM     22  C   UNL     1    -111.242 -49.699 -57.624  1.00  0.00    -0.000 C 
BRANCH  22  23
ATOM     23  C   UNL     1    -111.012 -49.138 -56.205  1.00  0.00    -0.000 C 
BRANCH  23  24
ATOM     24  C   UNL     1    -110.873 -50.250 -55.149  1.00  0.00    -0.000 C 
BRANCH  24  25
ATOM     25  C   UNL     1    -110.643 -51.635 -55.771  1.00  0.00    -0.000 C 
BRANCH  25  26
ATOM     26  C   UNL     1    -109.590 -52.459 -55.008  1.00  0.00    -0.000 C 
BRANCH  26  27
ATOM     27  C   UNL     1    -108.438 -52.926 -55.925  1.00  0.00    -0.000 C 
BRANCH  27  28
ATOM     28  C   UNL     1    -108.234 -52.029 -57.163  1.00  0.00    -0.000 C 
BRANCH  28  29
ATOM     29  C   UNL     1    -108.310 -52.770 -58.509  1.00  0.00    -0.003 C 
ATOM     30  C   UNL     1    -109.713 -52.750 -59.116  1.00  0.00     0.004 C 
ENDBRANCH  28  29
ENDBRANCH  27  28
ENDBRANCH  26  27
ENDBRANCH  25  26
ENDBRANCH  24  25
ENDBRANCH  23  24
ENDBRANCH  22  23
ENDBRANCH  21  22
ENDBRANCH  20  21
ENDBRANCH  19  20
ENDBRANCH  18  19
ENDBRANCH  17  18
ENDBRANCH   1  17
TORSDOF 26
ENDMDL
MODEL 5
REMARK VINA RESULT:    -2.314      1.421      3.617
REMARK INTER + INTRA:         -12.218
REMARK INTER:                  -6.724
REMARK INTRA:                  -5.494
REMARK UNBOUND:                -6.387
REMARK SMILES CCCCCCCCCCCCCCCCCCCCCCCCCCCC(=O)[O-]
REMARK SMILES IDX 15 1 16 2 17 3 18 4 19 5 20 6 21 7 22 8 23 9 24 10 25 11
REMARK SMILES IDX 26 12 27 13 28 14 29 15 30 16 14 17 13 18 12 19 11 20 10 21
REMARK SMILES IDX 9 22 8 23 7 24 6 25 5 26 4 27 3 28 2 29 1 30
REMARK H PARENT
REMARK Flexibility Score: inf
ROOT
ATOM      1  C   UNL     1    -107.834 -47.671 -58.417  1.00  0.00     0.000 C 
ENDROOT
BRANCH   1   2
ATOM      2  C   UNL     1    -108.913 -48.733 -58.691  1.00  0.00     0.000 C 
BRANCH   2   3
ATOM      3  C   UNL     1    -110.185 -48.516 -57.856  1.00  0.00     0.000 C 
BRANCH   3   4
ATOM      4  C   UNL     1    -111.229 -47.655 -58.588  1.00  0.00     0.000 C 
BRANCH   4   5
ATOM      5  C   UNL     1    -111.279 -46.211 -58.063  1.00  0.00     0.000 C 
BRANCH   5   6
ATOM      6  C   UNL     1    -111.112 -45.168 -59.183  1.00  0.00     0.000 C 
BRANCH   6   7
ATOM      7  C   UNL     1    -109.675 -45.111 -59.725  1.00  0.00     0.000 C 
BRANCH   7   8
ATOM      8  C   UNL     1    -109.622 -45.093 -61.261  1.00  0.00     0.000 C 
BRANCH   8   9
ATOM      9  C   UNL     1    -110.341 -46.317 -61.846  1.00  0.00     0.000 C 
BRANCH   9  10
ATOM     10  C   UNL     1    -109.379 -47.468 -62.185  1.00  0.00     0.000 C 
BRANCH  10  11
ATOM     11  C   UNL     1    -110.040 -48.856 -62.291  1.00  0.00     0.000 C 
BRANCH  11  12
ATOM     12  C   UNL     1    -109.051 -50.029 -62.126  1.00  0.00     0.006 C 
BRANCH  12  13
ATOM     13  C   UNL     1    -107.634 -49.667 -62.592  1.00  0.00     0.053 C 
BRANCH  13  14
ATOM     14  C   UNL     1    -107.306 -50.376 -63.868  1.00  0.00     0.041 C 
ATOM     15  O   UNL     1    -107.307 -51.634 -63.910  1.00  0.00    -0.550 OA
ATOM     16  O   UNL     1    -106.951 -49.649 -64.997  1.00  0.00    -0.550 OA
ENDBRANCH  13  14
ENDBRANCH  12  13
ENDBRANCH  11  12
ENDBRANCH  10  11
ENDBRANCH   9  10
ENDBRANCH   8   9
ENDBRANCH   7   8
ENDBRANCH   6   7
ENDBRANCH   5   6
ENDBRANCH   4   5
ENDBRANCH   3   4
ENDBRANCH   2   3
ENDBRANCH   1   2
BRANCH   1  17
ATOM     17  C   UNL     1    -107.137 -47.876 -57.063  1.00  0.00     0.000 C 
BRANCH  17  18
ATOM     18  C   UNL     1    -107.633 -46.894 -55.986  1.00  0.00     0.000 C 
BRANCH  18  19
ATOM     19  C   UNL     1    -108.222 -47.617 -54.757  1.00  0.00     0.000 C 
BRANCH  19  20
ATOM     20  C   UNL     1    -107.605 -49.004 -54.490  1.00  0.00     0.000 C 
BRANCH  20  21
ATOM     21  C   UNL     1    -108.542 -50.195 -54.748  1.00  0.00     0.000 C 
BRANCH  21  22
ATOM     22  C   UNL     1    -107.954 -51.311 -55.636  1.00  0.00    -0.000 C 
BRANCH  22  23
ATOM     23  C   UNL     1    -108.929 -51.838 -56.710  1.00  0.00    -0.000 C 
BRANCH  23  24
ATOM     24  C   UNL     1    -108.198 -52.499 -57.892  1.00  0.00    -0.000 C 
BRANCH  24  25
ATOM     25  C   UNL     1    -108.932 -52.308 -59.228  1.00  0.00    -0.000 C 
BRANCH  25  26
ATOM     26  C   UNL     1    -110.403 -52.759 -59.165  1.00  0.00    -0.000 C 
BRANCH  26  27
ATOM     27  C   UNL     1    -111.338 -51.809 -59.943  1.00  0.00    -0.000 C 
BRANCH  27  28
ATOM     28  C   UNL     1    -112.440 -51.177 -59.069  1.00  0.00    -0.000 C 
BRANCH  28  29
ATOM     29  C   UNL     1    -112.724 -51.928 -57.757  1.00  0.00    -0.003 C 
ATOM     30  C   UNL     1    -112.511 -51.057 -56.519  1.00  0.00     0.004 C 
ENDBRANCH  28  29
ENDBRANCH  27  28
ENDBRANCH  26  27
ENDBRANCH  25  26
ENDBRANCH  24  25
ENDBRANCH  23  24
ENDBRANCH  22  23
ENDBRANCH  21  22
ENDBRANCH  20  21
ENDBRANCH  19  20
ENDBRANCH  18  19
ENDBRANCH  17  18
ENDBRANCH   1  17
TORSDOF 26
ENDMDL
MODEL 6
REMARK VINA RESULT:    -2.286      1.309      4.321
REMARK INTER + INTRA:         -12.148
REMARK INTER:                  -6.570
REMARK INTRA:                  -5.578
REMARK UNBOUND:                -6.387
REMARK SMILES CCCCCCCCCCCCCCCCCCCCCCCCCCCC(=O)[O-]
REMARK SMILES IDX 15 1 16 2 17 3 18 4 19 5 20 6 21 7 22 8 23 9 24 10 25 11
REMARK SMILES IDX 26 12 27 13 28 14 29 15 30 16 14 17 13 18 12 19 11 20 10 21
REMARK SMILES IDX 9 22 8 23 7 24 6 25 5 26 4 27 3 28 2 29 1 30
REMARK H PARENT
REMARK Flexibility Score: inf
ROOT
ATOM      1  C   UNL     1    -109.681 -50.264 -56.138  1.00  0.00     0.000 C 
ENDROOT
BRANCH   1   2
ATOM      2  C   UNL     1    -110.777 -49.545 -56.944  1.00  0.00     0.000 C 
BRANCH   2   3
ATOM      3  C   UNL     1    -111.968 -50.460 -57.273  1.00  0.00     0.000 C 
BRANCH   3   4
ATOM      4  C   UNL     1    -111.652 -51.946 -57.029  1.00  0.00     0.000 C 
BRANCH   4   5
ATOM      5  C   UNL     1    -111.458 -52.732 -58.336  1.00  0.00     0.000 C 
BRANCH   5   6
ATOM      6  C   UNL     1    -109.975 -52.927 -58.697  1.00  0.00     0.000 C 
BRANCH   6   7
ATOM      7  C   UNL     1    -109.447 -51.825 -59.629  1.00  0.00     0.000 C 
BRANCH   7   8
ATOM      8  C   UNL     1    -110.509 -51.334 -60.626  1.00  0.00     0.000 C 
BRANCH   8   9
ATOM      9  C   UNL     1    -109.877 -50.426 -61.692  1.00  0.00     0.000 C 
BRANCH   9  10
ATOM     10  C   UNL     1    -108.736 -49.559 -61.135  1.00  0.00     0.000 C 
BRANCH  10  11
ATOM     11  C   UNL     1    -107.858 -48.879 -62.204  1.00  0.00     0.000 C 
BRANCH  11  12
ATOM     12  C   UNL     1    -108.507 -48.833 -63.603  1.00  0.00     0.006 C 
BRANCH  12  13
ATOM     13  C   UNL     1    -107.588 -49.406 -64.691  1.00  0.00     0.053 C 
BRANCH  13  14
ATOM     14  C   UNL     1    -107.390 -50.875 -64.489  1.00  0.00     0.041 C 
ATOM     15  O   UNL     1    -108.349 -51.672 -64.665  1.00  0.00    -0.550 OA
ATOM     16  O   UNL     1    -106.162 -51.359 -64.058  1.00  0.00    -0.550 OA
ENDBRANCH  13  14
ENDBRANCH  12  13
ENDBRANCH  11  12
ENDBRANCH  10  11
ENDBRANCH   9  10
ENDBRANCH   8   9
ENDBRANCH   7   8
ENDBRANCH   6   7
ENDBRANCH   5   6
ENDBRANCH   4   5
ENDBRANCH   3   4
ENDBRANCH   2   3
ENDBRANCH   1   2
BRANCH   1  17
ATOM     17  C   UNL     1    -108.266 -49.874 -56.592  1.00  0.00     0.000 C 
BRANCH  17  18
ATOM     18  C   UNL     1    -108.268 -48.731 -57.622  1.00  0.00     0.000 C 
BRANCH  18  19
ATOM     19  C   UNL     1    -107.354 -47.560 -57.205  1.00  0.00     0.000 C 
BRANCH  19  20
ATOM     20  C   UNL     1    -107.268 -47.344 -55.681  1.00  0.00     0.000 C 
BRANCH  20  21
ATOM     21  C   UNL     1    -108.205 -46.261 -55.121  1.00  0.00     0.000 C 
BRANCH  21  22
ATOM     22  C   UNL     1    -109.657 -46.716 -54.871  1.00  0.00    -0.000 C 
BRANCH  22  23
ATOM     23  C   UNL     1    -110.703 -45.977 -55.732  1.00  0.00    -0.000 C 
BRANCH  23  24
ATOM     24  C   UNL     1    -110.055 -45.056 -56.782  1.00  0.00    -0.000 C 
BRANCH  24  25
ATOM     25  C   UNL     1    -110.989 -44.748 -57.962  1.00  0.00    -0.000 C 
BRANCH  25  26
ATOM     26  C   UNL     1    -110.238 -44.649 -59.302  1.00  0.00    -0.000 C 
BRANCH  26  27
ATOM     27  C   UNL     1    -109.748 -46.026 -59.799  1.00  0.00    -0.000 C 
BRANCH  27  28
ATOM     28  C   UNL     1    -110.823 -47.128 -59.722  1.00  0.00    -0.000 C 
BRANCH  28  29
ATOM     29  C   UNL     1    -111.928 -47.018 -60.786  1.00  0.00    -0.003 C 
ATOM     30  C   UNL     1    -111.375 -46.973 -62.210  1.00  0.00     0.004 C 
ENDBRANCH  28  29
ENDBRANCH  27  28
ENDBRANCH  26  27
ENDBRANCH  25  26
ENDBRANCH  24  25
ENDBRANCH  23  24
ENDBRANCH  22  23
ENDBRANCH  21  22
ENDBRANCH  20  21
ENDBRANCH  19  20
ENDBRANCH  18  19
ENDBRANCH  17  18
ENDBRANCH   1  17
TORSDOF 26
ENDMDL
MODEL 7
REMARK VINA RESULT:    -2.280      1.450      2.887
REMARK INTER + INTRA:         -12.131
REMARK INTER:                  -6.645
REMARK INTRA:                  -5.486
REMARK UNBOUND:                -6.387
REMARK SMILES CCCCCCCCCCCCCCCCCCCCCCCCCCCC(=O)[O-]
REMARK SMILES IDX 15 1 16 2 17 3 18 4 19 5 20 6 21 7 22 8 23 9 24 10 25 11
REMARK SMILES IDX 26 12 27 13 28 14 29 15 30 16 14 17 13 18 12 19 11 20 10 21
REMARK SMILES IDX 9 22 8 23 7 24 6 25 5 26 4 27 3 28 2 29 1 30
REMARK H PARENT
REMARK Flexibility Score: inf
ROOT
ATOM      1  C   UNL     1    -109.464 -45.488 -54.796  1.00  0.00     0.000 C 
ENDROOT
BRANCH   1   2
ATOM      2  C   UNL     1    -110.559 -45.616 -55.869  1.00  0.00     0.000 C 
BRANCH   2   3
ATOM      3  C   UNL     1    -110.280 -44.751 -57.109  1.00  0.00     0.000 C 
BRANCH   3   4
ATOM      4  C   UNL     1    -110.932 -45.320 -58.381  1.00  0.00     0.000 C 
BRANCH   4   5
ATOM      5  C   UNL     1    -109.982 -45.307 -59.590  1.00  0.00     0.000 C 
BRANCH   5   6
ATOM      6  C   UNL     1    -110.642 -45.856 -60.868  1.00  0.00     0.000 C 
BRANCH   6   7
ATOM      7  C   UNL     1    -109.625 -46.497 -61.826  1.00  0.00     0.000 C 
BRANCH   7   8
ATOM      8  C   UNL     1    -109.673 -48.033 -61.801  1.00  0.00     0.000 C 
BRANCH   8   9
ATOM      9  C   UNL     1    -108.264 -48.619 -61.630  1.00  0.00     0.000 C 
BRANCH   9  10
ATOM     10  C   UNL     1    -107.695 -49.193 -62.938  1.00  0.00     0.000 C 
BRANCH  10  11
ATOM     11  C   UNL     1    -107.463 -50.717 -62.931  1.00  0.00     0.000 C 
BRANCH  11  12
ATOM     12  C   UNL     1    -108.192 -51.462 -64.069  1.00  0.00     0.006 C 
BRANCH  12  13
ATOM     13  C   UNL     1    -109.047 -50.520 -64.928  1.00  0.00     0.053 C 
BRANCH  13  14
ATOM     14  C   UNL     1    -108.446 -50.365 -66.290  1.00  0.00     0.041 C 
ATOM     15  O   UNL     1    -109.071 -50.767 -67.306  1.00  0.00    -0.550 OA
ATOM     16  O   UNL     1    -107.176 -49.822 -66.431  1.00  0.00    -0.550 OA
ENDBRANCH  13  14
ENDBRANCH  12  13
ENDBRANCH  11  12
ENDBRANCH  10  11
ENDBRANCH   9  10
ENDBRANCH   8   9
ENDBRANCH   7   8
ENDBRANCH   6   7
ENDBRANCH   5   6
ENDBRANCH   4   5
ENDBRANCH   3   4
ENDBRANCH   2   3
ENDBRANCH   1   2
BRANCH   1  17
ATOM     17  C   UNL     1    -108.713 -46.808 -54.561  1.00  0.00     0.000 C 
BRANCH  17  18
ATOM     18  C   UNL     1    -107.358 -46.856 -55.290  1.00  0.00     0.000 C 
BRANCH  18  19
ATOM     19  C   UNL     1    -107.284 -48.001 -56.322  1.00  0.00     0.000 C 
BRANCH  19  20
ATOM     20  C   UNL     1    -107.907 -47.655 -57.688  1.00  0.00     0.000 C 
BRANCH  20  21
ATOM     21  C   UNL     1    -109.054 -48.576 -58.135  1.00  0.00     0.000 C 
BRANCH  21  22
ATOM     22  C   UNL     1    -110.007 -49.029 -57.011  1.00  0.00    -0.000 C 
BRANCH  22  23
ATOM     23  C   UNL     1    -111.483 -49.145 -57.448  1.00  0.00    -0.000 C 
BRANCH  23  24
ATOM     24  C   UNL     1    -111.644 -49.143 -58.979  1.00  0.00    -0.000 C 
BRANCH  24  25
ATOM     25  C   UNL     1    -112.438 -50.353 -59.496  1.00  0.00    -0.000 C 
BRANCH  25  26
ATOM     26  C   UNL     1    -111.583 -51.629 -59.582  1.00  0.00    -0.000 C 
BRANCH  26  27
ATOM     27  C   UNL     1    -110.344 -51.442 -60.485  1.00  0.00    -0.000 C 
BRANCH  27  28
ATOM     28  C   UNL     1    -109.021 -51.857 -59.811  1.00  0.00    -0.000 C 
BRANCH  28  29
ATOM     29  C   UNL     1    -109.188 -52.546 -58.445  1.00  0.00    -0.003 C 
ATOM     30  C   UNL     1    -108.089 -52.167 -57.453  1.00  0.00     0.004 C 
ENDBRANCH  28  29
ENDBRANCH  27  28
ENDBRANCH  26  27
ENDBRANCH  25  26
ENDBRANCH  24  25
ENDBRANCH  23  24
ENDBRANCH  22  23
ENDBRANCH  21  22
ENDBRANCH  20  21
ENDBRANCH  19  20
ENDBRANCH  18  19
ENDBRANCH  17  18
ENDBRANCH   1  17
TORSDOF 26
ENDMDL
MODEL 8
REMARK VINA RESULT:    -2.240      2.542      6.539
REMARK INTER + INTRA:         -12.033
REMARK INTER:                  -6.424
REMARK INTRA:                  -5.609
REMARK UNBOUND:                -6.387
REMARK SMILES CCCCCCCCCCCCCCCCCCCCCCCCCCCC(=O)[O-]
REMARK SMILES IDX 15 1 16 2 17 3 18 4 19 5 20 6 21 7 22 8 23 9 24 10 25 11
REMARK SMILES IDX 26 12 27 13 28 14 29 15 30 16 14 17 13 18 12 19 11 20 10 21
REMARK SMILES IDX 9 22 8 23 7 24 6 25 5 26 4 27 3 28 2 29 1 30
REMARK H PARENT
REMARK Flexibility Score: inf
ROOT
ATOM      1  C   UNL     1    -108.388 -47.316 -59.483  1.00  0.00     0.000 C 
ENDROOT
BRANCH   1   2
ATOM      2  C   UNL     1    -108.196 -48.216 -58.250  1.00  0.00     0.000 C 
BRANCH   2   3
ATOM      3  C   UNL     1    -107.096 -47.702 -57.306  1.00  0.00     0.000 C 
BRANCH   3   4
ATOM      4  C   UNL     1    -107.450 -47.910 -55.824  1.00  0.00     0.000 C 
BRANCH   4   5
ATOM      5  C   UNL     1    -107.724 -46.588 -55.088  1.00  0.00     0.000 C 
BRANCH   5   6
ATOM      6  C   UNL     1    -109.059 -45.944 -55.504  1.00  0.00     0.000 C 
BRANCH   6   7
ATOM      7  C   UNL     1    -110.169 -46.170 -54.465  1.00  0.00     0.000 C 
BRANCH   7   8
ATOM      8  C   UNL     1    -111.084 -47.352 -54.824  1.00  0.00     0.000 C 
BRANCH   8   9
ATOM      9  C   UNL     1    -111.268 -47.456 -56.345  1.00  0.00     0.000 C 
BRANCH   9  10
ATOM     10  C   UNL     1    -111.452 -48.906 -56.824  1.00  0.00     0.000 C 
BRANCH  10  11
ATOM     11  C   UNL     1    -110.566 -49.943 -56.106  1.00  0.00     0.000 C 
BRANCH  11  12
ATOM     12  C   UNL     1    -110.555 -51.328 -56.787  1.00  0.00     0.006 C 
BRANCH  12  13
ATOM     13  C   UNL     1    -109.289 -51.556 -57.625  1.00  0.00     0.053 C 
BRANCH  13  14
ATOM     14  C   UNL     1    -108.198 -52.131 -56.779  1.00  0.00     0.041 C 
ATOM     15  O   UNL     1    -108.327 -53.277 -56.274  1.00  0.00    -0.550 OA
ATOM     16  O   UNL     1    -107.061 -51.381 -56.506  1.00  0.00    -0.550 OA
ENDBRANCH  13  14
ENDBRANCH  12  13
ENDBRANCH  11  12
ENDBRANCH  10  11
ENDBRANCH   9  10
ENDBRANCH   8   9
ENDBRANCH   7   8
ENDBRANCH   6   7
ENDBRANCH   5   6
ENDBRANCH   4   5
ENDBRANCH   3   4
ENDBRANCH   2   3
ENDBRANCH   1   2
BRANCH   1  17
ATOM     17  C   UNL     1    -109.341 -46.142 -59.211  1.00  0.00     0.000 C 
BRANCH  17  18
ATOM     18  C   UNL     1    -109.705 -45.366 -60.490  1.00  0.00     0.000 C 
BRANCH  18  19
ATOM     19  C   UNL     1    -109.725 -46.269 -61.741  1.00  0.00     0.000 C 
BRANCH  19  20
ATOM     20  C   UNL     1    -111.140 -46.570 -62.273  1.00  0.00     0.000 C 
BRANCH  20  21
ATOM     21  C   UNL     1    -111.602 -48.028 -62.112  1.00  0.00     0.000 C 
BRANCH  21  22
ATOM     22  C   UNL     1    -111.739 -48.515 -60.656  1.00  0.00    -0.000 C 
BRANCH  22  23
ATOM     23  C   UNL     1    -111.035 -49.860 -60.375  1.00  0.00    -0.000 C 
BRANCH  23  24
ATOM     24  C   UNL     1    -110.321 -50.420 -61.619  1.00  0.00    -0.000 C 
BRANCH  24  25
ATOM     25  C   UNL     1    -108.804 -50.563 -61.420  1.00  0.00    -0.000 C 
BRANCH  25  26
ATOM     26  C   UNL     1    -108.000 -49.555 -62.260  1.00  0.00    -0.000 C 
BRANCH  26  27
ATOM     27  C   UNL     1    -107.259 -50.233 -63.433  1.00  0.00    -0.000 C 
BRANCH  27  28
ATOM     28  C   UNL     1    -107.584 -49.614 -64.807  1.00  0.00    -0.000 C 
BRANCH  28  29
ATOM     29  C   UNL     1    -108.971 -49.981 -65.361  1.00  0.00    -0.003 C 
ATOM     30  C   UNL     1    -109.967 -48.824 -65.277  1.00  0.00     0.004 C 
ENDBRANCH  28  29
ENDBRANCH  27  28
ENDBRANCH  26  27
ENDBRANCH  25  26
ENDBRANCH  24  25
ENDBRANCH  23  24
ENDBRANCH  22  23
ENDBRANCH  21  22
ENDBRANCH  20  21
ENDBRANCH  19  20
ENDBRANCH  18  19
ENDBRANCH  17  18
ENDBRANCH   1  17
TORSDOF 26
ENDMDL
MODEL 9
REMARK VINA RESULT:    -2.213      1.742      3.242
REMARK INTER + INTRA:         -11.962
REMARK INTER:                  -6.639
REMARK INTRA:                  -5.324
REMARK UNBOUND:                -6.387
REMARK SMILES CCCCCCCCCCCCCCCCCCCCCCCCCCCC(=O)[O-]
REMARK SMILES IDX 15 1 16 2 17 3 18 4 19 5 20 6 21 7 22 8 23 9 24 10 25 11
REMARK SMILES IDX 26 12 27 13 28 14 29 15 30 16 14 17 13 18 12 19 11 20 10 21
REMARK SMILES IDX 9 22 8 23 7 24 6 25 5 26 4 27 3 28 2 29 1 30
REMARK H PARENT
REMARK Flexibility Score: inf
ROOT
ATOM      1  C   UNL     1    -110.146 -44.931 -57.188  1.00  0.00     0.000 C 
ENDROOT
BRANCH   1   2
ATOM      2  C   UNL     1    -111.484 -45.300 -57.853  1.00  0.00     0.000 C 
BRANCH   2   3
ATOM      3  C   UNL     1    -111.443 -45.166 -59.384  1.00  0.00     0.000 C 
BRANCH   3   4
ATOM      4  C   UNL     1    -110.084 -44.654 -59.892  1.00  0.00     0.000 C 
BRANCH   4   5
ATOM      5  C   UNL     1    -109.374 -45.664 -60.808  1.00  0.00     0.000 C 
BRANCH   5   6
ATOM      6  C   UNL     1    -110.350 -46.410 -61.736  1.00  0.00     0.000 C 
BRANCH   6   7
ATOM      7  C   UNL     1    -109.824 -47.794 -62.151  1.00  0.00     0.000 C 
BRANCH   7   8
ATOM      8  C   UNL     1    -108.335 -47.985 -61.823  1.00  0.00     0.000 C 
BRANCH   8   9
ATOM      9  C   UNL     1    -107.898 -49.432 -62.095  1.00  0.00     0.000 C 
BRANCH   9  10
ATOM     10  C   UNL     1    -108.829 -50.159 -63.079  1.00  0.00     0.000 C 
BRANCH  10  11
ATOM     11  C   UNL     1    -108.120 -51.124 -64.050  1.00  0.00     0.000 C 
BRANCH  11  12
ATOM     12  C   UNL     1    -107.043 -50.447 -64.922  1.00  0.00     0.006 C 
BRANCH  12  13
ATOM     13  C   UNL     1    -107.547 -49.148 -65.568  1.00  0.00     0.053 C 
BRANCH  13  14
ATOM     14  C   UNL     1    -108.399 -49.454 -66.760  1.00  0.00     0.041 C 
ATOM     15  O   UNL     1    -107.971 -50.220 -67.662  1.00  0.00    -0.550 OA
ATOM     16  O   UNL     1    -109.643 -48.853 -66.898  1.00  0.00    -0.550 OA
ENDBRANCH  13  14
ENDBRANCH  12  13
ENDBRANCH  11  12
ENDBRANCH  10  11
ENDBRANCH   9  10
ENDBRANCH   8   9
ENDBRANCH   7   8
ENDBRANCH   6   7
ENDBRANCH   5   6
ENDBRANCH   4   5
ENDBRANCH   3   4
ENDBRANCH   2   3
ENDBRANCH   1   2
BRANCH   1  17
ATOM     17  C   UNL     1    -110.012 -45.514 -55.772  1.00  0.00     0.000 C 
BRANCH  17  18
ATOM     18  C   UNL     1    -110.829 -46.804 -55.584  1.00  0.00     0.000 C 
BRANCH  18  19
ATOM     19  C   UNL     1    -110.108 -47.833 -54.688  1.00  0.00     0.000 C 
BRANCH  19  20
ATOM     20  C   UNL     1    -108.773 -47.329 -54.106  1.00  0.00     0.000 C 
BRANCH  20  21
ATOM     21  C   UNL     1    -107.542 -48.177 -54.466  1.00  0.00     0.000 C 
BRANCH  21  22
ATOM     22  C   UNL     1    -107.514 -48.709 -55.913  1.00  0.00    -0.000 C 
BRANCH  22  23
ATOM     23  C   UNL     1    -107.138 -47.645 -56.966  1.00  0.00    -0.000 C 
BRANCH  23  24
ATOM     24  C   UNL     1    -108.048 -47.699 -58.207  1.00  0.00    -0.000 C 
BRANCH  24  25
ATOM     25  C   UNL     1    -108.931 -48.956 -58.242  1.00  0.00    -0.000 C 
BRANCH  25  26
ATOM     26  C   UNL     1    -110.377 -48.651 -58.673  1.00  0.00    -0.000 C 
BRANCH  26  27
ATOM     27  C   UNL     1    -111.193 -49.936 -58.928  1.00  0.00    -0.000 C 
BRANCH  27  28
ATOM     28  C   UNL     1    -110.535 -50.892 -59.943  1.00  0.00    -0.000 C 
BRANCH  28  29
ATOM     29  C   UNL     1    -110.181 -52.279 -59.378  1.00  0.00    -0.003 C 
ATOM     30  C   UNL     1    -108.676 -52.479 -59.201  1.00  0.00     0.004 C 
ENDBRANCH  28  29
ENDBRANCH  27  28
ENDBRANCH  26  27
ENDBRANCH  25  26
ENDBRANCH  24  25
ENDBRANCH  23  24
ENDBRANCH  22  23
ENDBRANCH  21  22
ENDBRANCH  20  21
ENDBRANCH  19  20
ENDBRANCH  18  19
ENDBRANCH  17  18
ENDBRANCH   1  17
TORSDOF 26
ENDMDL
