MODEL 1
REMARK VINA RESULT:    -4.314      0.000      0.000
REMARK INTER + INTRA:         -16.091
REMARK INTER:                 -11.375
REMARK INTRA:                  -4.716
REMARK UNBOUND:                -4.716
REMARK SMILES CCCCCCCCCCCCCCCCCCCCCCCCCCCCCC(=O)[O-]
REMARK SMILES IDX 16 1 17 2 18 3 19 4 20 5 21 6 22 7 23 8 24 9 25 10 26 11
REMARK SMILES IDX 27 12 28 13 29 14 30 15 31 16 32 17 15 18 14 19 13 20 12 21
REMARK SMILES IDX 11 22 10 23 9 24 8 25 7 26 6 27 5 28 4 29 3 30 2 31 1 32
REMARK H PARENT
REMARK Flexibility Score: inf
ROOT
ATOM      1  C   UNL     1     171.478 166.167 150.350  1.00  0.00     0.000 C 
ENDROOT
BRANCH   1   2
ATOM      2  C   UNL     1     172.519 165.159 150.865  1.00  0.00     0.000 C 
BRANCH   2   3
ATOM      3  C   UNL     1     173.266 165.629 152.132  1.00  0.00     0.000 C 
BRANCH   3   4
ATOM      4  C   UNL     1     174.666 164.998 152.249  1.00  0.00     0.000 C 
BRANCH   4   5
ATOM      5  C   UNL     1     175.138 164.358 150.935  1.00  0.00     0.000 C 
BRANCH   5   6
ATOM      6  C   UNL     1     176.021 163.118 151.158  1.00  0.00     0.000 C 
BRANCH   6   7
ATOM      7  C   UNL     1     175.744 162.011 150.117  1.00  0.00     0.000 C 
BRANCH   7   8
ATOM      8  C   UNL     1     174.361 161.349 150.267  1.00  0.00     0.000 C 
BRANCH   8   9
ATOM      9  C   UNL     1     174.386 159.816 150.400  1.00  0.00     0.000 C 
BRANCH   9  10
ATOM     10  C   UNL     1     174.292 159.284 151.843  1.00  0.00     0.000 C 
BRANCH  10  11
ATOM     11  C   UNL     1     175.614 159.379 152.635  1.00  0.00     0.000 C 
BRANCH  11  12
ATOM     12  C   UNL     1     175.401 159.222 154.150  1.00  0.00     0.000 C 
BRANCH  12  13
ATOM     13  C   UNL     1     175.762 160.489 154.946  1.00  0.00     0.006 C 
BRANCH  13  14
ATOM     14  C   UNL     1     175.210 161.788 154.332  1.00  0.00     0.053 C 
BRANCH  14  15
ATOM     15  C   UNL     1     173.730 161.936 154.517  1.00  0.00     0.041 C 
ATOM     16  O   UNL     1     173.216 161.802 155.658  1.00  0.00    -0.550 OA
ATOM     17  O   UNL     1     172.913 162.177 153.420  1.00  0.00    -0.550 OA
ENDBRANCH  14  15
ENDBRANCH  13  14
ENDBRANCH  12  13
ENDBRANCH  11  12
ENDBRANCH  10  11
ENDBRANCH   9  10
ENDBRANCH   8   9
ENDBRANCH   7   8
ENDBRANCH   6   7
ENDBRANCH   5   6
ENDBRANCH   4   5
ENDBRANCH   3   4
ENDBRANCH   2   3
ENDBRANCH   1   2
BRANCH   1  18
ATOM     18  C   UNL     1     172.109 167.498 149.911  1.00  0.00     0.000 C 
BRANCH  18  19
ATOM     19  C   UNL     1     173.179 167.324 148.816  1.00  0.00     0.000 C 
BRANCH  19  20
ATOM     20  C   UNL     1     174.613 167.738 149.210  1.00  0.00     0.000 C 
BRANCH  20  21
ATOM     21  C   UNL     1     174.729 168.568 150.506  1.00  0.00     0.000 C 
BRANCH  21  22
ATOM     22  C   UNL     1     175.643 169.807 150.386  1.00  0.00     0.000 C 
BRANCH  22  23
ATOM     23  C   UNL     1     174.895 171.122 150.094  1.00  0.00     0.000 C 
BRANCH  23  24
ATOM     24  C   UNL     1     173.359 170.985 150.099  1.00  0.00    -0.000 C 
BRANCH  24  25
ATOM     25  C   UNL     1     172.654 172.344 150.248  1.00  0.00    -0.000 C 
BRANCH  25  26
ATOM     26  C   UNL     1     173.632 173.531 150.244  1.00  0.00    -0.000 C 
BRANCH  26  27
ATOM     27  C   UNL     1     173.674 174.302 151.579  1.00  0.00    -0.000 C 
BRANCH  27  28
ATOM     28  C   UNL     1     175.022 174.141 152.302  1.00  0.00    -0.000 C 
BRANCH  28  29
ATOM     29  C   UNL     1     174.882 173.490 153.687  1.00  0.00    -0.000 C 
BRANCH  29  30
ATOM     30  C   UNL     1     174.872 171.953 153.619  1.00  0.00    -0.000 C 
BRANCH  30  31
ATOM     31  C   UNL     1     173.471 171.363 153.848  1.00  0.00    -0.003 C 
ATOM     32  C   UNL     1     173.431 169.846 153.667  1.00  0.00     0.004 C 
ENDBRANCH  30  31
ENDBRANCH  29  30
ENDBRANCH  28  29
ENDBRANCH  27  28
ENDBRANCH  26  27
ENDBRANCH  25  26
ENDBRANCH  24  25
ENDBRANCH  23  24
ENDBRANCH  22  23
ENDBRANCH  21  22
ENDBRANCH  20  21
ENDBRANCH  19  20
ENDBRANCH  18  19
ENDBRANCH   1  18
TORSDOF 28
ENDMDL
MODEL 2
REMARK VINA RESULT:    -4.303      2.209      3.108
REMARK INTER + INTRA:         -16.063
REMARK INTER:                 -11.623
REMARK INTRA:                  -4.440
REMARK UNBOUND:                -4.716
REMARK SMILES CCCCCCCCCCCCCCCCCCCCCCCCCCCCCC(=O)[O-]
REMARK SMILES IDX 16 1 17 2 18 3 19 4 20 5 21 6 22 7 23 8 24 9 25 10 26 11
REMARK SMILES IDX 27 12 28 13 29 14 30 15 31 16 32 17 15 18 14 19 13 20 12 21
REMARK SMILES IDX 11 22 10 23 9 24 8 25 7 26 6 27 5 28 4 29 3 30 2 31 1 32
REMARK H PARENT
REMARK Flexibility Score: inf
ROOT
ATOM      1  C   UNL     1     171.234 168.354 150.301  1.00  0.00     0.000 C 
ENDROOT
BRANCH   1   2
ATOM      2  C   UNL     1     171.852 167.223 149.463  1.00  0.00     0.000 C 
BRANCH   2   3
ATOM      3  C   UNL     1     173.221 167.583 148.846  1.00  0.00     0.000 C 
BRANCH   3   4
ATOM      4  C   UNL     1     174.389 166.903 149.584  1.00  0.00     0.000 C 
BRANCH   4   5
ATOM      5  C   UNL     1     173.925 165.756 150.496  1.00  0.00     0.000 C 
BRANCH   5   6
ATOM      6  C   UNL     1     174.818 165.580 151.736  1.00  0.00     0.000 C 
BRANCH   6   7
ATOM      7  C   UNL     1     174.823 164.124 152.248  1.00  0.00     0.000 C 
BRANCH   7   8
ATOM      8  C   UNL     1     174.546 163.077 151.151  1.00  0.00     0.000 C 
BRANCH   8   9
ATOM      9  C   UNL     1     175.672 162.051 150.933  1.00  0.00     0.000 C 
BRANCH   9  10
ATOM     10  C   UNL     1     175.408 161.018 149.821  1.00  0.00     0.000 C 
BRANCH  10  11
ATOM     11  C   UNL     1     175.242 159.571 150.334  1.00  0.00     0.000 C 
BRANCH  11  12
ATOM     12  C   UNL     1     173.812 159.040 150.134  1.00  0.00     0.000 C 
BRANCH  12  13
ATOM     13  C   UNL     1     172.795 159.659 151.110  1.00  0.00     0.006 C 
BRANCH  13  14
ATOM     14  C   UNL     1     172.656 158.890 152.436  1.00  0.00     0.053 C 
BRANCH  14  15
ATOM     15  C   UNL     1     171.628 157.801 152.371  1.00  0.00     0.041 C 
ATOM     16  O   UNL     1     171.645 156.861 153.208  1.00  0.00    -0.550 OA
ATOM     17  O   UNL     1     170.678 157.801 151.358  1.00  0.00    -0.550 OA
ENDBRANCH  14  15
ENDBRANCH  13  14
ENDBRANCH  12  13
ENDBRANCH  11  12
ENDBRANCH  10  11
ENDBRANCH   9  10
ENDBRANCH   8   9
ENDBRANCH   7   8
ENDBRANCH   6   7
ENDBRANCH   5   6
ENDBRANCH   4   5
ENDBRANCH   3   4
ENDBRANCH   2   3
ENDBRANCH   1   2
BRANCH   1  18
ATOM     18  C   UNL     1     171.525 168.207 151.802  1.00  0.00     0.000 C 
BRANCH  18  19
ATOM     19  C   UNL     1     172.352 169.377 152.371  1.00  0.00     0.000 C 
BRANCH  19  20
ATOM     20  C   UNL     1     173.856 169.095 152.576  1.00  0.00     0.000 C 
BRANCH  20  21
ATOM     21  C   UNL     1     174.801 169.785 151.569  1.00  0.00     0.000 C 
BRANCH  21  22
ATOM     22  C   UNL     1     174.091 170.743 150.587  1.00  0.00     0.000 C 
BRANCH  22  23
ATOM     23  C   UNL     1     174.969 171.907 150.090  1.00  0.00     0.000 C 
BRANCH  23  24
ATOM     24  C   UNL     1     174.190 173.211 149.823  1.00  0.00    -0.000 C 
BRANCH  24  25
ATOM     25  C   UNL     1     172.716 173.106 150.247  1.00  0.00    -0.000 C 
BRANCH  25  26
ATOM     26  C   UNL     1     172.176 174.403 150.871  1.00  0.00    -0.000 C 
BRANCH  26  27
ATOM     27  C   UNL     1     171.801 174.263 152.361  1.00  0.00    -0.000 C 
BRANCH  27  28
ATOM     28  C   UNL     1     172.514 173.076 153.032  1.00  0.00    -0.000 C 
BRANCH  28  29
ATOM     29  C   UNL     1     173.683 173.512 153.930  1.00  0.00    -0.000 C 
BRANCH  29  30
ATOM     30  C   UNL     1     174.944 172.659 153.716  1.00  0.00    -0.000 C 
BRANCH  30  31
ATOM     31  C   UNL     1     175.430 171.990 155.011  1.00  0.00    -0.003 C 
ATOM     32  C   UNL     1     174.410 171.010 155.590  1.00  0.00     0.004 C 
ENDBRANCH  30  31
ENDBRANCH  29  30
ENDBRANCH  28  29
ENDBRANCH  27  28
ENDBRANCH  26  27
ENDBRANCH  25  26
ENDBRANCH  24  25
ENDBRANCH  23  24
ENDBRANCH  22  23
ENDBRANCH  21  22
ENDBRANCH  20  21
ENDBRANCH  19  20
ENDBRANCH  18  19
ENDBRANCH   1  18
TORSDOF 28
ENDMDL
MODEL 3
REMARK VINA RESULT:    -4.290      2.133      3.463
REMARK INTER + INTRA:         -16.028
REMARK INTER:                 -11.989
REMARK INTRA:                  -4.039
REMARK UNBOUND:                -4.716
REMARK SMILES CCCCCCCCCCCCCCCCCCCCCCCCCCCCCC(=O)[O-]
REMARK SMILES IDX 16 1 17 2 18 3 19 4 20 5 21 6 22 7 23 8 24 9 25 10 26 11
REMARK SMILES IDX 27 12 28 13 29 14 30 15 31 16 32 17 15 18 14 19 13 20 12 21
REMARK SMILES IDX 11 22 10 23 9 24 8 25 7 26 6 27 5 28 4 29 3 30 2 31 1 32
REMARK H PARENT
REMARK Flexibility Score: inf
ROOT
ATOM      1  C   UNL     1     174.553 165.640 150.650  1.00  0.00     0.000 C 
ENDROOT
BRANCH   1   2
ATOM      2  C   UNL     1     174.553 166.058 152.130  1.00  0.00     0.000 C 
BRANCH   2   3
ATOM      3  C   UNL     1     174.230 164.903 153.102  1.00  0.00     0.000 C 
BRANCH   3   4
ATOM      4  C   UNL     1     173.998 163.571 152.366  1.00  0.00     0.000 C 
BRANCH   4   5
ATOM      5  C   UNL     1     174.868 162.430 152.919  1.00  0.00     0.000 C 
BRANCH   5   6
ATOM      6  C   UNL     1     176.019 162.046 151.974  1.00  0.00     0.000 C 
BRANCH   6   7
ATOM      7  C   UNL     1     175.617 162.165 150.488  1.00  0.00     0.000 C 
BRANCH   7   8
ATOM      8  C   UNL     1     175.678 160.832 149.718  1.00  0.00     0.000 C 
BRANCH   8   9
ATOM      9  C   UNL     1     175.236 159.596 150.523  1.00  0.00     0.000 C 
BRANCH   9  10
ATOM     10  C   UNL     1     173.733 159.265 150.438  1.00  0.00     0.000 C 
BRANCH  10  11
ATOM     11  C   UNL     1     172.825 160.505 150.281  1.00  0.00     0.000 C 
BRANCH  11  12
ATOM     12  C   UNL     1     171.741 160.577 151.370  1.00  0.00     0.000 C 
BRANCH  12  13
ATOM     13  C   UNL     1     172.089 159.757 152.625  1.00  0.00     0.006 C 
BRANCH  13  14
ATOM     14  C   UNL     1     170.861 159.178 153.351  1.00  0.00     0.053 C 
BRANCH  14  15
ATOM     15  C   UNL     1     170.651 157.722 153.067  1.00  0.00     0.041 C 
ATOM     16  O   UNL     1     169.519 157.300 152.713  1.00  0.00    -0.550 OA
ATOM     17  O   UNL     1     171.696 156.822 153.236  1.00  0.00    -0.550 OA
ENDBRANCH  14  15
ENDBRANCH  13  14
ENDBRANCH  12  13
ENDBRANCH  11  12
ENDBRANCH  10  11
ENDBRANCH   9  10
ENDBRANCH   8   9
ENDBRANCH   7   8
ENDBRANCH   6   7
ENDBRANCH   5   6
ENDBRANCH   4   5
ENDBRANCH   3   4
ENDBRANCH   2   3
ENDBRANCH   1   2
BRANCH   1  18
ATOM     18  C   UNL     1     174.504 166.843 149.695  1.00  0.00     0.000 C 
BRANCH  18  19
ATOM     19  C   UNL     1     173.242 167.706 149.880  1.00  0.00     0.000 C 
BRANCH  19  20
ATOM     20  C   UNL     1     173.463 169.234 149.840  1.00  0.00     0.000 C 
BRANCH  20  21
ATOM     21  C   UNL     1     174.869 169.709 150.267  1.00  0.00     0.000 C 
BRANCH  21  22
ATOM     22  C   UNL     1     175.059 169.834 151.795  1.00  0.00     0.000 C 
BRANCH  22  23
ATOM     23  C   UNL     1     173.810 170.327 152.551  1.00  0.00     0.000 C 
BRANCH  23  24
ATOM     24  C   UNL     1     173.803 169.970 154.051  1.00  0.00    -0.000 C 
BRANCH  24  25
ATOM     25  C   UNL     1     173.364 171.154 154.929  1.00  0.00    -0.000 C 
BRANCH  25  26
ATOM     26  C   UNL     1     174.533 172.066 155.335  1.00  0.00    -0.000 C 
BRANCH  26  27
ATOM     27  C   UNL     1     174.539 173.425 154.605  1.00  0.00    -0.000 C 
BRANCH  27  28
ATOM     28  C   UNL     1     175.598 173.484 153.491  1.00  0.00    -0.000 C 
BRANCH  28  29
ATOM     29  C   UNL     1     175.113 174.245 152.247  1.00  0.00    -0.000 C 
BRANCH  29  30
ATOM     30  C   UNL     1     173.612 174.047 151.980  1.00  0.00    -0.000 C 
BRANCH  30  31
ATOM     31  C   UNL     1     173.336 173.413 150.607  1.00  0.00    -0.003 C 
ATOM     32  C   UNL     1     174.553 173.448 149.683  1.00  0.00     0.004 C 
ENDBRANCH  30  31
ENDBRANCH  29  30
ENDBRANCH  28  29
ENDBRANCH  27  28
ENDBRANCH  26  27
ENDBRANCH  25  26
ENDBRANCH  24  25
ENDBRANCH  23  24
ENDBRANCH  22  23
ENDBRANCH  21  22
ENDBRANCH  20  21
ENDBRANCH  19  20
ENDBRANCH  18  19
ENDBRANCH   1  18
TORSDOF 28
ENDMDL
MODEL 4
REMARK VINA RESULT:    -4.261      2.532      3.741
REMARK INTER + INTRA:         -15.951
REMARK INTER:                 -12.333
REMARK INTRA:                  -3.618
REMARK UNBOUND:                -4.716
REMARK SMILES CCCCCCCCCCCCCCCCCCCCCCCCCCCCCC(=O)[O-]
REMARK SMILES IDX 16 1 17 2 18 3 19 4 20 5 21 6 22 7 23 8 24 9 25 10 26 11
REMARK SMILES IDX 27 12 28 13 29 14 30 15 31 16 32 17 15 18 14 19 13 20 12 21
REMARK SMILES IDX 11 22 10 23 9 24 8 25 7 26 6 27 5 28 4 29 3 30 2 31 1 32
REMARK H PARENT
REMARK Flexibility Score: inf
ROOT
ATOM      1  C   UNL     1     173.054 166.335 150.386  1.00  0.00     0.000 C 
ENDROOT
BRANCH   1   2
ATOM      2  C   UNL     1     173.422 165.182 151.334  1.00  0.00     0.000 C 
BRANCH   2   3
ATOM      3  C   UNL     1     174.926 164.835 151.337  1.00  0.00     0.000 C 
BRANCH   3   4
ATOM      4  C   UNL     1     175.172 163.315 151.350  1.00  0.00     0.000 C 
BRANCH   4   5
ATOM      5  C   UNL     1     173.891 162.511 151.618  1.00  0.00     0.000 C 
BRANCH   5   6
ATOM      6  C   UNL     1     173.466 161.648 150.417  1.00  0.00     0.000 C 
BRANCH   6   7
ATOM      7  C   UNL     1     174.624 160.774 149.890  1.00  0.00     0.000 C 
BRANCH   7   8
ATOM      8  C   UNL     1     174.380 159.260 150.039  1.00  0.00     0.000 C 
BRANCH   8   9
ATOM      9  C   UNL     1     173.445 158.864 151.196  1.00  0.00     0.000 C 
BRANCH   9  10
ATOM     10  C   UNL     1     172.335 157.860 150.824  1.00  0.00     0.000 C 
BRANCH  10  11
ATOM     11  C   UNL     1     170.987 158.126 151.529  1.00  0.00     0.000 C 
BRANCH  11  12
ATOM     12  C   UNL     1     170.203 159.276 150.874  1.00  0.00     0.000 C 
BRANCH  12  13
ATOM     13  C   UNL     1     170.119 159.156 149.342  1.00  0.00     0.006 C 
BRANCH  13  14
ATOM     14  C   UNL     1     169.965 160.506 148.619  1.00  0.00     0.053 C 
BRANCH  14  15
ATOM     15  C   UNL     1     169.061 161.455 149.346  1.00  0.00     0.041 C 
ATOM     16  O   UNL     1     167.823 161.238 149.400  1.00  0.00    -0.550 OA
ATOM     17  O   UNL     1     169.582 162.604 149.929  1.00  0.00    -0.550 OA
ENDBRANCH  14  15
ENDBRANCH  13  14
ENDBRANCH  12  13
ENDBRANCH  11  12
ENDBRANCH  10  11
ENDBRANCH   9  10
ENDBRANCH   8   9
ENDBRANCH   7   8
ENDBRANCH   6   7
ENDBRANCH   5   6
ENDBRANCH   4   5
ENDBRANCH   3   4
ENDBRANCH   2   3
ENDBRANCH   1   2
BRANCH   1  18
ATOM     18  C   UNL     1     174.283 166.961 149.709  1.00  0.00     0.000 C 
BRANCH  18  19
ATOM     19  C   UNL     1     174.171 168.490 149.555  1.00  0.00     0.000 C 
BRANCH  19  20
ATOM     20  C   UNL     1     175.471 169.286 149.804  1.00  0.00     0.000 C 
BRANCH  20  21
ATOM     21  C   UNL     1     175.278 170.706 150.375  1.00  0.00     0.000 C 
BRANCH  21  22
ATOM     22  C   UNL     1     173.801 171.125 150.545  1.00  0.00     0.000 C 
BRANCH  22  23
ATOM     23  C   UNL     1     173.480 172.542 150.031  1.00  0.00     0.000 C 
BRANCH  23  24
ATOM     24  C   UNL     1     174.701 173.483 149.978  1.00  0.00    -0.000 C 
BRANCH  24  25
ATOM     25  C   UNL     1     174.953 174.185 151.323  1.00  0.00    -0.000 C 
BRANCH  25  26
ATOM     26  C   UNL     1     173.709 174.216 152.226  1.00  0.00    -0.000 C 
BRANCH  26  27
ATOM     27  C   UNL     1     173.964 173.674 153.648  1.00  0.00    -0.000 C 
BRANCH  27  28
ATOM     28  C   UNL     1     175.340 172.996 153.775  1.00  0.00    -0.000 C 
BRANCH  28  29
ATOM     29  C   UNL     1     175.328 171.798 154.738  1.00  0.00    -0.000 C 
BRANCH  29  30
ATOM     30  C   UNL     1     174.542 170.599 154.182  1.00  0.00    -0.000 C 
BRANCH  30  31
ATOM     31  C   UNL     1     175.294 169.270 154.355  1.00  0.00    -0.003 C 
ATOM     32  C   UNL     1     174.964 168.256 153.261  1.00  0.00     0.004 C 
ENDBRANCH  30  31
ENDBRANCH  29  30
ENDBRANCH  28  29
ENDBRANCH  27  28
ENDBRANCH  26  27
ENDBRANCH  25  26
ENDBRANCH  24  25
ENDBRANCH  23  24
ENDBRANCH  22  23
ENDBRANCH  21  22
ENDBRANCH  20  21
ENDBRANCH  19  20
ENDBRANCH  18  19
ENDBRANCH   1  18
TORSDOF 28
ENDMDL
MODEL 5
REMARK VINA RESULT:    -4.256      4.802      9.747
REMARK INTER + INTRA:         -15.939
REMARK INTER:                 -10.500
REMARK INTRA:                  -5.439
REMARK UNBOUND:                -4.716
REMARK SMILES CCCCCCCCCCCCCCCCCCCCCCCCCCCCCC(=O)[O-]
REMARK SMILES IDX 16 1 17 2 18 3 19 4 20 5 21 6 22 7 23 8 24 9 25 10 26 11
REMARK SMILES IDX 27 12 28 13 29 14 30 15 31 16 32 17 15 18 14 19 13 20 12 21
REMARK SMILES IDX 11 22 10 23 9 24 8 25 7 26 6 27 5 28 4 29 3 30 2 31 1 32
REMARK H PARENT
REMARK Flexibility Score: inf
ROOT
ATOM      1  C   UNL     1     171.339 170.205 152.071  1.00  0.00     0.000 C 
ENDROOT
BRANCH   1   2
ATOM      2  C   UNL     1     171.561 171.212 153.211  1.00  0.00     0.000 C 
BRANCH   2   3
ATOM      3  C   UNL     1     173.036 171.625 153.398  1.00  0.00     0.000 C 
BRANCH   3   4
ATOM      4  C   UNL     1     173.211 172.669 154.516  1.00  0.00     0.000 C 
BRANCH   4   5
ATOM      5  C   UNL     1     174.496 173.496 154.358  1.00  0.00     0.000 C 
BRANCH   5   6
ATOM      6  C   UNL     1     175.276 173.150 153.079  1.00  0.00     0.000 C 
BRANCH   6   7
ATOM      7  C   UNL     1     175.184 174.270 152.020  1.00  0.00     0.000 C 
BRANCH   7   8
ATOM      8  C   UNL     1     174.828 173.764 150.609  1.00  0.00     0.000 C 
BRANCH   8   9
ATOM      9  C   UNL     1     173.355 173.950 150.204  1.00  0.00     0.000 C 
BRANCH   9  10
ATOM     10  C   UNL     1     172.408 174.347 151.353  1.00  0.00     0.000 C 
BRANCH  10  11
ATOM     11  C   UNL     1     171.093 175.008 150.883  1.00  0.00     0.000 C 
BRANCH  11  12
ATOM     12  C   UNL     1     169.858 174.410 151.577  1.00  0.00     0.000 C 
BRANCH  12  13
ATOM     13  C   UNL     1     169.192 173.286 150.762  1.00  0.00     0.006 C 
BRANCH  13  14
ATOM     14  C   UNL     1     167.657 173.385 150.703  1.00  0.00     0.053 C 
BRANCH  14  15
ATOM     15  C   UNL     1     167.152 173.785 149.349  1.00  0.00     0.041 C 
ATOM     16  O   UNL     1     167.400 174.931 148.892  1.00  0.00    -0.550 OA
ATOM     17  O   UNL     1     166.371 172.905 148.611  1.00  0.00    -0.550 OA
ENDBRANCH  14  15
ENDBRANCH  13  14
ENDBRANCH  12  13
ENDBRANCH  11  12
ENDBRANCH  10  11
ENDBRANCH   9  10
ENDBRANCH   8   9
ENDBRANCH   7   8
ENDBRANCH   6   7
ENDBRANCH   5   6
ENDBRANCH   4   5
ENDBRANCH   3   4
ENDBRANCH   2   3
ENDBRANCH   1   2
BRANCH   1  18
ATOM     18  C   UNL     1     171.752 170.761 150.700  1.00  0.00     0.000 C 
BRANCH  18  19
ATOM     19  C   UNL     1     172.756 169.855 149.961  1.00  0.00     0.000 C 
BRANCH  19  20
ATOM     20  C   UNL     1     174.246 170.213 150.150  1.00  0.00     0.000 C 
BRANCH  20  21
ATOM     21  C   UNL     1     175.242 169.064 149.883  1.00  0.00     0.000 C 
BRANCH  21  22
ATOM     22  C   UNL     1     174.655 167.896 149.061  1.00  0.00     0.000 C 
BRANCH  22  23
ATOM     23  C   UNL     1     174.619 166.549 149.809  1.00  0.00     0.000 C 
BRANCH  23  24
ATOM     24  C   UNL     1     173.487 166.440 150.851  1.00  0.00    -0.000 C 
BRANCH  24  25
ATOM     25  C   UNL     1     173.919 165.651 152.098  1.00  0.00    -0.000 C 
BRANCH  25  26
ATOM     26  C   UNL     1     174.635 166.525 153.142  1.00  0.00    -0.000 C 
BRANCH  26  27
ATOM     27  C   UNL     1     174.177 167.998 153.135  1.00  0.00    -0.000 C 
BRANCH  27  28
ATOM     28  C   UNL     1     175.252 168.944 153.697  1.00  0.00    -0.000 C 
BRANCH  28  29
ATOM     29  C   UNL     1     175.132 169.148 155.216  1.00  0.00    -0.000 C 
BRANCH  29  30
ATOM     30  C   UNL     1     175.939 170.358 155.715  1.00  0.00    -0.000 C 
BRANCH  30  31
ATOM     31  C   UNL     1     175.867 170.525 157.242  1.00  0.00    -0.003 C 
ATOM     32  C   UNL     1     174.995 171.705 157.668  1.00  0.00     0.004 C 
ENDBRANCH  30  31
ENDBRANCH  29  30
ENDBRANCH  28  29
ENDBRANCH  27  28
ENDBRANCH  26  27
ENDBRANCH  25  26
ENDBRANCH  24  25
ENDBRANCH  23  24
ENDBRANCH  22  23
ENDBRANCH  21  22
ENDBRANCH  20  21
ENDBRANCH  19  20
ENDBRANCH  18  19
ENDBRANCH   1  18
TORSDOF 28
ENDMDL
MODEL 6
REMARK VINA RESULT:    -4.253      1.519      2.609
REMARK INTER + INTRA:         -15.930
REMARK INTER:                 -11.444
REMARK INTRA:                  -4.486
REMARK UNBOUND:                -4.716
REMARK SMILES CCCCCCCCCCCCCCCCCCCCCCCCCCCCCC(=O)[O-]
REMARK SMILES IDX 16 1 17 2 18 3 19 4 20 5 21 6 22 7 23 8 24 9 25 10 26 11
REMARK SMILES IDX 27 12 28 13 29 14 30 15 31 16 32 17 15 18 14 19 13 20 12 21
REMARK SMILES IDX 11 22 10 23 9 24 8 25 7 26 6 27 5 28 4 29 3 30 2 31 1 32
REMARK H PARENT
REMARK Flexibility Score: inf
ROOT
ATOM      1  C   UNL     1     174.102 165.008 151.976  1.00  0.00     0.000 C 
ENDROOT
BRANCH   1   2
ATOM      2  C   UNL     1     174.593 164.009 150.916  1.00  0.00     0.000 C 
BRANCH   2   3
ATOM      3  C   UNL     1     175.912 163.302 151.292  1.00  0.00     0.000 C 
BRANCH   3   4
ATOM      4  C   UNL     1     176.105 161.983 150.520  1.00  0.00     0.000 C 
BRANCH   4   5
ATOM      5  C   UNL     1     174.773 161.357 150.077  1.00  0.00     0.000 C 
BRANCH   5   6
ATOM      6  C   UNL     1     174.768 159.823 150.188  1.00  0.00     0.000 C 
BRANCH   6   7
ATOM      7  C   UNL     1     173.342 159.238 150.105  1.00  0.00     0.000 C 
BRANCH   7   8
ATOM      8  C   UNL     1     172.853 158.602 151.420  1.00  0.00     0.000 C 
BRANCH   8   9
ATOM      9  C   UNL     1     171.690 159.342 152.106  1.00  0.00     0.000 C 
BRANCH   9  10
ATOM     10  C   UNL     1     171.471 160.793 151.635  1.00  0.00     0.000 C 
BRANCH  10  11
ATOM     11  C   UNL     1     172.037 161.858 152.599  1.00  0.00     0.000 C 
BRANCH  11  12
ATOM     12  C   UNL     1     172.724 161.232 153.824  1.00  0.00     0.000 C 
BRANCH  12  13
ATOM     13  C   UNL     1     174.243 161.481 153.859  1.00  0.00     0.006 C 
BRANCH  13  14
ATOM     14  C   UNL     1     175.083 160.194 153.952  1.00  0.00     0.053 C 
BRANCH  14  15
ATOM     15  C   UNL     1     174.607 159.265 155.027  1.00  0.00     0.041 C 
ATOM     16  O   UNL     1     174.725 159.583 156.239  1.00  0.00    -0.550 OA
ATOM     17  O   UNL     1     174.072 158.028 154.691  1.00  0.00    -0.550 OA
ENDBRANCH  14  15
ENDBRANCH  13  14
ENDBRANCH  12  13
ENDBRANCH  11  12
ENDBRANCH  10  11
ENDBRANCH   9  10
ENDBRANCH   8   9
ENDBRANCH   7   8
ENDBRANCH   6   7
ENDBRANCH   5   6
ENDBRANCH   4   5
ENDBRANCH   3   4
ENDBRANCH   2   3
ENDBRANCH   1   2
BRANCH   1  18
ATOM     18  C   UNL     1     174.297 166.471 151.548  1.00  0.00     0.000 C 
BRANCH  18  19
ATOM     19  C   UNL     1     174.359 166.646 150.018  1.00  0.00     0.000 C 
BRANCH  19  20
ATOM     20  C   UNL     1     174.576 168.091 149.518  1.00  0.00     0.000 C 
BRANCH  20  21
ATOM     21  C   UNL     1     175.343 169.017 150.486  1.00  0.00     0.000 C 
BRANCH  21  22
ATOM     22  C   UNL     1     175.024 170.518 150.314  1.00  0.00     0.000 C 
BRANCH  22  23
ATOM     23  C   UNL     1     173.519 170.852 150.320  1.00  0.00     0.000 C 
BRANCH  23  24
ATOM     24  C   UNL     1     173.204 172.335 150.040  1.00  0.00    -0.000 C 
BRANCH  24  25
ATOM     25  C   UNL     1     174.474 173.161 149.776  1.00  0.00    -0.000 C 
BRANCH  25  26
ATOM     26  C   UNL     1     174.836 174.094 150.944  1.00  0.00    -0.000 C 
BRANCH  26  27
ATOM     27  C   UNL     1     173.706 174.252 151.982  1.00  0.00    -0.000 C 
BRANCH  27  28
ATOM     28  C   UNL     1     174.157 173.855 153.399  1.00  0.00    -0.000 C 
BRANCH  28  29
ATOM     29  C   UNL     1     175.161 172.691 153.400  1.00  0.00    -0.000 C 
BRANCH  29  30
ATOM     30  C   UNL     1     175.029 171.798 154.646  1.00  0.00    -0.000 C 
BRANCH  30  31
ATOM     31  C   UNL     1     174.177 170.546 154.386  1.00  0.00    -0.003 C 
ATOM     32  C   UNL     1     175.017 169.327 154.003  1.00  0.00     0.004 C 
ENDBRANCH  30  31
ENDBRANCH  29  30
ENDBRANCH  28  29
ENDBRANCH  27  28
ENDBRANCH  26  27
ENDBRANCH  25  26
ENDBRANCH  24  25
ENDBRANCH  23  24
ENDBRANCH  22  23
ENDBRANCH  21  22
ENDBRANCH  20  21
ENDBRANCH  19  20
ENDBRANCH  18  19
ENDBRANCH   1  18
TORSDOF 28
ENDMDL
MODEL 7
REMARK VINA RESULT:    -4.212      1.720      2.475
REMARK INTER + INTRA:         -15.823
REMARK INTER:                 -11.712
REMARK INTRA:                  -4.112
REMARK UNBOUND:                -4.716
REMARK SMILES CCCCCCCCCCCCCCCCCCCCCCCCCCCCCC(=O)[O-]
REMARK SMILES IDX 16 1 17 2 18 3 19 4 20 5 21 6 22 7 23 8 24 9 25 10 26 11
REMARK SMILES IDX 27 12 28 13 29 14 30 15 31 16 32 17 15 18 14 19 13 20 12 21
REMARK SMILES IDX 11 22 10 23 9 24 8 25 7 26 6 27 5 28 4 29 3 30 2 31 1 32
REMARK H PARENT
REMARK Flexibility Score: inf
ROOT
ATOM      1  C   UNL     1     173.248 164.916 152.113  1.00  0.00     0.000 C 
ENDROOT
BRANCH   1   2
ATOM      2  C   UNL     1     173.805 163.546 151.693  1.00  0.00     0.000 C 
BRANCH   2   3
ATOM      3  C   UNL     1     174.829 162.959 152.688  1.00  0.00     0.000 C 
BRANCH   3   4
ATOM      4  C   UNL     1     175.869 162.063 151.991  1.00  0.00     0.000 C 
BRANCH   4   5
ATOM      5  C   UNL     1     175.817 162.177 150.459  1.00  0.00     0.000 C 
BRANCH   5   6
ATOM      6  C   UNL     1     175.739 160.809 149.761  1.00  0.00     0.000 C 
BRANCH   6   7
ATOM      7  C   UNL     1     175.143 159.720 150.679  1.00  0.00     0.000 C 
BRANCH   7   8
ATOM      8  C   UNL     1     173.640 159.467 150.450  1.00  0.00     0.000 C 
BRANCH   8   9
ATOM      9  C   UNL     1     172.876 158.938 151.677  1.00  0.00     0.000 C 
BRANCH   9  10
ATOM     10  C   UNL     1     173.063 159.759 152.967  1.00  0.00     0.000 C 
BRANCH  10  11
ATOM     11  C   UNL     1     173.720 158.973 154.122  1.00  0.00     0.000 C 
BRANCH  11  12
ATOM     12  C   UNL     1     175.060 159.588 154.560  1.00  0.00     0.000 C 
BRANCH  12  13
ATOM     13  C   UNL     1     174.902 160.684 155.629  1.00  0.00     0.006 C 
BRANCH  13  14
ATOM     14  C   UNL     1     175.469 160.298 157.007  1.00  0.00     0.053 C 
BRANCH  14  15
ATOM     15  C   UNL     1     174.444 159.669 157.901  1.00  0.00     0.041 C 
ATOM     16  O   UNL     1     174.179 158.443 157.800  1.00  0.00    -0.550 OA
ATOM     17  O   UNL     1     173.750 160.447 158.818  1.00  0.00    -0.550 OA
ENDBRANCH  14  15
ENDBRANCH  13  14
ENDBRANCH  12  13
ENDBRANCH  11  12
ENDBRANCH  10  11
ENDBRANCH   9  10
ENDBRANCH   8   9
ENDBRANCH   7   8
ENDBRANCH   6   7
ENDBRANCH   5   6
ENDBRANCH   4   5
ENDBRANCH   3   4
ENDBRANCH   2   3
ENDBRANCH   1   2
BRANCH   1  18
ATOM     18  C   UNL     1     174.174 166.078 151.722  1.00  0.00     0.000 C 
BRANCH  18  19
ATOM     19  C   UNL     1     174.647 166.002 150.257  1.00  0.00     0.000 C 
BRANCH  19  20
ATOM     20  C   UNL     1     174.294 167.221 149.376  1.00  0.00     0.000 C 
BRANCH  20  21
ATOM     21  C   UNL     1     172.804 167.623 149.371  1.00  0.00     0.000 C 
BRANCH  21  22
ATOM     22  C   UNL     1     172.550 169.118 149.666  1.00  0.00     0.000 C 
BRANCH  22  23
ATOM     23  C   UNL     1     173.577 169.760 150.618  1.00  0.00     0.000 C 
BRANCH  23  24
ATOM     24  C   UNL     1     174.132 171.111 150.124  1.00  0.00    -0.000 C 
BRANCH  24  25
ATOM     25  C   UNL     1     173.014 172.104 149.765  1.00  0.00    -0.000 C 
BRANCH  25  26
ATOM     26  C   UNL     1     173.342 173.551 150.170  1.00  0.00    -0.000 C 
BRANCH  26  27
ATOM     27  C   UNL     1     174.855 173.839 150.262  1.00  0.00    -0.000 C 
BRANCH  27  28
ATOM     28  C   UNL     1     175.260 174.388 151.641  1.00  0.00    -0.000 C 
BRANCH  28  29
ATOM     29  C   UNL     1     174.370 173.861 152.778  1.00  0.00    -0.000 C 
BRANCH  29  30
ATOM     30  C   UNL     1     174.956 172.610 153.455  1.00  0.00    -0.000 C 
BRANCH  30  31
ATOM     31  C   UNL     1     173.871 171.609 153.883  1.00  0.00    -0.003 C 
ATOM     32  C   UNL     1     172.467 172.042 153.462  1.00  0.00     0.004 C 
ENDBRANCH  30  31
ENDBRANCH  29  30
ENDBRANCH  28  29
ENDBRANCH  27  28
ENDBRANCH  26  27
ENDBRANCH  25  26
ENDBRANCH  24  25
ENDBRANCH  23  24
ENDBRANCH  22  23
ENDBRANCH  21  22
ENDBRANCH  20  21
ENDBRANCH  19  20
ENDBRANCH  18  19
ENDBRANCH   1  18
TORSDOF 28
ENDMDL
MODEL 8
REMARK VINA RESULT:    -4.204      2.191      3.941
REMARK INTER + INTRA:         -15.802
REMARK INTER:                 -10.866
REMARK INTRA:                  -4.937
REMARK UNBOUND:                -4.716
REMARK SMILES CCCCCCCCCCCCCCCCCCCCCCCCCCCCCC(=O)[O-]
REMARK SMILES IDX 16 1 17 2 18 3 19 4 20 5 21 6 22 7 23 8 24 9 25 10 26 11
REMARK SMILES IDX 27 12 28 13 29 14 30 15 31 16 32 17 15 18 14 19 13 20 12 21
REMARK SMILES IDX 11 22 10 23 9 24 8 25 7 26 6 27 5 28 4 29 3 30 2 31 1 32
REMARK H PARENT
REMARK Flexibility Score: inf
ROOT
ATOM      1  C   UNL     1     173.641 167.455 148.474  1.00  0.00     0.000 C 
ENDROOT
BRANCH   1   2
ATOM      2  C   UNL     1     172.393 168.103 149.095  1.00  0.00     0.000 C 
BRANCH   2   3
ATOM      3  C   UNL     1     171.285 167.092 149.462  1.00  0.00     0.000 C 
BRANCH   3   4
ATOM      4  C   UNL     1     171.218 166.828 150.978  1.00  0.00     0.000 C 
BRANCH   4   5
ATOM      5  C   UNL     1     172.242 165.780 151.441  1.00  0.00     0.000 C 
BRANCH   5   6
ATOM      6  C   UNL     1     173.206 166.320 152.512  1.00  0.00     0.000 C 
BRANCH   6   7
ATOM      7  C   UNL     1     174.628 165.739 152.361  1.00  0.00     0.000 C 
BRANCH   7   8
ATOM      8  C   UNL     1     174.808 164.848 151.117  1.00  0.00     0.000 C 
BRANCH   8   9
ATOM      9  C   UNL     1     175.398 163.454 151.395  1.00  0.00     0.000 C 
BRANCH   9  10
ATOM     10  C   UNL     1     174.841 162.321 150.512  1.00  0.00     0.000 C 
BRANCH  10  11
ATOM     11  C   UNL     1     173.319 162.104 150.655  1.00  0.00     0.000 C 
BRANCH  11  12
ATOM     12  C   UNL     1     172.864 160.751 150.082  1.00  0.00     0.000 C 
BRANCH  12  13
ATOM     13  C   UNL     1     173.543 159.548 150.762  1.00  0.00     0.006 C 
BRANCH  13  14
ATOM     14  C   UNL     1     172.877 158.197 150.446  1.00  0.00     0.053 C 
BRANCH  14  15
ATOM     15  C   UNL     1     171.770 157.858 151.397  1.00  0.00     0.041 C 
ATOM     16  O   UNL     1     171.981 157.086 152.369  1.00  0.00    -0.550 OA
ATOM     17  O   UNL     1     170.492 158.359 151.185  1.00  0.00    -0.550 OA
ENDBRANCH  14  15
ENDBRANCH  13  14
ENDBRANCH  12  13
ENDBRANCH  11  12
ENDBRANCH  10  11
ENDBRANCH   9  10
ENDBRANCH   8   9
ENDBRANCH   7   8
ENDBRANCH   6   7
ENDBRANCH   5   6
ENDBRANCH   4   5
ENDBRANCH   3   4
ENDBRANCH   2   3
ENDBRANCH   1   2
BRANCH   1  18
ATOM     18  C   UNL     1     174.940 167.878 149.177  1.00  0.00     0.000 C 
BRANCH  18  19
ATOM     19  C   UNL     1     174.715 168.950 150.261  1.00  0.00     0.000 C 
BRANCH  19  20
ATOM     20  C   UNL     1     175.677 170.157 150.219  1.00  0.00     0.000 C 
BRANCH  20  21
ATOM     21  C   UNL     1     174.998 171.541 150.142  1.00  0.00     0.000 C 
BRANCH  21  22
ATOM     22  C   UNL     1     173.456 171.488 150.085  1.00  0.00     0.000 C 
BRANCH  22  23
ATOM     23  C   UNL     1     172.763 172.832 150.381  1.00  0.00     0.000 C 
BRANCH  23  24
ATOM     24  C   UNL     1     172.171 172.935 151.801  1.00  0.00    -0.000 C 
BRANCH  24  25
ATOM     25  C   UNL     1     170.971 171.994 152.001  1.00  0.00    -0.000 C 
BRANCH  25  26
ATOM     26  C   UNL     1     171.115 171.093 153.240  1.00  0.00    -0.000 C 
BRANCH  26  27
ATOM     27  C   UNL     1     172.049 169.885 153.021  1.00  0.00    -0.000 C 
BRANCH  27  28
ATOM     28  C   UNL     1     173.143 169.793 154.099  1.00  0.00    -0.000 C 
BRANCH  28  29
ATOM     29  C   UNL     1     174.475 170.416 153.652  1.00  0.00    -0.000 C 
BRANCH  29  30
ATOM     30  C   UNL     1     175.117 171.286 154.746  1.00  0.00    -0.000 C 
BRANCH  30  31
ATOM     31  C   UNL     1     174.762 172.774 154.599  1.00  0.00    -0.003 C 
ATOM     32  C   UNL     1     175.417 173.422 153.381  1.00  0.00     0.004 C 
ENDBRANCH  30  31
ENDBRANCH  29  30
ENDBRANCH  28  29
ENDBRANCH  27  28
ENDBRANCH  26  27
ENDBRANCH  25  26
ENDBRANCH  24  25
ENDBRANCH  23  24
ENDBRANCH  22  23
ENDBRANCH  21  22
ENDBRANCH  20  21
ENDBRANCH  19  20
ENDBRANCH  18  19
ENDBRANCH   1  18
TORSDOF 28
ENDMDL
MODEL 9
REMARK VINA RESULT:    -4.166      1.833      2.634
REMARK INTER + INTRA:         -15.702
REMARK INTER:                 -11.886
REMARK INTRA:                  -3.816
REMARK UNBOUND:                -4.716
REMARK SMILES CCCCCCCCCCCCCCCCCCCCCCCCCCCCCC(=O)[O-]
REMARK SMILES IDX 16 1 17 2 18 3 19 4 20 5 21 6 22 7 23 8 24 9 25 10 26 11
REMARK SMILES IDX 27 12 28 13 29 14 30 15 31 16 32 17 15 18 14 19 13 20 12 21
REMARK SMILES IDX 11 22 10 23 9 24 8 25 7 26 6 27 5 28 4 29 3 30 2 31 1 32
REMARK H PARENT
REMARK Flexibility Score: inf
ROOT
ATOM      1  C   UNL     1     173.817 165.966 151.075  1.00  0.00     0.000 C 
ENDROOT
BRANCH   1   2
ATOM      2  C   UNL     1     174.999 165.003 150.876  1.00  0.00     0.000 C 
BRANCH   2   3
ATOM      3  C   UNL     1     174.669 163.535 151.220  1.00  0.00     0.000 C 
BRANCH   3   4
ATOM      4  C   UNL     1     173.253 163.378 151.805  1.00  0.00     0.000 C 
BRANCH   4   5
ATOM      5  C   UNL     1     172.372 162.432 150.975  1.00  0.00     0.000 C 
BRANCH   5   6
ATOM      6  C   UNL     1     173.187 161.532 150.030  1.00  0.00     0.000 C 
BRANCH   6   7
ATOM      7  C   UNL     1     172.870 160.035 150.235  1.00  0.00     0.000 C 
BRANCH   7   8
ATOM      8  C   UNL     1     174.119 159.133 150.262  1.00  0.00     0.000 C 
BRANCH   8   9
ATOM      9  C   UNL     1     175.453 159.876 150.451  1.00  0.00     0.000 C 
BRANCH   9  10
ATOM     10  C   UNL     1     176.124 159.674 151.824  1.00  0.00     0.000 C 
BRANCH  10  11
ATOM     11  C   UNL     1     176.039 160.905 152.752  1.00  0.00     0.000 C 
BRANCH  11  12
ATOM     12  C   UNL     1     175.285 160.602 154.058  1.00  0.00     0.000 C 
BRANCH  12  13
ATOM     13  C   UNL     1     173.795 160.284 153.836  1.00  0.00     0.006 C 
BRANCH  13  14
ATOM     14  C   UNL     1     173.127 159.570 155.025  1.00  0.00     0.053 C 
BRANCH  14  15
ATOM     15  C   UNL     1     173.080 158.081 154.858  1.00  0.00     0.041 C 
ATOM     16  O   UNL     1     172.091 157.535 154.303  1.00  0.00    -0.550 OA
ATOM     17  O   UNL     1     174.110 157.292 155.354  1.00  0.00    -0.550 OA
ENDBRANCH  14  15
ENDBRANCH  13  14
ENDBRANCH  12  13
ENDBRANCH  11  12
ENDBRANCH  10  11
ENDBRANCH   9  10
ENDBRANCH   8   9
ENDBRANCH   7   8
ENDBRANCH   6   7
ENDBRANCH   5   6
ENDBRANCH   4   5
ENDBRANCH   3   4
ENDBRANCH   2   3
ENDBRANCH   1   2
BRANCH   1  18
ATOM     18  C   UNL     1     173.635 166.933 149.894  1.00  0.00     0.000 C 
BRANCH  18  19
ATOM     19  C   UNL     1     174.638 168.103 149.916  1.00  0.00     0.000 C 
BRANCH  19  20
ATOM     20  C   UNL     1     175.005 168.645 151.314  1.00  0.00     0.000 C 
BRANCH  20  21
ATOM     21  C   UNL     1     175.026 170.183 151.443  1.00  0.00     0.000 C 
BRANCH  21  22
ATOM     22  C   UNL     1     174.674 170.932 150.140  1.00  0.00     0.000 C 
BRANCH  22  23
ATOM     23  C   UNL     1     173.282 171.594 150.145  1.00  0.00     0.000 C 
BRANCH  23  24
ATOM     24  C   UNL     1     173.295 173.087 149.759  1.00  0.00    -0.000 C 
BRANCH  24  25
ATOM     25  C   UNL     1     174.501 173.832 150.356  1.00  0.00    -0.000 C 
BRANCH  25  26
ATOM     26  C   UNL     1     174.285 174.249 151.820  1.00  0.00    -0.000 C 
BRANCH  26  27
ATOM     27  C   UNL     1     175.471 173.903 152.743  1.00  0.00    -0.000 C 
BRANCH  27  28
ATOM     28  C   UNL     1     175.008 173.364 154.108  1.00  0.00    -0.000 C 
BRANCH  28  29
ATOM     29  C   UNL     1     173.766 172.464 154.004  1.00  0.00    -0.000 C 
BRANCH  29  30
ATOM     30  C   UNL     1     173.912 171.160 154.806  1.00  0.00    -0.000 C 
BRANCH  30  31
ATOM     31  C   UNL     1     175.377 170.834 155.139  1.00  0.00    -0.003 C 
ATOM     32  C   UNL     1     175.600 170.566 156.627  1.00  0.00     0.004 C 
ENDBRANCH  30  31
ENDBRANCH  29  30
ENDBRANCH  28  29
ENDBRANCH  27  28
ENDBRANCH  26  27
ENDBRANCH  25  26
ENDBRANCH  24  25
ENDBRANCH  23  24
ENDBRANCH  22  23
ENDBRANCH  21  22
ENDBRANCH  20  21
ENDBRANCH  19  20
ENDBRANCH  18  19
ENDBRANCH   1  18
TORSDOF 28
ENDMDL
