MODEL 1
REMARK VINA RESULT:    -8.268      0.000      0.000
REMARK INTER + INTRA:         -10.139
REMARK INTER:                  -9.960
REMARK INTRA:                  -0.179
REMARK UNBOUND:                -0.179
REMARK SMILES O=c1c(O)c(-c2ccc(O)cc2O)oc2cc(O)cc(O)c12
REMARK SMILES IDX 5 1 3 2 2 3 1 4 22 5 20 6 19 7 17 8 16 9 15 10 14 11 6 12
REMARK SMILES IDX 8 13 7 14 9 15 11 16 12 17 10 18 13 20 4 22 21 24 18 26
REMARK H PARENT 10 19 13 21 4 23 21 25 18 27
REMARK Flexibility Score: inf
ROOT
ATOM      1  C   UNL     1       3.338   2.709  17.224  1.00  0.00     0.184 A 
ATOM      2  C   UNL     1       2.879   2.209  15.996  1.00  0.00     0.208 A 
ATOM      3  C   UNL     1       3.302   0.937  15.578  1.00  0.00     0.238 A 
ATOM      4  O   UNL     1       2.844   0.471  14.503  1.00  0.00    -0.285 OA
ATOM      5  C   UNL     1       4.191   0.190  16.389  1.00  0.00     0.111 A 
ATOM      6  C   UNL     1       4.717  -1.092  16.046  1.00  0.00     0.134 A 
ATOM      7  C   UNL     1       5.486  -1.795  16.982  1.00  0.00     0.093 A 
ATOM      8  C   UNL     1       5.803  -1.234  18.222  1.00  0.00     0.123 A 
ATOM      9  C   UNL     1       5.344   0.042  18.542  1.00  0.00     0.094 A 
ATOM     10  C   UNL     1       4.544   0.752  17.644  1.00  0.00     0.146 A 
ATOM     11  O   UNL     1       4.119   1.961  17.994  1.00  0.00    -0.451 OA
ENDROOT
BRANCH   1  12
ATOM     12  C   UNL     1       2.945   4.048  17.713  1.00  0.00     0.063 A 
ATOM     13  C   UNL     1       1.939   5.407  19.461  1.00  0.00     0.047 A 
ATOM     14  C   UNL     1       2.320   4.158  18.966  1.00  0.00     0.020 A 
ATOM     15  C   UNL     1       2.192   6.563  18.718  1.00  0.00     0.119 A 
ATOM     16  C   UNL     1       2.836   6.468  17.478  1.00  0.00     0.093 A 
ATOM     17  C   UNL     1       3.225   5.217  16.977  1.00  0.00     0.130 A 
BRANCH  15  18
ATOM     18  O   UNL     1       1.803   7.803  19.223  1.00  0.00    -0.508 OA
ATOM     19  H   UNL     1       1.530   7.917  20.193  1.00  0.00     0.293 HD
ENDBRANCH  15  18
BRANCH  17  20
ATOM     20  O   UNL     1       3.909   5.138  15.763  1.00  0.00    -0.507 OA
ATOM     21  H   UNL     1       3.867   4.309  15.182  1.00  0.00     0.293 HD
ENDBRANCH  17  20
ENDBRANCH   1  12
BRANCH   2  22
ATOM     22  O   UNL     1       1.987   2.959  15.224  1.00  0.00    -0.502 OA
ATOM     23  H   UNL     1       2.152   3.931  14.996  1.00  0.00     0.293 HD
ENDBRANCH   2  22
BRANCH   6  24
ATOM     24  O   UNL     1       4.538  -1.701  14.801  1.00  0.00    -0.507 OA
ATOM     25  H   UNL     1       3.643  -1.913  14.388  1.00  0.00     0.293 HD
ENDBRANCH   6  24
BRANCH   8  26
ATOM     26  O   UNL     1       6.582  -1.934  19.141  1.00  0.00    -0.508 OA
ATOM     27  H   UNL     1       7.359  -2.513  18.844  1.00  0.00     0.293 HD
ENDBRANCH   8  26
TORSDOF 6
ENDMDL
MODEL 2
REMARK VINA RESULT:    -8.228      0.643      1.491
REMARK INTER + INTRA:         -10.091
REMARK INTER:                  -9.890
REMARK INTRA:                  -0.201
REMARK UNBOUND:                -0.179
REMARK SMILES O=c1c(O)c(-c2ccc(O)cc2O)oc2cc(O)cc(O)c12
REMARK SMILES IDX 5 1 3 2 2 3 1 4 22 5 20 6 19 7 17 8 16 9 15 10 14 11 6 12
REMARK SMILES IDX 8 13 7 14 9 15 11 16 12 17 10 18 13 20 4 22 21 24 18 26
REMARK H PARENT 10 19 13 21 4 23 21 25 18 27
REMARK Flexibility Score: inf
ROOT
ATOM      1  C   UNL     1       3.357   2.708  17.296  1.00  0.00     0.184 A 
ATOM      2  C   UNL     1       2.934   2.294  16.024  1.00  0.00     0.208 A 
ATOM      3  C   UNL     1       3.364   1.050  15.535  1.00  0.00     0.238 A 
ATOM      4  O   UNL     1       2.939   0.660  14.417  1.00  0.00    -0.285 OA
ATOM      5  C   UNL     1       4.224   0.244  16.322  1.00  0.00     0.111 A 
ATOM      6  C   UNL     1       4.754  -1.016  15.911  1.00  0.00     0.134 A 
ATOM      7  C   UNL     1       5.489  -1.785  16.822  1.00  0.00     0.093 A 
ATOM      8  C   UNL     1       5.769  -1.310  18.105  1.00  0.00     0.123 A 
ATOM      9  C   UNL     1       5.306  -0.055  18.496  1.00  0.00     0.094 A 
ATOM     10  C   UNL     1       4.539   0.719  17.622  1.00  0.00     0.146 A 
ATOM     11  O   UNL     1       4.109   1.904  18.038  1.00  0.00    -0.451 OA
ENDROOT
BRANCH   1  12
ATOM     12  C   UNL     1       2.954   4.014  17.861  1.00  0.00     0.063 A 
ATOM     13  C   UNL     1       2.733   6.419  17.581  1.00  0.00     0.047 A 
ATOM     14  C   UNL     1       3.107   5.170  17.079  1.00  0.00     0.020 A 
ATOM     15  C   UNL     1       2.187   6.527  18.862  1.00  0.00     0.119 A 
ATOM     16  C   UNL     1       2.007   5.377  19.641  1.00  0.00     0.093 A 
ATOM     17  C   UNL     1       2.377   4.119  19.144  1.00  0.00     0.130 A 
BRANCH  15  18
ATOM     18  O   UNL     1       1.822   7.780  19.350  1.00  0.00    -0.508 OA
ATOM     19  H   UNL     1       1.447   8.497  18.740  1.00  0.00     0.293 HD
ENDBRANCH  15  18
BRANCH  17  20
ATOM     20  O   UNL     1       2.149   2.975  19.909  1.00  0.00    -0.507 OA
ATOM     21  H   UNL     1       2.748   2.160  19.840  1.00  0.00     0.293 HD
ENDBRANCH  17  20
ENDBRANCH   1  12
BRANCH   2  22
ATOM     22  O   UNL     1       2.071   3.101  15.276  1.00  0.00    -0.502 OA
ATOM     23  H   UNL     1       1.354   2.715  14.674  1.00  0.00     0.293 HD
ENDBRANCH   2  22
BRANCH   6  24
ATOM     24  O   UNL     1       4.612  -1.539  14.623  1.00  0.00    -0.507 OA
ATOM     25  H   UNL     1       5.091  -2.356  14.278  1.00  0.00     0.293 HD
ENDBRANCH   6  24
BRANCH   8  26
ATOM     26  O   UNL     1       6.515  -2.076  19.000  1.00  0.00    -0.508 OA
ATOM     27  H   UNL     1       6.729  -1.741  19.932  1.00  0.00     0.293 HD
ENDBRANCH   8  26
TORSDOF 6
ENDMDL
MODEL 3
REMARK VINA RESULT:    -7.045      2.390      7.001
REMARK INTER + INTRA:          -8.665
REMARK INTER:                  -8.250
REMARK INTRA:                  -0.415
REMARK UNBOUND:                -0.179
REMARK SMILES O=c1c(O)c(-c2ccc(O)cc2O)oc2cc(O)cc(O)c12
REMARK SMILES IDX 5 1 3 2 2 3 1 4 22 5 20 6 19 7 17 8 16 9 15 10 14 11 6 12
REMARK SMILES IDX 8 13 7 14 9 15 11 16 12 17 10 18 13 20 4 22 21 24 18 26
REMARK H PARENT 10 19 13 21 4 23 21 25 18 27
REMARK Flexibility Score: inf
ROOT
ATOM      1  C   UNL     1       3.485   3.450  15.801  1.00  0.00     0.184 A 
ATOM      2  C   UNL     1       2.905   4.152  16.869  1.00  0.00     0.208 A 
ATOM      3  C   UNL     1       3.139   5.532  16.982  1.00  0.00     0.238 A 
ATOM      4  O   UNL     1       2.573   6.167  17.910  1.00  0.00    -0.285 OA
ATOM      5  C   UNL     1       3.962   6.187  16.034  1.00  0.00     0.111 A 
ATOM      6  C   UNL     1       4.299   7.574  16.074  1.00  0.00     0.134 A 
ATOM      7  C   UNL     1       5.015   8.140  15.012  1.00  0.00     0.093 A 
ATOM      8  C   UNL     1       5.462   7.357  13.945  1.00  0.00     0.123 A 
ATOM      9  C   UNL     1       5.189   5.992  13.926  1.00  0.00     0.094 A 
ATOM     10  C   UNL     1       4.445   5.404  14.953  1.00  0.00     0.146 A 
ATOM     11  O   UNL     1       4.199   4.101  14.890  1.00  0.00    -0.451 OA
ENDROOT
BRANCH   1  12
ATOM     12  C   UNL     1       3.293   1.994  15.634  1.00  0.00     0.063 A 
ATOM     13  C   UNL     1       1.845   0.151  14.988  1.00  0.00     0.047 A 
ATOM     14  C   UNL     1       2.058   1.520  15.162  1.00  0.00     0.020 A 
ATOM     15  C   UNL     1       2.866  -0.761  15.268  1.00  0.00     0.119 A 
ATOM     16  C   UNL     1       4.109  -0.297  15.715  1.00  0.00     0.093 A 
ATOM     17  C   UNL     1       4.333   1.076  15.888  1.00  0.00     0.130 A 
BRANCH  15  18
ATOM     18  O   UNL     1       2.637  -2.124  15.092  1.00  0.00    -0.508 OA
ATOM     19  H   UNL     1       1.966  -2.466  14.414  1.00  0.00     0.293 HD
ENDBRANCH  15  18
BRANCH  17  20
ATOM     20  O   UNL     1       5.591   1.530  16.288  1.00  0.00    -0.507 OA
ATOM     21  H   UNL     1       6.442   1.067  15.993  1.00  0.00     0.293 HD
ENDBRANCH  17  20
ENDBRANCH   1  12
BRANCH   2  22
ATOM     22  O   UNL     1       2.082   3.485  17.780  1.00  0.00    -0.502 OA
ATOM     23  H   UNL     1       1.144   3.186  17.545  1.00  0.00     0.293 HD
ENDBRANCH   2  22
BRANCH   6  24
ATOM     24  O   UNL     1       3.982   8.423  17.138  1.00  0.00    -0.507 OA
ATOM     25  H   UNL     1       3.850   9.419  17.058  1.00  0.00     0.293 HD
ENDBRANCH   6  24
BRANCH   8  26
ATOM     26  O   UNL     1       6.187   7.927  12.900  1.00  0.00    -0.508 OA
ATOM     27  H   UNL     1       7.197   7.997  12.933  1.00  0.00     0.293 HD
ENDBRANCH   8  26
TORSDOF 6
ENDMDL
MODEL 4
REMARK VINA RESULT:    -7.023      2.129      7.100
REMARK INTER + INTRA:          -8.639
REMARK INTER:                  -8.387
REMARK INTRA:                  -0.252
REMARK UNBOUND:                -0.179
REMARK SMILES O=c1c(O)c(-c2ccc(O)cc2O)oc2cc(O)cc(O)c12
REMARK SMILES IDX 5 1 3 2 2 3 1 4 22 5 20 6 19 7 17 8 16 9 15 10 14 11 6 12
REMARK SMILES IDX 8 13 7 14 9 15 11 16 12 17 10 18 13 20 4 22 21 24 18 26
REMARK H PARENT 10 19 13 21 4 23 21 25 18 27
REMARK Flexibility Score: inf
ROOT
ATOM      1  C   UNL     1       3.791   3.470  15.931  1.00  0.00     0.184 A 
ATOM      2  C   UNL     1       3.001   3.999  16.964  1.00  0.00     0.208 A 
ATOM      3  C   UNL     1       2.984   5.389  17.163  1.00  0.00     0.238 A 
ATOM      4  O   UNL     1       2.232   5.862  18.055  1.00  0.00    -0.285 OA
ATOM      5  C   UNL     1       3.770   6.228  16.337  1.00  0.00     0.111 A 
ATOM      6  C   UNL     1       3.861   7.646  16.474  1.00  0.00     0.134 A 
ATOM      7  C   UNL     1       4.567   8.388  15.520  1.00  0.00     0.093 A 
ATOM      8  C   UNL     1       5.240   7.758  14.471  1.00  0.00     0.123 A 
ATOM      9  C   UNL     1       5.207   6.369  14.361  1.00  0.00     0.094 A 
ATOM     10  C   UNL     1       4.481   5.605  15.277  1.00  0.00     0.146 A 
ATOM     11  O   UNL     1       4.466   4.285  15.130  1.00  0.00    -0.451 OA
ENDROOT
BRANCH   1  12
ATOM     12  C   UNL     1       3.867   2.015  15.679  1.00  0.00     0.063 A 
ATOM     13  C   UNL     1       5.188  -0.026  15.676  1.00  0.00     0.047 A 
ATOM     14  C   UNL     1       5.083   1.349  15.900  1.00  0.00     0.020 A 
ATOM     15  C   UNL     1       4.077  -0.755  15.244  1.00  0.00     0.119 A 
ATOM     16  C   UNL     1       2.853  -0.104  15.044  1.00  0.00     0.093 A 
ATOM     17  C   UNL     1       2.738   1.275  15.271  1.00  0.00     0.130 A 
BRANCH  15  18
ATOM     18  O   UNL     1       4.199  -2.125  15.021  1.00  0.00    -0.508 OA
ATOM     19  H   UNL     1       3.889  -2.550  14.155  1.00  0.00     0.293 HD
ENDBRANCH  15  18
BRANCH  17  20
ATOM     20  O   UNL     1       1.502   1.904  15.116  1.00  0.00    -0.507 OA
ATOM     21  H   UNL     1       0.755   1.783  15.790  1.00  0.00     0.293 HD
ENDBRANCH  17  20
ENDBRANCH   1  12
BRANCH   2  22
ATOM     22  O   UNL     1       2.220   3.149  17.753  1.00  0.00    -0.502 OA
ATOM     23  H   UNL     1       2.609   2.351  18.239  1.00  0.00     0.293 HD
ENDBRANCH   2  22
BRANCH   6  24
ATOM     24  O   UNL     1       3.304   8.364  17.537  1.00  0.00    -0.507 OA
ATOM     25  H   UNL     1       2.330   8.612  17.614  1.00  0.00     0.293 HD
ENDBRANCH   6  24
BRANCH   8  26
ATOM     26  O   UNL     1       5.954   8.503  13.534  1.00  0.00    -0.508 OA
ATOM     27  H   UNL     1       6.920   8.765  13.691  1.00  0.00     0.293 HD
ENDBRANCH   8  26
TORSDOF 6
ENDMDL
MODEL 5
REMARK VINA RESULT:    -6.962      1.588      7.026
REMARK INTER + INTRA:          -8.565
REMARK INTER:                  -8.154
REMARK INTRA:                  -0.411
REMARK UNBOUND:                -0.179
REMARK SMILES O=c1c(O)c(-c2ccc(O)cc2O)oc2cc(O)cc(O)c12
REMARK SMILES IDX 5 1 3 2 2 3 1 4 22 5 20 6 19 7 17 8 16 9 15 10 14 11 6 12
REMARK SMILES IDX 8 13 7 14 9 15 11 16 12 17 10 18 13 20 4 22 21 24 18 26
REMARK H PARENT 10 19 13 21 4 23 21 25 18 27
REMARK Flexibility Score: inf
ROOT
ATOM      1  C   UNL     1       3.130   3.371  17.051  1.00  0.00     0.184 A 
ATOM      2  C   UNL     1       2.276   3.548  18.150  1.00  0.00     0.208 A 
ATOM      3  C   UNL     1       2.024   4.849  18.613  1.00  0.00     0.238 A 
ATOM      4  O   UNL     1       1.215   5.006  19.564  1.00  0.00    -0.285 OA
ATOM      5  C   UNL     1       2.643   5.954  17.979  1.00  0.00     0.111 A 
ATOM      6  C   UNL     1       2.492   7.313  18.390  1.00  0.00     0.134 A 
ATOM      7  C   UNL     1       3.048   8.335  17.610  1.00  0.00     0.093 A 
ATOM      8  C   UNL     1       3.804   8.043  16.473  1.00  0.00     0.123 A 
ATOM      9  C   UNL     1       4.008   6.717  16.097  1.00  0.00     0.094 A 
ATOM     10  C   UNL     1       3.435   5.678  16.834  1.00  0.00     0.146 A 
ATOM     11  O   UNL     1       3.645   4.429  16.435  1.00  0.00    -0.451 OA
ENDROOT
BRANCH   1  12
ATOM     12  C   UNL     1       3.451   2.027  16.524  1.00  0.00     0.063 A 
ATOM     13  C   UNL     1       4.861   0.048  16.602  1.00  0.00     0.047 A 
ATOM     14  C   UNL     1       4.534   1.322  17.073  1.00  0.00     0.020 A 
ATOM     15  C   UNL     1       4.102  -0.543  15.589  1.00  0.00     0.119 A 
ATOM     16  C   UNL     1       3.005   0.141  15.051  1.00  0.00     0.093 A 
ATOM     17  C   UNL     1       2.667   1.419  15.522  1.00  0.00     0.130 A 
BRANCH  15  18
ATOM     18  O   UNL     1       4.443  -1.813  15.127  1.00  0.00    -0.508 OA
ATOM     19  H   UNL     1       5.039  -2.430  15.667  1.00  0.00     0.293 HD
ENDBRANCH  15  18
BRANCH  17  20
ATOM     20  O   UNL     1       1.544   2.072  15.013  1.00  0.00    -0.507 OA
ATOM     21  H   UNL     1       1.292   3.007  15.311  1.00  0.00     0.293 HD
ENDBRANCH  17  20
ENDBRANCH   1  12
BRANCH   2  22
ATOM     22  O   UNL     1       1.663   2.441  18.745  1.00  0.00    -0.502 OA
ATOM     23  H   UNL     1       1.784   2.216  19.724  1.00  0.00     0.293 HD
ENDBRANCH   2  22
BRANCH   6  24
ATOM     24  O   UNL     1       1.835   7.706  19.559  1.00  0.00    -0.507 OA
ATOM     25  H   UNL     1       1.107   7.178  20.014  1.00  0.00     0.293 HD
ENDBRANCH   6  24
BRANCH   8  26
ATOM     26  O   UNL     1       4.366   9.067  15.712  1.00  0.00    -0.508 OA
ATOM     27  H   UNL     1       4.121   9.197  14.737  1.00  0.00     0.293 HD
ENDBRANCH   8  26
TORSDOF 6
ENDMDL
MODEL 6
REMARK VINA RESULT:    -6.942      2.299      6.498
REMARK INTER + INTRA:          -8.541
REMARK INTER:                  -8.261
REMARK INTRA:                  -0.280
REMARK UNBOUND:                -0.179
REMARK SMILES O=c1c(O)c(-c2ccc(O)cc2O)oc2cc(O)cc(O)c12
REMARK SMILES IDX 5 1 3 2 2 3 1 4 22 5 20 6 19 7 17 8 16 9 15 10 14 11 6 12
REMARK SMILES IDX 8 13 7 14 9 15 11 16 12 17 10 18 13 20 4 22 21 24 18 26
REMARK H PARENT 10 19 13 21 4 23 21 25 18 27
REMARK Flexibility Score: inf
ROOT
ATOM      1  C   UNL     1       3.662   2.385  15.940  1.00  0.00     0.184 A 
ATOM      2  C   UNL     1       3.899   3.692  15.488  1.00  0.00     0.208 A 
ATOM      3  C   UNL     1       3.494   4.772  16.289  1.00  0.00     0.238 A 
ATOM      4  O   UNL     1       3.757   5.941  15.905  1.00  0.00    -0.285 OA
ATOM      5  C   UNL     1       2.843   4.528  17.523  1.00  0.00     0.111 A 
ATOM      6  C   UNL     1       2.353   5.546  18.397  1.00  0.00     0.134 A 
ATOM      7  C   UNL     1       1.843   5.191  19.651  1.00  0.00     0.093 A 
ATOM      8  C   UNL     1       1.743   3.852  20.036  1.00  0.00     0.123 A 
ATOM      9  C   UNL     1       2.163   2.848  19.167  1.00  0.00     0.094 A 
ATOM     10  C   UNL     1       2.711   3.172  17.924  1.00  0.00     0.146 A 
ATOM     11  O   UNL     1       3.109   2.185  17.130  1.00  0.00    -0.451 OA
ENDROOT
BRANCH   1  12
ATOM     12  C   UNL     1       4.048   1.204  15.138  1.00  0.00     0.063 A 
ATOM     13  C   UNL     1       5.793  -0.063  14.014  1.00  0.00     0.047 A 
ATOM     14  C   UNL     1       5.393   1.043  14.768  1.00  0.00     0.020 A 
ATOM     15  C   UNL     1       4.858  -1.029  13.634  1.00  0.00     0.119 A 
ATOM     16  C   UNL     1       3.518  -0.891  14.018  1.00  0.00     0.093 A 
ATOM     17  C   UNL     1       3.109   0.215  14.778  1.00  0.00     0.130 A 
BRANCH  15  18
ATOM     18  O   UNL     1       5.271  -2.125  12.878  1.00  0.00    -0.508 OA
ATOM     19  H   UNL     1       6.142  -2.112  12.360  1.00  0.00     0.293 HD
ENDBRANCH  15  18
BRANCH  17  20
ATOM     20  O   UNL     1       1.783   0.318  15.196  1.00  0.00    -0.507 OA
ATOM     21  H   UNL     1       1.097  -0.395  14.972  1.00  0.00     0.293 HD
ENDBRANCH  17  20
ENDBRANCH   1  12
BRANCH   2  22
ATOM     22  O   UNL     1       4.560   3.905  14.275  1.00  0.00    -0.502 OA
ATOM     23  H   UNL     1       5.362   4.516  14.195  1.00  0.00     0.293 HD
ENDBRANCH   2  22
BRANCH   6  24
ATOM     24  O   UNL     1       2.321   6.904  18.070  1.00  0.00    -0.507 OA
ATOM     25  H   UNL     1       1.705   7.582  18.489  1.00  0.00     0.293 HD
ENDBRANCH   6  24
BRANCH   8  26
ATOM     26  O   UNL     1       1.219   3.508  21.281  1.00  0.00    -0.508 OA
ATOM     27  H   UNL     1       0.447   4.020  21.690  1.00  0.00     0.293 HD
ENDBRANCH   8  26
TORSDOF 6
ENDMDL
MODEL 7
REMARK VINA RESULT:    -6.873      2.063      3.650
REMARK INTER + INTRA:          -8.458
REMARK INTER:                  -8.555
REMARK INTRA:                   0.097
REMARK UNBOUND:                -0.179
REMARK SMILES O=c1c(O)c(-c2ccc(O)cc2O)oc2cc(O)cc(O)c12
REMARK SMILES IDX 5 1 3 2 2 3 1 4 22 5 20 6 19 7 17 8 16 9 15 10 14 11 6 12
REMARK SMILES IDX 8 13 7 14 9 15 11 16 12 17 10 18 13 20 4 22 21 24 18 26
REMARK H PARENT 10 19 13 21 4 23 21 25 18 27
REMARK Flexibility Score: inf
ROOT
ATOM      1  C   UNL     1       3.085   5.030  17.608  1.00  0.00     0.184 A 
ATOM      2  C   UNL     1       3.112   4.069  18.629  1.00  0.00     0.208 A 
ATOM      3  C   UNL     1       3.353   2.727  18.294  1.00  0.00     0.238 A 
ATOM      4  O   UNL     1       3.430   1.877  19.219  1.00  0.00    -0.285 OA
ATOM      5  C   UNL     1       3.550   2.364  16.939  1.00  0.00     0.111 A 
ATOM      6  C   UNL     1       3.762   1.029  16.480  1.00  0.00     0.134 A 
ATOM      7  C   UNL     1       4.073   0.804  15.133  1.00  0.00     0.093 A 
ATOM      8  C   UNL     1       4.114   1.858  14.217  1.00  0.00     0.123 A 
ATOM      9  C   UNL     1       3.850   3.157  14.644  1.00  0.00     0.094 A 
ATOM     10  C   UNL     1       3.572   3.418  15.988  1.00  0.00     0.146 A 
ATOM     11  O   UNL     1       3.337   4.672  16.354  1.00  0.00    -0.451 OA
ENDROOT
BRANCH   1  12
ATOM     12  C   UNL     1       2.819   6.457  17.891  1.00  0.00     0.063 A 
ATOM     13  C   UNL     1       1.693   8.129  19.250  1.00  0.00     0.047 A 
ATOM     14  C   UNL     1       1.963   6.791  18.953  1.00  0.00     0.020 A 
ATOM     15  C   UNL     1       2.287   9.149  18.502  1.00  0.00     0.119 A 
ATOM     16  C   UNL     1       3.161   8.827  17.457  1.00  0.00     0.093 A 
ATOM     17  C   UNL     1       3.440   7.486  17.154  1.00  0.00     0.130 A 
BRANCH  15  18
ATOM     18  O   UNL     1       2.005  10.479  18.809  1.00  0.00    -0.508 OA
ATOM     19  H   UNL     1       1.351  10.726  19.543  1.00  0.00     0.293 HD
ENDBRANCH  15  18
BRANCH  17  20
ATOM     20  O   UNL     1       4.350   7.177  16.142  1.00  0.00    -0.507 OA
ATOM     21  H   UNL     1       4.551   7.828  15.392  1.00  0.00     0.293 HD
ENDBRANCH  17  20
ENDBRANCH   1  12
BRANCH   2  22
ATOM     22  O   UNL     1       2.934   4.456  19.960  1.00  0.00    -0.502 OA
ATOM     23  H   UNL     1       3.107   3.829  20.736  1.00  0.00     0.293 HD
ENDBRANCH   2  22
BRANCH   6  24
ATOM     24  O   UNL     1       3.653  -0.102  17.294  1.00  0.00    -0.507 OA
ATOM     25  H   UNL     1       2.815  -0.651  17.406  1.00  0.00     0.293 HD
ENDBRANCH   6  24
BRANCH   8  26
ATOM     26  O   UNL     1       4.410   1.622  12.876  1.00  0.00    -0.508 OA
ATOM     27  H   UNL     1       3.690   1.354  12.214  1.00  0.00     0.293 HD
ENDBRANCH   8  26
TORSDOF 6
ENDMDL
MODEL 8
REMARK VINA RESULT:    -6.692      2.711      3.268
REMARK INTER + INTRA:          -8.240
REMARK INTER:                  -8.624
REMARK INTRA:                   0.384
REMARK UNBOUND:                -0.179
REMARK SMILES O=c1c(O)c(-c2ccc(O)cc2O)oc2cc(O)cc(O)c12
REMARK SMILES IDX 5 1 3 2 2 3 1 4 22 5 20 6 19 7 17 8 16 9 15 10 14 11 6 12
REMARK SMILES IDX 8 13 7 14 9 15 11 16 12 17 10 18 13 20 4 22 21 24 18 26
REMARK H PARENT 10 19 13 21 4 23 21 25 18 27
REMARK Flexibility Score: inf
ROOT
ATOM      1  C   UNL     1       3.159   3.690  16.198  1.00  0.00     0.184 A 
ATOM      2  C   UNL     1       4.216   3.809  15.282  1.00  0.00     0.208 A 
ATOM      3  C   UNL     1       4.500   2.731  14.428  1.00  0.00     0.238 A 
ATOM      4  O   UNL     1       5.413   2.863  13.572  1.00  0.00    -0.285 OA
ATOM      5  C   UNL     1       3.731   1.544  14.512  1.00  0.00     0.111 A 
ATOM      6  C   UNL     1       3.956   0.376  13.724  1.00  0.00     0.134 A 
ATOM      7  C   UNL     1       3.053  -0.692  13.801  1.00  0.00     0.093 A 
ATOM      8  C   UNL     1       1.972  -0.660  14.685  1.00  0.00     0.123 A 
ATOM      9  C   UNL     1       1.778   0.451  15.502  1.00  0.00     0.094 A 
ATOM     10  C   UNL     1       2.641   1.547  15.422  1.00  0.00     0.146 A 
ATOM     11  O   UNL     1       2.413   2.591  16.210  1.00  0.00    -0.451 OA
ENDROOT
BRANCH   1  12
ATOM     12  C   UNL     1       2.819   4.780  17.137  1.00  0.00     0.063 A 
ATOM     13  C   UNL     1       2.899   7.147  17.688  1.00  0.00     0.047 A 
ATOM     14  C   UNL     1       3.208   6.093  16.825  1.00  0.00     0.020 A 
ATOM     15  C   UNL     1       2.184   6.906  18.864  1.00  0.00     0.119 A 
ATOM     16  C   UNL     1       1.770   5.604  19.173  1.00  0.00     0.093 A 
ATOM     17  C   UNL     1       2.072   4.540  18.309  1.00  0.00     0.130 A 
BRANCH  15  18
ATOM     18  O   UNL     1       1.887   7.967  19.717  1.00  0.00    -0.508 OA
ATOM     19  H   UNL     1       2.226   8.904  19.535  1.00  0.00     0.293 HD
ENDBRANCH  15  18
BRANCH  17  20
ATOM     20  O   UNL     1       1.613   3.256  18.602  1.00  0.00    -0.507 OA
ATOM     21  H   UNL     1       2.172   2.434  18.406  1.00  0.00     0.293 HD
ENDBRANCH  17  20
ENDBRANCH   1  12
BRANCH   2  22
ATOM     22  O   UNL     1       4.946   4.998  15.207  1.00  0.00    -0.502 OA
ATOM     23  H   UNL     1       4.502   5.907  15.199  1.00  0.00     0.293 HD
ENDBRANCH   2  22
BRANCH   6  24
ATOM     24  O   UNL     1       5.056   0.205  12.879  1.00  0.00    -0.507 OA
ATOM     25  H   UNL     1       5.299   0.822  12.120  1.00  0.00     0.293 HD
ENDBRANCH   6  24
BRANCH   8  26
ATOM     26  O   UNL     1       1.088  -1.734  14.766  1.00  0.00    -0.508 OA
ATOM     27  H   UNL     1       0.764  -2.217  13.935  1.00  0.00     0.293 HD
ENDBRANCH   8  26
TORSDOF 6
ENDMDL
MODEL 9
REMARK VINA RESULT:    -6.681      2.073      6.798
REMARK INTER + INTRA:          -8.227
REMARK INTER:                  -7.895
REMARK INTRA:                  -0.332
REMARK UNBOUND:                -0.179
REMARK SMILES O=c1c(O)c(-c2ccc(O)cc2O)oc2cc(O)cc(O)c12
REMARK SMILES IDX 5 1 3 2 2 3 1 4 22 5 20 6 19 7 17 8 16 9 15 10 14 11 6 12
REMARK SMILES IDX 8 13 7 14 9 15 11 16 12 17 10 18 13 20 4 22 21 24 18 26
REMARK H PARENT 10 19 13 21 4 23 21 25 18 27
REMARK Flexibility Score: inf
ROOT
ATOM      1  C   UNL     1       3.347   3.402  15.747  1.00  0.00     0.184 A 
ATOM      2  C   UNL     1       4.178   4.118  14.872  1.00  0.00     0.208 A 
ATOM      3  C   UNL     1       4.369   5.492  15.088  1.00  0.00     0.238 A 
ATOM      4  O   UNL     1       5.158   6.118  14.333  1.00  0.00    -0.285 OA
ATOM      5  C   UNL     1       3.715   6.134  16.168  1.00  0.00     0.111 A 
ATOM      6  C   UNL     1       3.804   7.528  16.457  1.00  0.00     0.134 A 
ATOM      7  C   UNL     1       3.219   8.030  17.625  1.00  0.00     0.093 A 
ATOM      8  C   UNL     1       2.491   7.199  18.480  1.00  0.00     0.123 A 
ATOM      9  C   UNL     1       2.347   5.847  18.177  1.00  0.00     0.094 A 
ATOM     10  C   UNL     1       2.951   5.311  17.036  1.00  0.00     0.146 A 
ATOM     11  O   UNL     1       2.798   4.015  16.790  1.00  0.00    -0.451 OA
ENDROOT
BRANCH   1  12
ATOM     12  C   UNL     1       3.089   1.958  15.566  1.00  0.00     0.063 A 
ATOM     13  C   UNL     1       1.554   0.187  14.918  1.00  0.00     0.047 A 
ATOM     14  C   UNL     1       1.829   1.544  15.104  1.00  0.00     0.020 A 
ATOM     15  C   UNL     1       2.537  -0.771  15.175  1.00  0.00     0.119 A 
ATOM     16  C   UNL     1       3.805  -0.368  15.613  1.00  0.00     0.093 A 
ATOM     17  C   UNL     1       4.091   0.992  15.799  1.00  0.00     0.130 A 
BRANCH  15  18
ATOM     18  O   UNL     1       2.246  -2.122  14.988  1.00  0.00    -0.508 OA
ATOM     19  H   UNL     1       2.317  -2.789  15.747  1.00  0.00     0.293 HD
ENDBRANCH  15  18
BRANCH  17  20
ATOM     20  O   UNL     1       5.371   1.386  16.188  1.00  0.00    -0.507 OA
ATOM     21  H   UNL     1       5.824   0.990  17.004  1.00  0.00     0.293 HD
ENDBRANCH  17  20
ENDBRANCH   1  12
BRANCH   2  22
ATOM     22  O   UNL     1       4.827   3.457  13.825  1.00  0.00    -0.502 OA
ATOM     23  H   UNL     1       4.336   3.135  13.001  1.00  0.00     0.293 HD
ENDBRANCH   2  22
BRANCH   6  24
ATOM     24  O   UNL     1       4.428   8.459  15.621  1.00  0.00    -0.507 OA
ATOM     25  H   UNL     1       4.506   8.372  14.620  1.00  0.00     0.293 HD
ENDBRANCH   6  24
BRANCH   8  26
ATOM     26  O   UNL     1       1.898   7.710  19.634  1.00  0.00    -0.508 OA
ATOM     27  H   UNL     1       2.224   8.570  20.060  1.00  0.00     0.293 HD
ENDBRANCH   8  26
TORSDOF 6
ENDMDL
