MODEL 1
REMARK VINA RESULT:    -6.830      0.000      0.000
REMARK INTER + INTRA:          -8.528
REMARK INTER:                  -8.228
REMARK INTRA:                  -0.301
REMARK UNBOUND:                -0.301
REMARK SMILES O=c1c(O)c(-c2ccc(O)c(O)c2)oc2cc(O)cc(O)c12
REMARK SMILES IDX 5 1 3 2 2 3 1 4 22 5 20 6 19 7 17 8 16 9 15 10 14 11 6 12
REMARK SMILES IDX 7 13 8 14 9 15 13 16 11 17 10 18 12 20 4 22 21 24 18 26
REMARK H PARENT 10 19 12 21 4 23 21 25 18 27
REMARK Flexibility Score: inf
ROOT
ATOM      1  C   UNL     1     -17.437 -17.088  20.674  1.00  0.00     0.180 A 
ATOM      2  C   UNL     1     -17.334 -17.769  19.449  1.00  0.00     0.208 A 
ATOM      3  C   UNL     1     -16.866 -19.093  19.442  1.00  0.00     0.238 A 
ATOM      4  O   UNL     1     -16.724 -19.679  18.337  1.00  0.00    -0.285 OA
ATOM      5  C   UNL     1     -16.524 -19.724  20.663  1.00  0.00     0.111 A 
ATOM      6  C   UNL     1     -16.077 -21.075  20.778  1.00  0.00     0.134 A 
ATOM      7  C   UNL     1     -15.641 -21.554  22.019  1.00  0.00     0.093 A 
ATOM      8  C   UNL     1     -15.697 -20.752  23.162  1.00  0.00     0.123 A 
ATOM      9  C   UNL     1     -16.187 -19.452  23.070  1.00  0.00     0.094 A 
ATOM     10  C   UNL     1     -16.595 -18.933  21.838  1.00  0.00     0.146 A 
ATOM     11  O   UNL     1     -17.046 -17.685  21.794  1.00  0.00    -0.452 OA
ENDROOT
BRANCH   1  12
ATOM     12  C   UNL     1     -17.946 -15.700  20.764  1.00  0.00     0.025 A 
ATOM     13  C   UNL     1     -17.117 -14.597  20.495  1.00  0.00     0.016 A 
ATOM     14  C   UNL     1     -17.626 -13.298  20.564  1.00  0.00     0.051 A 
ATOM     15  C   UNL     1     -18.971 -13.081  20.888  1.00  0.00     0.157 A 
ATOM     16  C   UNL     1     -19.299 -15.479  21.069  1.00  0.00     0.062 A 
ATOM     17  C   UNL     1     -19.812 -14.178  21.140  1.00  0.00     0.158 A 
BRANCH  15  18
ATOM     18  O   UNL     1     -19.475 -11.783  20.958  1.00  0.00    -0.504 OA
ATOM     19  H   UNL     1     -19.137 -11.049  20.346  1.00  0.00     0.293 HD
ENDBRANCH  15  18
BRANCH  17  20
ATOM     20  O   UNL     1     -21.157 -13.997  21.458  1.00  0.00    -0.504 OA
ATOM     21  H   UNL     1     -21.675 -13.180  21.159  1.00  0.00     0.293 HD
ENDBRANCH  17  20
ENDBRANCH   1  12
BRANCH   2  22
ATOM     22  O   UNL     1     -17.657 -17.120  18.254  1.00  0.00    -0.502 OA
ATOM     23  H   UNL     1     -17.157 -16.302  17.926  1.00  0.00     0.293 HD
ENDBRANCH   2  22
BRANCH   6  24
ATOM     24  O   UNL     1     -16.068 -21.987  19.719  1.00  0.00    -0.507 OA
ATOM     25  H   UNL     1     -16.622 -22.830  19.681  1.00  0.00     0.293 HD
ENDBRANCH   6  24
BRANCH   8  26
ATOM     26  O   UNL     1     -15.276 -21.242  24.396  1.00  0.00    -0.508 OA
ATOM     27  H   UNL     1     -14.467 -21.846  24.478  1.00  0.00     0.293 HD
ENDBRANCH   8  26
TORSDOF 6
ENDMDL
MODEL 2
REMARK VINA RESULT:    -6.713      1.893      3.903
REMARK INTER + INTRA:          -8.388
REMARK INTER:                  -8.054
REMARK INTRA:                  -0.334
REMARK UNBOUND:                -0.301
REMARK SMILES O=c1c(O)c(-c2ccc(O)c(O)c2)oc2cc(O)cc(O)c12
REMARK SMILES IDX 5 1 3 2 2 3 1 4 22 5 20 6 19 7 17 8 16 9 15 10 14 11 6 12
REMARK SMILES IDX 7 13 8 14 9 15 13 16 11 17 10 18 12 20 4 22 21 24 18 26
REMARK H PARENT 10 19 12 21 4 23 21 25 18 27
REMARK Flexibility Score: inf
ROOT
ATOM      1  C   UNL     1     -17.792 -16.849  19.547  1.00  0.00     0.180 A 
ATOM      2  C   UNL     1     -17.250 -17.866  20.350  1.00  0.00     0.208 A 
ATOM      3  C   UNL     1     -16.851 -19.071  19.749  1.00  0.00     0.238 A 
ATOM      4  O   UNL     1     -16.418 -19.999  20.480  1.00  0.00    -0.285 OA
ATOM      5  C   UNL     1     -16.983 -19.234  18.348  1.00  0.00     0.111 A 
ATOM      6  C   UNL     1     -16.574 -20.397  17.627  1.00  0.00     0.134 A 
ATOM      7  C   UNL     1     -16.871 -20.503  16.263  1.00  0.00     0.093 A 
ATOM      8  C   UNL     1     -17.505 -19.461  15.580  1.00  0.00     0.123 A 
ATOM      9  C   UNL     1     -17.855 -18.299  16.263  1.00  0.00     0.094 A 
ATOM     10  C   UNL     1     -17.603 -18.178  17.633  1.00  0.00     0.146 A 
ATOM     11  O   UNL     1     -17.963 -17.058  18.247  1.00  0.00    -0.452 OA
ENDROOT
BRANCH   1  12
ATOM     12  C   UNL     1     -18.211 -15.543  20.105  1.00  0.00     0.025 A 
ATOM     13  C   UNL     1     -17.300 -14.482  20.249  1.00  0.00     0.016 A 
ATOM     14  C   UNL     1     -17.725 -13.251  20.757  1.00  0.00     0.051 A 
ATOM     15  C   UNL     1     -19.065 -13.057  21.115  1.00  0.00     0.157 A 
ATOM     16  C   UNL     1     -19.558 -15.338  20.447  1.00  0.00     0.062 A 
ATOM     17  C   UNL     1     -19.986 -14.106  20.957  1.00  0.00     0.158 A 
BRANCH  15  18
ATOM     18  O   UNL     1     -19.484 -11.829  21.623  1.00  0.00    -0.504 OA
ATOM     19  H   UNL     1     -20.457 -11.651  21.844  1.00  0.00     0.293 HD
ENDBRANCH  15  18
BRANCH  17  20
ATOM     20  O   UNL     1     -21.328 -13.944  21.298  1.00  0.00    -0.504 OA
ATOM     21  H   UNL     1     -21.900 -13.209  20.899  1.00  0.00     0.293 HD
ENDBRANCH  17  20
ENDBRANCH   1  12
BRANCH   2  22
ATOM     22  O   UNL     1     -17.150 -17.692  21.733  1.00  0.00    -0.502 OA
ATOM     23  H   UNL     1     -17.829 -18.071  22.381  1.00  0.00     0.293 HD
ENDBRANCH   2  22
BRANCH   6  24
ATOM     24  O   UNL     1     -15.854 -21.454  18.192  1.00  0.00    -0.507 OA
ATOM     25  H   UNL     1     -15.302 -22.117  17.670  1.00  0.00     0.293 HD
ENDBRANCH   6  24
BRANCH   8  26
ATOM     26  O   UNL     1     -17.783 -19.569  14.219  1.00  0.00    -0.508 OA
ATOM     27  H   UNL     1     -17.271 -20.208  13.622  1.00  0.00     0.293 HD
ENDBRANCH   8  26
TORSDOF 6
ENDMDL
MODEL 3
REMARK VINA RESULT:    -6.598      2.541      7.786
REMARK INTER + INTRA:          -8.248
REMARK INTER:                  -7.925
REMARK INTRA:                  -0.324
REMARK UNBOUND:                -0.301
REMARK SMILES O=c1c(O)c(-c2ccc(O)c(O)c2)oc2cc(O)cc(O)c12
REMARK SMILES IDX 5 1 3 2 2 3 1 4 22 5 20 6 19 7 17 8 16 9 15 10 14 11 6 12
REMARK SMILES IDX 7 13 8 14 9 15 13 16 11 17 10 18 12 20 4 22 21 24 18 26
REMARK H PARENT 10 19 12 21 4 23 21 25 18 27
REMARK Flexibility Score: inf
ROOT
ATOM      1  C   UNL     1     -16.617 -19.720  23.623  1.00  0.00     0.180 A 
ATOM      2  C   UNL     1     -17.296 -19.523  24.837  1.00  0.00     0.208 A 
ATOM      3  C   UNL     1     -18.198 -18.452  24.948  1.00  0.00     0.238 A 
ATOM      4  O   UNL     1     -18.762 -18.248  26.055  1.00  0.00    -0.285 OA
ATOM      5  C   UNL     1     -18.422 -17.604  23.837  1.00  0.00     0.111 A 
ATOM      6  C   UNL     1     -19.343 -16.513  23.824  1.00  0.00     0.134 A 
ATOM      7  C   UNL     1     -19.388 -15.660  22.714  1.00  0.00     0.093 A 
ATOM      8  C   UNL     1     -18.592 -15.897  21.591  1.00  0.00     0.123 A 
ATOM      9  C   UNL     1     -17.732 -16.993  21.571  1.00  0.00     0.094 A 
ATOM     10  C   UNL     1     -17.639 -17.841  22.678  1.00  0.00     0.146 A 
ATOM     11  O   UNL     1     -16.800 -18.868  22.621  1.00  0.00    -0.452 OA
ENDROOT
BRANCH   1  12
ATOM     12  C   UNL     1     -15.671 -20.841  23.422  1.00  0.00     0.025 A 
ATOM     13  C   UNL     1     -14.303 -20.707  23.717  1.00  0.00     0.016 A 
ATOM     14  C   UNL     1     -13.434 -21.787  23.541  1.00  0.00     0.051 A 
ATOM     15  C   UNL     1     -13.918 -23.018  23.082  1.00  0.00     0.157 A 
ATOM     16  C   UNL     1     -16.156 -22.084  22.981  1.00  0.00     0.062 A 
ATOM     17  C   UNL     1     -15.287 -23.167  22.803  1.00  0.00     0.158 A 
BRANCH  15  18
ATOM     18  O   UNL     1     -13.048 -24.093  22.906  1.00  0.00    -0.504 OA
ATOM     19  H   UNL     1     -12.073 -24.036  23.176  1.00  0.00     0.293 HD
ENDBRANCH  15  18
BRANCH  17  20
ATOM     20  O   UNL     1     -15.803 -24.381  22.351  1.00  0.00    -0.504 OA
ATOM     21  H   UNL     1     -16.609 -24.429  21.740  1.00  0.00     0.293 HD
ENDBRANCH  17  20
ENDBRANCH   1  12
BRANCH   2  22
ATOM     22  O   UNL     1     -17.044 -20.359  25.928  1.00  0.00    -0.502 OA
ATOM     23  H   UNL     1     -17.522 -21.242  26.060  1.00  0.00     0.293 HD
ENDBRANCH   2  22
BRANCH   6  24
ATOM     24  O   UNL     1     -20.248 -16.242  24.855  1.00  0.00    -0.507 OA
ATOM     25  H   UNL     1     -21.185 -15.894  24.720  1.00  0.00     0.293 HD
ENDBRANCH   6  24
BRANCH   8  26
ATOM     26  O   UNL     1     -18.654 -15.053  20.485  1.00  0.00    -0.508 OA
ATOM     27  H   UNL     1     -17.833 -14.572  20.138  1.00  0.00     0.293 HD
ENDBRANCH   8  26
TORSDOF 6
ENDMDL
MODEL 4
REMARK VINA RESULT:    -6.471      2.024      6.739
REMARK INTER + INTRA:          -8.095
REMARK INTER:                  -7.784
REMARK INTRA:                  -0.311
REMARK UNBOUND:                -0.301
REMARK SMILES O=c1c(O)c(-c2ccc(O)c(O)c2)oc2cc(O)cc(O)c12
REMARK SMILES IDX 5 1 3 2 2 3 1 4 22 5 20 6 19 7 17 8 16 9 15 10 14 11 6 12
REMARK SMILES IDX 7 13 8 14 9 15 13 16 11 17 10 18 12 20 4 22 21 24 18 26
REMARK H PARENT 10 19 12 21 4 23 21 25 18 27
REMARK Flexibility Score: inf
ROOT
ATOM      1  C   UNL     1     -17.655 -16.429  20.903  1.00  0.00     0.180 A 
ATOM      2  C   UNL     1     -17.423 -15.116  20.460  1.00  0.00     0.208 A 
ATOM      3  C   UNL     1     -18.169 -14.066  21.018  1.00  0.00     0.238 A 
ATOM      4  O   UNL     1     -17.995 -12.899  20.579  1.00  0.00    -0.285 OA
ATOM      5  C   UNL     1     -19.126 -14.341  22.025  1.00  0.00     0.111 A 
ATOM      6  C   UNL     1     -19.910 -13.349  22.689  1.00  0.00     0.134 A 
ATOM      7  C   UNL     1     -20.919 -13.747  23.576  1.00  0.00     0.093 A 
ATOM      8  C   UNL     1     -21.128 -15.097  23.871  1.00  0.00     0.123 A 
ATOM      9  C   UNL     1     -20.329 -16.067  23.273  1.00  0.00     0.094 A 
ATOM     10  C   UNL     1     -19.337 -15.704  22.356  1.00  0.00     0.146 A 
ATOM     11  O   UNL     1     -18.605 -16.662  21.802  1.00  0.00    -0.452 OA
ENDROOT
BRANCH   1  12
ATOM     12  C   UNL     1     -16.891 -17.584  20.381  1.00  0.00     0.025 A 
ATOM     13  C   UNL     1     -17.253 -18.221  19.181  1.00  0.00     0.016 A 
ATOM     14  C   UNL     1     -16.502 -19.294  18.696  1.00  0.00     0.051 A 
ATOM     15  C   UNL     1     -15.372 -19.740  19.393  1.00  0.00     0.157 A 
ATOM     16  C   UNL     1     -15.745 -18.021  21.066  1.00  0.00     0.062 A 
ATOM     17  C   UNL     1     -14.991 -19.098  20.583  1.00  0.00     0.158 A 
BRANCH  15  18
ATOM     18  O   UNL     1     -14.626 -20.812  18.907  1.00  0.00    -0.504 OA
ATOM     19  H   UNL     1     -13.967 -20.699  18.146  1.00  0.00     0.293 HD
ENDBRANCH  15  18
BRANCH  17  20
ATOM     20  O   UNL     1     -13.867 -19.512  21.297  1.00  0.00    -0.504 OA
ATOM     21  H   UNL     1     -13.220 -20.199  20.931  1.00  0.00     0.293 HD
ENDBRANCH  17  20
ENDBRANCH   1  12
BRANCH   2  22
ATOM     22  O   UNL     1     -16.489 -14.870  19.450  1.00  0.00    -0.502 OA
ATOM     23  H   UNL     1     -15.953 -15.609  19.011  1.00  0.00     0.293 HD
ENDBRANCH   2  22
BRANCH   6  24
ATOM     24  O   UNL     1     -19.722 -11.973  22.536  1.00  0.00    -0.507 OA
ATOM     25  H   UNL     1     -20.199 -11.264  23.073  1.00  0.00     0.293 HD
ENDBRANCH   6  24
BRANCH   8  26
ATOM     26  O   UNL     1     -22.123 -15.482  24.767  1.00  0.00    -0.508 OA
ATOM     27  H   UNL     1     -23.034 -15.790  24.447  1.00  0.00     0.293 HD
ENDBRANCH   8  26
TORSDOF 6
ENDMDL
MODEL 5
REMARK VINA RESULT:    -6.360      2.694      4.246
REMARK INTER + INTRA:          -7.961
REMARK INTER:                  -7.988
REMARK INTRA:                   0.026
REMARK UNBOUND:                -0.301
REMARK SMILES O=c1c(O)c(-c2ccc(O)c(O)c2)oc2cc(O)cc(O)c12
REMARK SMILES IDX 5 1 3 2 2 3 1 4 22 5 20 6 19 7 17 8 16 9 15 10 14 11 6 12
REMARK SMILES IDX 7 13 8 14 9 15 13 16 11 17 10 18 12 20 4 22 21 24 18 26
REMARK H PARENT 10 19 12 21 4 23 21 25 18 27
REMARK Flexibility Score: inf
ROOT
ATOM      1  C   UNL     1     -18.303 -17.384  23.938  1.00  0.00     0.180 A 
ATOM      2  C   UNL     1     -18.059 -18.464  24.802  1.00  0.00     0.208 A 
ATOM      3  C   UNL     1     -17.189 -19.485  24.389  1.00  0.00     0.238 A 
ATOM      4  O   UNL     1     -17.017 -20.477  25.144  1.00  0.00    -0.285 OA
ATOM      5  C   UNL     1     -16.559 -19.403  23.123  1.00  0.00     0.111 A 
ATOM      6  C   UNL     1     -15.628 -20.360  22.618  1.00  0.00     0.134 A 
ATOM      7  C   UNL     1     -15.168 -20.247  21.301  1.00  0.00     0.093 A 
ATOM      8  C   UNL     1     -15.554 -19.176  20.492  1.00  0.00     0.123 A 
ATOM      9  C   UNL     1     -16.417 -18.205  20.995  1.00  0.00     0.094 A 
ATOM     10  C   UNL     1     -16.921 -18.310  22.295  1.00  0.00     0.146 A 
ATOM     11  O   UNL     1     -17.749 -17.368  22.731  1.00  0.00    -0.452 OA
ENDROOT
BRANCH   1  12
ATOM     12  C   UNL     1     -19.188 -16.258  24.314  1.00  0.00     0.025 A 
ATOM     13  C   UNL     1     -19.090 -15.638  25.572  1.00  0.00     0.016 A 
ATOM     14  C   UNL     1     -19.921 -14.561  25.895  1.00  0.00     0.051 A 
ATOM     15  C   UNL     1     -20.850 -14.080  24.965  1.00  0.00     0.157 A 
ATOM     16  C   UNL     1     -20.107 -15.758  23.376  1.00  0.00     0.062 A 
ATOM     17  C   UNL     1     -20.942 -14.681  23.698  1.00  0.00     0.158 A 
BRANCH  15  18
ATOM     18  O   UNL     1     -21.679 -13.008  25.291  1.00  0.00    -0.504 OA
ATOM     19  H   UNL     1     -21.603 -12.532  26.183  1.00  0.00     0.293 HD
ENDBRANCH  15  18
BRANCH  17  20
ATOM     20  O   UNL     1     -21.852 -14.222  22.747  1.00  0.00    -0.504 OA
ATOM     21  H   UNL     1     -21.635 -13.457  22.119  1.00  0.00     0.293 HD
ENDBRANCH  17  20
ENDBRANCH   1  12
BRANCH   2  22
ATOM     22  O   UNL     1     -18.708 -18.536  26.038  1.00  0.00    -0.502 OA
ATOM     23  H   UNL     1     -19.360 -19.276  26.269  1.00  0.00     0.293 HD
ENDBRANCH   2  22
BRANCH   6  24
ATOM     24  O   UNL     1     -15.107 -21.416  23.373  1.00  0.00    -0.507 OA
ATOM     25  H   UNL     1     -15.659 -22.054  23.925  1.00  0.00     0.293 HD
ENDBRANCH   6  24
BRANCH   8  26
ATOM     26  O   UNL     1     -15.079 -19.062  19.187  1.00  0.00    -0.508 OA
ATOM     27  H   UNL     1     -14.241 -18.535  18.972  1.00  0.00     0.293 HD
ENDBRANCH   8  26
TORSDOF 6
ENDMDL
MODEL 6
REMARK VINA RESULT:    -6.335      4.784      6.359
REMARK INTER + INTRA:          -7.932
REMARK INTER:                  -7.628
REMARK INTRA:                  -0.303
REMARK UNBOUND:                -0.301
REMARK SMILES O=c1c(O)c(-c2ccc(O)c(O)c2)oc2cc(O)cc(O)c12
REMARK SMILES IDX 5 1 3 2 2 3 1 4 22 5 20 6 19 7 17 8 16 9 15 10 14 11 6 12
REMARK SMILES IDX 7 13 8 14 9 15 13 16 11 17 10 18 12 20 4 22 21 24 18 26
REMARK H PARENT 10 19 12 21 4 23 21 25 18 27
REMARK Flexibility Score: inf
ROOT
ATOM      1  C   UNL     1     -17.795 -17.885  26.139  1.00  0.00     0.180 A 
ATOM      2  C   UNL     1     -16.852 -18.511  25.306  1.00  0.00     0.208 A 
ATOM      3  C   UNL     1     -15.682 -19.038  25.876  1.00  0.00     0.238 A 
ATOM      4  O   UNL     1     -14.816 -19.549  25.118  1.00  0.00    -0.285 OA
ATOM      5  C   UNL     1     -15.478 -18.948  27.274  1.00  0.00     0.111 A 
ATOM      6  C   UNL     1     -14.349 -19.483  27.964  1.00  0.00     0.134 A 
ATOM      7  C   UNL     1     -14.187 -19.221  29.330  1.00  0.00     0.093 A 
ATOM      8  C   UNL     1     -15.147 -18.500  30.044  1.00  0.00     0.123 A 
ATOM      9  C   UNL     1     -16.281 -18.024  29.392  1.00  0.00     0.094 A 
ATOM     10  C   UNL     1     -16.453 -18.238  28.021  1.00  0.00     0.146 A 
ATOM     11  O   UNL     1     -17.544 -17.759  27.437  1.00  0.00    -0.452 OA
ENDROOT
BRANCH   1  12
ATOM     12  C   UNL     1     -19.063 -17.329  25.615  1.00  0.00     0.025 A 
ATOM     13  C   UNL     1     -19.191 -15.964  25.304  1.00  0.00     0.016 A 
ATOM     14  C   UNL     1     -20.390 -15.466  24.789  1.00  0.00     0.051 A 
ATOM     15  C   UNL     1     -21.474 -16.324  24.565  1.00  0.00     0.157 A 
ATOM     16  C   UNL     1     -20.146 -18.189  25.370  1.00  0.00     0.062 A 
ATOM     17  C   UNL     1     -21.350 -17.693  24.855  1.00  0.00     0.158 A 
BRANCH  15  18
ATOM     18  O   UNL     1     -22.671 -15.824  24.053  1.00  0.00    -0.504 OA
ATOM     19  H   UNL     1     -23.420 -15.515  24.661  1.00  0.00     0.293 HD
ENDBRANCH  15  18
BRANCH  17  20
ATOM     20  O   UNL     1     -22.408 -18.575  24.637  1.00  0.00    -0.504 OA
ATOM     21  H   UNL     1     -22.390 -19.530  24.975  1.00  0.00     0.293 HD
ENDBRANCH  17  20
ENDBRANCH   1  12
BRANCH   2  22
ATOM     22  O   UNL     1     -17.063 -18.570  23.925  1.00  0.00    -0.502 OA
ATOM     23  H   UNL     1     -16.359 -18.287  23.254  1.00  0.00     0.293 HD
ENDBRANCH   2  22
BRANCH   6  24
ATOM     24  O   UNL     1     -13.380 -20.294  27.365  1.00  0.00    -0.507 OA
ATOM     25  H   UNL     1     -12.415 -20.032  27.231  1.00  0.00     0.293 HD
ENDBRANCH   6  24
BRANCH   8  26
ATOM     26  O   UNL     1     -14.985 -18.257  31.407  1.00  0.00    -0.508 OA
ATOM     27  H   UNL     1     -15.700 -18.509  32.079  1.00  0.00     0.293 HD
ENDBRANCH   8  26
TORSDOF 6
ENDMDL
MODEL 7
REMARK VINA RESULT:    -6.333      4.978      6.644
REMARK INTER + INTRA:          -7.929
REMARK INTER:                  -7.611
REMARK INTRA:                  -0.318
REMARK UNBOUND:                -0.301
REMARK SMILES O=c1c(O)c(-c2ccc(O)c(O)c2)oc2cc(O)cc(O)c12
REMARK SMILES IDX 5 1 3 2 2 3 1 4 22 5 20 6 19 7 17 8 16 9 15 10 14 11 6 12
REMARK SMILES IDX 7 13 8 14 9 15 13 16 11 17 10 18 12 20 4 22 21 24 18 26
REMARK H PARENT 10 19 12 21 4 23 21 25 18 27
REMARK Flexibility Score: inf
ROOT
ATOM      1  C   UNL     1     -17.146 -18.088  26.251  1.00  0.00     0.180 A 
ATOM      2  C   UNL     1     -16.817 -18.078  27.617  1.00  0.00     0.208 A 
ATOM      3  C   UNL     1     -15.521 -18.451  28.010  1.00  0.00     0.238 A 
ATOM      4  O   UNL     1     -15.249 -18.492  29.238  1.00  0.00    -0.285 OA
ATOM      5  C   UNL     1     -14.566 -18.811  27.028  1.00  0.00     0.111 A 
ATOM      6  C   UNL     1     -13.212 -19.168  27.309  1.00  0.00     0.134 A 
ATOM      7  C   UNL     1     -12.392 -19.633  26.274  1.00  0.00     0.093 A 
ATOM      8  C   UNL     1     -12.858 -19.694  24.957  1.00  0.00     0.123 A 
ATOM      9  C   UNL     1     -14.159 -19.293  24.665  1.00  0.00     0.094 A 
ATOM     10  C   UNL     1     -15.013 -18.857  25.683  1.00  0.00     0.146 A 
ATOM     11  O   UNL     1     -16.248 -18.494  25.361  1.00  0.00    -0.452 OA
ENDROOT
BRANCH   1  12
ATOM     12  C   UNL     1     -18.483 -17.684  25.760  1.00  0.00     0.025 A 
ATOM     13  C   UNL     1     -18.733 -16.375  25.309  1.00  0.00     0.016 A 
ATOM     14  C   UNL     1     -19.996 -16.024  24.828  1.00  0.00     0.051 A 
ATOM     15  C   UNL     1     -21.024 -16.974  24.776  1.00  0.00     0.157 A 
ATOM     16  C   UNL     1     -19.511 -18.638  25.687  1.00  0.00     0.062 A 
ATOM     17  C   UNL     1     -20.778 -18.289  25.207  1.00  0.00     0.158 A 
BRANCH  15  18
ATOM     18  O   UNL     1     -22.284 -16.619  24.298  1.00  0.00    -0.504 OA
ATOM     19  H   UNL     1     -22.407 -15.858  23.639  1.00  0.00     0.293 HD
ENDBRANCH  15  18
BRANCH  17  20
ATOM     20  O   UNL     1     -21.778 -19.260  25.163  1.00  0.00    -0.504 OA
ATOM     21  H   UNL     1     -22.760 -19.019  25.121  1.00  0.00     0.293 HD
ENDBRANCH  17  20
ENDBRANCH   1  12
BRANCH   2  22
ATOM     22  O   UNL     1     -17.782 -17.739  28.571  1.00  0.00    -0.502 OA
ATOM     23  H   UNL     1     -18.575 -17.146  28.357  1.00  0.00     0.293 HD
ENDBRANCH   2  22
BRANCH   6  24
ATOM     24  O   UNL     1     -12.621 -19.056  28.571  1.00  0.00    -0.507 OA
ATOM     25  H   UNL     1     -12.284 -18.195  28.973  1.00  0.00     0.293 HD
ENDBRANCH   6  24
BRANCH   8  26
ATOM     26  O   UNL     1     -12.030 -20.143  23.931  1.00  0.00    -0.508 OA
ATOM     27  H   UNL     1     -12.262 -19.990  22.957  1.00  0.00     0.293 HD
ENDBRANCH   8  26
TORSDOF 6
ENDMDL
MODEL 8
REMARK VINA RESULT:    -6.332      3.979      5.578
REMARK INTER + INTRA:          -7.928
REMARK INTER:                  -7.676
REMARK INTRA:                  -0.253
REMARK UNBOUND:                -0.301
REMARK SMILES O=c1c(O)c(-c2ccc(O)c(O)c2)oc2cc(O)cc(O)c12
REMARK SMILES IDX 5 1 3 2 2 3 1 4 22 5 20 6 19 7 17 8 16 9 15 10 14 11 6 12
REMARK SMILES IDX 7 13 8 14 9 15 13 16 11 17 10 18 12 20 4 22 21 24 18 26
REMARK H PARENT 10 19 12 21 4 23 21 25 18 27
REMARK Flexibility Score: inf
ROOT
ATOM      1  C   UNL     1     -18.302 -18.252  25.203  1.00  0.00     0.180 A 
ATOM      2  C   UNL     1     -17.482 -17.768  26.236  1.00  0.00     0.208 A 
ATOM      3  C   UNL     1     -16.179 -18.275  26.368  1.00  0.00     0.238 A 
ATOM      4  O   UNL     1     -15.469 -17.879  27.328  1.00  0.00    -0.285 OA
ATOM      5  C   UNL     1     -15.707 -19.247  25.451  1.00  0.00     0.111 A 
ATOM      6  C   UNL     1     -14.391 -19.800  25.465  1.00  0.00     0.134 A 
ATOM      7  C   UNL     1     -14.075 -20.850  24.594  1.00  0.00     0.093 A 
ATOM      8  C   UNL     1     -15.007 -21.321  23.664  1.00  0.00     0.123 A 
ATOM      9  C   UNL     1     -16.274 -20.747  23.604  1.00  0.00     0.094 A 
ATOM     10  C   UNL     1     -16.631 -19.722  24.486  1.00  0.00     0.146 A 
ATOM     11  O   UNL     1     -17.853 -19.210  24.400  1.00  0.00    -0.452 OA
ENDROOT
BRANCH   1  12
ATOM     12  C   UNL     1     -19.677 -17.747  24.986  1.00  0.00     0.025 A 
ATOM     13  C   UNL     1     -20.802 -18.504  25.357  1.00  0.00     0.016 A 
ATOM     14  C   UNL     1     -22.090 -17.997  25.164  1.00  0.00     0.051 A 
ATOM     15  C   UNL     1     -22.273 -16.723  24.610  1.00  0.00     0.157 A 
ATOM     16  C   UNL     1     -19.865 -16.463  24.450  1.00  0.00     0.062 A 
ATOM     17  C   UNL     1     -21.154 -15.952  24.253  1.00  0.00     0.158 A 
BRANCH  15  18
ATOM     18  O   UNL     1     -23.559 -16.221  24.416  1.00  0.00    -0.504 OA
ATOM     19  H   UNL     1     -23.829 -15.308  24.762  1.00  0.00     0.293 HD
ENDBRANCH  15  18
BRANCH  17  20
ATOM     20  O   UNL     1     -21.302 -14.679  23.705  1.00  0.00    -0.504 OA
ATOM     21  H   UNL     1     -21.176 -14.500  22.717  1.00  0.00     0.293 HD
ENDBRANCH  17  20
ENDBRANCH   1  12
BRANCH   2  22
ATOM     22  O   UNL     1     -17.976 -16.825  27.142  1.00  0.00    -0.502 OA
ATOM     23  H   UNL     1     -18.455 -15.984  26.846  1.00  0.00     0.293 HD
ENDBRANCH   2  22
BRANCH   6  24
ATOM     24  O   UNL     1     -13.359 -19.341  26.289  1.00  0.00    -0.507 OA
ATOM     25  H   UNL     1     -12.388 -19.593  26.186  1.00  0.00     0.293 HD
ENDBRANCH   6  24
BRANCH   8  26
ATOM     26  O   UNL     1     -14.678 -22.354  22.790  1.00  0.00    -0.508 OA
ATOM     27  H   UNL     1     -15.345 -22.709  22.115  1.00  0.00     0.293 HD
ENDBRANCH   8  26
TORSDOF 6
ENDMDL
MODEL 9
REMARK VINA RESULT:    -6.308      2.331      6.831
REMARK INTER + INTRA:          -7.899
REMARK INTER:                  -7.577
REMARK INTRA:                  -0.322
REMARK UNBOUND:                -0.301
REMARK SMILES O=c1c(O)c(-c2ccc(O)c(O)c2)oc2cc(O)cc(O)c12
REMARK SMILES IDX 5 1 3 2 2 3 1 4 22 5 20 6 19 7 17 8 16 9 15 10 14 11 6 12
REMARK SMILES IDX 7 13 8 14 9 15 13 16 11 17 10 18 12 20 4 22 21 24 18 26
REMARK H PARENT 10 19 12 21 4 23 21 25 18 27
REMARK Flexibility Score: inf
ROOT
ATOM      1  C   UNL     1     -16.144 -18.534  21.870  1.00  0.00     0.180 A 
ATOM      2  C   UNL     1     -16.218 -17.788  20.681  1.00  0.00     0.208 A 
ATOM      3  C   UNL     1     -17.180 -16.771  20.573  1.00  0.00     0.238 A 
ATOM      4  O   UNL     1     -17.278 -16.143  19.487  1.00  0.00    -0.285 OA
ATOM      5  C   UNL     1     -18.043 -16.500  21.663  1.00  0.00     0.111 A 
ATOM      6  C   UNL     1     -19.027 -15.466  21.680  1.00  0.00     0.134 A 
ATOM      7  C   UNL     1     -19.913 -15.374  22.760  1.00  0.00     0.093 A 
ATOM      8  C   UNL     1     -19.808 -16.237  23.854  1.00  0.00     0.123 A 
ATOM      9  C   UNL     1     -18.813 -17.211  23.874  1.00  0.00     0.094 A 
ATOM     10  C   UNL     1     -17.937 -17.351  22.794  1.00  0.00     0.146 A 
ATOM     11  O   UNL     1     -17.010 -18.300  22.849  1.00  0.00    -0.452 OA
ENDROOT
BRANCH   1  12
ATOM     12  C   UNL     1     -15.140 -19.604  22.067  1.00  0.00     0.025 A 
ATOM     13  C   UNL     1     -15.422 -20.942  21.740  1.00  0.00     0.016 A 
ATOM     14  C   UNL     1     -14.451 -21.932  21.913  1.00  0.00     0.051 A 
ATOM     15  C   UNL     1     -13.181 -21.599  22.401  1.00  0.00     0.157 A 
ATOM     16  C   UNL     1     -13.859 -19.272  22.537  1.00  0.00     0.062 A 
ATOM     17  C   UNL     1     -12.883 -20.262  22.713  1.00  0.00     0.158 A 
BRANCH  15  18
ATOM     18  O   UNL     1     -12.215 -22.589  22.575  1.00  0.00    -0.504 OA
ATOM     19  H   UNL     1     -11.403 -22.649  21.971  1.00  0.00     0.293 HD
ENDBRANCH  15  18
BRANCH  17  20
ATOM     20  O   UNL     1     -11.627 -19.896  23.194  1.00  0.00    -0.504 OA
ATOM     21  H   UNL     1     -11.276 -18.950  23.116  1.00  0.00     0.293 HD
ENDBRANCH  17  20
ENDBRANCH   1  12
BRANCH   2  22
ATOM     22  O   UNL     1     -15.371 -18.086  19.610  1.00  0.00    -0.502 OA
ATOM     23  H   UNL     1     -15.544 -17.752  18.669  1.00  0.00     0.293 HD
ENDBRANCH   2  22
BRANCH   6  24
ATOM     24  O   UNL     1     -19.157 -14.496  20.682  1.00  0.00    -0.507 OA
ATOM     25  H   UNL     1     -18.603 -13.655  20.623  1.00  0.00     0.293 HD
ENDBRANCH   6  24
BRANCH   8  26
ATOM     26  O   UNL     1     -20.684 -16.128  24.932  1.00  0.00    -0.508 OA
ATOM     27  H   UNL     1     -20.999 -15.226  25.270  1.00  0.00     0.293 HD
ENDBRANCH   8  26
TORSDOF 6
ENDMDL
