MODEL 1
REMARK VINA RESULT:    -6.418      0.000      0.000
REMARK INTER + INTRA:          -8.049
REMARK INTER:                  -7.731
REMARK INTRA:                  -0.319
REMARK UNBOUND:                -0.319
REMARK SMILES O=c1c(O)c(-c2ccc(O)c(O)c2)oc2cc(O)cc(O)c12
REMARK SMILES IDX 5 1 3 2 2 3 1 4 22 5 20 6 19 7 17 8 16 9 15 10 14 11 6 12
REMARK SMILES IDX 7 13 8 14 9 15 13 16 11 17 10 18 12 20 4 22 21 24 18 26
REMARK H PARENT 10 19 12 21 4 23 21 25 18 27
REMARK Flexibility Score: inf
ROOT
ATOM      1  C   UNL     1      35.786  21.872  27.216  1.00  0.00     0.180 A 
ATOM      2  C   UNL     1      36.830  22.585  26.601  1.00  0.00     0.208 A 
ATOM      3  C   UNL     1      36.544  23.377  25.477  1.00  0.00     0.238 A 
ATOM      4  O   UNL     1      37.472  24.055  24.964  1.00  0.00    -0.285 OA
ATOM      5  C   UNL     1      35.223  23.434  24.973  1.00  0.00     0.111 A 
ATOM      6  C   UNL     1      34.827  24.172  23.816  1.00  0.00     0.134 A 
ATOM      7  C   UNL     1      33.469  24.262  23.485  1.00  0.00     0.093 A 
ATOM      8  C   UNL     1      32.500  23.586  24.231  1.00  0.00     0.123 A 
ATOM      9  C   UNL     1      32.883  22.815  25.326  1.00  0.00     0.094 A 
ATOM     10  C   UNL     1      34.226  22.736  25.703  1.00  0.00     0.146 A 
ATOM     11  O   UNL     1      34.545  21.999  26.759  1.00  0.00    -0.452 OA
ENDROOT
BRANCH   1  12
ATOM     12  C   UNL     1      36.014  20.997  28.388  1.00  0.00     0.025 A 
ATOM     13  C   UNL     1      36.301  19.636  28.189  1.00  0.00     0.016 A 
ATOM     14  C   UNL     1      36.540  18.797  29.280  1.00  0.00     0.051 A 
ATOM     15  C   UNL     1      36.512  19.308  30.584  1.00  0.00     0.157 A 
ATOM     16  C   UNL     1      36.008  21.510  29.697  1.00  0.00     0.062 A 
ATOM     17  C   UNL     1      36.249  20.668  30.793  1.00  0.00     0.158 A 
BRANCH  15  18
ATOM     18  O   UNL     1      36.748  18.474  31.675  1.00  0.00    -0.504 OA
ATOM     19  H   UNL     1      36.676  17.466  31.596  1.00  0.00     0.293 HD
ENDBRANCH  15  18
BRANCH  17  20
ATOM     20  O   UNL     1      36.236  21.177  32.090  1.00  0.00    -0.504 OA
ATOM     21  H   UNL     1      35.491  20.953  32.739  1.00  0.00     0.293 HD
ENDBRANCH  17  20
ENDBRANCH   1  12
BRANCH   2  22
ATOM     22  O   UNL     1      38.124  22.532  27.128  1.00  0.00    -0.502 OA
ATOM     23  H   UNL     1      38.430  23.138  27.879  1.00  0.00     0.293 HD
ENDBRANCH   2  22
BRANCH   6  24
ATOM     24  O   UNL     1      35.724  24.807  22.952  1.00  0.00    -0.507 OA
ATOM     25  H   UNL     1      36.526  25.341  23.248  1.00  0.00     0.293 HD
ENDBRANCH   6  24
BRANCH   8  26
ATOM     26  O   UNL     1      31.153  23.669  23.886  1.00  0.00    -0.508 OA
ATOM     27  H   UNL     1      30.515  22.899  24.049  1.00  0.00     0.293 HD
ENDBRANCH   8  26
TORSDOF 6
ENDMDL
MODEL 2
REMARK VINA RESULT:    -6.416      3.852      5.654
REMARK INTER + INTRA:          -8.048
REMARK INTER:                  -7.840
REMARK INTRA:                  -0.208
REMARK UNBOUND:                -0.319
REMARK SMILES O=c1c(O)c(-c2ccc(O)c(O)c2)oc2cc(O)cc(O)c12
REMARK SMILES IDX 5 1 3 2 2 3 1 4 22 5 20 6 19 7 17 8 16 9 15 10 14 11 6 12
REMARK SMILES IDX 7 13 8 14 9 15 13 16 11 17 10 18 12 20 4 22 21 24 18 26
REMARK H PARENT 10 19 12 21 4 23 21 25 18 27
REMARK Flexibility Score: inf
ROOT
ATOM      1  C   UNL     1      35.530  23.716  31.576  1.00  0.00     0.180 A 
ATOM      2  C   UNL     1      35.611  24.865  30.770  1.00  0.00     0.208 A 
ATOM      3  C   UNL     1      35.853  24.716  29.395  1.00  0.00     0.238 A 
ATOM      4  O   UNL     1      35.871  25.745  28.670  1.00  0.00    -0.285 OA
ATOM      5  C   UNL     1      36.026  23.423  28.845  1.00  0.00     0.111 A 
ATOM      6  C   UNL     1      36.315  23.158  27.472  1.00  0.00     0.134 A 
ATOM      7  C   UNL     1      36.337  21.835  27.014  1.00  0.00     0.093 A 
ATOM      8  C   UNL     1      36.145  20.765  27.893  1.00  0.00     0.123 A 
ATOM      9  C   UNL     1      35.921  21.013  29.245  1.00  0.00     0.094 A 
ATOM     10  C   UNL     1      35.858  22.323  29.726  1.00  0.00     0.146 A 
ATOM     11  O   UNL     1      35.632  22.514  31.019  1.00  0.00    -0.452 OA
ENDROOT
BRANCH   1  12
ATOM     12  C   UNL     1      35.304  23.793  33.036  1.00  0.00     0.025 A 
ATOM     13  C   UNL     1      36.306  24.326  33.864  1.00  0.00     0.016 A 
ATOM     14  C   UNL     1      36.105  24.427  35.243  1.00  0.00     0.051 A 
ATOM     15  C   UNL     1      34.894  24.013  35.813  1.00  0.00     0.157 A 
ATOM     16  C   UNL     1      34.082  23.398  33.610  1.00  0.00     0.062 A 
ATOM     17  C   UNL     1      33.880  23.501  34.995  1.00  0.00     0.158 A 
BRANCH  15  18
ATOM     18  O   UNL     1      34.690  24.111  37.188  1.00  0.00    -0.504 OA
ATOM     19  H   UNL     1      34.811  23.311  37.800  1.00  0.00     0.293 HD
ENDBRANCH  15  18
BRANCH  17  20
ATOM     20  O   UNL     1      32.670  23.102  35.562  1.00  0.00    -0.504 OA
ATOM     21  H   UNL     1      32.418  22.125  35.639  1.00  0.00     0.293 HD
ENDBRANCH  17  20
ENDBRANCH   1  12
BRANCH   2  22
ATOM     22  O   UNL     1      35.415  26.131  31.329  1.00  0.00    -0.502 OA
ATOM     23  H   UNL     1      35.632  26.985  30.830  1.00  0.00     0.293 HD
ENDBRANCH   2  22
BRANCH   6  24
ATOM     24  O   UNL     1      36.613  24.149  26.533  1.00  0.00    -0.507 OA
ATOM     25  H   UNL     1      35.931  24.751  26.097  1.00  0.00     0.293 HD
ENDBRANCH   6  24
BRANCH   8  26
ATOM     26  O   UNL     1      36.183  19.451  27.431  1.00  0.00    -0.508 OA
ATOM     27  H   UNL     1      36.961  18.837  27.642  1.00  0.00     0.293 HD
ENDBRANCH   8  26
TORSDOF 6
ENDMDL
MODEL 3
REMARK VINA RESULT:    -6.253      4.695      6.485
REMARK INTER + INTRA:          -7.852
REMARK INTER:                  -7.547
REMARK INTRA:                  -0.305
REMARK UNBOUND:                -0.319
REMARK SMILES O=c1c(O)c(-c2ccc(O)c(O)c2)oc2cc(O)cc(O)c12
REMARK SMILES IDX 5 1 3 2 2 3 1 4 22 5 20 6 19 7 17 8 16 9 15 10 14 11 6 12
REMARK SMILES IDX 7 13 8 14 9 15 13 16 11 17 10 18 12 20 4 22 21 24 18 26
REMARK H PARENT 10 19 12 21 4 23 21 25 18 27
REMARK Flexibility Score: inf
ROOT
ATOM      1  C   UNL     1      35.622  24.130  32.276  1.00  0.00     0.180 A 
ATOM      2  C   UNL     1      35.682  23.222  31.204  1.00  0.00     0.208 A 
ATOM      3  C   UNL     1      36.097  23.684  29.944  1.00  0.00     0.238 A 
ATOM      4  O   UNL     1      36.200  22.855  29.002  1.00  0.00    -0.285 OA
ATOM      5  C   UNL     1      36.433  25.047  29.768  1.00  0.00     0.111 A 
ATOM      6  C   UNL     1      36.828  25.632  28.527  1.00  0.00     0.134 A 
ATOM      7  C   UNL     1      37.263  26.962  28.497  1.00  0.00     0.093 A 
ATOM      8  C   UNL     1      37.253  27.749  29.652  1.00  0.00     0.123 A 
ATOM      9  C   UNL     1      36.813  27.205  30.856  1.00  0.00     0.094 A 
ATOM     10  C   UNL     1      36.408  25.869  30.925  1.00  0.00     0.146 A 
ATOM     11  O   UNL     1      36.006  25.388  32.094  1.00  0.00    -0.452 OA
ENDROOT
BRANCH   1  12
ATOM     12  C   UNL     1      35.170  23.724  33.626  1.00  0.00     0.025 A 
ATOM     13  C   UNL     1      36.119  23.539  34.645  1.00  0.00     0.016 A 
ATOM     14  C   UNL     1      35.712  23.177  35.932  1.00  0.00     0.051 A 
ATOM     15  C   UNL     1      34.352  23.010  36.223  1.00  0.00     0.157 A 
ATOM     16  C   UNL     1      33.804  23.577  33.928  1.00  0.00     0.062 A 
ATOM     17  C   UNL     1      33.396  23.215  35.220  1.00  0.00     0.158 A 
BRANCH  15  18
ATOM     18  O   UNL     1      33.942  22.648  37.505  1.00  0.00    -0.504 OA
ATOM     19  H   UNL     1      34.130  23.237  38.308  1.00  0.00     0.293 HD
ENDBRANCH  15  18
BRANCH  17  20
ATOM     20  O   UNL     1      32.042  23.063  35.515  1.00  0.00    -0.504 OA
ATOM     21  H   UNL     1      31.428  22.518  34.922  1.00  0.00     0.293 HD
ENDBRANCH  17  20
ENDBRANCH   1  12
BRANCH   2  22
ATOM     22  O   UNL     1      35.367  21.875  31.404  1.00  0.00    -0.502 OA
ATOM     23  H   UNL     1      36.012  21.127  31.178  1.00  0.00     0.293 HD
ENDBRANCH   2  22
BRANCH   6  24
ATOM     24  O   UNL     1      36.786  24.961  27.301  1.00  0.00    -0.507 OA
ATOM     25  H   UNL     1      35.970  24.890  26.712  1.00  0.00     0.293 HD
ENDBRANCH   6  24
BRANCH   8  26
ATOM     26  O   UNL     1      37.673  29.077  29.610  1.00  0.00    -0.508 OA
ATOM     27  H   UNL     1      38.463  29.366  29.046  1.00  0.00     0.293 HD
ENDBRANCH   8  26
TORSDOF 6
ENDMDL
MODEL 4
REMARK VINA RESULT:    -6.083      1.917      7.047
REMARK INTER + INTRA:          -7.646
REMARK INTER:                  -7.326
REMARK INTRA:                  -0.320
REMARK UNBOUND:                -0.319
REMARK SMILES O=c1c(O)c(-c2ccc(O)c(O)c2)oc2cc(O)cc(O)c12
REMARK SMILES IDX 5 1 3 2 2 3 1 4 22 5 20 6 19 7 17 8 16 9 15 10 14 11 6 12
REMARK SMILES IDX 7 13 8 14 9 15 13 16 11 17 10 18 12 20 4 22 21 24 18 26
REMARK H PARENT 10 19 12 21 4 23 21 25 18 27
REMARK Flexibility Score: inf
ROOT
ATOM      1  C   UNL     1      35.797  22.731  27.710  1.00  0.00     0.180 A 
ATOM      2  C   UNL     1      35.879  21.354  27.979  1.00  0.00     0.208 A 
ATOM      3  C   UNL     1      36.014  20.928  29.311  1.00  0.00     0.238 A 
ATOM      4  O   UNL     1      36.033  19.692  29.550  1.00  0.00    -0.285 OA
ATOM      5  C   UNL     1      36.079  21.882  30.354  1.00  0.00     0.111 A 
ATOM      6  C   UNL     1      36.255  21.564  31.734  1.00  0.00     0.134 A 
ATOM      7  C   UNL     1      36.174  22.582  32.693  1.00  0.00     0.093 A 
ATOM      8  C   UNL     1      35.991  23.915  32.315  1.00  0.00     0.123 A 
ATOM      9  C   UNL     1      35.878  24.242  30.966  1.00  0.00     0.094 A 
ATOM     10  C   UNL     1      35.917  23.244  29.989  1.00  0.00     0.146 A 
ATOM     11  O   UNL     1      35.795  23.599  28.716  1.00  0.00    -0.452 OA
ENDROOT
BRANCH   1  12
ATOM     12  C   UNL     1      35.680  23.258  26.332  1.00  0.00     0.025 A 
ATOM     13  C   UNL     1      36.841  23.457  25.567  1.00  0.00     0.016 A 
ATOM     14  C   UNL     1      36.752  23.934  24.257  1.00  0.00     0.051 A 
ATOM     15  C   UNL     1      35.502  24.204  23.686  1.00  0.00     0.157 A 
ATOM     16  C   UNL     1      34.425  23.510  25.748  1.00  0.00     0.062 A 
ATOM     17  C   UNL     1      34.336  23.988  24.432  1.00  0.00     0.158 A 
BRANCH  15  18
ATOM     18  O   UNL     1      35.409  24.681  22.380  1.00  0.00    -0.504 OA
ATOM     19  H   UNL     1      35.855  24.200  21.608  1.00  0.00     0.293 HD
ENDBRANCH  15  18
BRANCH  17  20
ATOM     20  O   UNL     1      33.092  24.243  23.857  1.00  0.00    -0.504 OA
ATOM     21  H   UNL     1      32.938  24.145  22.861  1.00  0.00     0.293 HD
ENDBRANCH  17  20
ENDBRANCH   1  12
BRANCH   2  22
ATOM     22  O   UNL     1      35.790  20.427  26.937  1.00  0.00    -0.502 OA
ATOM     23  H   UNL     1      35.312  19.540  27.038  1.00  0.00     0.293 HD
ENDBRANCH   2  22
BRANCH   6  24
ATOM     24  O   UNL     1      36.536  20.280  32.209  1.00  0.00    -0.507 OA
ATOM     25  H   UNL     1      36.578  19.452  31.635  1.00  0.00     0.293 HD
ENDBRANCH   6  24
BRANCH   8  26
ATOM     26  O   UNL     1      35.927  24.922  33.275  1.00  0.00    -0.508 OA
ATOM     27  H   UNL     1      35.974  25.901  33.020  1.00  0.00     0.293 HD
ENDBRANCH   8  26
TORSDOF 6
ENDMDL
MODEL 5
REMARK VINA RESULT:    -6.062      4.381      6.851
REMARK INTER + INTRA:          -7.621
REMARK INTER:                  -7.294
REMARK INTRA:                  -0.327
REMARK UNBOUND:                -0.319
REMARK SMILES O=c1c(O)c(-c2ccc(O)c(O)c2)oc2cc(O)cc(O)c12
REMARK SMILES IDX 5 1 3 2 2 3 1 4 22 5 20 6 19 7 17 8 16 9 15 10 14 11 6 12
REMARK SMILES IDX 7 13 8 14 9 15 13 16 11 17 10 18 12 20 4 22 21 24 18 26
REMARK H PARENT 10 19 12 21 4 23 21 25 18 27
REMARK Flexibility Score: inf
ROOT
ATOM      1  C   UNL     1      35.681  23.456  32.861  1.00  0.00     0.180 A 
ATOM      2  C   UNL     1      36.311  22.228  32.594  1.00  0.00     0.208 A 
ATOM      3  C   UNL     1      36.953  22.048  31.358  1.00  0.00     0.238 A 
ATOM      4  O   UNL     1      37.561  20.966  31.146  1.00  0.00    -0.285 OA
ATOM      5  C   UNL     1      36.944  23.090  30.400  1.00  0.00     0.111 A 
ATOM      6  C   UNL     1      37.528  23.001  29.100  1.00  0.00     0.134 A 
ATOM      7  C   UNL     1      37.574  24.139  28.285  1.00  0.00     0.093 A 
ATOM      8  C   UNL     1      36.998  25.344  28.696  1.00  0.00     0.123 A 
ATOM      9  C   UNL     1      36.373  25.423  29.938  1.00  0.00     0.094 A 
ATOM     10  C   UNL     1      36.343  24.316  30.789  1.00  0.00     0.146 A 
ATOM     11  O   UNL     1      35.747  24.438  31.968  1.00  0.00    -0.452 OA
ENDROOT
BRANCH   1  12
ATOM     12  C   UNL     1      34.962  23.713  34.130  1.00  0.00     0.025 A 
ATOM     13  C   UNL     1      35.610  24.413  35.162  1.00  0.00     0.016 A 
ATOM     14  C   UNL     1      34.943  24.684  36.359  1.00  0.00     0.051 A 
ATOM     15  C   UNL     1      33.616  24.274  36.538  1.00  0.00     0.157 A 
ATOM     16  C   UNL     1      33.623  23.322  34.305  1.00  0.00     0.062 A 
ATOM     17  C   UNL     1      32.953  23.595  35.507  1.00  0.00     0.158 A 
BRANCH  15  18
ATOM     18  O   UNL     1      32.948  24.541  37.731  1.00  0.00    -0.504 OA
ATOM     19  H   UNL     1      32.196  25.219  37.777  1.00  0.00     0.293 HD
ENDBRANCH  15  18
BRANCH  17  20
ATOM     20  O   UNL     1      31.628  23.201  35.681  1.00  0.00    -0.504 OA
ATOM     21  H   UNL     1      30.860  23.744  35.305  1.00  0.00     0.293 HD
ENDBRANCH  17  20
ENDBRANCH   1  12
BRANCH   2  22
ATOM     22  O   UNL     1      36.326  21.221  33.562  1.00  0.00    -0.502 OA
ATOM     23  H   UNL     1      37.187  20.852  33.949  1.00  0.00     0.293 HD
ENDBRANCH   2  22
BRANCH   6  24
ATOM     24  O   UNL     1      38.049  21.823  28.558  1.00  0.00    -0.507 OA
ATOM     25  H   UNL     1      37.586  21.256  27.864  1.00  0.00     0.293 HD
ENDBRANCH   6  24
BRANCH   8  26
ATOM     26  O   UNL     1      37.035  26.466  27.872  1.00  0.00    -0.508 OA
ATOM     27  H   UNL     1      37.223  27.390  28.241  1.00  0.00     0.293 HD
ENDBRANCH   8  26
TORSDOF 6
ENDMDL
MODEL 6
REMARK VINA RESULT:    -5.844      4.197      8.039
REMARK INTER + INTRA:          -7.358
REMARK INTER:                  -7.130
REMARK INTRA:                  -0.228
REMARK UNBOUND:                -0.319
REMARK SMILES O=c1c(O)c(-c2ccc(O)c(O)c2)oc2cc(O)cc(O)c12
REMARK SMILES IDX 5 1 3 2 2 3 1 4 22 5 20 6 19 7 17 8 16 9 15 10 14 11 6 12
REMARK SMILES IDX 7 13 8 14 9 15 13 16 11 17 10 18 12 20 4 22 21 24 18 26
REMARK H PARENT 10 19 12 21 4 23 21 25 18 27
REMARK Flexibility Score: inf
ROOT
ATOM      1  C   UNL     1      35.860  23.417  31.722  1.00  0.00     0.180 A 
ATOM      2  C   UNL     1      36.945  24.087  32.314  1.00  0.00     0.208 A 
ATOM      3  C   UNL     1      36.836  24.510  33.649  1.00  0.00     0.238 A 
ATOM      4  O   UNL     1      37.831  25.061  34.190  1.00  0.00    -0.285 OA
ATOM      5  C   UNL     1      35.641  24.274  34.369  1.00  0.00     0.111 A 
ATOM      6  C   UNL     1      35.407  24.695  35.713  1.00  0.00     0.134 A 
ATOM      7  C   UNL     1      34.238  24.292  36.369  1.00  0.00     0.093 A 
ATOM      8  C   UNL     1      33.263  23.539  35.708  1.00  0.00     0.123 A 
ATOM      9  C   UNL     1      33.456  23.175  34.378  1.00  0.00     0.094 A 
ATOM     10  C   UNL     1      34.629  23.530  33.708  1.00  0.00     0.146 A 
ATOM     11  O   UNL     1      34.777  23.152  32.444  1.00  0.00    -0.452 OA
ENDROOT
BRANCH   1  12
ATOM     12  C   UNL     1      35.889  22.963  30.313  1.00  0.00     0.025 A 
ATOM     13  C   UNL     1      35.862  21.587  30.030  1.00  0.00     0.016 A 
ATOM     14  C   UNL     1      35.868  21.137  28.707  1.00  0.00     0.051 A 
ATOM     15  C   UNL     1      35.885  22.054  27.649  1.00  0.00     0.157 A 
ATOM     16  C   UNL     1      35.885  23.881  29.247  1.00  0.00     0.062 A 
ATOM     17  C   UNL     1      35.890  23.429  27.919  1.00  0.00     0.158 A 
BRANCH  15  18
ATOM     18  O   UNL     1      35.893  21.610  26.328  1.00  0.00    -0.504 OA
ATOM     19  H   UNL     1      35.263  21.998  25.635  1.00  0.00     0.293 HD
ENDBRANCH  15  18
BRANCH  17  20
ATOM     20  O   UNL     1      35.892  24.340  26.865  1.00  0.00    -0.504 OA
ATOM     21  H   UNL     1      36.198  24.075  25.936  1.00  0.00     0.293 HD
ENDBRANCH  17  20
ENDBRANCH   1  12
BRANCH   2  22
ATOM     22  O   UNL     1      38.124  24.291  31.592  1.00  0.00    -0.502 OA
ATOM     23  H   UNL     1      38.334  23.786  30.740  1.00  0.00     0.293 HD
ENDBRANCH   2  22
BRANCH   6  24
ATOM     24  O   UNL     1      36.272  25.525  36.431  1.00  0.00    -0.507 OA
ATOM     25  H   UNL     1      36.204  25.708  37.421  1.00  0.00     0.293 HD
ENDBRANCH   6  24
BRANCH   8  26
ATOM     26  O   UNL     1      32.096  23.156  36.364  1.00  0.00    -0.508 OA
ATOM     27  H   UNL     1      31.201  23.575  36.142  1.00  0.00     0.293 HD
ENDBRANCH   8  26
TORSDOF 6
ENDMDL
MODEL 7
REMARK VINA RESULT:    -5.817     13.897     17.200
REMARK INTER + INTRA:          -7.326
REMARK INTER:                  -7.287
REMARK INTRA:                  -0.039
REMARK UNBOUND:                -0.319
REMARK SMILES O=c1c(O)c(-c2ccc(O)c(O)c2)oc2cc(O)cc(O)c12
REMARK SMILES IDX 5 1 3 2 2 3 1 4 22 5 20 6 19 7 17 8 16 9 15 10 14 11 6 12
REMARK SMILES IDX 7 13 8 14 9 15 13 16 11 17 10 18 12 20 4 22 21 24 18 26
REMARK H PARENT 10 19 12 21 4 23 21 25 18 27
REMARK Flexibility Score: inf
ROOT
ATOM      1  C   UNL     1      26.835  33.994  20.176  1.00  0.00     0.180 A 
ATOM      2  C   UNL     1      27.435  32.754  20.456  1.00  0.00     0.208 A 
ATOM      3  C   UNL     1      28.751  32.731  20.945  1.00  0.00     0.238 A 
ATOM      4  O   UNL     1      29.264  31.621  21.245  1.00  0.00    -0.285 OA
ATOM      5  C   UNL     1      29.455  33.944  21.133  1.00  0.00     0.111 A 
ATOM      6  C   UNL     1      30.807  34.036  21.584  1.00  0.00     0.134 A 
ATOM      7  C   UNL     1      31.360  35.293  21.859  1.00  0.00     0.093 A 
ATOM      8  C   UNL     1      30.632  36.464  21.633  1.00  0.00     0.123 A 
ATOM      9  C   UNL     1      29.333  36.387  21.136  1.00  0.00     0.094 A 
ATOM     10  C   UNL     1      28.741  35.146  20.888  1.00  0.00     0.146 A 
ATOM     11  O   UNL     1      27.498  35.117  20.424  1.00  0.00    -0.452 OA
ENDROOT
BRANCH   1  12
ATOM     12  C   UNL     1      25.461  34.099  19.634  1.00  0.00     0.025 A 
ATOM     13  C   UNL     1      25.248  34.763  18.415  1.00  0.00     0.016 A 
ATOM     14  C   UNL     1      23.962  34.855  17.875  1.00  0.00     0.051 A 
ATOM     15  C   UNL     1      22.874  34.273  18.538  1.00  0.00     0.157 A 
ATOM     16  C   UNL     1      24.369  33.497  20.285  1.00  0.00     0.062 A 
ATOM     17  C   UNL     1      23.078  33.589  19.742  1.00  0.00     0.158 A 
BRANCH  15  18
ATOM     18  O   UNL     1      21.590  34.364  18.003  1.00  0.00    -0.504 OA
ATOM     19  H   UNL     1      20.783  34.539  18.592  1.00  0.00     0.293 HD
ENDBRANCH  15  18
BRANCH  17  20
ATOM     20  O   UNL     1      21.997  32.997  20.393  1.00  0.00    -0.504 OA
ATOM     21  H   UNL     1      21.156  33.520  20.606  1.00  0.00     0.293 HD
ENDBRANCH  17  20
ENDBRANCH   1  12
BRANCH   2  22
ATOM     22  O   UNL     1      26.714  31.569  20.285  1.00  0.00    -0.502 OA
ATOM     23  H   UNL     1      26.097  31.418  19.497  1.00  0.00     0.293 HD
ENDBRANCH   2  22
BRANCH   6  24
ATOM     24  O   UNL     1      31.649  32.933  21.753  1.00  0.00    -0.507 OA
ATOM     25  H   UNL     1      31.334  31.982  21.868  1.00  0.00     0.293 HD
ENDBRANCH   6  24
BRANCH   8  26
ATOM     26  O   UNL     1      31.195  37.711  21.894  1.00  0.00    -0.508 OA
ATOM     27  H   UNL     1      31.921  38.099  21.304  1.00  0.00     0.293 HD
ENDBRANCH   8  26
TORSDOF 6
ENDMDL
MODEL 8
REMARK VINA RESULT:    -5.623     19.695     20.824
REMARK INTER + INTRA:          -7.093
REMARK INTER:                  -7.099
REMARK INTRA:                   0.006
REMARK UNBOUND:                -0.319
REMARK SMILES O=c1c(O)c(-c2ccc(O)c(O)c2)oc2cc(O)cc(O)c12
REMARK SMILES IDX 5 1 3 2 2 3 1 4 22 5 20 6 19 7 17 8 16 9 15 10 14 11 6 12
REMARK SMILES IDX 7 13 8 14 9 15 13 16 11 17 10 18 12 20 4 22 21 24 18 26
REMARK H PARENT 10 19 12 21 4 23 21 25 18 27
REMARK Flexibility Score: inf
ROOT
ATOM      1  C   UNL     1      19.080  33.303  33.611  1.00  0.00     0.180 A 
ATOM      2  C   UNL     1      19.386  34.669  33.737  1.00  0.00     0.208 A 
ATOM      3  C   UNL     1      19.533  35.443  32.575  1.00  0.00     0.238 A 
ATOM      4  O   UNL     1      19.753  36.677  32.695  1.00  0.00    -0.285 OA
ATOM      5  C   UNL     1      19.387  34.840  31.303  1.00  0.00     0.111 A 
ATOM      6  C   UNL     1      19.554  35.521  30.059  1.00  0.00     0.134 A 
ATOM      7  C   UNL     1      19.257  34.857  28.862  1.00  0.00     0.093 A 
ATOM      8  C   UNL     1      18.863  33.515  28.862  1.00  0.00     0.123 A 
ATOM      9  C   UNL     1      18.756  32.826  30.067  1.00  0.00     0.094 A 
ATOM     10  C   UNL     1      19.009  33.472  31.280  1.00  0.00     0.146 A 
ATOM     11  O   UNL     1      18.884  32.781  32.405  1.00  0.00    -0.452 OA
ENDROOT
BRANCH   1  12
ATOM     12  C   UNL     1      18.935  32.417  34.788  1.00  0.00     0.025 A 
ATOM     13  C   UNL     1      18.043  32.770  35.814  1.00  0.00     0.016 A 
ATOM     14  C   UNL     1      17.875  31.938  36.924  1.00  0.00     0.051 A 
ATOM     15  C   UNL     1      18.584  30.734  37.017  1.00  0.00     0.157 A 
ATOM     16  C   UNL     1      19.629  31.196  34.876  1.00  0.00     0.062 A 
ATOM     17  C   UNL     1      19.460  30.360  35.990  1.00  0.00     0.158 A 
BRANCH  15  18
ATOM     18  O   UNL     1      18.421  29.902  38.123  1.00  0.00    -0.504 OA
ATOM     19  H   UNL     1      18.607  30.229  39.065  1.00  0.00     0.293 HD
ENDBRANCH  15  18
BRANCH  17  20
ATOM     20  O   UNL     1      20.154  29.155  36.078  1.00  0.00    -0.504 OA
ATOM     21  H   UNL     1      19.809  28.311  35.635  1.00  0.00     0.293 HD
ENDBRANCH  17  20
ENDBRANCH   1  12
BRANCH   2  22
ATOM     22  O   UNL     1      19.504  35.249  35.003  1.00  0.00    -0.502 OA
ATOM     23  H   UNL     1      19.111  34.824  35.834  1.00  0.00     0.293 HD
ENDBRANCH   2  22
BRANCH   6  24
ATOM     24  O   UNL     1      20.029  36.830  29.944  1.00  0.00    -0.507 OA
ATOM     25  H   UNL     1      19.494  37.657  30.160  1.00  0.00     0.293 HD
ENDBRANCH   6  24
BRANCH   8  26
ATOM     26  O   UNL     1      18.585  32.858  27.666  1.00  0.00    -0.508 OA
ATOM     27  H   UNL     1      18.460  31.853  27.630  1.00  0.00     0.293 HD
ENDBRANCH   8  26
TORSDOF 6
ENDMDL
MODEL 9
REMARK VINA RESULT:    -5.619     12.433     16.475
REMARK INTER + INTRA:          -7.088
REMARK INTER:                  -6.859
REMARK INTRA:                  -0.229
REMARK UNBOUND:                -0.319
REMARK SMILES O=c1c(O)c(-c2ccc(O)c(O)c2)oc2cc(O)cc(O)c12
REMARK SMILES IDX 5 1 3 2 2 3 1 4 22 5 20 6 19 7 17 8 16 9 15 10 14 11 6 12
REMARK SMILES IDX 7 13 8 14 9 15 13 16 11 17 10 18 12 20 4 22 21 24 18 26
REMARK H PARENT 10 19 12 21 4 23 21 25 18 27
REMARK Flexibility Score: inf
ROOT
ATOM      1  C   UNL     1      27.590  33.762  19.878  1.00  0.00     0.180 A 
ATOM      2  C   UNL     1      27.914  35.124  19.755  1.00  0.00     0.208 A 
ATOM      3  C   UNL     1      29.144  35.579  20.258  1.00  0.00     0.238 A 
ATOM      4  O   UNL     1      29.452  36.789  20.097  1.00  0.00    -0.285 OA
ATOM      5  C   UNL     1      30.026  34.670  20.891  1.00  0.00     0.111 A 
ATOM      6  C   UNL     1      31.280  35.029  21.473  1.00  0.00     0.134 A 
ATOM      7  C   UNL     1      32.129  34.026  21.956  1.00  0.00     0.093 A 
ATOM      8  C   UNL     1      31.741  32.683  21.939  1.00  0.00     0.123 A 
ATOM      9  C   UNL     1      30.495  32.331  21.428  1.00  0.00     0.094 A 
ATOM     10  C   UNL     1      29.641  33.304  20.904  1.00  0.00     0.146 A 
ATOM     11  O   UNL     1      28.467  32.923  20.417  1.00  0.00    -0.452 OA
ENDROOT
BRANCH   1  12
ATOM     12  C   UNL     1      26.303  33.213  19.395  1.00  0.00     0.025 A 
ATOM     13  C   UNL     1      26.299  32.293  18.333  1.00  0.00     0.016 A 
ATOM     14  C   UNL     1      25.097  31.747  17.875  1.00  0.00     0.051 A 
ATOM     15  C   UNL     1      23.884  32.099  18.482  1.00  0.00     0.157 A 
ATOM     16  C   UNL     1      25.085  33.547  20.015  1.00  0.00     0.062 A 
ATOM     17  C   UNL     1      23.879  32.997  19.556  1.00  0.00     0.158 A 
BRANCH  15  18
ATOM     18  O   UNL     1      22.683  31.557  18.027  1.00  0.00    -0.504 OA
ATOM     19  H   UNL     1      22.503  31.424  17.038  1.00  0.00     0.293 HD
ENDBRANCH  15  18
BRANCH  17  20
ATOM     20  O   UNL     1      22.672  33.334  20.167  1.00  0.00    -0.504 OA
ATOM     21  H   UNL     1      21.785  33.195  19.701  1.00  0.00     0.293 HD
ENDBRANCH  17  20
ENDBRANCH   1  12
BRANCH   2  22
ATOM     22  O   UNL     1      27.039  36.000  19.107  1.00  0.00    -0.502 OA
ATOM     23  H   UNL     1      26.979  36.983  19.345  1.00  0.00     0.293 HD
ENDBRANCH   2  22
BRANCH   6  24
ATOM     24  O   UNL     1      31.721  36.347  21.623  1.00  0.00    -0.507 OA
ATOM     25  H   UNL     1      32.038  36.752  22.490  1.00  0.00     0.293 HD
ENDBRANCH   6  24
BRANCH   8  26
ATOM     26  O   UNL     1      32.586  31.694  22.435  1.00  0.00    -0.508 OA
ATOM     27  H   UNL     1      32.224  30.826  22.812  1.00  0.00     0.293 HD
ENDBRANCH   8  26
TORSDOF 6
ENDMDL
