MODEL 1
REMARK VINA RESULT:    -5.032      0.000      0.000
REMARK INTER + INTRA:         -12.207
REMARK INTER:                  -9.740
REMARK INTRA:                  -2.468
REMARK UNBOUND:                -2.468
REMARK SMILES CCCCCCCCCCCCCCCCCC(=O)[O-]
REMARK SMILES IDX 10 1 11 2 12 3 13 4 14 5 15 6 16 7 17 8 18 9 19 10 20 11
REMARK SMILES IDX 9 12 8 13 7 14 6 15 5 16 4 17 3 18 2 19 1 20
REMARK H PARENT
REMARK Flexibility Score: inf
ROOT
ATOM      1  C   UNL     1      63.178  30.291  14.057  1.00  0.00     0.000 C 
ENDROOT
BRANCH   1   2
ATOM      2  C   UNL     1      63.946  31.215  13.097  1.00  0.00     0.000 C 
BRANCH   2   3
ATOM      3  C   UNL     1      63.309  32.611  12.988  1.00  0.00     0.000 C 
BRANCH   3   4
ATOM      4  C   UNL     1      61.779  32.559  12.837  1.00  0.00     0.000 C 
BRANCH   4   5
ATOM      5  C   UNL     1      61.016  32.882  14.139  1.00  0.00     0.000 C 
BRANCH   5   6
ATOM      6  C   UNL     1      61.550  34.148  14.826  1.00  0.00     0.000 C 
BRANCH   6   7
ATOM      7  C   UNL     1      61.871  33.880  16.301  1.00  0.00     0.006 C 
BRANCH   7   8
ATOM      8  C   UNL     1      63.342  34.176  16.607  1.00  0.00     0.053 C 
BRANCH   8   9
ATOM      9  C   UNL     1      63.464  34.974  17.866  1.00  0.00     0.041 C 
ATOM     10  O   UNL     1      62.552  34.933  18.733  1.00  0.00    -0.550 OA
ATOM     11  O   UNL     1      64.609  35.722  18.107  1.00  0.00    -0.550 OA
ENDBRANCH   8   9
ENDBRANCH   7   8
ENDBRANCH   6   7
ENDBRANCH   5   6
ENDBRANCH   4   5
ENDBRANCH   3   4
ENDBRANCH   2   3
ENDBRANCH   1   2
BRANCH   1  12
ATOM     12  C   UNL     1      62.735  28.981  13.381  1.00  0.00     0.000 C 
BRANCH  12  13
ATOM     13  C   UNL     1      61.220  28.744  13.491  1.00  0.00    -0.000 C 
BRANCH  13  14
ATOM     14  C   UNL     1      60.458  29.171  12.229  1.00  0.00    -0.000 C 
BRANCH  14  15
ATOM     15  C   UNL     1      61.307  28.945  10.972  1.00  0.00    -0.000 C 
BRANCH  15  16
ATOM     16  C   UNL     1      61.247  30.161  10.040  1.00  0.00    -0.000 C 
BRANCH  16  17
ATOM     17  C   UNL     1      62.611  30.422   9.387  1.00  0.00    -0.000 C 
BRANCH  17  18
ATOM     18  C   UNL     1      63.698  29.441   9.855  1.00  0.00    -0.000 C 
BRANCH  18  19
ATOM     19  C   UNL     1      65.089  29.723   9.251  1.00  0.00    -0.003 C 
ATOM     20  C   UNL     1      65.749  30.961   9.858  1.00  0.00     0.004 C 
ENDBRANCH  18  19
ENDBRANCH  17  18
ENDBRANCH  16  17
ENDBRANCH  15  16
ENDBRANCH  14  15
ENDBRANCH  13  14
ENDBRANCH  12  13
ENDBRANCH   1  12
TORSDOF 16
ENDMDL
MODEL 2
REMARK VINA RESULT:    -4.917      1.058      2.106
REMARK INTER + INTRA:         -11.985
REMARK INTER:                  -9.484
REMARK INTRA:                  -2.501
REMARK UNBOUND:                -2.468
REMARK SMILES CCCCCCCCCCCCCCCCCC(=O)[O-]
REMARK SMILES IDX 10 1 11 2 12 3 13 4 14 5 15 6 16 7 17 8 18 9 19 10 20 11
REMARK SMILES IDX 9 12 8 13 7 14 6 15 5 16 4 17 3 18 2 19 1 20
REMARK H PARENT
REMARK Flexibility Score: inf
ROOT
ATOM      1  C   UNL     1      61.827  29.358  13.794  1.00  0.00     0.000 C 
ENDROOT
BRANCH   1   2
ATOM      2  C   UNL     1      63.259  29.323  13.233  1.00  0.00     0.000 C 
BRANCH   2   3
ATOM      3  C   UNL     1      64.095  30.536  13.676  1.00  0.00     0.000 C 
BRANCH   3   4
ATOM      4  C   UNL     1      64.018  31.708  12.684  1.00  0.00     0.000 C 
BRANCH   4   5
ATOM      5  C   UNL     1      63.553  33.033  13.324  1.00  0.00     0.000 C 
BRANCH   5   6
ATOM      6  C   UNL     1      62.024  33.120  13.433  1.00  0.00     0.000 C 
BRANCH   6   7
ATOM      7  C   UNL     1      61.567  33.006  14.893  1.00  0.00     0.006 C 
BRANCH   7   8
ATOM      8  C   UNL     1      61.572  34.374  15.579  1.00  0.00     0.053 C 
BRANCH   8   9
ATOM      9  C   UNL     1      62.438  34.344  16.799  1.00  0.00     0.041 C 
ATOM     10  O   UNL     1      63.560  33.773  16.766  1.00  0.00    -0.550 OA
ATOM     11  O   UNL     1      62.028  34.990  17.957  1.00  0.00    -0.550 OA
ENDBRANCH   8   9
ENDBRANCH   7   8
ENDBRANCH   6   7
ENDBRANCH   5   6
ENDBRANCH   4   5
ENDBRANCH   3   4
ENDBRANCH   2   3
ENDBRANCH   1   2
BRANCH   1  12
ATOM     12  C   UNL     1      60.766  29.114  12.707  1.00  0.00     0.000 C 
BRANCH  12  13
ATOM     13  C   UNL     1      60.679  30.268  11.696  1.00  0.00    -0.000 C 
BRANCH  13  14
ATOM     14  C   UNL     1      60.704  29.786  10.239  1.00  0.00    -0.000 C 
BRANCH  14  15
ATOM     15  C   UNL     1      62.053  30.098   9.580  1.00  0.00    -0.000 C 
BRANCH  15  16
ATOM     16  C   UNL     1      62.975  28.874   9.605  1.00  0.00    -0.000 C 
BRANCH  16  17
ATOM     17  C   UNL     1      64.450  29.293   9.524  1.00  0.00    -0.000 C 
BRANCH  17  18
ATOM     18  C   UNL     1      64.635  30.816   9.429  1.00  0.00    -0.000 C 
BRANCH  18  19
ATOM     19  C   UNL     1      66.103  31.251   9.232  1.00  0.00    -0.003 C 
ATOM     20  C   UNL     1      66.432  32.546   9.973  1.00  0.00     0.004 C 
ENDBRANCH  18  19
ENDBRANCH  17  18
ENDBRANCH  16  17
ENDBRANCH  15  16
ENDBRANCH  14  15
ENDBRANCH  13  14
ENDBRANCH  12  13
ENDBRANCH   1  12
TORSDOF 16
ENDMDL
MODEL 3
REMARK VINA RESULT:    -4.889      3.800      6.624
REMARK INTER + INTRA:         -11.929
REMARK INTER:                  -9.075
REMARK INTRA:                  -2.854
REMARK UNBOUND:                -2.468
REMARK SMILES CCCCCCCCCCCCCCCCCC(=O)[O-]
REMARK SMILES IDX 10 1 11 2 12 3 13 4 14 5 15 6 16 7 17 8 18 9 19 10 20 11
REMARK SMILES IDX 9 12 8 13 7 14 6 15 5 16 4 17 3 18 2 19 1 20
REMARK H PARENT
REMARK Flexibility Score: inf
ROOT
ATOM      1  C   UNL     1      64.614  31.395  13.205  1.00  0.00     0.000 C 
ENDROOT
BRANCH   1   2
ATOM      2  C   UNL     1      64.353  32.253  11.956  1.00  0.00     0.000 C 
BRANCH   2   3
ATOM      3  C   UNL     1      65.620  32.969  11.458  1.00  0.00     0.000 C 
BRANCH   3   4
ATOM      4  C   UNL     1      66.084  32.472  10.079  1.00  0.00     0.000 C 
BRANCH   4   5
ATOM      5  C   UNL     1      65.019  31.647   9.326  1.00  0.00     0.000 C 
BRANCH   5   6
ATOM      6  C   UNL     1      65.378  30.155   9.262  1.00  0.00     0.000 C 
BRANCH   6   7
ATOM      7  C   UNL     1      64.119  29.282   9.330  1.00  0.00     0.006 C 
BRANCH   7   8
ATOM      8  C   UNL     1      62.852  30.134   9.219  1.00  0.00     0.053 C 
BRANCH   8   9
ATOM      9  C   UNL     1      61.634  29.264   9.220  1.00  0.00     0.041 C 
ATOM     10  O   UNL     1      61.751  28.011   9.186  1.00  0.00    -0.550 OA
ATOM     11  O   UNL     1      60.372  29.836   9.310  1.00  0.00    -0.550 OA
ENDBRANCH   8   9
ENDBRANCH   7   8
ENDBRANCH   6   7
ENDBRANCH   5   6
ENDBRANCH   4   5
ENDBRANCH   3   4
ENDBRANCH   2   3
ENDBRANCH   1   2
BRANCH   1  12
ATOM     12  C   UNL     1      64.478  29.889  12.921  1.00  0.00     0.000 C 
BRANCH  12  13
ATOM     13  C   UNL     1      63.242  29.269  13.594  1.00  0.00    -0.000 C 
BRANCH  13  14
ATOM     14  C   UNL     1      61.995  29.311  12.701  1.00  0.00    -0.000 C 
BRANCH  14  15
ATOM     15  C   UNL     1      60.871  30.116  13.366  1.00  0.00    -0.000 C 
BRANCH  15  16
ATOM     16  C   UNL     1      60.938  31.594  12.962  1.00  0.00    -0.000 C 
BRANCH  16  17
ATOM     17  C   UNL     1      60.731  32.507  14.179  1.00  0.00    -0.000 C 
BRANCH  17  18
ATOM     18  C   UNL     1      61.367  31.949  15.462  1.00  0.00    -0.000 C 
BRANCH  18  19
ATOM     19  C   UNL     1      62.580  32.764  15.958  1.00  0.00    -0.003 C 
ATOM     20  C   UNL     1      62.861  33.983  15.080  1.00  0.00     0.004 C 
ENDBRANCH  18  19
ENDBRANCH  17  18
ENDBRANCH  16  17
ENDBRANCH  15  16
ENDBRANCH  14  15
ENDBRANCH  13  14
ENDBRANCH  12  13
ENDBRANCH   1  12
TORSDOF 16
ENDMDL
MODEL 4
REMARK VINA RESULT:    -4.778      1.493      3.046
REMARK INTER + INTRA:         -11.714
REMARK INTER:                  -9.299
REMARK INTRA:                  -2.416
REMARK UNBOUND:                -2.468
REMARK SMILES CCCCCCCCCCCCCCCCCC(=O)[O-]
REMARK SMILES IDX 10 1 11 2 12 3 13 4 14 5 15 6 16 7 17 8 18 9 19 10 20 11
REMARK SMILES IDX 9 12 8 13 7 14 6 15 5 16 4 17 3 18 2 19 1 20
REMARK H PARENT
REMARK Flexibility Score: inf
ROOT
ATOM      1  C   UNL     1      60.612  29.835  12.743  1.00  0.00     0.000 C 
ENDROOT
BRANCH   1   2
ATOM      2  C   UNL     1      61.674  29.126  13.601  1.00  0.00     0.000 C 
BRANCH   2   3
ATOM      3  C   UNL     1      63.105  29.384  13.100  1.00  0.00     0.000 C 
BRANCH   3   4
ATOM      4  C   UNL     1      63.797  30.540  13.841  1.00  0.00     0.000 C 
BRANCH   4   5
ATOM      5  C   UNL     1      64.123  31.748  12.938  1.00  0.00     0.000 C 
BRANCH   5   6
ATOM      6  C   UNL     1      63.631  33.073  13.540  1.00  0.00     0.000 C 
BRANCH   6   7
ATOM      7  C   UNL     1      62.101  33.170  13.481  1.00  0.00     0.006 C 
BRANCH   7   8
ATOM      8  C   UNL     1      61.544  33.847  14.737  1.00  0.00     0.053 C 
BRANCH   8   9
ATOM      9  C   UNL     1      61.876  33.044  15.954  1.00  0.00     0.041 C 
ATOM     10  O   UNL     1      61.440  31.868  16.077  1.00  0.00    -0.550 OA
ATOM     11  O   UNL     1      62.708  33.574  16.931  1.00  0.00    -0.550 OA
ENDBRANCH   8   9
ENDBRANCH   7   8
ENDBRANCH   6   7
ENDBRANCH   5   6
ENDBRANCH   4   5
ENDBRANCH   3   4
ENDBRANCH   2   3
ENDBRANCH   1   2
BRANCH   1  12
ATOM     12  C   UNL     1      61.156  30.255  11.366  1.00  0.00     0.000 C 
BRANCH  12  13
ATOM     13  C   UNL     1      60.622  29.372  10.226  1.00  0.00    -0.000 C 
BRANCH  13  14
ATOM     14  C   UNL     1      61.739  28.648   9.462  1.00  0.00    -0.000 C 
BRANCH  14  15
ATOM     15  C   UNL     1      62.859  29.621   9.074  1.00  0.00    -0.000 C 
BRANCH  15  16
ATOM     16  C   UNL     1      64.214  29.144   9.608  1.00  0.00    -0.000 C 
BRANCH  16  17
ATOM     17  C   UNL     1      65.346  30.071   9.145  1.00  0.00    -0.000 C 
BRANCH  17  18
ATOM     18  C   UNL     1      65.113  31.541   9.530  1.00  0.00    -0.000 C 
BRANCH  18  19
ATOM     19  C   UNL     1      66.389  32.406   9.476  1.00  0.00    -0.003 C 
ATOM     20  C   UNL     1      66.560  33.273  10.723  1.00  0.00     0.004 C 
ENDBRANCH  18  19
ENDBRANCH  17  18
ENDBRANCH  16  17
ENDBRANCH  15  16
ENDBRANCH  14  15
ENDBRANCH  13  14
ENDBRANCH  12  13
ENDBRANCH   1  12
TORSDOF 16
ENDMDL
MODEL 5
REMARK VINA RESULT:    -4.763      0.924      2.926
REMARK INTER + INTRA:         -11.687
REMARK INTER:                  -9.152
REMARK INTRA:                  -2.535
REMARK UNBOUND:                -2.468
REMARK SMILES CCCCCCCCCCCCCCCCCC(=O)[O-]
REMARK SMILES IDX 10 1 11 2 12 3 13 4 14 5 15 6 16 7 17 8 18 9 19 10 20 11
REMARK SMILES IDX 9 12 8 13 7 14 6 15 5 16 4 17 3 18 2 19 1 20
REMARK H PARENT
REMARK Flexibility Score: inf
ROOT
ATOM      1  C   UNL     1      63.531  30.988  13.318  1.00  0.00     0.000 C 
ENDROOT
BRANCH   1   2
ATOM      2  C   UNL     1      63.184  32.320  12.633  1.00  0.00     0.000 C 
BRANCH   2   3
ATOM      3  C   UNL     1      61.690  32.667  12.740  1.00  0.00     0.000 C 
BRANCH   3   4
ATOM      4  C   UNL     1      60.972  31.875  13.845  1.00  0.00     0.000 C 
BRANCH   4   5
ATOM      5  C   UNL     1      60.660  32.712  15.105  1.00  0.00     0.000 C 
BRANCH   5   6
ATOM      6  C   UNL     1      61.872  32.824  16.041  1.00  0.00     0.000 C 
BRANCH   6   7
ATOM      7  C   UNL     1      62.487  34.228  15.981  1.00  0.00     0.006 C 
BRANCH   7   8
ATOM      8  C   UNL     1      61.904  35.131  17.071  1.00  0.00     0.053 C 
BRANCH   8   9
ATOM      9  C   UNL     1      62.734  35.053  18.314  1.00  0.00     0.041 C 
ATOM     10  O   UNL     1      63.947  35.389  18.288  1.00  0.00    -0.550 OA
ATOM     11  O   UNL     1      62.154  34.656  19.512  1.00  0.00    -0.550 OA
ENDBRANCH   8   9
ENDBRANCH   7   8
ENDBRANCH   6   7
ENDBRANCH   5   6
ENDBRANCH   4   5
ENDBRANCH   3   4
ENDBRANCH   2   3
ENDBRANCH   1   2
BRANCH   1  12
ATOM     12  C   UNL     1      64.350  30.056  12.407  1.00  0.00     0.000 C 
BRANCH  12  13
ATOM     13  C   UNL     1      64.752  30.727  11.083  1.00  0.00    -0.000 C 
BRANCH  13  14
ATOM     14  C   UNL     1      64.704  29.763   9.890  1.00  0.00    -0.000 C 
BRANCH  14  15
ATOM     15  C   UNL     1      63.290  29.204   9.691  1.00  0.00    -0.000 C 
BRANCH  15  16
ATOM     16  C   UNL     1      62.342  30.281   9.151  1.00  0.00    -0.000 C 
BRANCH  16  17
ATOM     17  C   UNL     1      61.064  30.364   9.998  1.00  0.00    -0.000 C 
BRANCH  17  18
ATOM     18  C   UNL     1      60.625  29.001  10.556  1.00  0.00    -0.000 C 
BRANCH  18  19
ATOM     19  C   UNL     1      60.109  29.063  12.009  1.00  0.00    -0.003 C 
ATOM     20  C   UNL     1      61.046  28.359  12.990  1.00  0.00     0.004 C 
ENDBRANCH  18  19
ENDBRANCH  17  18
ENDBRANCH  16  17
ENDBRANCH  15  16
ENDBRANCH  14  15
ENDBRANCH  13  14
ENDBRANCH  12  13
ENDBRANCH   1  12
TORSDOF 16
ENDMDL
MODEL 6
REMARK VINA RESULT:    -4.734      3.894      6.731
REMARK INTER + INTRA:         -11.629
REMARK INTER:                  -9.418
REMARK INTRA:                  -2.211
REMARK UNBOUND:                -2.468
REMARK SMILES CCCCCCCCCCCCCCCCCC(=O)[O-]
REMARK SMILES IDX 10 1 11 2 12 3 13 4 14 5 15 6 16 7 17 8 18 9 19 10 20 11
REMARK SMILES IDX 9 12 8 13 7 14 6 15 5 16 4 17 3 18 2 19 1 20
REMARK H PARENT
REMARK Flexibility Score: inf
ROOT
ATOM      1  C   UNL     1      62.265  30.267  14.108  1.00  0.00     0.000 C 
ENDROOT
BRANCH   1   2
ATOM      2  C   UNL     1      63.171  29.298  13.330  1.00  0.00     0.000 C 
BRANCH   2   3
ATOM      3  C   UNL     1      64.438  29.981  12.790  1.00  0.00     0.000 C 
BRANCH   3   4
ATOM      4  C   UNL     1      64.154  30.904  11.593  1.00  0.00     0.000 C 
BRANCH   4   5
ATOM      5  C   UNL     1      64.982  30.564  10.336  1.00  0.00     0.000 C 
BRANCH   5   6
ATOM      6  C   UNL     1      64.439  29.330   9.599  1.00  0.00     0.000 C 
BRANCH   6   7
ATOM      7  C   UNL     1      63.073  29.623   8.967  1.00  0.00     0.006 C 
BRANCH   7   8
ATOM      8  C   UNL     1      62.046  28.557   9.359  1.00  0.00     0.053 C 
BRANCH   8   9
ATOM      9  C   UNL     1      60.670  29.143   9.390  1.00  0.00     0.041 C 
ATOM     10  O   UNL     1      59.694  28.494   8.930  1.00  0.00    -0.550 OA
ATOM     11  O   UNL     1      60.456  30.386   9.972  1.00  0.00    -0.550 OA
ENDBRANCH   8   9
ENDBRANCH   7   8
ENDBRANCH   6   7
ENDBRANCH   5   6
ENDBRANCH   4   5
ENDBRANCH   3   4
ENDBRANCH   2   3
ENDBRANCH   1   2
BRANCH   1  12
ATOM     12  C   UNL     1      60.919  30.506  13.402  1.00  0.00     0.000 C 
BRANCH  12  13
ATOM     13  C   UNL     1      60.536  31.994  13.348  1.00  0.00    -0.000 C 
BRANCH  13  14
ATOM     14  C   UNL     1      61.755  32.924  13.408  1.00  0.00    -0.000 C 
BRANCH  14  15
ATOM     15  C   UNL     1      61.696  33.828  14.646  1.00  0.00    -0.000 C 
BRANCH  15  16
ATOM     16  C   UNL     1      63.056  33.889  15.350  1.00  0.00    -0.000 C 
BRANCH  16  17
ATOM     17  C   UNL     1      64.192  33.517  14.386  1.00  0.00    -0.000 C 
BRANCH  17  18
ATOM     18  C   UNL     1      65.508  34.245  14.701  1.00  0.00    -0.000 C 
BRANCH  18  19
ATOM     19  C   UNL     1      66.641  33.938  13.699  1.00  0.00    -0.003 C 
ATOM     20  C   UNL     1      66.144  33.886  12.255  1.00  0.00     0.004 C 
ENDBRANCH  18  19
ENDBRANCH  17  18
ENDBRANCH  16  17
ENDBRANCH  15  16
ENDBRANCH  14  15
ENDBRANCH  13  14
ENDBRANCH  12  13
ENDBRANCH   1  12
TORSDOF 16
ENDMDL
MODEL 7
REMARK VINA RESULT:    -4.715      1.113      3.038
REMARK INTER + INTRA:         -11.594
REMARK INTER:                  -9.468
REMARK INTRA:                  -2.126
REMARK UNBOUND:                -2.468
REMARK SMILES CCCCCCCCCCCCCCCCCC(=O)[O-]
REMARK SMILES IDX 10 1 11 2 12 3 13 4 14 5 15 6 16 7 17 8 18 9 19 10 20 11
REMARK SMILES IDX 9 12 8 13 7 14 6 15 5 16 4 17 3 18 2 19 1 20
REMARK H PARENT
REMARK Flexibility Score: inf
ROOT
ATOM      1  C   UNL     1      64.712  30.555  11.611  1.00  0.00     0.000 C 
ENDROOT
BRANCH   1   2
ATOM      2  C   UNL     1      64.446  32.041  11.317  1.00  0.00     0.000 C 
BRANCH   2   3
ATOM      3  C   UNL     1      64.868  32.956  12.479  1.00  0.00     0.000 C 
BRANCH   3   4
ATOM      4  C   UNL     1      63.935  32.846  13.696  1.00  0.00     0.000 C 
BRANCH   4   5
ATOM      5  C   UNL     1      62.466  33.202  13.385  1.00  0.00     0.000 C 
BRANCH   5   6
ATOM      6  C   UNL     1      61.750  33.821  14.595  1.00  0.00     0.000 C 
BRANCH   6   7
ATOM      7  C   UNL     1      62.747  34.163  15.709  1.00  0.00     0.006 C 
BRANCH   7   8
ATOM      8  C   UNL     1      62.157  33.857  17.089  1.00  0.00     0.053 C 
BRANCH   8   9
ATOM      9  C   UNL     1      62.774  34.738  18.128  1.00  0.00     0.041 C 
ATOM     10  O   UNL     1      63.840  35.360  17.880  1.00  0.00    -0.550 OA
ATOM     11  O   UNL     1      62.144  34.912  19.353  1.00  0.00    -0.550 OA
ENDBRANCH   8   9
ENDBRANCH   7   8
ENDBRANCH   6   7
ENDBRANCH   5   6
ENDBRANCH   4   5
ENDBRANCH   3   4
ENDBRANCH   2   3
ENDBRANCH   1   2
BRANCH   1  12
ATOM     12  C   UNL     1      64.398  29.653  10.404  1.00  0.00     0.000 C 
BRANCH  12  13
ATOM     13  C   UNL     1      63.127  30.089   9.656  1.00  0.00    -0.000 C 
BRANCH  13  14
ATOM     14  C   UNL     1      62.230  28.906   9.268  1.00  0.00    -0.000 C 
BRANCH  14  15
ATOM     15  C   UNL     1      60.916  28.931  10.059  1.00  0.00    -0.000 C 
BRANCH  15  16
ATOM     16  C   UNL     1      60.896  30.093  11.058  1.00  0.00    -0.000 C 
BRANCH  16  17
ATOM     17  C   UNL     1      60.304  29.653  12.404  1.00  0.00    -0.000 C 
BRANCH  17  18
ATOM     18  C   UNL     1      61.187  28.634  13.144  1.00  0.00    -0.000 C 
BRANCH  18  19
ATOM     19  C   UNL     1      62.469  29.246  13.744  1.00  0.00    -0.003 C 
ATOM     20  C   UNL     1      62.191  30.055  15.011  1.00  0.00     0.004 C 
ENDBRANCH  18  19
ENDBRANCH  17  18
ENDBRANCH  16  17
ENDBRANCH  15  16
ENDBRANCH  14  15
ENDBRANCH  13  14
ENDBRANCH  12  13
ENDBRANCH   1  12
TORSDOF 16
ENDMDL
MODEL 8
REMARK VINA RESULT:    -4.715     10.567     13.779
REMARK INTER + INTRA:         -11.594
REMARK INTER:                  -8.522
REMARK INTRA:                  -3.071
REMARK UNBOUND:                -2.468
REMARK SMILES CCCCCCCCCCCCCCCCCC(=O)[O-]
REMARK SMILES IDX 10 1 11 2 12 3 13 4 14 5 15 6 16 7 17 8 18 9 19 10 20 11
REMARK SMILES IDX 9 12 8 13 7 14 6 15 5 16 4 17 3 18 2 19 1 20
REMARK H PARENT
REMARK Flexibility Score: inf
ROOT
ATOM      1  C   UNL     1      66.121  30.102  24.586  1.00  0.00     0.000 C 
ENDROOT
BRANCH   1   2
ATOM      2  C   UNL     1      66.957  28.916  25.093  1.00  0.00     0.000 C 
BRANCH   2   3
ATOM      3  C   UNL     1      66.268  28.157  26.240  1.00  0.00     0.000 C 
BRANCH   3   4
ATOM      4  C   UNL     1      65.794  26.754  25.827  1.00  0.00     0.000 C 
BRANCH   4   5
ATOM      5  C   UNL     1      66.253  26.335  24.414  1.00  0.00     0.000 C 
BRANCH   5   6
ATOM      6  C   UNL     1      65.105  26.379  23.395  1.00  0.00     0.000 C 
BRANCH   6   7
ATOM      7  C   UNL     1      65.544  27.077  22.101  1.00  0.00     0.006 C 
BRANCH   7   8
ATOM      8  C   UNL     1      66.960  26.654  21.701  1.00  0.00     0.053 C 
BRANCH   8   9
ATOM      9  C   UNL     1      67.671  27.781  21.022  1.00  0.00     0.041 C 
ATOM     10  O   UNL     1      67.874  27.746  19.780  1.00  0.00    -0.550 OA
ATOM     11  O   UNL     1      68.065  28.894  21.752  1.00  0.00    -0.550 OA
ENDBRANCH   8   9
ENDBRANCH   7   8
ENDBRANCH   6   7
ENDBRANCH   5   6
ENDBRANCH   4   5
ENDBRANCH   3   4
ENDBRANCH   2   3
ENDBRANCH   1   2
BRANCH   1  12
ATOM     12  C   UNL     1      65.055  30.547  25.603  1.00  0.00     0.000 C 
BRANCH  12  13
ATOM     13  C   UNL     1      63.637  30.554  25.009  1.00  0.00    -0.000 C 
BRANCH  13  14
ATOM     14  C   UNL     1      63.185  29.166  24.533  1.00  0.00    -0.000 C 
BRANCH  14  15
ATOM     15  C   UNL     1      61.912  28.724  25.264  1.00  0.00    -0.000 C 
BRANCH  15  16
ATOM     16  C   UNL     1      62.138  27.410  26.021  1.00  0.00    -0.000 C 
BRANCH  16  17
ATOM     17  C   UNL     1      61.772  27.558  27.504  1.00  0.00    -0.000 C 
BRANCH  17  18
ATOM     18  C   UNL     1      63.002  27.590  28.425  1.00  0.00    -0.000 C 
BRANCH  18  19
ATOM     19  C   UNL     1      63.623  28.993  28.583  1.00  0.00    -0.003 C 
ATOM     20  C   UNL     1      62.566  30.094  28.659  1.00  0.00     0.004 C 
ENDBRANCH  18  19
ENDBRANCH  17  18
ENDBRANCH  16  17
ENDBRANCH  15  16
ENDBRANCH  14  15
ENDBRANCH  13  14
ENDBRANCH  12  13
ENDBRANCH   1  12
TORSDOF 16
ENDMDL
MODEL 9
REMARK VINA RESULT:    -4.713     10.213     13.797
REMARK INTER + INTRA:         -11.588
REMARK INTER:                  -9.167
REMARK INTRA:                  -2.421
REMARK UNBOUND:                -2.468
REMARK SMILES CCCCCCCCCCCCCCCCCC(=O)[O-]
REMARK SMILES IDX 10 1 11 2 12 3 13 4 14 5 15 6 16 7 17 8 18 9 19 10 20 11
REMARK SMILES IDX 9 12 8 13 7 14 6 15 5 16 4 17 3 18 2 19 1 20
REMARK H PARENT
REMARK Flexibility Score: inf
ROOT
ATOM      1  C   UNL     1      63.325  28.628  23.953  1.00  0.00     0.000 C 
ENDROOT
BRANCH   1   2
ATOM      2  C   UNL     1      63.974  27.234  23.920  1.00  0.00     0.000 C 
BRANCH   2   3
ATOM      3  C   UNL     1      64.519  26.806  25.293  1.00  0.00     0.000 C 
BRANCH   3   4
ATOM      4  C   UNL     1      66.051  26.668  25.311  1.00  0.00     0.000 C 
BRANCH   4   5
ATOM      5  C   UNL     1      66.681  26.571  23.905  1.00  0.00     0.000 C 
BRANCH   5   6
ATOM      6  C   UNL     1      67.373  27.877  23.488  1.00  0.00     0.000 C 
BRANCH   6   7
ATOM      7  C   UNL     1      67.614  27.914  21.974  1.00  0.00     0.006 C 
BRANCH   7   8
ATOM      8  C   UNL     1      66.761  26.864  21.255  1.00  0.00     0.053 C 
BRANCH   8   9
ATOM      9  C   UNL     1      66.962  26.951  19.776  1.00  0.00     0.041 C 
ATOM     10  O   UNL     1      66.435  26.098  19.013  1.00  0.00    -0.550 OA
ATOM     11  O   UNL     1      67.689  28.002  19.234  1.00  0.00    -0.550 OA
ENDBRANCH   8   9
ENDBRANCH   7   8
ENDBRANCH   6   7
ENDBRANCH   5   6
ENDBRANCH   4   5
ENDBRANCH   3   4
ENDBRANCH   2   3
ENDBRANCH   1   2
BRANCH   1  12
ATOM     12  C   UNL     1      64.336  29.738  24.290  1.00  0.00     0.000 C 
BRANCH  12  13
ATOM     13  C   UNL     1      63.885  30.609  25.474  1.00  0.00    -0.000 C 
BRANCH  13  14
ATOM     14  C   UNL     1      64.780  30.440  26.710  1.00  0.00    -0.000 C 
BRANCH  14  15
ATOM     15  C   UNL     1      64.114  29.531  27.750  1.00  0.00    -0.000 C 
BRANCH  15  16
ATOM     16  C   UNL     1      62.867  30.195  28.346  1.00  0.00    -0.000 C 
BRANCH  16  17
ATOM     17  C   UNL     1      61.764  29.161  28.609  1.00  0.00    -0.000 C 
BRANCH  17  18
ATOM     18  C   UNL     1      61.763  28.012  27.588  1.00  0.00    -0.000 C 
BRANCH  18  19
ATOM     19  C   UNL     1      60.972  28.327  26.301  1.00  0.00    -0.003 C 
ATOM     20  C   UNL     1      60.302  27.087  25.710  1.00  0.00     0.004 C 
ENDBRANCH  18  19
ENDBRANCH  17  18
ENDBRANCH  16  17
ENDBRANCH  15  16
ENDBRANCH  14  15
ENDBRANCH  13  14
ENDBRANCH  12  13
ENDBRANCH   1  12
TORSDOF 16
ENDMDL
