MODEL 1
REMARK VINA RESULT:    -4.287      0.000      0.000
REMARK INTER + INTRA:          -8.804
REMARK INTER:                  -7.294
REMARK INTRA:                  -1.510
REMARK UNBOUND:                -1.510
REMARK SMILES CCCCCCCCCCCCCC(=O)[O-]
REMARK SMILES IDX 8 1 9 2 10 3 11 4 12 5 13 6 14 7 15 8 16 9 7 10 6 11 5 12
REMARK SMILES IDX 4 13 3 14 2 15 1 16
REMARK H PARENT
REMARK Flexibility Score: inf
ROOT
ATOM      1  C   UNL     1     191.556 191.493 192.015  1.00  0.00     0.000 C 
ENDROOT
BRANCH   1   2
ATOM      2  C   UNL     1     191.410 192.613 190.972  1.00  0.00     0.000 C 
BRANCH   2   3
ATOM      3  C   UNL     1     192.714 193.397 190.757  1.00  0.00     0.000 C 
BRANCH   3   4
ATOM      4  C   UNL     1     192.734 194.728 191.527  1.00  0.00     0.000 C 
BRANCH   4   5
ATOM      5  C   UNL     1     191.403 195.498 191.420  1.00  0.00     0.006 C 
BRANCH   5   6
ATOM      6  C   UNL     1     191.053 196.308 192.679  1.00  0.00     0.053 C 
BRANCH   6   7
ATOM      7  C   UNL     1     191.537 197.722 192.605  1.00  0.00     0.041 C 
ATOM      8  O   UNL     1     190.917 198.568 191.907  1.00  0.00    -0.550 OA
ATOM      9  O   UNL     1     192.683 198.104 193.293  1.00  0.00    -0.550 OA
ENDBRANCH   6   7
ENDBRANCH   5   6
ENDBRANCH   4   5
ENDBRANCH   3   4
ENDBRANCH   2   3
ENDBRANCH   1   2
BRANCH   1  10
ATOM     10  C   UNL     1     190.444 191.521 193.081  1.00  0.00     0.000 C 
BRANCH  10  11
ATOM     11  C   UNL     1     189.980 192.931 193.494  1.00  0.00    -0.000 C 
BRANCH  11  12
ATOM     12  C   UNL     1     188.456 193.156 193.446  1.00  0.00    -0.000 C 
BRANCH  12  13
ATOM     13  C   UNL     1     187.719 192.227 192.458  1.00  0.00    -0.000 C 
BRANCH  13  14
ATOM     14  C   UNL     1     187.649 192.818 191.039  1.00  0.00    -0.000 C 
BRANCH  14  15
ATOM     15  C   UNL     1     187.812 191.748 189.947  1.00  0.00    -0.003 C 
ATOM     16  C   UNL     1     186.852 191.950 188.774  1.00  0.00     0.004 C 
ENDBRANCH  14  15
ENDBRANCH  13  14
ENDBRANCH  12  13
ENDBRANCH  11  12
ENDBRANCH  10  11
ENDBRANCH   1  10
TORSDOF 12
ENDMDL
MODEL 2
REMARK VINA RESULT:    -4.274      3.662      5.355
REMARK INTER + INTRA:          -8.783
REMARK INTER:                  -7.649
REMARK INTRA:                  -1.134
REMARK UNBOUND:                -1.510
REMARK SMILES CCCCCCCCCCCCCC(=O)[O-]
REMARK SMILES IDX 8 1 9 2 10 3 11 4 12 5 13 6 14 7 15 8 16 9 7 10 6 11 5 12
REMARK SMILES IDX 4 13 3 14 2 15 1 16
REMARK H PARENT
REMARK Flexibility Score: inf
ROOT
ATOM      1  C   UNL     1     191.100 195.723 192.726  1.00  0.00     0.000 C 
ENDROOT
BRANCH   1   2
ATOM      2  C   UNL     1     191.446 195.079 191.373  1.00  0.00     0.000 C 
BRANCH   2   3
ATOM      3  C   UNL     1     192.260 193.784 191.524  1.00  0.00     0.000 C 
BRANCH   3   4
ATOM      4  C   UNL     1     191.585 192.581 190.842  1.00  0.00     0.000 C 
BRANCH   4   5
ATOM      5  C   UNL     1     191.535 191.335 191.748  1.00  0.00     0.006 C 
BRANCH   5   6
ATOM      6  C   UNL     1     190.522 191.446 192.899  1.00  0.00     0.053 C 
BRANCH   6   7
ATOM      7  C   UNL     1     189.128 191.109 192.470  1.00  0.00     0.041 C 
ATOM      8  O   UNL     1     188.700 189.929 192.579  1.00  0.00    -0.550 OA
ATOM      9  O   UNL     1     188.305 192.093 191.935  1.00  0.00    -0.550 OA
ENDBRANCH   6   7
ENDBRANCH   5   6
ENDBRANCH   4   5
ENDBRANCH   3   4
ENDBRANCH   2   3
ENDBRANCH   1   2
BRANCH   1  10
ATOM     10  C   UNL     1     190.013 194.949 193.495  1.00  0.00     0.000 C 
BRANCH  10  11
ATOM     11  C   UNL     1     189.609 195.571 194.846  1.00  0.00    -0.000 C 
BRANCH  11  12
ATOM     12  C   UNL     1     189.353 197.090 194.814  1.00  0.00    -0.000 C 
BRANCH  12  13
ATOM     13  C   UNL     1     187.939 197.494 195.282  1.00  0.00    -0.000 C 
BRANCH  13  14
ATOM     14  C   UNL     1     187.168 196.318 195.904  1.00  0.00    -0.000 C 
BRANCH  14  15
ATOM     15  C   UNL     1     185.858 196.012 195.160  1.00  0.00    -0.003 C 
ATOM     16  C   UNL     1     185.998 194.860 194.164  1.00  0.00     0.004 C 
ENDBRANCH  14  15
ENDBRANCH  13  14
ENDBRANCH  12  13
ENDBRANCH  11  12
ENDBRANCH  10  11
ENDBRANCH   1  10
TORSDOF 12
ENDMDL
MODEL 3
REMARK VINA RESULT:    -4.246      3.657      5.500
REMARK INTER + INTRA:          -8.734
REMARK INTER:                  -7.264
REMARK INTRA:                  -1.471
REMARK UNBOUND:                -1.510
REMARK SMILES CCCCCCCCCCCCCC(=O)[O-]
REMARK SMILES IDX 8 1 9 2 10 3 11 4 12 5 13 6 14 7 15 8 16 9 7 10 6 11 5 12
REMARK SMILES IDX 4 13 3 14 2 15 1 16
REMARK H PARENT
REMARK Flexibility Score: inf
ROOT
ATOM      1  C   UNL     1     191.311 196.127 192.560  1.00  0.00     0.000 C 
ENDROOT
BRANCH   1   2
ATOM      2  C   UNL     1     191.277 194.967 191.550  1.00  0.00     0.000 C 
BRANCH   2   3
ATOM      3  C   UNL     1     192.656 194.319 191.347  1.00  0.00     0.000 C 
BRANCH   3   4
ATOM      4  C   UNL     1     192.624 192.793 191.546  1.00  0.00     0.000 C 
BRANCH   4   5
ATOM      5  C   UNL     1     191.240 192.183 191.248  1.00  0.00     0.006 C 
BRANCH   5   6
ATOM      6  C   UNL     1     190.715 191.264 192.363  1.00  0.00     0.053 C 
BRANCH   6   7
ATOM      7  C   UNL     1     189.241 191.023 192.260  1.00  0.00     0.041 C 
ATOM      8  O   UNL     1     188.739 189.966 192.727  1.00  0.00    -0.550 OA
ATOM      9  O   UNL     1     188.424 191.957 191.635  1.00  0.00    -0.550 OA
ENDBRANCH   6   7
ENDBRANCH   5   6
ENDBRANCH   4   5
ENDBRANCH   3   4
ENDBRANCH   2   3
ENDBRANCH   1   2
BRANCH   1  10
ATOM     10  C   UNL     1     190.334 195.925 193.733  1.00  0.00     0.000 C 
BRANCH  10  11
ATOM     11  C   UNL     1     189.530 194.612 193.686  1.00  0.00    -0.000 C 
BRANCH  11  12
ATOM     12  C   UNL     1     189.232 193.979 195.060  1.00  0.00    -0.000 C 
BRANCH  12  13
ATOM     13  C   UNL     1     189.510 194.919 196.252  1.00  0.00    -0.000 C 
BRANCH  13  14
ATOM     14  C   UNL     1     188.216 195.444 196.899  1.00  0.00    -0.000 C 
BRANCH  14  15
ATOM     15  C   UNL     1     187.826 196.841 196.389  1.00  0.00    -0.003 C 
ATOM     16  C   UNL     1     186.789 196.792 195.267  1.00  0.00     0.004 C 
ENDBRANCH  14  15
ENDBRANCH  13  14
ENDBRANCH  12  13
ENDBRANCH  11  12
ENDBRANCH  10  11
ENDBRANCH   1  10
TORSDOF 12
ENDMDL
MODEL 4
REMARK VINA RESULT:    -4.168      2.023      3.629
REMARK INTER + INTRA:          -8.603
REMARK INTER:                  -7.284
REMARK INTRA:                  -1.319
REMARK UNBOUND:                -1.510
REMARK SMILES CCCCCCCCCCCCCC(=O)[O-]
REMARK SMILES IDX 8 1 9 2 10 3 11 4 12 5 13 6 14 7 15 8 16 9 7 10 6 11 5 12
REMARK SMILES IDX 4 13 3 14 2 15 1 16
REMARK H PARENT
REMARK Flexibility Score: inf
ROOT
ATOM      1  C   UNL     1     190.344 191.732 192.662  1.00  0.00     0.000 C 
ENDROOT
BRANCH   1   2
ATOM      2  C   UNL     1     191.734 191.847 192.013  1.00  0.00     0.000 C 
BRANCH   2   3
ATOM      3  C   UNL     1     191.817 192.989 190.988  1.00  0.00     0.000 C 
BRANCH   3   4
ATOM      4  C   UNL     1     192.947 193.983 191.305  1.00  0.00     0.000 C 
BRANCH   4   5
ATOM      5  C   UNL     1     192.428 195.303 191.908  1.00  0.00     0.006 C 
BRANCH   5   6
ATOM      6  C   UNL     1     191.363 196.001 191.046  1.00  0.00     0.053 C 
BRANCH   6   7
ATOM      7  C   UNL     1     191.401 197.491 191.183  1.00  0.00     0.041 C 
ATOM      8  O   UNL     1     191.800 198.205 190.225  1.00  0.00    -0.550 OA
ATOM      9  O   UNL     1     191.012 198.092 192.374  1.00  0.00    -0.550 OA
ENDBRANCH   6   7
ENDBRANCH   5   6
ENDBRANCH   4   5
ENDBRANCH   3   4
ENDBRANCH   2   3
ENDBRANCH   1   2
BRANCH   1  10
ATOM     10  C   UNL     1     189.528 193.035 192.561  1.00  0.00     0.000 C 
BRANCH  10  11
ATOM     11  C   UNL     1     188.749 193.411 193.835  1.00  0.00    -0.000 C 
BRANCH  11  12
ATOM     12  C   UNL     1     189.534 194.260 194.854  1.00  0.00    -0.000 C 
BRANCH  12  13
ATOM     13  C   UNL     1     189.704 195.736 194.437  1.00  0.00    -0.000 C 
BRANCH  13  14
ATOM     14  C   UNL     1     189.284 196.712 195.549  1.00  0.00    -0.000 C 
BRANCH  14  15
ATOM     15  C   UNL     1     187.991 197.471 195.211  1.00  0.00    -0.003 C 
ATOM     16  C   UNL     1     186.755 196.572 195.236  1.00  0.00     0.004 C 
ENDBRANCH  14  15
ENDBRANCH  13  14
ENDBRANCH  12  13
ENDBRANCH  11  12
ENDBRANCH  10  11
ENDBRANCH   1  10
TORSDOF 12
ENDMDL
MODEL 5
REMARK VINA RESULT:    -4.158      3.768      6.026
REMARK INTER + INTRA:          -8.585
REMARK INTER:                  -7.164
REMARK INTRA:                  -1.421
REMARK UNBOUND:                -1.510
REMARK SMILES CCCCCCCCCCCCCC(=O)[O-]
REMARK SMILES IDX 8 1 9 2 10 3 11 4 12 5 13 6 14 7 15 8 16 9 7 10 6 11 5 12
REMARK SMILES IDX 4 13 3 14 2 15 1 16
REMARK H PARENT
REMARK Flexibility Score: inf
ROOT
ATOM      1  C   UNL     1     188.269 194.129 195.586  1.00  0.00     0.000 C 
ENDROOT
BRANCH   1   2
ATOM      2  C   UNL     1     189.574 193.895 194.806  1.00  0.00     0.000 C 
BRANCH   2   3
ATOM      3  C   UNL     1     189.497 194.397 193.356  1.00  0.00     0.000 C 
BRANCH   3   4
ATOM      4  C   UNL     1     190.803 195.065 192.894  1.00  0.00     0.000 C 
BRANCH   4   5
ATOM      5  C   UNL     1     191.229 194.625 191.479  1.00  0.00     0.006 C 
BRANCH   5   6
ATOM      6  C   UNL     1     192.232 193.460 191.469  1.00  0.00     0.053 C 
BRANCH   6   7
ATOM      7  C   UNL     1     191.558 192.124 191.417  1.00  0.00     0.041 C 
ATOM      8  O   UNL     1     191.811 191.254 192.292  1.00  0.00    -0.550 OA
ATOM      9  O   UNL     1     190.664 191.833 190.395  1.00  0.00    -0.550 OA
ENDBRANCH   6   7
ENDBRANCH   5   6
ENDBRANCH   4   5
ENDBRANCH   3   4
ENDBRANCH   2   3
ENDBRANCH   1   2
BRANCH   1  10
ATOM     10  C   UNL     1     187.090 194.515 194.673  1.00  0.00     0.000 C 
BRANCH  10  11
ATOM     11  C   UNL     1     186.520 195.926 194.914  1.00  0.00    -0.000 C 
BRANCH  11  12
ATOM     12  C   UNL     1     187.362 196.820 195.845  1.00  0.00    -0.000 C 
BRANCH  12  13
ATOM     13  C   UNL     1     188.379 197.711 195.102  1.00  0.00    -0.000 C 
BRANCH  13  14
ATOM     14  C   UNL     1     189.822 197.482 195.583  1.00  0.00    -0.000 C 
BRANCH  14  15
ATOM     15  C   UNL     1     189.989 197.739 197.090  1.00  0.00    -0.003 C 
ATOM     16  C   UNL     1     190.050 196.449 197.906  1.00  0.00     0.004 C 
ENDBRANCH  14  15
ENDBRANCH  13  14
ENDBRANCH  12  13
ENDBRANCH  11  12
ENDBRANCH  10  11
ENDBRANCH   1  10
TORSDOF 12
ENDMDL
MODEL 6
REMARK VINA RESULT:    -4.155      2.169      2.632
REMARK INTER + INTRA:          -8.581
REMARK INTER:                  -7.364
REMARK INTRA:                  -1.217
REMARK UNBOUND:                -1.510
REMARK SMILES CCCCCCCCCCCCCC(=O)[O-]
REMARK SMILES IDX 8 1 9 2 10 3 11 4 12 5 13 6 14 7 15 8 16 9 7 10 6 11 5 12
REMARK SMILES IDX 4 13 3 14 2 15 1 16
REMARK H PARENT
REMARK Flexibility Score: inf
ROOT
ATOM      1  C   UNL     1     191.501 192.462 190.807  1.00  0.00     0.000 C 
ENDROOT
BRANCH   1   2
ATOM      2  C   UNL     1     192.593 193.458 191.234  1.00  0.00     0.000 C 
BRANCH   2   3
ATOM      3  C   UNL     1     192.145 194.922 191.100  1.00  0.00     0.000 C 
BRANCH   3   4
ATOM      4  C   UNL     1     192.163 195.669 192.445  1.00  0.00     0.000 C 
BRANCH   4   5
ATOM      5  C   UNL     1     190.750 196.027 192.946  1.00  0.00     0.006 C 
BRANCH   5   6
ATOM      6  C   UNL     1     190.006 194.849 193.596  1.00  0.00     0.053 C 
BRANCH   6   7
ATOM      7  C   UNL     1     189.530 195.166 194.979  1.00  0.00     0.041 C 
ATOM      8  O   UNL     1     189.594 196.345 195.417  1.00  0.00    -0.550 OA
ATOM      9  O   UNL     1     189.028 194.156 195.792  1.00  0.00    -0.550 OA
ENDBRANCH   6   7
ENDBRANCH   5   6
ENDBRANCH   4   5
ENDBRANCH   3   4
ENDBRANCH   2   3
ENDBRANCH   1   2
BRANCH   1  10
ATOM     10  C   UNL     1     191.456 191.206 191.697  1.00  0.00     0.000 C 
BRANCH  10  11
ATOM     11  C   UNL     1     190.432 191.264 192.846  1.00  0.00    -0.000 C 
BRANCH  11  12
ATOM     12  C   UNL     1     189.123 190.490 192.593  1.00  0.00    -0.000 C 
BRANCH  12  13
ATOM     13  C   UNL     1     187.963 191.375 192.089  1.00  0.00    -0.000 C 
BRANCH  13  14
ATOM     14  C   UNL     1     187.034 190.626 191.118  1.00  0.00    -0.000 C 
BRANCH  14  15
ATOM     15  C   UNL     1     187.057 191.223 189.701  1.00  0.00    -0.003 C 
ATOM     16  C   UNL     1     187.978 192.438 189.587  1.00  0.00     0.004 C 
ENDBRANCH  14  15
ENDBRANCH  13  14
ENDBRANCH  12  13
ENDBRANCH  11  12
ENDBRANCH  10  11
ENDBRANCH   1  10
TORSDOF 12
ENDMDL
MODEL 7
REMARK VINA RESULT:    -4.146      2.907      4.560
REMARK INTER + INTRA:          -8.564
REMARK INTER:                  -7.070
REMARK INTRA:                  -1.494
REMARK UNBOUND:                -1.510
REMARK SMILES CCCCCCCCCCCCCC(=O)[O-]
REMARK SMILES IDX 8 1 9 2 10 3 11 4 12 5 13 6 14 7 15 8 16 9 7 10 6 11 5 12
REMARK SMILES IDX 4 13 3 14 2 15 1 16
REMARK H PARENT
REMARK Flexibility Score: inf
ROOT
ATOM      1  C   UNL     1     190.959 195.243 192.960  1.00  0.00     0.000 C 
ENDROOT
BRANCH   1   2
ATOM      2  C   UNL     1     189.577 194.787 193.459  1.00  0.00     0.000 C 
BRANCH   2   3
ATOM      3  C   UNL     1     189.638 194.119 194.841  1.00  0.00     0.000 C 
BRANCH   3   4
ATOM      4  C   UNL     1     188.352 194.336 195.657  1.00  0.00     0.000 C 
BRANCH   4   5
ATOM      5  C   UNL     1     188.579 195.211 196.905  1.00  0.00     0.006 C 
BRANCH   5   6
ATOM      6  C   UNL     1     188.950 196.668 196.581  1.00  0.00     0.053 C 
BRANCH   6   7
ATOM      7  C   UNL     1     190.005 197.208 197.496  1.00  0.00     0.041 C 
ATOM      8  O   UNL     1     190.181 196.693 198.632  1.00  0.00    -0.550 OA
ATOM      9  O   UNL     1     190.783 198.289 197.101  1.00  0.00    -0.550 OA
ENDBRANCH   6   7
ENDBRANCH   5   6
ENDBRANCH   4   5
ENDBRANCH   3   4
ENDBRANCH   2   3
ENDBRANCH   1   2
BRANCH   1  10
ATOM     10  C   UNL     1     191.238 194.820 191.505  1.00  0.00     0.000 C 
BRANCH  10  11
ATOM     11  C   UNL     1     192.224 193.646 191.351  1.00  0.00    -0.000 C 
BRANCH  11  12
ATOM     12  C   UNL     1     191.585 192.307 190.934  1.00  0.00    -0.000 C 
BRANCH  12  13
ATOM     13  C   UNL     1     191.564 191.249 192.057  1.00  0.00    -0.000 C 
BRANCH  13  14
ATOM     14  C   UNL     1     190.172 191.097 192.694  1.00  0.00    -0.000 C 
BRANCH  14  15
ATOM     15  C   UNL     1     189.040 191.520 191.744  1.00  0.00    -0.003 C 
ATOM     16  C   UNL     1     187.713 191.745 192.468  1.00  0.00     0.004 C 
ENDBRANCH  14  15
ENDBRANCH  13  14
ENDBRANCH  12  13
ENDBRANCH  11  12
ENDBRANCH  10  11
ENDBRANCH   1  10
TORSDOF 12
ENDMDL
MODEL 8
REMARK VINA RESULT:    -4.132      3.097      5.083
REMARK INTER + INTRA:          -8.542
REMARK INTER:                  -6.988
REMARK INTRA:                  -1.554
REMARK UNBOUND:                -1.510
REMARK SMILES CCCCCCCCCCCCCC(=O)[O-]
REMARK SMILES IDX 8 1 9 2 10 3 11 4 12 5 13 6 14 7 15 8 16 9 7 10 6 11 5 12
REMARK SMILES IDX 4 13 3 14 2 15 1 16
REMARK H PARENT
REMARK Flexibility Score: inf
ROOT
ATOM      1  C   UNL     1     189.046 193.037 192.490  1.00  0.00     0.000 C 
ENDROOT
BRANCH   1   2
ATOM      2  C   UNL     1     188.563 193.606 193.835  1.00  0.00     0.000 C 
BRANCH   2   3
ATOM      3  C   UNL     1     189.664 194.371 194.585  1.00  0.00     0.000 C 
BRANCH   3   4
ATOM      4  C   UNL     1     189.624 195.883 194.306  1.00  0.00     0.000 C 
BRANCH   4   5
ATOM      5  C   UNL     1     189.293 196.712 195.562  1.00  0.00     0.006 C 
BRANCH   5   6
ATOM      6  C   UNL     1     187.895 197.351 195.533  1.00  0.00     0.053 C 
BRANCH   6   7
ATOM      7  C   UNL     1     186.805 196.355 195.783  1.00  0.00     0.041 C 
ATOM      8  O   UNL     1     186.766 195.719 196.869  1.00  0.00    -0.550 OA
ATOM      9  O   UNL     1     185.841 196.119 194.811  1.00  0.00    -0.550 OA
ENDBRANCH   6   7
ENDBRANCH   5   6
ENDBRANCH   4   5
ENDBRANCH   3   4
ENDBRANCH   2   3
ENDBRANCH   1   2
BRANCH   1  10
ATOM     10  C   UNL     1     189.842 191.728 192.647  1.00  0.00     0.000 C 
BRANCH  10  11
ATOM     11  C   UNL     1     191.294 191.787 192.134  1.00  0.00    -0.000 C 
BRANCH  11  12
ATOM     12  C   UNL     1     191.560 192.851 191.051  1.00  0.00    -0.000 C 
BRANCH  12  13
ATOM     13  C   UNL     1     192.793 193.735 191.336  1.00  0.00    -0.000 C 
BRANCH  13  14
ATOM     14  C   UNL     1     192.410 195.103 191.926  1.00  0.00    -0.000 C 
BRANCH  14  15
ATOM     15  C   UNL     1     191.287 195.794 191.135  1.00  0.00    -0.003 C 
ATOM     16  C   UNL     1     191.417 197.317 191.132  1.00  0.00     0.004 C 
ENDBRANCH  14  15
ENDBRANCH  13  14
ENDBRANCH  12  13
ENDBRANCH  11  12
ENDBRANCH  10  11
ENDBRANCH   1  10
TORSDOF 12
ENDMDL
MODEL 9
REMARK VINA RESULT:    -4.108      2.606      4.052
REMARK INTER + INTRA:          -8.500
REMARK INTER:                  -6.962
REMARK INTRA:                  -1.538
REMARK UNBOUND:                -1.510
REMARK SMILES CCCCCCCCCCCCCC(=O)[O-]
REMARK SMILES IDX 8 1 9 2 10 3 11 4 12 5 13 6 14 7 15 8 16 9 7 10 6 11 5 12
REMARK SMILES IDX 4 13 3 14 2 15 1 16
REMARK H PARENT
REMARK Flexibility Score: inf
ROOT
ATOM      1  C   UNL     1     191.200 194.945 191.454  1.00  0.00     0.000 C 
ENDROOT
BRANCH   1   2
ATOM      2  C   UNL     1     191.466 196.023 192.519  1.00  0.00     0.000 C 
BRANCH   2   3
ATOM      3  C   UNL     1     190.374 196.071 193.599  1.00  0.00     0.000 C 
BRANCH   3   4
ATOM      4  C   UNL     1     189.903 194.669 194.023  1.00  0.00     0.000 C 
BRANCH   4   5
ATOM      5  C   UNL     1     188.370 194.515 193.971  1.00  0.00     0.006 C 
BRANCH   5   6
ATOM      6  C   UNL     1     187.730 194.227 195.339  1.00  0.00     0.053 C 
BRANCH   6   7
ATOM      7  C   UNL     1     188.081 195.260 196.364  1.00  0.00     0.041 C 
ATOM      8  O   UNL     1     188.783 194.948 197.362  1.00  0.00    -0.550 OA
ATOM      9  O   UNL     1     187.619 196.563 196.227  1.00  0.00    -0.550 OA
ENDBRANCH   6   7
ENDBRANCH   5   6
ENDBRANCH   4   5
ENDBRANCH   3   4
ENDBRANCH   2   3
ENDBRANCH   1   2
BRANCH   1  10
ATOM     10  C   UNL     1     192.414 194.026 191.219  1.00  0.00     0.000 C 
BRANCH  10  11
ATOM     11  C   UNL     1     192.205 192.558 191.639  1.00  0.00    -0.000 C 
BRANCH  11  12
ATOM     12  C   UNL     1     191.031 191.842 190.944  1.00  0.00    -0.000 C 
BRANCH  12  13
ATOM     13  C   UNL     1     189.907 191.406 191.908  1.00  0.00    -0.000 C 
BRANCH  13  14
ATOM     14  C   UNL     1     188.525 191.917 191.467  1.00  0.00    -0.000 C 
BRANCH  14  15
ATOM     15  C   UNL     1     188.551 192.557 190.070  1.00  0.00    -0.003 C 
ATOM     16  C   UNL     1     187.335 192.179 189.224  1.00  0.00     0.004 C 
ENDBRANCH  14  15
ENDBRANCH  13  14
ENDBRANCH  12  13
ENDBRANCH  11  12
ENDBRANCH  10  11
ENDBRANCH   1  10
TORSDOF 12
ENDMDL
