MODEL 1
REMARK VINA RESULT:    -5.832      0.000      0.000
REMARK INTER + INTRA:         -11.663
REMARK INTER:                 -10.605
REMARK INTRA:                  -1.058
REMARK UNBOUND:                -1.058
REMARK SMILES CCCCCCCCCCCCCCCC(=O)[O-]
REMARK SMILES IDX 9 1 10 2 11 3 12 4 13 5 14 6 15 7 16 8 17 9 18 10 8 11 7 12
REMARK SMILES IDX 6 13 5 14 4 15 3 16 2 17 1 18
REMARK H PARENT
REMARK Flexibility Score: inf
ROOT
ATOM      1  C   UNL     1     -10.611  -1.152  -9.397  1.00  0.00     0.000 C 
ENDROOT
BRANCH   1   2
ATOM      2  C   UNL     1     -11.475  -0.533 -10.510  1.00  0.00     0.000 C 
BRANCH   2   3
ATOM      3  C   UNL     1     -12.910  -1.085 -10.518  1.00  0.00     0.000 C 
BRANCH   3   4
ATOM      4  C   UNL     1     -13.963   0.021 -10.705  1.00  0.00     0.000 C 
BRANCH   4   5
ATOM      5  C   UNL     1     -14.306   0.739  -9.390  1.00  0.00     0.000 C 
BRANCH   5   6
ATOM      6  C   UNL     1     -14.048   2.252  -9.457  1.00  0.00     0.006 C 
BRANCH   6   7
ATOM      7  C   UNL     1     -12.548   2.555  -9.408  1.00  0.00     0.053 C 
BRANCH   7   8
ATOM      8  C   UNL     1     -12.291   3.813  -8.639  1.00  0.00     0.041 C 
ATOM      9  O   UNL     1     -13.241   4.593  -8.365  1.00  0.00    -0.550 OA
ATOM     10  O   UNL     1     -11.012   4.098  -8.180  1.00  0.00    -0.550 OA
ENDBRANCH   7   8
ENDBRANCH   6   7
ENDBRANCH   5   6
ENDBRANCH   4   5
ENDBRANCH   3   4
ENDBRANCH   2   3
ENDBRANCH   1   2
BRANCH   1  11
ATOM     11  C   UNL     1     -10.801  -2.672  -9.278  1.00  0.00     0.000 C 
BRANCH  11  12
ATOM     12  C   UNL     1      -9.500  -3.453  -9.513  1.00  0.00    -0.000 C 
BRANCH  12  13
ATOM     13  C   UNL     1      -9.158  -4.330  -8.299  1.00  0.00    -0.000 C 
BRANCH  13  14
ATOM     14  C   UNL     1      -9.903  -3.901  -7.024  1.00  0.00    -0.000 C 
BRANCH  14  15
ATOM     15  C   UNL     1     -10.492  -5.094  -6.254  1.00  0.00    -0.000 C 
BRANCH  15  16
ATOM     16  C   UNL     1      -9.854  -6.432  -6.663  1.00  0.00    -0.000 C 
BRANCH  16  17
ATOM     17  C   UNL     1     -10.892  -7.468  -7.119  1.00  0.00    -0.003 C 
ATOM     18  C   UNL     1     -10.879  -7.626  -8.637  1.00  0.00     0.004 C 
ENDBRANCH  16  17
ENDBRANCH  15  16
ENDBRANCH  14  15
ENDBRANCH  13  14
ENDBRANCH  12  13
ENDBRANCH  11  12
ENDBRANCH   1  11
TORSDOF 14
ENDMDL
MODEL 2
REMARK VINA RESULT:    -5.725      3.693      8.129
REMARK INTER + INTRA:         -11.469
REMARK INTER:                 -10.634
REMARK INTRA:                  -0.835
REMARK UNBOUND:                -1.058
REMARK SMILES CCCCCCCCCCCCCCCC(=O)[O-]
REMARK SMILES IDX 9 1 10 2 11 3 12 4 13 5 14 6 15 7 16 8 17 9 18 10 8 11 7 12
REMARK SMILES IDX 6 13 5 14 4 15 3 16 2 17 1 18
REMARK H PARENT
REMARK Flexibility Score: inf
ROOT
ATOM      1  C   UNL     1     -10.562  -0.631  -9.587  1.00  0.00     0.000 C 
ENDROOT
BRANCH   1   2
ATOM      2  C   UNL     1     -10.427  -2.142  -9.328  1.00  0.00     0.000 C 
BRANCH   2   3
ATOM      3  C   UNL     1      -9.774  -2.451  -7.971  1.00  0.00     0.000 C 
BRANCH   3   4
ATOM      4  C   UNL     1      -8.610  -3.451  -8.093  1.00  0.00     0.000 C 
BRANCH   4   5
ATOM      5  C   UNL     1      -9.078  -4.853  -8.513  1.00  0.00     0.000 C 
BRANCH   5   6
ATOM      6  C   UNL     1      -9.736  -5.627  -7.361  1.00  0.00     0.006 C 
BRANCH   6   7
ATOM      7  C   UNL     1     -11.263  -5.574  -7.466  1.00  0.00     0.053 C 
BRANCH   7   8
ATOM      8  C   UNL     1     -11.891  -5.917  -6.152  1.00  0.00     0.041 C 
ATOM      9  O   UNL     1     -11.288  -5.667  -5.076  1.00  0.00    -0.550 OA
ATOM     10  O   UNL     1     -13.166  -6.467  -6.114  1.00  0.00    -0.550 OA
ENDBRANCH   7   8
ENDBRANCH   6   7
ENDBRANCH   5   6
ENDBRANCH   4   5
ENDBRANCH   3   4
ENDBRANCH   2   3
ENDBRANCH   1   2
BRANCH   1  11
ATOM     11  C   UNL     1     -11.580  -0.309 -10.692  1.00  0.00     0.000 C 
BRANCH  11  12
ATOM     12  C   UNL     1     -12.845  -1.176 -10.603  1.00  0.00    -0.000 C 
BRANCH  12  13
ATOM     13  C   UNL     1     -14.111  -0.308 -10.660  1.00  0.00    -0.000 C 
BRANCH  13  14
ATOM     14  C   UNL     1     -14.371   0.454  -9.350  1.00  0.00    -0.000 C 
BRANCH  14  15
ATOM     15  C   UNL     1     -14.373   1.980  -9.544  1.00  0.00    -0.000 C 
BRANCH  15  16
ATOM     16  C   UNL     1     -12.954   2.570  -9.581  1.00  0.00    -0.000 C 
BRANCH  16  17
ATOM     17  C   UNL     1     -12.818   3.839  -8.727  1.00  0.00    -0.003 C 
ATOM     18  C   UNL     1     -11.396   3.993  -8.196  1.00  0.00     0.004 C 
ENDBRANCH  16  17
ENDBRANCH  15  16
ENDBRANCH  14  15
ENDBRANCH  13  14
ENDBRANCH  12  13
ENDBRANCH  11  12
ENDBRANCH   1  11
TORSDOF 14
ENDMDL
MODEL 3
REMARK VINA RESULT:    -5.495      1.076      2.177
REMARK INTER + INTRA:         -11.051
REMARK INTER:                  -9.922
REMARK INTRA:                  -1.129
REMARK UNBOUND:                -1.058
REMARK SMILES CCCCCCCCCCCCCCCC(=O)[O-]
REMARK SMILES IDX 9 1 10 2 11 3 12 4 13 5 14 6 15 7 16 8 17 9 18 10 8 11 7 12
REMARK SMILES IDX 6 13 5 14 4 15 3 16 2 17 1 18
REMARK H PARENT
REMARK Flexibility Score: inf
ROOT
ATOM      1  C   UNL     1     -10.664  -2.548  -9.466  1.00  0.00     0.000 C 
ENDROOT
BRANCH   1   2
ATOM      2  C   UNL     1     -10.540  -1.016  -9.410  1.00  0.00     0.000 C 
BRANCH   2   3
ATOM      3  C   UNL     1     -11.476  -0.312 -10.406  1.00  0.00     0.000 C 
BRANCH   3   4
ATOM      4  C   UNL     1     -12.801  -1.070 -10.603  1.00  0.00     0.000 C 
BRANCH   4   5
ATOM      5  C   UNL     1     -14.015  -0.129 -10.663  1.00  0.00     0.000 C 
BRANCH   5   6
ATOM      6  C   UNL     1     -14.212   0.667  -9.364  1.00  0.00     0.006 C 
BRANCH   6   7
ATOM      7  C   UNL     1     -14.429   2.154  -9.660  1.00  0.00     0.053 C 
BRANCH   7   8
ATOM      8  C   UNL     1     -13.348   2.976  -9.034  1.00  0.00     0.041 C 
ATOM      9  O   UNL     1     -12.171   2.920  -9.478  1.00  0.00    -0.550 OA
ATOM     10  O   UNL     1     -13.649   3.843  -7.992  1.00  0.00    -0.550 OA
ENDBRANCH   7   8
ENDBRANCH   6   7
ENDBRANCH   5   6
ENDBRANCH   4   5
ENDBRANCH   3   4
ENDBRANCH   2   3
ENDBRANCH   1   2
BRANCH   1  11
ATOM     11  C   UNL     1      -9.864  -3.247  -8.355  1.00  0.00     0.000 C 
BRANCH  11  12
ATOM     12  C   UNL     1      -9.704  -4.755  -8.600  1.00  0.00    -0.000 C 
BRANCH  12  13
ATOM     13  C   UNL     1     -10.975  -5.348  -9.226  1.00  0.00    -0.000 C 
BRANCH  13  14
ATOM     14  C   UNL     1     -11.109  -6.860  -8.985  1.00  0.00    -0.000 C 
BRANCH  14  15
ATOM     15  C   UNL     1     -10.162  -7.370  -7.886  1.00  0.00    -0.000 C 
BRANCH  15  16
ATOM     16  C   UNL     1     -10.908  -7.752  -6.597  1.00  0.00    -0.000 C 
BRANCH  16  17
ATOM     17  C   UNL     1     -11.959  -6.709  -6.190  1.00  0.00    -0.003 C 
ATOM     18  C   UNL     1     -11.361  -5.667  -5.249  1.00  0.00     0.004 C 
ENDBRANCH  16  17
ENDBRANCH  15  16
ENDBRANCH  14  15
ENDBRANCH  13  14
ENDBRANCH  12  13
ENDBRANCH  11  12
ENDBRANCH   1  11
TORSDOF 14
ENDMDL
MODEL 4
REMARK VINA RESULT:    -5.386      3.910      8.492
REMARK INTER + INTRA:         -10.851
REMARK INTER:                  -9.890
REMARK INTRA:                  -0.961
REMARK UNBOUND:                -1.058
REMARK SMILES CCCCCCCCCCCCCCCC(=O)[O-]
REMARK SMILES IDX 9 1 10 2 11 3 12 4 13 5 14 6 15 7 16 8 17 9 18 10 8 11 7 12
REMARK SMILES IDX 6 13 5 14 4 15 3 16 2 17 1 18
REMARK H PARENT
REMARK Flexibility Score: inf
ROOT
ATOM      1  C   UNL     1     -11.088  -3.841  -9.299  1.00  0.00     0.000 C 
ENDROOT
BRANCH   1   2
ATOM      2  C   UNL     1     -10.041  -3.746  -8.176  1.00  0.00     0.000 C 
BRANCH   2   3
ATOM      3  C   UNL     1      -9.435  -5.113  -7.819  1.00  0.00     0.000 C 
BRANCH   3   4
ATOM      4  C   UNL     1     -10.009  -6.253  -8.678  1.00  0.00     0.000 C 
BRANCH   4   5
ATOM      5  C   UNL     1     -10.259  -7.535  -7.867  1.00  0.00     0.000 C 
BRANCH   5   6
ATOM      6  C   UNL     1     -11.754  -7.837  -7.684  1.00  0.00     0.006 C 
BRANCH   6   7
ATOM      7  C   UNL     1     -12.454  -6.703  -6.929  1.00  0.00     0.053 C 
BRANCH   7   8
ATOM      8  C   UNL     1     -12.007  -6.668  -5.502  1.00  0.00     0.041 C 
ATOM      9  O   UNL     1     -12.007  -7.721  -4.811  1.00  0.00    -0.550 OA
ATOM     10  O   UNL     1     -11.542  -5.483  -4.948  1.00  0.00    -0.550 OA
ENDBRANCH   7   8
ENDBRANCH   6   7
ENDBRANCH   5   6
ENDBRANCH   4   5
ENDBRANCH   3   4
ENDBRANCH   2   3
ENDBRANCH   1   2
BRANCH   1  11
ATOM     11  C   UNL     1     -11.456  -2.467  -9.882  1.00  0.00     0.000 C 
BRANCH  11  12
ATOM     12  C   UNL     1     -12.923  -2.388 -10.331  1.00  0.00    -0.000 C 
BRANCH  12  13
ATOM     13  C   UNL     1     -13.230  -1.023 -10.965  1.00  0.00    -0.000 C 
BRANCH  13  14
ATOM     14  C   UNL     1     -12.884   0.156 -10.040  1.00  0.00    -0.000 C 
BRANCH  14  15
ATOM     15  C   UNL     1     -14.133   0.889  -9.524  1.00  0.00    -0.000 C 
BRANCH  15  16
ATOM     16  C   UNL     1     -13.949   2.415  -9.492  1.00  0.00    -0.000 C 
BRANCH  16  17
ATOM     17  C   UNL     1     -12.478   2.830  -9.334  1.00  0.00    -0.003 C 
ATOM     18  C   UNL     1     -12.361   4.165  -8.605  1.00  0.00     0.004 C 
ENDBRANCH  16  17
ENDBRANCH  15  16
ENDBRANCH  14  15
ENDBRANCH  13  14
ENDBRANCH  12  13
ENDBRANCH  11  12
ENDBRANCH   1  11
TORSDOF 14
ENDMDL
MODEL 5
REMARK VINA RESULT:    -5.294      1.678      3.389
REMARK INTER + INTRA:         -10.685
REMARK INTER:                  -9.142
REMARK INTRA:                  -1.543
REMARK UNBOUND:                -1.058
REMARK SMILES CCCCCCCCCCCCCCCC(=O)[O-]
REMARK SMILES IDX 9 1 10 2 11 3 12 4 13 5 14 6 15 7 16 8 17 9 18 10 8 11 7 12
REMARK SMILES IDX 6 13 5 14 4 15 3 16 2 17 1 18
REMARK H PARENT
REMARK Flexibility Score: inf
ROOT
ATOM      1  C   UNL     1      -8.799  -3.717  -7.981  1.00  0.00     0.000 C 
ENDROOT
BRANCH   1   2
ATOM      2  C   UNL     1      -9.727  -2.494  -7.890  1.00  0.00     0.000 C 
BRANCH   2   3
ATOM      3  C   UNL     1     -10.219  -2.023  -9.268  1.00  0.00     0.000 C 
BRANCH   3   4
ATOM      4  C   UNL     1     -11.201  -3.018  -9.913  1.00  0.00     0.000 C 
BRANCH   4   5
ATOM      5  C   UNL     1     -12.611  -2.431 -10.079  1.00  0.00     0.000 C 
BRANCH   5   6
ATOM      6  C   UNL     1     -12.600  -1.032 -10.713  1.00  0.00     0.006 C 
BRANCH   6   7
ATOM      7  C   UNL     1     -13.885  -0.269 -10.381  1.00  0.00     0.053 C 
BRANCH   7   8
ATOM      8  C   UNL     1     -13.564   1.050  -9.751  1.00  0.00     0.041 C 
ATOM      9  O   UNL     1     -12.371   1.352  -9.486  1.00  0.00    -0.550 OA
ATOM     10  O   UNL     1     -14.578   1.966  -9.502  1.00  0.00    -0.550 OA
ENDBRANCH   7   8
ENDBRANCH   6   7
ENDBRANCH   5   6
ENDBRANCH   4   5
ENDBRANCH   3   4
ENDBRANCH   2   3
ENDBRANCH   1   2
BRANCH   1  11
ATOM     11  C   UNL     1      -9.440  -4.990  -7.405  1.00  0.00     0.000 C 
BRANCH  11  12
ATOM     12  C   UNL     1     -10.581  -4.687  -6.424  1.00  0.00    -0.000 C 
BRANCH  12  13
ATOM     13  C   UNL     1     -10.869  -5.899  -5.524  1.00  0.00    -0.000 C 
BRANCH  13  14
ATOM     14  C   UNL     1     -12.329  -6.374  -5.612  1.00  0.00    -0.000 C 
BRANCH  14  15
ATOM     15  C   UNL     1     -12.726  -6.802  -7.035  1.00  0.00    -0.000 C 
BRANCH  15  16
ATOM     16  C   UNL     1     -11.974  -8.059  -7.502  1.00  0.00    -0.000 C 
BRANCH  16  17
ATOM     17  C   UNL     1     -11.463  -7.939  -8.946  1.00  0.00    -0.003 C 
ATOM     18  C   UNL     1     -11.931  -6.636  -9.587  1.00  0.00     0.004 C 
ENDBRANCH  16  17
ENDBRANCH  15  16
ENDBRANCH  14  15
ENDBRANCH  13  14
ENDBRANCH  12  13
ENDBRANCH  11  12
ENDBRANCH   1  11
TORSDOF 14
ENDMDL
MODEL 6
REMARK VINA RESULT:    -5.290     15.789     18.084
REMARK INTER + INTRA:         -10.678
REMARK INTER:                  -9.033
REMARK INTRA:                  -1.645
REMARK UNBOUND:                -1.058
REMARK SMILES CCCCCCCCCCCCCCCC(=O)[O-]
REMARK SMILES IDX 9 1 10 2 11 3 12 4 13 5 14 6 15 7 16 8 17 9 18 10 8 11 7 12
REMARK SMILES IDX 6 13 5 14 4 15 3 16 2 17 1 18
REMARK H PARENT
REMARK Flexibility Score: inf
ROOT
ATOM      1  C   UNL     1      -9.481   6.627   8.012  1.00  0.00     0.000 C 
ENDROOT
BRANCH   1   2
ATOM      2  C   UNL     1      -9.049   6.041   6.657  1.00  0.00     0.000 C 
BRANCH   2   3
ATOM      3  C   UNL     1      -9.282   7.016   5.492  1.00  0.00     0.000 C 
BRANCH   3   4
ATOM      4  C   UNL     1     -10.013   8.297   5.934  1.00  0.00     0.000 C 
BRANCH   4   5
ATOM      5  C   UNL     1      -9.215   9.571   5.616  1.00  0.00     0.000 C 
BRANCH   5   6
ATOM      6  C   UNL     1      -7.788   9.272   5.134  1.00  0.00     0.006 C 
BRANCH   6   7
ATOM      7  C   UNL     1      -6.893  10.507   5.269  1.00  0.00     0.053 C 
BRANCH   7   8
ATOM      8  C   UNL     1      -6.109  10.450   6.542  1.00  0.00     0.041 C 
ATOM      9  O   UNL     1      -4.905  10.083   6.529  1.00  0.00    -0.550 OA
ATOM     10  O   UNL     1      -6.693  10.850   7.737  1.00  0.00    -0.550 OA
ENDBRANCH   7   8
ENDBRANCH   6   7
ENDBRANCH   5   6
ENDBRANCH   4   5
ENDBRANCH   3   4
ENDBRANCH   2   3
ENDBRANCH   1   2
BRANCH   1  11
ATOM     11  C   UNL     1     -10.222   5.606   8.889  1.00  0.00     0.000 C 
BRANCH  11  12
ATOM     12  C   UNL     1     -10.413   4.252   8.190  1.00  0.00    -0.000 C 
BRANCH  12  13
ATOM     13  C   UNL     1     -11.899   3.990   7.898  1.00  0.00    -0.000 C 
BRANCH  13  14
ATOM     14  C   UNL     1     -12.262   4.199   6.419  1.00  0.00    -0.000 C 
BRANCH  14  15
ATOM     15  C   UNL     1     -12.841   5.597   6.145  1.00  0.00    -0.000 C 
BRANCH  15  16
ATOM     16  C   UNL     1     -12.711   6.008   4.669  1.00  0.00    -0.000 C 
BRANCH  16  17
ATOM     17  C   UNL     1     -14.019   6.570   4.093  1.00  0.00    -0.003 C 
ATOM     18  C   UNL     1     -14.207   6.143   2.640  1.00  0.00     0.004 C 
ENDBRANCH  16  17
ENDBRANCH  15  16
ENDBRANCH  14  15
ENDBRANCH  13  14
ENDBRANCH  12  13
ENDBRANCH  11  12
ENDBRANCH   1  11
TORSDOF 14
ENDMDL
MODEL 7
REMARK VINA RESULT:    -5.265      1.634      2.771
REMARK INTER + INTRA:         -10.632
REMARK INTER:                  -9.340
REMARK INTRA:                  -1.292
REMARK UNBOUND:                -1.058
REMARK SMILES CCCCCCCCCCCCCCCC(=O)[O-]
REMARK SMILES IDX 9 1 10 2 11 3 12 4 13 5 14 6 15 7 16 8 17 9 18 10 8 11 7 12
REMARK SMILES IDX 6 13 5 14 4 15 3 16 2 17 1 18
REMARK H PARENT
REMARK Flexibility Score: inf
ROOT
ATOM      1  C   UNL     1     -14.162  -3.093  -9.675  1.00  0.00     0.000 C 
ENDROOT
BRANCH   1   2
ATOM      2  C   UNL     1     -12.956  -2.443 -10.374  1.00  0.00     0.000 C 
BRANCH   2   3
ATOM      3  C   UNL     1     -13.304  -1.089 -11.013  1.00  0.00     0.000 C 
BRANCH   3   4
ATOM      4  C   UNL     1     -12.986   0.098 -10.086  1.00  0.00     0.000 C 
BRANCH   4   5
ATOM      5  C   UNL     1     -14.247   0.865  -9.657  1.00  0.00     0.000 C 
BRANCH   5   6
ATOM      6  C   UNL     1     -13.962   2.341  -9.339  1.00  0.00     0.006 C 
BRANCH   6   7
ATOM      7  C   UNL     1     -12.473   2.660  -9.506  1.00  0.00     0.053 C 
BRANCH   7   8
ATOM      8  C   UNL     1     -12.090   3.834  -8.661  1.00  0.00     0.041 C 
ATOM      9  O   UNL     1     -12.888   4.797  -8.516  1.00  0.00    -0.550 OA
ATOM     10  O   UNL     1     -10.873   3.842  -7.993  1.00  0.00    -0.550 OA
ENDBRANCH   7   8
ENDBRANCH   6   7
ENDBRANCH   5   6
ENDBRANCH   4   5
ENDBRANCH   3   4
ENDBRANCH   2   3
ENDBRANCH   1   2
BRANCH   1  11
ATOM     11  C   UNL     1     -14.216  -4.615  -9.881  1.00  0.00     0.000 C 
BRANCH  11  12
ATOM     12  C   UNL     1     -13.421  -5.385  -8.816  1.00  0.00    -0.000 C 
BRANCH  12  13
ATOM     13  C   UNL     1     -12.260  -6.164  -9.453  1.00  0.00    -0.000 C 
BRANCH  13  14
ATOM     14  C   UNL     1     -11.002  -6.187  -8.570  1.00  0.00    -0.000 C 
BRANCH  14  15
ATOM     15  C   UNL     1     -10.995  -5.063  -7.520  1.00  0.00    -0.000 C 
BRANCH  15  16
ATOM     16  C   UNL     1      -9.674  -4.278  -7.508  1.00  0.00    -0.000 C 
BRANCH  16  17
ATOM     17  C   UNL     1      -9.800  -2.897  -8.168  1.00  0.00    -0.003 C 
ATOM     18  C   UNL     1      -9.488  -2.971  -9.660  1.00  0.00     0.004 C 
ENDBRANCH  16  17
ENDBRANCH  15  16
ENDBRANCH  14  15
ENDBRANCH  13  14
ENDBRANCH  12  13
ENDBRANCH  11  12
ENDBRANCH   1  11
TORSDOF 14
ENDMDL
MODEL 8
REMARK VINA RESULT:    -5.241      1.559      2.205
REMARK INTER + INTRA:         -10.589
REMARK INTER:                  -9.583
REMARK INTRA:                  -1.006
REMARK UNBOUND:                -1.058
REMARK SMILES CCCCCCCCCCCCCCCC(=O)[O-]
REMARK SMILES IDX 9 1 10 2 11 3 12 4 13 5 14 6 15 7 16 8 17 9 18 10 8 11 7 12
REMARK SMILES IDX 6 13 5 14 4 15 3 16 2 17 1 18
REMARK H PARENT
REMARK Flexibility Score: inf
ROOT
ATOM      1  C   UNL     1     -14.177  -3.068 -10.229  1.00  0.00     0.000 C 
ENDROOT
BRANCH   1   2
ATOM      2  C   UNL     1     -13.037  -2.047 -10.383  1.00  0.00     0.000 C 
BRANCH   2   3
ATOM      3  C   UNL     1     -13.545  -0.656 -10.797  1.00  0.00     0.000 C 
BRANCH   3   4
ATOM      4  C   UNL     1     -14.396   0.009  -9.701  1.00  0.00     0.000 C 
BRANCH   4   5
ATOM      5  C   UNL     1     -14.126   1.517  -9.578  1.00  0.00     0.000 C 
BRANCH   5   6
ATOM      6  C   UNL     1     -12.628   1.851  -9.548  1.00  0.00     0.006 C 
BRANCH   6   7
ATOM      7  C   UNL     1     -12.399   3.361  -9.654  1.00  0.00     0.053 C 
BRANCH   7   8
ATOM      8  C   UNL     1     -12.032   3.931  -8.320  1.00  0.00     0.041 C 
ATOM      9  O   UNL     1     -12.912   4.466  -7.595  1.00  0.00    -0.550 OA
ATOM     10  O   UNL     1     -10.728   3.828  -7.856  1.00  0.00    -0.550 OA
ENDBRANCH   7   8
ENDBRANCH   6   7
ENDBRANCH   5   6
ENDBRANCH   4   5
ENDBRANCH   3   4
ENDBRANCH   2   3
ENDBRANCH   1   2
BRANCH   1  11
ATOM     11  C   UNL     1     -13.722  -4.362  -9.535  1.00  0.00     0.000 C 
BRANCH  11  12
ATOM     12  C   UNL     1     -12.213  -4.382  -9.250  1.00  0.00    -0.000 C 
BRANCH  12  13
ATOM     13  C   UNL     1     -11.655  -5.810  -9.347  1.00  0.00    -0.000 C 
BRANCH  13  14
ATOM     14  C   UNL     1     -10.287  -5.964  -8.663  1.00  0.00    -0.000 C 
BRANCH  14  15
ATOM     15  C   UNL     1     -10.328  -6.930  -7.467  1.00  0.00    -0.000 C 
BRANCH  15  16
ATOM     16  C   UNL     1     -10.197  -6.202  -6.119  1.00  0.00    -0.000 C 
BRANCH  16  17
ATOM     17  C   UNL     1     -11.552  -5.741  -5.561  1.00  0.00    -0.003 C 
ATOM     18  C   UNL     1     -12.645  -6.763  -5.861  1.00  0.00     0.004 C 
ENDBRANCH  16  17
ENDBRANCH  15  16
ENDBRANCH  14  15
ENDBRANCH  13  14
ENDBRANCH  12  13
ENDBRANCH  11  12
ENDBRANCH   1  11
TORSDOF 14
ENDMDL
MODEL 9
REMARK VINA RESULT:    -5.079      3.024      7.534
REMARK INTER + INTRA:         -10.294
REMARK INTER:                  -8.971
REMARK INTRA:                  -1.322
REMARK UNBOUND:                -1.058
REMARK SMILES CCCCCCCCCCCCCCCC(=O)[O-]
REMARK SMILES IDX 9 1 10 2 11 3 12 4 13 5 14 6 15 7 16 8 17 9 18 10 8 11 7 12
REMARK SMILES IDX 6 13 5 14 4 15 3 16 2 17 1 18
REMARK H PARENT
REMARK Flexibility Score: inf
ROOT
ATOM      1  C   UNL     1     -13.539  -3.531  -9.644  1.00  0.00     0.000 C 
ENDROOT
BRANCH   1   2
ATOM      2  C   UNL     1     -13.844  -5.038  -9.623  1.00  0.00     0.000 C 
BRANCH   2   3
ATOM      3  C   UNL     1     -13.902  -5.608  -8.196  1.00  0.00     0.000 C 
BRANCH   3   4
ATOM      4  C   UNL     1     -12.503  -5.873  -7.612  1.00  0.00     0.000 C 
BRANCH   4   5
ATOM      5  C   UNL     1     -11.562  -6.554  -8.619  1.00  0.00     0.000 C 
BRANCH   5   6
ATOM      6  C   UNL     1     -10.211  -5.835  -8.746  1.00  0.00     0.006 C 
BRANCH   6   7
ATOM      7  C   UNL     1     -10.209  -4.526  -7.950  1.00  0.00     0.053 C 
BRANCH   7   8
ATOM      8  C   UNL     1      -9.953  -3.362  -8.854  1.00  0.00     0.041 C 
ATOM      9  O   UNL     1     -10.112  -2.186  -8.434  1.00  0.00    -0.550 OA
ATOM     10  O   UNL     1      -9.490  -3.575 -10.146  1.00  0.00    -0.550 OA
ENDBRANCH   7   8
ENDBRANCH   6   7
ENDBRANCH   5   6
ENDBRANCH   4   5
ENDBRANCH   3   4
ENDBRANCH   2   3
ENDBRANCH   1   2
BRANCH   1  11
ATOM     11  C   UNL     1     -14.718  -2.696 -10.167  1.00  0.00     0.000 C 
BRANCH  11  12
ATOM     12  C   UNL     1     -14.267  -1.513 -11.037  1.00  0.00    -0.000 C 
BRANCH  12  13
ATOM     13  C   UNL     1     -12.813  -1.128 -10.728  1.00  0.00    -0.000 C 
BRANCH  13  14
ATOM     14  C   UNL     1     -12.692   0.241 -10.039  1.00  0.00    -0.000 C 
BRANCH  14  15
ATOM     15  C   UNL     1     -14.044   0.964  -9.918  1.00  0.00    -0.000 C 
BRANCH  15  16
ATOM     16  C   UNL     1     -13.908   2.367  -9.305  1.00  0.00    -0.000 C 
BRANCH  16  17
ATOM     17  C   UNL     1     -12.461   2.882  -9.321  1.00  0.00    -0.003 C 
ATOM     18  C   UNL     1     -12.361   4.257  -8.667  1.00  0.00     0.004 C 
ENDBRANCH  16  17
ENDBRANCH  15  16
ENDBRANCH  14  15
ENDBRANCH  13  14
ENDBRANCH  12  13
ENDBRANCH  11  12
ENDBRANCH   1  11
TORSDOF 14
ENDMDL
