MODEL 1
REMARK VINA RESULT:    -3.133      0.000      0.000
REMARK INTER + INTRA:          -7.254
REMARK INTER:                  -5.331
REMARK INTRA:                  -1.924
REMARK UNBOUND:                -1.924
REMARK SMILES CCCCCCCCCCCCCC(=O)[O-]
REMARK SMILES IDX 8 1 9 2 10 3 11 4 12 5 13 6 14 7 15 8 16 9 7 10 6 11 5 12
REMARK SMILES IDX 4 13 3 14 2 15 1 16
REMARK H PARENT
REMARK Flexibility Score: inf
ROOT
ATOM      1  C   UNL     1      30.297  52.576  38.561  1.00  0.00     0.000 C 
ENDROOT
BRANCH   1   2
ATOM      2  C   UNL     1      30.064  51.059  38.519  1.00  0.00     0.000 C 
BRANCH   2   3
ATOM      3  C   UNL     1      31.026  50.280  39.431  1.00  0.00     0.000 C 
BRANCH   3   4
ATOM      4  C   UNL     1      30.421  49.921  40.804  1.00  0.00     0.000 C 
BRANCH   4   5
ATOM      5  C   UNL     1      29.340  48.831  40.695  1.00  0.00     0.006 C 
BRANCH   5   6
ATOM      6  C   UNL     1      29.401  47.834  41.861  1.00  0.00     0.053 C 
BRANCH   6   7
ATOM      7  C   UNL     1      29.701  46.445  41.389  1.00  0.00     0.041 C 
ATOM      8  O   UNL     1      30.823  46.174  40.886  1.00  0.00    -0.550 OA
ATOM      9  O   UNL     1      28.729  45.457  41.473  1.00  0.00    -0.550 OA
ENDBRANCH   6   7
ENDBRANCH   5   6
ENDBRANCH   4   5
ENDBRANCH   3   4
ENDBRANCH   2   3
ENDBRANCH   1   2
BRANCH   1  10
ATOM     10  C   UNL     1      28.982  53.340  38.365  1.00  0.00     0.000 C 
BRANCH  10  11
ATOM     11  C   UNL     1      27.775  52.398  38.485  1.00  0.00    -0.000 C 
BRANCH  11  12
ATOM     12  C   UNL     1      26.936  52.671  39.743  1.00  0.00    -0.000 C 
BRANCH  12  13
ATOM     13  C   UNL     1      27.104  51.580  40.815  1.00  0.00    -0.000 C 
BRANCH  13  14
ATOM     14  C   UNL     1      27.753  52.108  42.107  1.00  0.00    -0.000 C 
BRANCH  14  15
ATOM     15  C   UNL     1      28.356  53.520  41.993  1.00  0.00    -0.003 C 
ATOM     16  C   UNL     1      29.879  53.533  42.117  1.00  0.00     0.004 C 
ENDBRANCH  14  15
ENDBRANCH  13  14
ENDBRANCH  12  13
ENDBRANCH  11  12
ENDBRANCH  10  11
ENDBRANCH   1  10
TORSDOF 12
ENDMDL
MODEL 2
REMARK VINA RESULT:    -3.007      2.915      5.644
REMARK INTER + INTRA:          -7.041
REMARK INTER:                  -5.921
REMARK INTRA:                  -1.120
REMARK UNBOUND:                -1.924
REMARK SMILES CCCCCCCCCCCCCC(=O)[O-]
REMARK SMILES IDX 8 1 9 2 10 3 11 4 12 5 13 6 14 7 15 8 16 9 7 10 6 11 5 12
REMARK SMILES IDX 4 13 3 14 2 15 1 16
REMARK H PARENT
REMARK Flexibility Score: inf
ROOT
ATOM      1  C   UNL     1      30.475  51.096  38.338  1.00  0.00     0.000 C 
ENDROOT
BRANCH   1   2
ATOM      2  C   UNL     1      29.852  52.456  38.679  1.00  0.00     0.000 C 
BRANCH   2   3
ATOM      3  C   UNL     1      28.523  52.707  37.947  1.00  0.00     0.000 C 
BRANCH   3   4
ATOM      4  C   UNL     1      27.339  52.990  38.895  1.00  0.00     0.000 C 
BRANCH   4   5
ATOM      5  C   UNL     1      27.169  51.889  39.956  1.00  0.00     0.006 C 
BRANCH   5   6
ATOM      6  C   UNL     1      27.051  52.462  41.375  1.00  0.00     0.053 C 
BRANCH   6   7
ATOM      7  C   UNL     1      28.301  53.174  41.792  1.00  0.00     0.041 C 
ATOM      8  O   UNL     1      29.327  52.519  42.113  1.00  0.00    -0.550 OA
ATOM      9  O   UNL     1      28.322  54.561  41.859  1.00  0.00    -0.550 OA
ENDBRANCH   6   7
ENDBRANCH   5   6
ENDBRANCH   4   5
ENDBRANCH   3   4
ENDBRANCH   2   3
ENDBRANCH   1   2
BRANCH   1  10
ATOM     10  C   UNL     1      30.902  50.352  39.610  1.00  0.00     0.000 C 
BRANCH  10  11
ATOM     11  C   UNL     1      29.737  49.535  40.186  1.00  0.00    -0.000 C 
BRANCH  11  12
ATOM     12  C   UNL     1      30.129  48.760  41.454  1.00  0.00    -0.000 C 
BRANCH  12  13
ATOM     13  C   UNL     1      29.085  47.700  41.847  1.00  0.00    -0.000 C 
BRANCH  13  14
ATOM     14  C   UNL     1      29.509  46.272  41.460  1.00  0.00    -0.000 C 
BRANCH  14  15
ATOM     15  C   UNL     1      31.013  46.103  41.175  1.00  0.00    -0.003 C 
ATOM     16  C   UNL     1      31.693  45.111  42.117  1.00  0.00     0.004 C 
ENDBRANCH  14  15
ENDBRANCH  13  14
ENDBRANCH  12  13
ENDBRANCH  11  12
ENDBRANCH  10  11
ENDBRANCH   1  10
TORSDOF 12
ENDMDL
MODEL 3
REMARK VINA RESULT:    -2.998     16.530     18.314
REMARK INTER + INTRA:          -7.025
REMARK INTER:                  -5.566
REMARK INTRA:                  -1.459
REMARK UNBOUND:                -1.924
REMARK SMILES CCCCCCCCCCCCCC(=O)[O-]
REMARK SMILES IDX 8 1 9 2 10 3 11 4 12 5 13 6 14 7 15 8 16 9 7 10 6 11 5 12
REMARK SMILES IDX 4 13 3 14 2 15 1 16
REMARK H PARENT
REMARK Flexibility Score: inf
ROOT
ATOM      1  C   UNL     1      25.172  40.105  24.423  1.00  0.00     0.000 C 
ENDROOT
BRANCH   1   2
ATOM      2  C   UNL     1      25.270  40.570  25.882  1.00  0.00     0.000 C 
BRANCH   2   3
ATOM      3  C   UNL     1      26.722  40.756  26.354  1.00  0.00     0.000 C 
BRANCH   3   4
ATOM      4  C   UNL     1      26.898  41.899  27.376  1.00  0.00     0.000 C 
BRANCH   4   5
ATOM      5  C   UNL     1      27.295  43.225  26.702  1.00  0.00     0.006 C 
BRANCH   5   6
ATOM      6  C   UNL     1      28.512  43.066  25.781  1.00  0.00     0.053 C 
BRANCH   6   7
ATOM      7  C   UNL     1      29.796  43.330  26.507  1.00  0.00     0.041 C 
ATOM      8  O   UNL     1      30.480  44.351  26.236  1.00  0.00    -0.550 OA
ATOM      9  O   UNL     1      30.253  42.428  27.459  1.00  0.00    -0.550 OA
ENDBRANCH   6   7
ENDBRANCH   5   6
ENDBRANCH   4   5
ENDBRANCH   3   4
ENDBRANCH   2   3
ENDBRANCH   1   2
BRANCH   1  10
ATOM     10  C   UNL     1      25.029  38.581  24.339  1.00  0.00     0.000 C 
BRANCH  10  11
ATOM     11  C   UNL     1      26.390  37.915  24.083  1.00  0.00    -0.000 C 
BRANCH  11  12
ATOM     12  C   UNL     1      26.819  36.989  25.231  1.00  0.00    -0.000 C 
BRANCH  12  13
ATOM     13  C   UNL     1      25.790  36.946  26.374  1.00  0.00    -0.000 C 
BRANCH  13  14
ATOM     14  C   UNL     1      26.396  37.321  27.738  1.00  0.00    -0.000 C 
BRANCH  14  15
ATOM     15  C   UNL     1      25.365  37.622  28.840  1.00  0.00    -0.003 C 
ATOM     16  C   UNL     1      25.442  39.059  29.357  1.00  0.00     0.004 C 
ENDBRANCH  14  15
ENDBRANCH  13  14
ENDBRANCH  12  13
ENDBRANCH  11  12
ENDBRANCH  10  11
ENDBRANCH   1  10
TORSDOF 12
ENDMDL
MODEL 4
REMARK VINA RESULT:    -2.803     16.329     18.357
REMARK INTER + INTRA:          -6.693
REMARK INTER:                  -5.435
REMARK INTRA:                  -1.258
REMARK UNBOUND:                -1.924
REMARK SMILES CCCCCCCCCCCCCC(=O)[O-]
REMARK SMILES IDX 8 1 9 2 10 3 11 4 12 5 13 6 14 7 15 8 16 9 7 10 6 11 5 12
REMARK SMILES IDX 4 13 3 14 2 15 1 16
REMARK H PARENT
REMARK Flexibility Score: inf
ROOT
ATOM      1  C   UNL     1      25.533  40.254  28.377  1.00  0.00     0.000 C 
ENDROOT
BRANCH   1   2
ATOM      2  C   UNL     1      25.187  40.790  26.981  1.00  0.00     0.000 C 
BRANCH   2   3
ATOM      3  C   UNL     1      26.397  40.817  26.033  1.00  0.00     0.000 C 
BRANCH   3   4
ATOM      4  C   UNL     1      26.581  42.164  25.302  1.00  0.00     0.000 C 
BRANCH   4   5
ATOM      5  C   UNL     1      27.165  43.249  26.224  1.00  0.00     0.006 C 
BRANCH   5   6
ATOM      6  C   UNL     1      28.310  42.717  27.096  1.00  0.00     0.053 C 
BRANCH   6   7
ATOM      7  C   UNL     1      29.645  42.932  26.450  1.00  0.00     0.041 C 
ATOM      8  O   UNL     1      30.474  41.987  26.377  1.00  0.00    -0.550 OA
ATOM      9  O   UNL     1      29.986  44.186  25.961  1.00  0.00    -0.550 OA
ENDBRANCH   6   7
ENDBRANCH   5   6
ENDBRANCH   4   5
ENDBRANCH   3   4
ENDBRANCH   2   3
ENDBRANCH   1   2
BRANCH   1  10
ATOM     10  C   UNL     1      25.013  38.823  28.561  1.00  0.00     0.000 C 
BRANCH  10  11
ATOM     11  C   UNL     1      26.075  37.934  29.225  1.00  0.00    -0.000 C 
BRANCH  11  12
ATOM     12  C   UNL     1      26.642  36.875  28.266  1.00  0.00    -0.000 C 
BRANCH  12  13
ATOM     13  C   UNL     1      26.432  37.243  26.787  1.00  0.00    -0.000 C 
BRANCH  13  14
ATOM     14  C   UNL     1      27.753  37.331  26.001  1.00  0.00    -0.000 C 
BRANCH  14  15
ATOM     15  C   UNL     1      27.597  37.263  24.471  1.00  0.00    -0.003 C 
ATOM     16  C   UNL     1      26.208  37.686  23.992  1.00  0.00     0.004 C 
ENDBRANCH  14  15
ENDBRANCH  13  14
ENDBRANCH  12  13
ENDBRANCH  11  12
ENDBRANCH  10  11
ENDBRANCH   1  10
TORSDOF 12
ENDMDL
MODEL 5
REMARK VINA RESULT:    -2.801     15.650     17.597
REMARK INTER + INTRA:          -6.689
REMARK INTER:                  -5.296
REMARK INTRA:                  -1.392
REMARK UNBOUND:                -1.924
REMARK SMILES CCCCCCCCCCCCCC(=O)[O-]
REMARK SMILES IDX 8 1 9 2 10 3 11 4 12 5 13 6 14 7 15 8 16 9 7 10 6 11 5 12
REMARK SMILES IDX 4 13 3 14 2 15 1 16
REMARK H PARENT
REMARK Flexibility Score: inf
ROOT
ATOM      1  C   UNL     1      26.510  39.290  25.692  1.00  0.00     0.000 C 
ENDROOT
BRANCH   1   2
ATOM      2  C   UNL     1      25.264  40.179  25.803  1.00  0.00     0.000 C 
BRANCH   2   3
ATOM      3  C   UNL     1      25.329  41.157  26.988  1.00  0.00     0.000 C 
BRANCH   3   4
ATOM      4  C   UNL     1      26.766  41.446  27.472  1.00  0.00     0.000 C 
BRANCH   4   5
ATOM      5  C   UNL     1      27.221  42.874  27.121  1.00  0.00     0.006 C 
BRANCH   5   6
ATOM      6  C   UNL     1      28.255  42.892  25.987  1.00  0.00     0.053 C 
BRANCH   6   7
ATOM      7  C   UNL     1      29.632  43.189  26.497  1.00  0.00     0.041 C 
ATOM      8  O   UNL     1      30.143  42.474  27.398  1.00  0.00    -0.550 OA
ATOM      9  O   UNL     1      30.336  44.278  25.999  1.00  0.00    -0.550 OA
ENDBRANCH   6   7
ENDBRANCH   5   6
ENDBRANCH   4   5
ENDBRANCH   3   4
ENDBRANCH   2   3
ENDBRANCH   1   2
BRANCH   1  10
ATOM     10  C   UNL     1      26.144  37.808  25.842  1.00  0.00     0.000 C 
BRANCH  10  11
ATOM     11  C   UNL     1      27.142  37.086  26.760  1.00  0.00    -0.000 C 
BRANCH  11  12
ATOM     12  C   UNL     1      26.593  36.876  28.180  1.00  0.00    -0.000 C 
BRANCH  12  13
ATOM     13  C   UNL     1      25.218  37.536  28.387  1.00  0.00    -0.000 C 
BRANCH  13  14
ATOM     14  C   UNL     1      25.168  38.429  29.639  1.00  0.00    -0.000 C 
BRANCH  14  15
ATOM     15  C   UNL     1      26.469  38.455  30.463  1.00  0.00    -0.003 C 
ATOM     16  C   UNL     1      26.268  38.016  31.913  1.00  0.00     0.004 C 
ENDBRANCH  14  15
ENDBRANCH  13  14
ENDBRANCH  12  13
ENDBRANCH  11  12
ENDBRANCH  10  11
ENDBRANCH   1  10
TORSDOF 12
ENDMDL
MODEL 6
REMARK VINA RESULT:    -2.707     15.412     16.859
REMARK INTER + INTRA:          -6.530
REMARK INTER:                  -5.589
REMARK INTRA:                  -0.941
REMARK UNBOUND:                -1.924
REMARK SMILES CCCCCCCCCCCCCC(=O)[O-]
REMARK SMILES IDX 8 1 9 2 10 3 11 4 12 5 13 6 14 7 15 8 16 9 7 10 6 11 5 12
REMARK SMILES IDX 4 13 3 14 2 15 1 16
REMARK H PARENT
REMARK Flexibility Score: inf
ROOT
ATOM      1  C   UNL     1      25.194  39.348  26.359  1.00  0.00     0.000 C 
ENDROOT
BRANCH   1   2
ATOM      2  C   UNL     1      26.419  38.428  26.265  1.00  0.00     0.000 C 
BRANCH   2   3
ATOM      3  C   UNL     1      26.388  37.282  27.289  1.00  0.00     0.000 C 
BRANCH   3   4
ATOM      4  C   UNL     1      25.019  37.106  27.978  1.00  0.00     0.000 C 
BRANCH   4   5
ATOM      5  C   UNL     1      25.124  37.197  29.511  1.00  0.00     0.006 C 
BRANCH   5   6
ATOM      6  C   UNL     1      26.037  38.345  29.963  1.00  0.00     0.053 C 
BRANCH   6   7
ATOM      7  C   UNL     1      26.627  38.085  31.316  1.00  0.00     0.041 C 
ATOM      8  O   UNL     1      25.964  38.337  32.356  1.00  0.00    -0.550 OA
ATOM      9  O   UNL     1      27.922  37.595  31.426  1.00  0.00    -0.550 OA
ENDBRANCH   6   7
ENDBRANCH   5   6
ENDBRANCH   4   5
ENDBRANCH   3   4
ENDBRANCH   2   3
ENDBRANCH   1   2
BRANCH   1  10
ATOM     10  C   UNL     1      25.548  40.782  25.948  1.00  0.00     0.000 C 
BRANCH  10  11
ATOM     11  C   UNL     1      26.192  41.544  27.116  1.00  0.00    -0.000 C 
BRANCH  11  12
ATOM     12  C   UNL     1      26.402  43.034  26.804  1.00  0.00    -0.000 C 
BRANCH  12  13
ATOM     13  C   UNL     1      27.797  43.327  26.224  1.00  0.00    -0.000 C 
BRANCH  13  14
ATOM     14  C   UNL     1      28.836  42.256  26.602  1.00  0.00    -0.000 C 
BRANCH  14  15
ATOM     15  C   UNL     1      30.289  42.762  26.661  1.00  0.00    -0.003 C 
ATOM     16  C   UNL     1      30.467  44.144  26.031  1.00  0.00     0.004 C 
ENDBRANCH  14  15
ENDBRANCH  13  14
ENDBRANCH  12  13
ENDBRANCH  11  12
ENDBRANCH  10  11
ENDBRANCH   1  10
TORSDOF 12
ENDMDL
MODEL 7
REMARK VINA RESULT:    -2.646     16.579     18.523
REMARK INTER + INTRA:          -6.426
REMARK INTER:                  -5.211
REMARK INTRA:                  -1.215
REMARK UNBOUND:                -1.924
REMARK SMILES CCCCCCCCCCCCCC(=O)[O-]
REMARK SMILES IDX 8 1 9 2 10 3 11 4 12 5 13 6 14 7 15 8 16 9 7 10 6 11 5 12
REMARK SMILES IDX 4 13 3 14 2 15 1 16
REMARK H PARENT
REMARK Flexibility Score: inf
ROOT
ATOM      1  C   UNL     1      25.843  40.072  28.257  1.00  0.00     0.000 C 
ENDROOT
BRANCH   1   2
ATOM      2  C   UNL     1      25.781  41.393  27.479  1.00  0.00     0.000 C 
BRANCH   2   3
ATOM      3  C   UNL     1      25.933  41.202  25.960  1.00  0.00     0.000 C 
BRANCH   3   4
ATOM      4  C   UNL     1      26.393  42.476  25.220  1.00  0.00     0.000 C 
BRANCH   4   5
ATOM      5  C   UNL     1      27.479  43.240  25.999  1.00  0.00     0.006 C 
BRANCH   5   6
ATOM      6  C   UNL     1      28.870  42.615  25.821  1.00  0.00     0.053 C 
BRANCH   6   7
ATOM      7  C   UNL     1      29.862  43.184  26.789  1.00  0.00     0.041 C 
ATOM      8  O   UNL     1      30.148  44.409  26.759  1.00  0.00    -0.550 OA
ATOM      9  O   UNL     1      30.496  42.351  27.703  1.00  0.00    -0.550 OA
ENDBRANCH   6   7
ENDBRANCH   5   6
ENDBRANCH   4   5
ENDBRANCH   3   4
ENDBRANCH   2   3
ENDBRANCH   1   2
BRANCH   1  10
ATOM     10  C   UNL     1      25.175  38.938  27.469  1.00  0.00     0.000 C 
BRANCH  10  11
ATOM     11  C   UNL     1      25.688  37.568  27.938  1.00  0.00    -0.000 C 
BRANCH  11  12
ATOM     12  C   UNL     1      26.639  36.914  26.923  1.00  0.00    -0.000 C 
BRANCH  12  13
ATOM     13  C   UNL     1      27.217  37.926  25.917  1.00  0.00    -0.000 C 
BRANCH  13  14
ATOM     14  C   UNL     1      26.983  37.511  24.453  1.00  0.00    -0.000 C 
BRANCH  14  15
ATOM     15  C   UNL     1      25.504  37.355  24.057  1.00  0.00    -0.003 C 
ATOM     16  C   UNL     1      24.876  38.659  23.565  1.00  0.00     0.004 C 
ENDBRANCH  14  15
ENDBRANCH  13  14
ENDBRANCH  12  13
ENDBRANCH  11  12
ENDBRANCH  10  11
ENDBRANCH   1  10
TORSDOF 12
ENDMDL
