MODEL 1
REMARK VINA RESULT:    -2.648      0.000      0.000
REMARK INTER + INTRA:          -6.421
REMARK INTER:                  -5.126
REMARK INTRA:                  -1.295
REMARK UNBOUND:                -1.295
REMARK SMILES CCCCCCCCCCCCCCCCCC(=O)[O-]
REMARK SMILES IDX 10 1 11 2 12 3 13 4 14 5 15 6 16 7 17 8 18 9 19 10 20 11
REMARK SMILES IDX 9 12 8 13 7 14 6 15 5 16 4 17 3 18 2 19 1 20
REMARK H PARENT
REMARK Flexibility Score: inf
ROOT
ATOM      1  C   UNL     1      14.023  38.293   7.841  1.00  0.00     0.000 C 
ENDROOT
BRANCH   1   2
ATOM      2  C   UNL     1      14.747  38.879   6.616  1.00  0.00     0.000 C 
BRANCH   2   3
ATOM      3  C   UNL     1      16.258  38.595   6.633  1.00  0.00     0.000 C 
BRANCH   3   4
ATOM      4  C   UNL     1      17.072  39.768   7.198  1.00  0.00     0.000 C 
BRANCH   4   5
ATOM      5  C   UNL     1      16.575  41.104   6.632  1.00  0.00     0.000 C 
BRANCH   5   6
ATOM      6  C   UNL     1      17.062  42.282   7.490  1.00  0.00     0.000 C 
BRANCH   6   7
ATOM      7  C   UNL     1      16.461  42.272   8.905  1.00  0.00     0.006 C 
BRANCH   7   8
ATOM      8  C   UNL     1      17.122  41.234   9.820  1.00  0.00     0.053 C 
BRANCH   8   9
ATOM      9  C   UNL     1      16.909  41.591  11.257  1.00  0.00     0.041 C 
ATOM     10  O   UNL     1      16.970  40.701  12.146  1.00  0.00    -0.550 OA
ATOM     11  O   UNL     1      16.693  42.914  11.622  1.00  0.00    -0.550 OA
ENDBRANCH   8   9
ENDBRANCH   7   8
ENDBRANCH   6   7
ENDBRANCH   5   6
ENDBRANCH   4   5
ENDBRANCH   3   4
ENDBRANCH   2   3
ENDBRANCH   1   2
BRANCH   1  12
ATOM     12  C   UNL     1      14.231  39.133   9.115  1.00  0.00     0.000 C 
BRANCH  12  13
ATOM     13  C   UNL     1      14.848  38.365  10.299  1.00  0.00    -0.000 C 
BRANCH  13  14
ATOM     14  C   UNL     1      13.789  37.732  11.219  1.00  0.00    -0.000 C 
BRANCH  14  15
ATOM     15  C   UNL     1      13.667  38.466  12.563  1.00  0.00    -0.000 C 
BRANCH  15  16
ATOM     16  C   UNL     1      15.005  38.534  13.318  1.00  0.00    -0.000 C 
BRANCH  16  17
ATOM     17  C   UNL     1      15.395  37.176  13.937  1.00  0.00    -0.000 C 
BRANCH  17  18
ATOM     18  C   UNL     1      16.879  36.813  13.741  1.00  0.00    -0.000 C 
BRANCH  18  19
ATOM     19  C   UNL     1      17.077  35.429  13.108  1.00  0.00    -0.003 C 
ATOM     20  C   UNL     1      16.809  35.469  11.606  1.00  0.00     0.004 C 
ENDBRANCH  18  19
ENDBRANCH  17  18
ENDBRANCH  16  17
ENDBRANCH  15  16
ENDBRANCH  14  15
ENDBRANCH  13  14
ENDBRANCH  12  13
ENDBRANCH   1  12
TORSDOF 16
ENDMDL
MODEL 2
REMARK VINA RESULT:    -2.373      3.150      5.832
REMARK INTER + INTRA:          -5.887
REMARK INTER:                  -4.177
REMARK INTRA:                  -1.710
REMARK UNBOUND:                -1.295
REMARK SMILES CCCCCCCCCCCCCCCCCC(=O)[O-]
REMARK SMILES IDX 10 1 11 2 12 3 13 4 14 5 15 6 16 7 17 8 18 9 19 10 20 11
REMARK SMILES IDX 9 12 8 13 7 14 6 15 5 16 4 17 3 18 2 19 1 20
REMARK H PARENT
REMARK Flexibility Score: inf
ROOT
ATOM      1  C   UNL     1      14.885  42.537   8.111  1.00  0.00     0.000 C 
ENDROOT
BRANCH   1   2
ATOM      2  C   UNL     1      15.967  41.687   7.420  1.00  0.00     0.000 C 
BRANCH   2   3
ATOM      3  C   UNL     1      15.627  40.188   7.417  1.00  0.00     0.000 C 
BRANCH   3   4
ATOM      4  C   UNL     1      16.789  39.318   7.916  1.00  0.00     0.000 C 
BRANCH   4   5
ATOM      5  C   UNL     1      16.981  39.475   9.430  1.00  0.00     0.000 C 
BRANCH   5   6
ATOM      6  C   UNL     1      15.689  39.128  10.188  1.00  0.00     0.000 C 
BRANCH   6   7
ATOM      7  C   UNL     1      15.887  37.994  11.207  1.00  0.00     0.006 C 
BRANCH   7   8
ATOM      8  C   UNL     1      14.580  37.589  11.900  1.00  0.00     0.053 C 
BRANCH   8   9
ATOM      9  C   UNL     1      14.240  38.560  12.986  1.00  0.00     0.041 C 
ATOM     10  O   UNL     1      13.055  38.657  13.401  1.00  0.00    -0.550 OA
ATOM     11  O   UNL     1      15.240  39.324  13.576  1.00  0.00    -0.550 OA
ENDBRANCH   8   9
ENDBRANCH   7   8
ENDBRANCH   6   7
ENDBRANCH   5   6
ENDBRANCH   4   5
ENDBRANCH   3   4
ENDBRANCH   2   3
ENDBRANCH   1   2
BRANCH   1  12
ATOM     12  C   UNL     1      15.320  43.042   9.500  1.00  0.00     0.000 C 
BRANCH  12  13
ATOM     13  C   UNL     1      16.826  42.910   9.791  1.00  0.00    -0.000 C 
BRANCH  13  14
ATOM     14  C   UNL     1      17.125  42.610  11.270  1.00  0.00    -0.000 C 
BRANCH  14  15
ATOM     15  C   UNL     1      15.847  42.477  12.112  1.00  0.00    -0.000 C 
BRANCH  15  16
ATOM     16  C   UNL     1      15.916  43.293  13.414  1.00  0.00    -0.000 C 
BRANCH  16  17
ATOM     17  C   UNL     1      14.517  43.558  14.010  1.00  0.00    -0.000 C 
BRANCH  17  18
ATOM     18  C   UNL     1      14.169  45.054  14.125  1.00  0.00    -0.000 C 
BRANCH  18  19
ATOM     19  C   UNL     1      12.682  45.342  13.883  1.00  0.00    -0.003 C 
ATOM     20  C   UNL     1      12.399  46.841  13.916  1.00  0.00     0.004 C 
ENDBRANCH  18  19
ENDBRANCH  17  18
ENDBRANCH  16  17
ENDBRANCH  15  16
ENDBRANCH  14  15
ENDBRANCH  13  14
ENDBRANCH  12  13
ENDBRANCH   1  12
TORSDOF 16
ENDMDL
MODEL 3
REMARK VINA RESULT:    -2.256      2.595      4.626
REMARK INTER + INTRA:          -5.662
REMARK INTER:                  -3.859
REMARK INTRA:                  -1.803
REMARK UNBOUND:                -1.295
REMARK SMILES CCCCCCCCCCCCCCCCCC(=O)[O-]
REMARK SMILES IDX 10 1 11 2 12 3 13 4 14 5 15 6 16 7 17 8 18 9 19 10 20 11
REMARK SMILES IDX 9 12 8 13 7 14 6 15 5 16 4 17 3 18 2 19 1 20
REMARK H PARENT
REMARK Flexibility Score: inf
ROOT
ATOM      1  C   UNL     1      15.009  42.178   8.048  1.00  0.00     0.000 C 
ENDROOT
BRANCH   1   2
ATOM      2  C   UNL     1      15.331  43.160   9.189  1.00  0.00     0.000 C 
BRANCH   2   3
ATOM      3  C   UNL     1      16.792  43.064   9.656  1.00  0.00     0.000 C 
BRANCH   3   4
ATOM      4  C   UNL     1      16.929  43.116  11.184  1.00  0.00     0.000 C 
BRANCH   4   5
ATOM      5  C   UNL     1      16.558  41.768  11.814  1.00  0.00     0.000 C 
BRANCH   5   6
ATOM      6  C   UNL     1      16.437  41.888  13.342  1.00  0.00     0.000 C 
BRANCH   6   7
ATOM      7  C   UNL     1      15.880  43.250  13.787  1.00  0.00     0.006 C 
BRANCH   7   8
ATOM      8  C   UNL     1      14.379  43.200  14.098  1.00  0.00     0.053 C 
BRANCH   8   9
ATOM      9  C   UNL     1      13.800  44.580  14.104  1.00  0.00     0.041 C 
ATOM     10  O   UNL     1      14.558  45.585  14.123  1.00  0.00    -0.550 OA
ATOM     11  O   UNL     1      12.423  44.758  14.037  1.00  0.00    -0.550 OA
ENDBRANCH   8   9
ENDBRANCH   7   8
ENDBRANCH   6   7
ENDBRANCH   5   6
ENDBRANCH   4   5
ENDBRANCH   3   4
ENDBRANCH   2   3
ENDBRANCH   1   2
BRANCH   1  12
ATOM     12  C   UNL     1      15.078  40.705   8.493  1.00  0.00     0.000 C 
BRANCH  12  13
ATOM     13  C   UNL     1      16.033  39.826   7.665  1.00  0.00    -0.000 C 
BRANCH  13  14
ATOM     14  C   UNL     1      16.746  38.756   8.511  1.00  0.00    -0.000 C 
BRANCH  14  15
ATOM     15  C   UNL     1      16.913  39.182   9.977  1.00  0.00    -0.000 C 
BRANCH  15  16
ATOM     16  C   UNL     1      16.606  38.038  10.959  1.00  0.00    -0.000 C 
BRANCH  16  17
ATOM     17  C   UNL     1      15.100  37.933  11.277  1.00  0.00    -0.000 C 
BRANCH  17  18
ATOM     18  C   UNL     1      14.795  37.793  12.780  1.00  0.00    -0.000 C 
BRANCH  18  19
ATOM     19  C   UNL     1      14.107  39.031  13.368  1.00  0.00    -0.003 C 
ATOM     20  C   UNL     1      12.718  38.688  13.899  1.00  0.00     0.004 C 
ENDBRANCH  18  19
ENDBRANCH  17  18
ENDBRANCH  16  17
ENDBRANCH  15  16
ENDBRANCH  14  15
ENDBRANCH  13  14
ENDBRANCH  12  13
ENDBRANCH   1  12
TORSDOF 16
ENDMDL
MODEL 4
REMARK VINA RESULT:    -1.861      5.845     10.315
REMARK INTER + INTRA:          -4.897
REMARK INTER:                  -4.132
REMARK INTRA:                  -0.764
REMARK UNBOUND:                -1.295
REMARK SMILES CCCCCCCCCCCCCCCCCC(=O)[O-]
REMARK SMILES IDX 10 1 11 2 12 3 13 4 14 5 15 6 16 7 17 8 18 9 19 10 20 11
REMARK SMILES IDX 9 12 8 13 7 14 6 15 5 16 4 17 3 18 2 19 1 20
REMARK H PARENT
REMARK Flexibility Score: inf
ROOT
ATOM      1  C   UNL     1      14.038  42.490   4.432  1.00  0.00     0.000 C 
ENDROOT
BRANCH   1   2
ATOM      2  C   UNL     1      14.122  41.747   5.778  1.00  0.00     0.000 C 
BRANCH   2   3
ATOM      3  C   UNL     1      15.561  41.654   6.311  1.00  0.00     0.000 C 
BRANCH   3   4
ATOM      4  C   UNL     1      15.744  40.509   7.318  1.00  0.00     0.000 C 
BRANCH   4   5
ATOM      5  C   UNL     1      15.071  39.226   6.818  1.00  0.00     0.000 C 
BRANCH   5   6
ATOM      6  C   UNL     1      14.044  38.708   7.837  1.00  0.00     0.000 C 
BRANCH   6   7
ATOM      7  C   UNL     1      14.519  38.869   9.290  1.00  0.00     0.006 C 
BRANCH   7   8
ATOM      8  C   UNL     1      14.251  37.622  10.141  1.00  0.00     0.053 C 
BRANCH   8   9
ATOM      9  C   UNL     1      15.033  37.678  11.415  1.00  0.00     0.041 C 
ATOM     10  O   UNL     1      15.665  36.665  11.815  1.00  0.00    -0.550 OA
ATOM     11  O   UNL     1      15.106  38.863  12.136  1.00  0.00    -0.550 OA
ENDBRANCH   8   9
ENDBRANCH   7   8
ENDBRANCH   6   7
ENDBRANCH   5   6
ENDBRANCH   4   5
ENDBRANCH   3   4
ENDBRANCH   2   3
ENDBRANCH   1   2
BRANCH   1  12
ATOM     12  C   UNL     1      12.777  42.122   3.626  1.00  0.00     0.000 C 
BRANCH  12  13
ATOM     13  C   UNL     1      13.003  41.971   2.111  1.00  0.00    -0.000 C 
BRANCH  13  14
ATOM     14  C   UNL     1      13.535  43.257   1.454  1.00  0.00    -0.000 C 
BRANCH  14  15
ATOM     15  C   UNL     1      12.682  43.700   0.255  1.00  0.00    -0.000 C 
BRANCH  15  16
ATOM     16  C   UNL     1      13.156  45.036  -0.340  1.00  0.00    -0.000 C 
BRANCH  16  17
ATOM     17  C   UNL     1      14.580  45.408   0.123  1.00  0.00    -0.000 C 
BRANCH  17  18
ATOM     18  C   UNL     1      15.357  46.261  -0.897  1.00  0.00    -0.000 C 
BRANCH  18  19
ATOM     19  C   UNL     1      14.477  47.306  -1.595  1.00  0.00    -0.003 C 
ATOM     20  C   UNL     1      15.261  48.056  -2.668  1.00  0.00     0.004 C 
ENDBRANCH  18  19
ENDBRANCH  17  18
ENDBRANCH  16  17
ENDBRANCH  15  16
ENDBRANCH  14  15
ENDBRANCH  13  14
ENDBRANCH  12  13
ENDBRANCH   1  12
TORSDOF 16
ENDMDL
MODEL 5
REMARK VINA RESULT:    -1.804      6.647      8.293
REMARK INTER + INTRA:          -4.786
REMARK INTER:                  -3.960
REMARK INTRA:                  -0.826
REMARK UNBOUND:                -1.295
REMARK SMILES CCCCCCCCCCCCCCCCCC(=O)[O-]
REMARK SMILES IDX 10 1 11 2 12 3 13 4 14 5 15 6 16 7 17 8 18 9 19 10 20 11
REMARK SMILES IDX 9 12 8 13 7 14 6 15 5 16 4 17 3 18 2 19 1 20
REMARK H PARENT
REMARK Flexibility Score: inf
ROOT
ATOM      1  C   UNL     1      13.376  42.179   4.002  1.00  0.00     0.000 C 
ENDROOT
BRANCH   1   2
ATOM      2  C   UNL     1      13.761  42.892   2.694  1.00  0.00     0.000 C 
BRANCH   2   3
ATOM      3  C   UNL     1      12.819  42.540   1.530  1.00  0.00     0.000 C 
BRANCH   3   4
ATOM      4  C   UNL     1      13.248  43.189   0.207  1.00  0.00     0.000 C 
BRANCH   4   5
ATOM      5  C   UNL     1      12.032  43.722  -0.561  1.00  0.00     0.000 C 
BRANCH   5   6
ATOM      6  C   UNL     1      12.224  45.199  -0.941  1.00  0.00     0.000 C 
BRANCH   6   7
ATOM      7  C   UNL     1      13.398  45.855  -0.194  1.00  0.00     0.006 C 
BRANCH   7   8
ATOM      8  C   UNL     1      14.509  46.327  -1.140  1.00  0.00     0.053 C 
BRANCH   8   9
ATOM      9  C   UNL     1      15.829  46.331  -0.436  1.00  0.00     0.041 C 
ATOM     10  O   UNL     1      16.375  47.421  -0.120  1.00  0.00    -0.550 OA
ATOM     11  O   UNL     1      16.434  45.131  -0.083  1.00  0.00    -0.550 OA
ENDBRANCH   8   9
ENDBRANCH   7   8
ENDBRANCH   6   7
ENDBRANCH   5   6
ENDBRANCH   4   5
ENDBRANCH   3   4
ENDBRANCH   2   3
ENDBRANCH   1   2
BRANCH   1  12
ATOM     12  C   UNL     1      14.422  42.372   5.116  1.00  0.00     0.000 C 
BRANCH  12  13
ATOM     13  C   UNL     1      14.394  41.298   6.219  1.00  0.00    -0.000 C 
BRANCH  13  14
ATOM     14  C   UNL     1      15.650  41.320   7.108  1.00  0.00    -0.000 C 
BRANCH  14  15
ATOM     15  C   UNL     1      16.002  39.932   7.662  1.00  0.00    -0.000 C 
BRANCH  15  16
ATOM     16  C   UNL     1      14.966  38.865   7.271  1.00  0.00    -0.000 C 
BRANCH  16  17
ATOM     17  C   UNL     1      14.071  38.458   8.460  1.00  0.00    -0.000 C 
BRANCH  17  18
ATOM     18  C   UNL     1      14.721  38.702   9.834  1.00  0.00    -0.000 C 
BRANCH  18  19
ATOM     19  C   UNL     1      14.029  37.935  10.968  1.00  0.00    -0.003 C 
ATOM     20  C   UNL     1      14.449  38.475  12.333  1.00  0.00     0.004 C 
ENDBRANCH  18  19
ENDBRANCH  17  18
ENDBRANCH  16  17
ENDBRANCH  15  16
ENDBRANCH  14  15
ENDBRANCH  13  14
ENDBRANCH  12  13
ENDBRANCH   1  12
TORSDOF 16
ENDMDL
MODEL 6
REMARK VINA RESULT:    -1.701      6.441      7.925
REMARK INTER + INTRA:          -4.588
REMARK INTER:                  -3.841
REMARK INTRA:                  -0.747
REMARK UNBOUND:                -1.295
REMARK SMILES CCCCCCCCCCCCCCCCCC(=O)[O-]
REMARK SMILES IDX 10 1 11 2 12 3 13 4 14 5 15 6 16 7 17 8 18 9 19 10 20 11
REMARK SMILES IDX 9 12 8 13 7 14 6 15 5 16 4 17 3 18 2 19 1 20
REMARK H PARENT
REMARK Flexibility Score: inf
ROOT
ATOM      1  C   UNL     1      14.024  42.093   5.482  1.00  0.00     0.000 C 
ENDROOT
BRANCH   1   2
ATOM      2  C   UNL     1      14.087  42.491   3.997  1.00  0.00     0.000 C 
BRANCH   2   3
ATOM      3  C   UNL     1      12.795  42.148   3.239  1.00  0.00     0.000 C 
BRANCH   3   4
ATOM      4  C   UNL     1      13.014  42.030   1.723  1.00  0.00     0.000 C 
BRANCH   4   5
ATOM      5  C   UNL     1      13.129  43.416   1.077  1.00  0.00     0.000 C 
BRANCH   5   6
ATOM      6  C   UNL     1      12.429  43.447  -0.291  1.00  0.00     0.000 C 
BRANCH   6   7
ATOM      7  C   UNL     1      12.399  44.855  -0.909  1.00  0.00     0.006 C 
BRANCH   7   8
ATOM      8  C   UNL     1      13.188  45.878  -0.084  1.00  0.00     0.053 C 
BRANCH   8   9
ATOM      9  C   UNL     1      14.461  46.243  -0.781  1.00  0.00     0.041 C 
ATOM     10  O   UNL     1      15.486  45.525  -0.641  1.00  0.00    -0.550 OA
ATOM     11  O   UNL     1      14.503  47.346  -1.624  1.00  0.00    -0.550 OA
ENDBRANCH   8   9
ENDBRANCH   7   8
ENDBRANCH   6   7
ENDBRANCH   5   6
ENDBRANCH   4   5
ENDBRANCH   3   4
ENDBRANCH   2   3
ENDBRANCH   1   2
BRANCH   1  12
ATOM     12  C   UNL     1      15.409  42.080   6.156  1.00  0.00     0.000 C 
BRANCH  12  13
ATOM     13  C   UNL     1      15.508  41.188   7.407  1.00  0.00    -0.000 C 
BRANCH  13  14
ATOM     14  C   UNL     1      16.077  39.790   7.101  1.00  0.00    -0.000 C 
BRANCH  14  15
ATOM     15  C   UNL     1      14.979  38.721   6.992  1.00  0.00    -0.000 C 
BRANCH  15  16
ATOM     16  C   UNL     1      14.042  38.716   8.212  1.00  0.00    -0.000 C 
BRANCH  16  17
ATOM     17  C   UNL     1      14.806  38.480   9.531  1.00  0.00    -0.000 C 
BRANCH  17  18
ATOM     18  C   UNL     1      13.908  38.002  10.687  1.00  0.00    -0.000 C 
BRANCH  18  19
ATOM     19  C   UNL     1      14.637  37.971  12.037  1.00  0.00    -0.003 C 
ATOM     20  C   UNL     1      15.986  37.267  11.917  1.00  0.00     0.004 C 
ENDBRANCH  18  19
ENDBRANCH  17  18
ENDBRANCH  16  17
ENDBRANCH  15  16
ENDBRANCH  14  15
ENDBRANCH  13  14
ENDBRANCH  12  13
ENDBRANCH   1  12
TORSDOF 16
ENDMDL
MODEL 7
REMARK VINA RESULT:    -1.650      5.941     10.211
REMARK INTER + INTRA:          -4.489
REMARK INTER:                  -3.420
REMARK INTRA:                  -1.068
REMARK UNBOUND:                -1.295
REMARK SMILES CCCCCCCCCCCCCCCCCC(=O)[O-]
REMARK SMILES IDX 10 1 11 2 12 3 13 4 14 5 15 6 16 7 17 8 18 9 19 10 20 11
REMARK SMILES IDX 9 12 8 13 7 14 6 15 5 16 4 17 3 18 2 19 1 20
REMARK H PARENT
REMARK Flexibility Score: inf
ROOT
ATOM      1  C   UNL     1      13.355  42.085   4.219  1.00  0.00     0.000 C 
ENDROOT
BRANCH   1   2
ATOM      2  C   UNL     1      14.249  42.450   5.418  1.00  0.00     0.000 C 
BRANCH   2   3
ATOM      3  C   UNL     1      14.714  41.214   6.205  1.00  0.00     0.000 C 
BRANCH   3   4
ATOM      4  C   UNL     1      15.988  41.478   7.020  1.00  0.00     0.000 C 
BRANCH   4   5
ATOM      5  C   UNL     1      15.655  42.165   8.350  1.00  0.00     0.000 C 
BRANCH   5   6
ATOM      6  C   UNL     1      16.380  41.481   9.521  1.00  0.00     0.000 C 
BRANCH   6   7
ATOM      7  C   UNL     1      16.504  39.960   9.333  1.00  0.00     0.006 C 
BRANCH   7   8
ATOM      8  C   UNL     1      15.711  39.170  10.382  1.00  0.00     0.053 C 
BRANCH   8   9
ATOM      9  C   UNL     1      14.574  38.441   9.739  1.00  0.00     0.041 C 
ATOM     10  O   UNL     1      14.128  38.822   8.624  1.00  0.00    -0.550 OA
ATOM     11  O   UNL     1      14.038  37.312  10.345  1.00  0.00    -0.550 OA
ENDBRANCH   8   9
ENDBRANCH   7   8
ENDBRANCH   6   7
ENDBRANCH   5   6
ENDBRANCH   4   5
ENDBRANCH   3   4
ENDBRANCH   2   3
ENDBRANCH   1   2
BRANCH   1  12
ATOM     12  C   UNL     1      13.787  42.788   2.918  1.00  0.00     0.000 C 
BRANCH  12  13
ATOM     13  C   UNL     1      12.906  42.476   1.694  1.00  0.00    -0.000 C 
BRANCH  13  14
ATOM     14  C   UNL     1      13.346  43.236   0.430  1.00  0.00    -0.000 C 
BRANCH  14  15
ATOM     15  C   UNL     1      12.159  43.627  -0.462  1.00  0.00    -0.000 C 
BRANCH  15  16
ATOM     16  C   UNL     1      12.170  45.119  -0.833  1.00  0.00    -0.000 C 
BRANCH  16  17
ATOM     17  C   UNL     1      13.379  45.861  -0.225  1.00  0.00    -0.000 C 
BRANCH  17  18
ATOM     18  C   UNL     1      14.127  46.752  -1.234  1.00  0.00    -0.000 C 
BRANCH  18  19
ATOM     19  C   UNL     1      15.635  46.473  -1.273  1.00  0.00    -0.003 C 
ATOM     20  C   UNL     1      16.052  45.538  -0.141  1.00  0.00     0.004 C 
ENDBRANCH  18  19
ENDBRANCH  17  18
ENDBRANCH  16  17
ENDBRANCH  15  16
ENDBRANCH  14  15
ENDBRANCH  13  14
ENDBRANCH  12  13
ENDBRANCH   1  12
TORSDOF 16
ENDMDL
