MODEL 1
REMARK VINA RESULT:    -3.778      0.000      0.000
REMARK INTER + INTRA:          -4.167
REMARK INTER:                  -4.109
REMARK INTRA:                  -0.059
REMARK UNBOUND:                -0.059
REMARK SMILES COc1cc2ccc(=O)oc2cc1O
REMARK SMILES IDX 3 1 13 2 12 3 11 4 5 5 4 6 6 7 7 8 8 9 9 10 10 11 2 12 1 13
REMARK SMILES IDX 14 14
REMARK H PARENT 14 15
REMARK Flexibility Score: inf
ROOT
ATOM      1  C   UNL     1      -8.143   9.530 -10.454  1.00  0.00     0.161 A 
ATOM      2  C   UNL     1      -6.837   9.262 -10.014  1.00  0.00     0.161 A 
ATOM      3  C   UNL     1      -6.617   8.726  -8.737  1.00  0.00     0.098 A 
ATOM      4  C   UNL     1      -7.694   8.452  -7.892  1.00  0.00     0.142 A 
ATOM      5  C   UNL     1      -9.010   8.718  -8.327  1.00  0.00     0.022 A 
ATOM      6  C   UNL     1      -9.232   9.255  -9.602  1.00  0.00     0.062 A 
ATOM      7  C   UNL     1     -10.068   8.434  -7.457  1.00  0.00     0.019 A 
ATOM      8  C   UNL     1      -9.796   7.902  -6.198  1.00  0.00     0.094 A 
ATOM      9  C   UNL     1      -8.467   7.664  -5.836  1.00  0.00     0.336 A 
ATOM     10  O   UNL     1      -8.200   7.184  -4.703  1.00  0.00    -0.246 OA
ATOM     11  O   UNL     1      -7.478   7.944  -6.681  1.00  0.00    -0.423 OA
ENDROOT
BRANCH   1  12
ATOM     12  O   UNL     1      -8.317  10.066 -11.739  1.00  0.00    -0.493 OA
ATOM     13  C   UNL     1      -9.110   9.470 -12.762  1.00  0.00     0.278 C 
ENDBRANCH   1  12
BRANCH   2  14
ATOM     14  O   UNL     1      -5.760   9.534 -10.856  1.00  0.00    -0.504 OA
ATOM     15  H   UNL     1      -5.635  10.445 -11.282  1.00  0.00     0.293 HD
ENDBRANCH   2  14
TORSDOF 2
ENDMDL
MODEL 2
REMARK VINA RESULT:    -3.700     15.257     15.337
REMARK INTER + INTRA:          -4.083
REMARK INTER:                  -4.038
REMARK INTRA:                  -0.045
REMARK UNBOUND:                -0.059
REMARK SMILES COc1cc2ccc(=O)oc2cc1O
REMARK SMILES IDX 3 1 13 2 12 3 11 4 5 5 4 6 6 7 7 8 8 9 9 10 10 11 2 12 1 13
REMARK SMILES IDX 14 14
REMARK H PARENT 14 15
REMARK Flexibility Score: inf
ROOT
ATOM      1  C   UNL     1      -7.272  -3.836 -13.780  1.00  0.00     0.161 A 
ATOM      2  C   UNL     1      -6.066  -4.553 -13.795  1.00  0.00     0.161 A 
ATOM      3  C   UNL     1      -6.052  -5.920 -13.480  1.00  0.00     0.098 A 
ATOM      4  C   UNL     1      -7.238  -6.579 -13.149  1.00  0.00     0.142 A 
ATOM      5  C   UNL     1      -8.455  -5.864 -13.132  1.00  0.00     0.022 A 
ATOM      6  C   UNL     1      -8.470  -4.499 -13.446  1.00  0.00     0.062 A 
ATOM      7  C   UNL     1      -9.625  -6.553 -12.796  1.00  0.00     0.019 A 
ATOM      8  C   UNL     1      -9.558  -7.911 -12.491  1.00  0.00     0.094 A 
ATOM      9  C   UNL     1      -8.317  -8.553 -12.529  1.00  0.00     0.336 A 
ATOM     10  O   UNL     1      -8.235  -9.780 -12.257  1.00  0.00    -0.246 OA
ATOM     11  O   UNL     1      -7.218  -7.876 -12.851  1.00  0.00    -0.423 OA
ENDROOT
BRANCH   1  12
ATOM     12  O   UNL     1      -7.239  -2.470 -14.102  1.00  0.00    -0.493 OA
ATOM     13  C   UNL     1      -8.377  -1.614 -14.102  1.00  0.00     0.278 C 
ENDBRANCH   1  12
BRANCH   2  14
ATOM     14  O   UNL     1      -4.881  -3.898 -14.125  1.00  0.00    -0.504 OA
ATOM     15  H   UNL     1      -4.728  -3.509 -15.048  1.00  0.00     0.293 HD
ENDBRANCH   2  14
TORSDOF 2
ENDMDL
MODEL 3
REMARK VINA RESULT:    -3.544     16.819     19.314
REMARK INTER + INTRA:          -3.913
REMARK INTER:                  -3.862
REMARK INTRA:                  -0.051
REMARK UNBOUND:                -0.059
REMARK SMILES COc1cc2ccc(=O)oc2cc1O
REMARK SMILES IDX 3 1 13 2 12 3 11 4 5 5 4 6 6 7 7 8 8 9 9 10 10 11 2 12 1 13
REMARK SMILES IDX 14 14
REMARK H PARENT 14 15
REMARK Flexibility Score: inf
ROOT
ATOM      1  C   UNL     1      -9.627  -3.966   4.190  1.00  0.00     0.161 A 
ATOM      2  C   UNL     1      -8.646  -4.488   5.047  1.00  0.00     0.161 A 
ATOM      3  C   UNL     1      -8.120  -5.769   4.822  1.00  0.00     0.098 A 
ATOM      4  C   UNL     1      -8.566  -6.535   3.743  1.00  0.00     0.142 A 
ATOM      5  C   UNL     1      -9.552  -6.016   2.877  1.00  0.00     0.022 A 
ATOM      6  C   UNL     1     -10.079  -4.737   3.101  1.00  0.00     0.062 A 
ATOM      7  C   UNL     1      -9.979  -6.807   1.805  1.00  0.00     0.019 A 
ATOM      8  C   UNL     1      -9.425  -8.074   1.625  1.00  0.00     0.094 A 
ATOM      9  C   UNL     1      -8.452  -8.521   2.524  1.00  0.00     0.336 A 
ATOM     10  O   UNL     1      -7.939  -9.662   2.378  1.00  0.00    -0.246 OA
ATOM     11  O   UNL     1      -8.063  -7.749   3.536  1.00  0.00    -0.423 OA
ENDROOT
BRANCH   1  12
ATOM     12  O   UNL     1     -10.125  -2.680   4.453  1.00  0.00    -0.493 OA
ATOM     13  C   UNL     1      -9.613  -1.483   3.876  1.00  0.00     0.278 C 
ENDBRANCH   1  12
BRANCH   2  14
ATOM     14  O   UNL     1      -8.198  -3.727   6.125  1.00  0.00    -0.504 OA
ATOM     15  H   UNL     1      -7.776  -4.156   6.940  1.00  0.00     0.293 HD
ENDBRANCH   2  14
TORSDOF 2
ENDMDL
MODEL 4
REMARK VINA RESULT:    -3.351      1.464      2.573
REMARK INTER + INTRA:          -3.704
REMARK INTER:                  -3.657
REMARK INTRA:                  -0.046
REMARK UNBOUND:                -0.059
REMARK SMILES COc1cc2ccc(=O)oc2cc1O
REMARK SMILES IDX 3 1 13 2 12 3 11 4 5 5 4 6 6 7 7 8 8 9 9 10 10 11 2 12 1 13
REMARK SMILES IDX 14 14
REMARK H PARENT 14 15
REMARK Flexibility Score: inf
ROOT
ATOM      1  C   UNL     1      -6.984   9.656 -10.992  1.00  0.00     0.161 A 
ATOM      2  C   UNL     1      -8.366   9.683 -11.234  1.00  0.00     0.161 A 
ATOM      3  C   UNL     1      -9.267   9.274 -10.240  1.00  0.00     0.098 A 
ATOM      4  C   UNL     1      -8.796   8.836  -9.001  1.00  0.00     0.142 A 
ATOM      5  C   UNL     1      -7.408   8.805  -8.749  1.00  0.00     0.022 A 
ATOM      6  C   UNL     1      -6.507   9.213  -9.742  1.00  0.00     0.062 A 
ATOM      7  C   UNL     1      -6.968   8.361  -7.498  1.00  0.00     0.019 A 
ATOM      8  C   UNL     1      -7.904   7.964  -6.544  1.00  0.00     0.094 A 
ATOM      9  C   UNL     1      -9.263   8.022  -6.864  1.00  0.00     0.336 A 
ATOM     10  O   UNL     1     -10.124   7.668  -6.016  1.00  0.00    -0.246 OA
ATOM     11  O   UNL     1      -9.656   8.448  -8.062  1.00  0.00    -0.423 OA
ENDROOT
BRANCH   1  12
ATOM     12  O   UNL     1      -6.119  10.075 -12.016  1.00  0.00    -0.493 OA
ATOM     13  C   UNL     1      -4.737   9.738 -12.093  1.00  0.00     0.278 C 
ENDBRANCH   1  12
BRANCH   2  14
ATOM     14  O   UNL     1      -8.839  10.120 -12.471  1.00  0.00    -0.504 OA
ATOM     15  H   UNL     1      -9.828  10.258 -12.642  1.00  0.00     0.293 HD
ENDBRANCH   2  14
TORSDOF 2
ENDMDL
MODEL 5
REMARK VINA RESULT:    -3.262     16.887     19.071
REMARK INTER + INTRA:          -3.607
REMARK INTER:                  -3.552
REMARK INTRA:                  -0.055
REMARK UNBOUND:                -0.059
REMARK SMILES COc1cc2ccc(=O)oc2cc1O
REMARK SMILES IDX 3 1 13 2 12 3 11 4 5 5 4 6 6 7 7 8 8 9 9 10 10 11 2 12 1 13
REMARK SMILES IDX 14 14
REMARK H PARENT 14 15
REMARK Flexibility Score: inf
ROOT
ATOM      1  C   UNL     1      -9.122  -7.191   3.410  1.00  0.00     0.161 A 
ATOM      2  C   UNL     1      -9.784  -6.703   2.274  1.00  0.00     0.161 A 
ATOM      3  C   UNL     1     -10.111  -5.343   2.175  1.00  0.00     0.098 A 
ATOM      4  C   UNL     1      -9.780  -4.462   3.207  1.00  0.00     0.142 A 
ATOM      5  C   UNL     1      -9.113  -4.945   4.353  1.00  0.00     0.022 A 
ATOM      6  C   UNL     1      -8.786  -6.303   4.453  1.00  0.00     0.062 A 
ATOM      7  C   UNL     1      -8.795  -4.037   5.369  1.00  0.00     0.019 A 
ATOM      8  C   UNL     1      -9.142  -2.695   5.223  1.00  0.00     0.094 A 
ATOM      9  C   UNL     1      -9.801  -2.289   4.059  1.00  0.00     0.336 A 
ATOM     10  O   UNL     1     -10.123  -1.081   3.908  1.00  0.00    -0.246 OA
ATOM     11  O   UNL     1     -10.093  -3.172   3.107  1.00  0.00    -0.423 OA
ENDROOT
BRANCH   1  12
ATOM     12  O   UNL     1      -8.814  -8.560   3.467  1.00  0.00    -0.493 OA
ATOM     13  C   UNL     1      -7.531  -9.085   3.793  1.00  0.00     0.278 C 
ENDBRANCH   1  12
BRANCH   2  14
ATOM     14  O   UNL     1     -10.117  -7.580   1.243  1.00  0.00    -0.504 OA
ATOM     15  H   UNL     1     -10.103  -8.585   1.375  1.00  0.00     0.293 HD
ENDBRANCH   2  14
TORSDOF 2
ENDMDL
MODEL 6
REMARK VINA RESULT:    -3.143      1.220      4.913
REMARK INTER + INTRA:          -3.477
REMARK INTER:                  -3.570
REMARK INTRA:                   0.093
REMARK UNBOUND:                -0.059
REMARK SMILES COc1cc2ccc(=O)oc2cc1O
REMARK SMILES IDX 3 1 13 2 12 3 11 4 5 5 4 6 6 7 7 8 8 9 9 10 10 11 2 12 1 13
REMARK SMILES IDX 14 14
REMARK H PARENT 14 15
REMARK Flexibility Score: inf
ROOT
ATOM      1  C   UNL     1      -9.041   8.006  -7.581  1.00  0.00     0.161 A 
ATOM      2  C   UNL     1      -7.656   7.915  -7.372  1.00  0.00     0.161 A 
ATOM      3  C   UNL     1      -6.761   8.340  -8.366  1.00  0.00     0.098 A 
ATOM      4  C   UNL     1      -7.241   8.859  -9.570  1.00  0.00     0.142 A 
ATOM      5  C   UNL     1      -8.632   8.953  -9.787  1.00  0.00     0.022 A 
ATOM      6  C   UNL     1      -9.527   8.528  -8.797  1.00  0.00     0.062 A 
ATOM      7  C   UNL     1      -9.081   9.476 -11.005  1.00  0.00     0.019 A 
ATOM      8  C   UNL     1      -8.152   9.885 -11.960  1.00  0.00     0.094 A 
ATOM      9  C   UNL     1      -6.789   9.761 -11.674  1.00  0.00     0.336 A 
ATOM     10  O   UNL     1      -5.933  10.125 -12.523  1.00  0.00    -0.246 OA
ATOM     11  O   UNL     1      -6.387   9.260 -10.509  1.00  0.00    -0.423 OA
ENDROOT
BRANCH   1  12
ATOM     12  O   UNL     1      -9.899   7.568  -6.559  1.00  0.00    -0.493 OA
ATOM     13  C   UNL     1     -10.125   8.270  -5.341  1.00  0.00     0.278 C 
ENDBRANCH   1  12
BRANCH   2  14
ATOM     14  O   UNL     1      -7.174   7.398  -6.171  1.00  0.00    -0.504 OA
ATOM     15  H   UNL     1      -7.681   7.515  -5.301  1.00  0.00     0.293 HD
ENDBRANCH   2  14
TORSDOF 2
ENDMDL
MODEL 7
REMARK VINA RESULT:    -3.062      1.231      4.989
REMARK INTER + INTRA:          -3.389
REMARK INTER:                  -3.332
REMARK INTRA:                  -0.057
REMARK UNBOUND:                -0.059
REMARK SMILES COc1cc2ccc(=O)oc2cc1O
REMARK SMILES IDX 3 1 13 2 12 3 11 4 5 5 4 6 6 7 7 8 8 9 9 10 10 11 2 12 1 13
REMARK SMILES IDX 14 14
REMARK H PARENT 14 15
REMARK Flexibility Score: inf
ROOT
ATOM      1  C   UNL     1      -7.989   8.926  -8.030  1.00  0.00     0.161 A 
ATOM      2  C   UNL     1      -6.816   9.463  -8.583  1.00  0.00     0.161 A 
ATOM      3  C   UNL     1      -6.752   9.763  -9.952  1.00  0.00     0.098 A 
ATOM      4  C   UNL     1      -7.855   9.530 -10.776  1.00  0.00     0.142 A 
ATOM      5  C   UNL     1      -9.038   8.990 -10.228  1.00  0.00     0.022 A 
ATOM      6  C   UNL     1      -9.103   8.690  -8.861  1.00  0.00     0.062 A 
ATOM      7  C   UNL     1     -10.125   8.768 -11.080  1.00  0.00     0.019 A 
ATOM      8  C   UNL     1     -10.011   9.082 -12.433  1.00  0.00     0.094 A 
ATOM      9  C   UNL     1      -8.807   9.614 -12.905  1.00  0.00     0.336 A 
ATOM     10  O   UNL     1      -8.684   9.905 -14.124  1.00  0.00    -0.246 OA
ATOM     11  O   UNL     1      -7.787   9.816 -12.075  1.00  0.00    -0.423 OA
ENDROOT
BRANCH   1  12
ATOM     12  O   UNL     1      -8.008   8.642  -6.656  1.00  0.00    -0.493 OA
ATOM     13  C   UNL     1      -8.346   7.375  -6.099  1.00  0.00     0.278 C 
ENDBRANCH   1  12
BRANCH   2  14
ATOM     14  O   UNL     1      -5.714   9.697  -7.763  1.00  0.00    -0.504 OA
ATOM     15  H   UNL     1      -5.341   8.976  -7.155  1.00  0.00     0.293 HD
ENDBRANCH   2  14
TORSDOF 2
ENDMDL
MODEL 8
REMARK VINA RESULT:    -3.033      1.717      2.679
REMARK INTER + INTRA:          -3.358
REMARK INTER:                  -3.298
REMARK INTRA:                  -0.060
REMARK UNBOUND:                -0.059
REMARK SMILES COc1cc2ccc(=O)oc2cc1O
REMARK SMILES IDX 3 1 13 2 12 3 11 4 5 5 4 6 6 7 7 8 8 9 9 10 10 11 2 12 1 13
REMARK SMILES IDX 14 14
REMARK H PARENT 14 15
REMARK Flexibility Score: inf
ROOT
ATOM      1  C   UNL     1      -7.879   8.866  -9.227  1.00  0.00     0.161 A 
ATOM      2  C   UNL     1      -9.172   9.385  -9.062  1.00  0.00     0.161 A 
ATOM      3  C   UNL     1      -9.869   9.181  -7.861  1.00  0.00     0.098 A 
ATOM      4  C   UNL     1      -9.281   8.461  -6.820  1.00  0.00     0.142 A 
ATOM      5  C   UNL     1      -7.981   7.936  -6.978  1.00  0.00     0.022 A 
ATOM      6  C   UNL     1      -7.284   8.138  -8.176  1.00  0.00     0.062 A 
ATOM      7  C   UNL     1      -7.420   7.218  -5.916  1.00  0.00     0.019 A 
ATOM      8  C   UNL     1      -8.153   7.043  -4.744  1.00  0.00     0.094 A 
ATOM      9  C   UNL     1      -9.436   7.592  -4.659  1.00  0.00     0.336 A 
ATOM     10  O   UNL     1     -10.114   7.445  -3.609  1.00  0.00    -0.246 OA
ATOM     11  O   UNL     1      -9.947   8.271  -5.683  1.00  0.00    -0.423 OA
ENDROOT
BRANCH   1  12
ATOM     12  O   UNL     1      -7.220   9.095 -10.445  1.00  0.00    -0.493 OA
ATOM     13  C   UNL     1      -5.985   9.793 -10.574  1.00  0.00     0.278 C 
ENDBRANCH   1  12
BRANCH   2  14
ATOM     14  O   UNL     1      -9.762  10.105 -10.099  1.00  0.00    -0.504 OA
ATOM     15  H   UNL     1     -10.707   9.911 -10.411  1.00  0.00     0.293 HD
ENDBRANCH   2  14
TORSDOF 2
ENDMDL
MODEL 9
REMARK VINA RESULT:    -2.821     17.867     19.905
REMARK INTER + INTRA:          -3.127
REMARK INTER:                  -3.077
REMARK INTRA:                  -0.051
REMARK UNBOUND:                -0.059
REMARK SMILES COc1cc2ccc(=O)oc2cc1O
REMARK SMILES IDX 3 1 13 2 12 3 11 4 5 5 4 6 6 7 7 8 8 9 9 10 10 11 2 12 1 13
REMARK SMILES IDX 14 14
REMARK H PARENT 14 15
REMARK Flexibility Score: inf
ROOT
ATOM      1  C   UNL     1      -8.543  -8.159   3.007  1.00  0.00     0.161 A 
ATOM      2  C   UNL     1      -7.843  -8.038   4.216  1.00  0.00     0.161 A 
ATOM      3  C   UNL     1      -7.897  -6.843   4.950  1.00  0.00     0.098 A 
ATOM      4  C   UNL     1      -8.650  -5.764   4.482  1.00  0.00     0.142 A 
ATOM      5  C   UNL     1      -9.358  -5.878   3.267  1.00  0.00     0.022 A 
ATOM      6  C   UNL     1      -9.303  -7.070   2.533  1.00  0.00     0.062 A 
ATOM      7  C   UNL     1     -10.102  -4.779   2.825  1.00  0.00     0.019 A 
ATOM      8  C   UNL     1     -10.124  -3.614   3.590  1.00  0.00     0.094 A 
ATOM      9  C   UNL     1      -9.398  -3.574   4.784  1.00  0.00     0.336 A 
ATOM     10  O   UNL     1      -9.405  -2.531   5.489  1.00  0.00    -0.246 OA
ATOM     11  O   UNL     1      -8.697  -4.633   5.182  1.00  0.00    -0.423 OA
ENDROOT
BRANCH   1  12
ATOM     12  O   UNL     1      -8.460  -9.373   2.307  1.00  0.00    -0.493 OA
ATOM     13  C   UNL     1      -9.551  -9.989   1.629  1.00  0.00     0.278 C 
ENDBRANCH   1  12
BRANCH   2  14
ATOM     14  O   UNL     1      -7.090  -9.113   4.686  1.00  0.00    -0.504 OA
ATOM     15  H   UNL     1      -6.388  -8.996   5.407  1.00  0.00     0.293 HD
ENDBRANCH   2  14
TORSDOF 2
ENDMDL
