MODEL 1
REMARK VINA RESULT:    -6.733      0.000      0.000
REMARK INTER + INTRA:          -8.353
REMARK INTER:                  -8.111
REMARK INTRA:                  -0.242
REMARK UNBOUND:                -0.242
REMARK SMILES O=c1c(O)c(-c2ccc(O)c(O)c2)oc2cc(O)cc(O)c12
REMARK SMILES IDX 5 1 3 2 2 3 1 4 22 5 20 6 19 7 17 8 16 9 15 10 14 11 6 12
REMARK SMILES IDX 7 13 8 14 9 15 13 16 11 17 10 18 12 20 4 22 21 24 18 26
REMARK H PARENT 10 19 12 21 4 23 21 25 18 27
REMARK Flexibility Score: inf
ROOT
ATOM      1  C   UNL     1      28.824  23.460  34.209  1.00  0.00     0.180 A 
ATOM      2  C   UNL     1      29.327  22.304  33.586  1.00  0.00     0.208 A 
ATOM      3  C   UNL     1      28.639  21.091  33.743  1.00  0.00     0.238 A 
ATOM      4  O   UNL     1      29.125  20.050  33.229  1.00  0.00    -0.285 OA
ATOM      5  C   UNL     1      27.448  21.051  34.507  1.00  0.00     0.111 A 
ATOM      6  C   UNL     1      26.649  19.884  34.700  1.00  0.00     0.134 A 
ATOM      7  C   UNL     1      25.562  19.930  35.582  1.00  0.00     0.093 A 
ATOM      8  C   UNL     1      25.206  21.113  36.227  1.00  0.00     0.123 A 
ATOM      9  C   UNL     1      25.946  22.275  36.000  1.00  0.00     0.094 A 
ATOM     10  C   UNL     1      27.058  22.252  35.154  1.00  0.00     0.146 A 
ATOM     11  O   UNL     1      27.741  23.376  34.973  1.00  0.00    -0.452 OA
ENDROOT
BRANCH   1  12
ATOM     12  C   UNL     1      29.479  24.781  34.069  1.00  0.00     0.025 A 
ATOM     13  C   UNL     1      30.689  25.069  34.720  1.00  0.00     0.016 A 
ATOM     14  C   UNL     1      31.299  26.313  34.555  1.00  0.00     0.051 A 
ATOM     15  C   UNL     1      30.726  27.287  33.730  1.00  0.00     0.157 A 
ATOM     16  C   UNL     1      28.913  25.747  33.223  1.00  0.00     0.062 A 
ATOM     17  C   UNL     1      29.518  26.998  33.052  1.00  0.00     0.158 A 
BRANCH  15  18
ATOM     18  O   UNL     1      31.386  28.512  33.611  1.00  0.00    -0.504 OA
ATOM     19  H   UNL     1      31.677  29.074  34.398  1.00  0.00     0.293 HD
ENDBRANCH  15  18
BRANCH  17  20
ATOM     20  O   UNL     1      28.892  27.915  32.204  1.00  0.00    -0.504 OA
ATOM     21  H   UNL     1      28.331  27.652  31.405  1.00  0.00     0.293 HD
ENDBRANCH  17  20
ENDBRANCH   1  12
BRANCH   2  22
ATOM     22  O   UNL     1      30.516  22.363  32.854  1.00  0.00    -0.502 OA
ATOM     23  H   UNL     1      31.005  23.233  32.679  1.00  0.00     0.293 HD
ENDBRANCH   2  22
BRANCH   6  24
ATOM     24  O   UNL     1      26.861  18.674  34.033  1.00  0.00    -0.507 OA
ATOM     25  H   UNL     1      27.045  18.586  33.046  1.00  0.00     0.293 HD
ENDBRANCH   6  24
BRANCH   8  26
ATOM     26  O   UNL     1      24.109  21.126  37.086  1.00  0.00    -0.508 OA
ATOM     27  H   UNL     1      23.162  21.212  36.736  1.00  0.00     0.293 HD
ENDBRANCH   8  26
TORSDOF 6
ENDMDL
MODEL 2
REMARK VINA RESULT:    -6.718      1.409      3.081
REMARK INTER + INTRA:          -8.335
REMARK INTER:                  -8.014
REMARK INTRA:                  -0.320
REMARK UNBOUND:                -0.242
REMARK SMILES O=c1c(O)c(-c2ccc(O)c(O)c2)oc2cc(O)cc(O)c12
REMARK SMILES IDX 5 1 3 2 2 3 1 4 22 5 20 6 19 7 17 8 16 9 15 10 14 11 6 12
REMARK SMILES IDX 7 13 8 14 9 15 13 16 11 17 10 18 12 20 4 22 21 24 18 26
REMARK H PARENT 10 19 12 21 4 23 21 25 18 27
REMARK Flexibility Score: inf
ROOT
ATOM      1  C   UNL     1      27.913  24.522  35.092  1.00  0.00     0.180 A 
ATOM      2  C   UNL     1      26.680  24.885  35.662  1.00  0.00     0.208 A 
ATOM      3  C   UNL     1      25.712  23.893  35.882  1.00  0.00     0.238 A 
ATOM      4  O   UNL     1      24.591  24.234  36.341  1.00  0.00    -0.285 OA
ATOM      5  C   UNL     1      25.994  22.548  35.545  1.00  0.00     0.111 A 
ATOM      6  C   UNL     1      25.101  21.455  35.761  1.00  0.00     0.134 A 
ATOM      7  C   UNL     1      25.432  20.185  35.269  1.00  0.00     0.093 A 
ATOM      8  C   UNL     1      26.648  19.955  34.628  1.00  0.00     0.123 A 
ATOM      9  C   UNL     1      27.554  21.005  34.463  1.00  0.00     0.094 A 
ATOM     10  C   UNL     1      27.237  22.289  34.911  1.00  0.00     0.146 A 
ATOM     11  O   UNL     1      28.122  23.262  34.726  1.00  0.00    -0.452 OA
ENDROOT
BRANCH   1  12
ATOM     12  C   UNL     1      28.993  25.506  34.852  1.00  0.00     0.025 A 
ATOM     13  C   UNL     1      30.025  25.700  35.784  1.00  0.00     0.016 A 
ATOM     14  C   UNL     1      31.045  26.617  35.526  1.00  0.00     0.051 A 
ATOM     15  C   UNL     1      31.065  27.348  34.334  1.00  0.00     0.157 A 
ATOM     16  C   UNL     1      29.022  26.222  33.646  1.00  0.00     0.062 A 
ATOM     17  C   UNL     1      30.041  27.144  33.379  1.00  0.00     0.158 A 
BRANCH  15  18
ATOM     18  O   UNL     1      32.111  28.252  34.140  1.00  0.00    -0.504 OA
ATOM     19  H   UNL     1      32.947  28.042  33.613  1.00  0.00     0.293 HD
ENDBRANCH  15  18
BRANCH  17  20
ATOM     20  O   UNL     1      29.999  27.828  32.161  1.00  0.00    -0.504 OA
ATOM     21  H   UNL     1      29.539  27.477  31.333  1.00  0.00     0.293 HD
ENDBRANCH  17  20
ENDBRANCH   1  12
BRANCH   2  22
ATOM     22  O   UNL     1      26.416  26.223  35.966  1.00  0.00    -0.502 OA
ATOM     23  H   UNL     1      26.145  26.527  36.895  1.00  0.00     0.293 HD
ENDBRANCH   2  22
BRANCH   6  24
ATOM     24  O   UNL     1      23.901  21.555  36.471  1.00  0.00    -0.507 OA
ATOM     25  H   UNL     1      23.080  22.041  36.146  1.00  0.00     0.293 HD
ENDBRANCH   6  24
BRANCH   8  26
ATOM     26  O   UNL     1      26.951  18.676  34.165  1.00  0.00    -0.508 OA
ATOM     27  H   UNL     1      27.375  18.529  33.256  1.00  0.00     0.293 HD
ENDBRANCH   8  26
TORSDOF 6
ENDMDL
MODEL 3
REMARK VINA RESULT:    -6.470      1.606      3.422
REMARK INTER + INTRA:          -8.036
REMARK INTER:                  -7.727
REMARK INTRA:                  -0.309
REMARK UNBOUND:                -0.242
REMARK SMILES O=c1c(O)c(-c2ccc(O)c(O)c2)oc2cc(O)cc(O)c12
REMARK SMILES IDX 5 1 3 2 2 3 1 4 22 5 20 6 19 7 17 8 16 9 15 10 14 11 6 12
REMARK SMILES IDX 7 13 8 14 9 15 13 16 11 17 10 18 12 20 4 22 21 24 18 26
REMARK H PARENT 10 19 12 21 4 23 21 25 18 27
REMARK Flexibility Score: inf
ROOT
ATOM      1  C   UNL     1      27.961  24.524  35.079  1.00  0.00     0.180 A 
ATOM      2  C   UNL     1      26.731  24.910  35.641  1.00  0.00     0.208 A 
ATOM      3  C   UNL     1      25.748  23.933  35.864  1.00  0.00     0.238 A 
ATOM      4  O   UNL     1      24.630  24.294  36.316  1.00  0.00    -0.285 OA
ATOM      5  C   UNL     1      26.012  22.582  35.538  1.00  0.00     0.111 A 
ATOM      6  C   UNL     1      25.102  21.503  35.758  1.00  0.00     0.134 A 
ATOM      7  C   UNL     1      25.417  20.226  35.276  1.00  0.00     0.093 A 
ATOM      8  C   UNL     1      26.632  19.974  34.643  1.00  0.00     0.123 A 
ATOM      9  C   UNL     1      27.554  21.008  34.474  1.00  0.00     0.094 A 
ATOM     10  C   UNL     1      27.253  22.301  34.911  1.00  0.00     0.146 A 
ATOM     11  O   UNL     1      28.153  23.259  34.723  1.00  0.00    -0.452 OA
ENDROOT
BRANCH   1  12
ATOM     12  C   UNL     1      29.056  25.492  34.838  1.00  0.00     0.025 A 
ATOM     13  C   UNL     1      29.229  26.102  33.585  1.00  0.00     0.016 A 
ATOM     14  C   UNL     1      30.254  27.028  33.388  1.00  0.00     0.051 A 
ATOM     15  C   UNL     1      31.117  27.373  34.433  1.00  0.00     0.157 A 
ATOM     16  C   UNL     1      29.906  25.851  35.894  1.00  0.00     0.062 A 
ATOM     17  C   UNL     1      30.938  26.779  35.705  1.00  0.00     0.158 A 
BRANCH  15  18
ATOM     18  O   UNL     1      32.125  28.303  34.168  1.00  0.00    -0.504 OA
ATOM     19  H   UNL     1      32.313  28.685  33.252  1.00  0.00     0.293 HD
ENDBRANCH  15  18
BRANCH  17  20
ATOM     20  O   UNL     1      31.752  27.081  36.799  1.00  0.00    -0.504 OA
ATOM     21  H   UNL     1      31.711  26.595  37.684  1.00  0.00     0.293 HD
ENDBRANCH  17  20
ENDBRANCH   1  12
BRANCH   2  22
ATOM     22  O   UNL     1      26.485  26.254  35.936  1.00  0.00    -0.502 OA
ATOM     23  H   UNL     1      26.633  26.644  36.859  1.00  0.00     0.293 HD
ENDBRANCH   2  22
BRANCH   6  24
ATOM     24  O   UNL     1      23.901  21.626  36.462  1.00  0.00    -0.507 OA
ATOM     25  H   UNL     1      23.429  22.498  36.646  1.00  0.00     0.293 HD
ENDBRANCH   6  24
BRANCH   8  26
ATOM     26  O   UNL     1      26.918  18.687  34.190  1.00  0.00    -0.508 OA
ATOM     27  H   UNL     1      26.379  17.885  34.496  1.00  0.00     0.293 HD
ENDBRANCH   8  26
TORSDOF 6
ENDMDL
MODEL 4
REMARK VINA RESULT:    -6.401      1.346      1.973
REMARK INTER + INTRA:          -7.953
REMARK INTER:                  -7.623
REMARK INTRA:                  -0.330
REMARK UNBOUND:                -0.242
REMARK SMILES O=c1c(O)c(-c2ccc(O)c(O)c2)oc2cc(O)cc(O)c12
REMARK SMILES IDX 5 1 3 2 2 3 1 4 22 5 20 6 19 7 17 8 16 9 15 10 14 11 6 12
REMARK SMILES IDX 7 13 8 14 9 15 13 16 11 17 10 18 12 20 4 22 21 24 18 26
REMARK H PARENT 10 19 12 21 4 23 21 25 18 27
REMARK Flexibility Score: inf
ROOT
ATOM      1  C   UNL     1      27.822  23.497  34.635  1.00  0.00     0.180 A 
ATOM      2  C   UNL     1      28.367  22.209  34.499  1.00  0.00     0.208 A 
ATOM      3  C   UNL     1      27.706  21.123  35.093  1.00  0.00     0.238 A 
ATOM      4  O   UNL     1      28.229  19.980  35.014  1.00  0.00    -0.285 OA
ATOM      5  C   UNL     1      26.500  21.335  35.802  1.00  0.00     0.111 A 
ATOM      6  C   UNL     1      25.725  20.301  36.410  1.00  0.00     0.134 A 
ATOM      7  C   UNL     1      24.618  20.641  37.198  1.00  0.00     0.093 A 
ATOM      8  C   UNL     1      24.219  21.969  37.346  1.00  0.00     0.123 A 
ATOM      9  C   UNL     1      24.935  22.983  36.708  1.00  0.00     0.094 A 
ATOM     10  C   UNL     1      26.065  22.678  35.945  1.00  0.00     0.146 A 
ATOM     11  O   UNL     1      26.724  23.672  35.362  1.00  0.00    -0.452 OA
ENDROOT
BRANCH   1  12
ATOM     12  C   UNL     1      28.447  24.689  34.016  1.00  0.00     0.025 A 
ATOM     13  C   UNL     1      28.090  25.114  32.727  1.00  0.00     0.016 A 
ATOM     14  C   UNL     1      28.676  26.254  32.173  1.00  0.00     0.051 A 
ATOM     15  C   UNL     1      29.616  26.997  32.895  1.00  0.00     0.157 A 
ATOM     16  C   UNL     1      29.373  25.444  34.751  1.00  0.00     0.062 A 
ATOM     17  C   UNL     1      29.967  26.588  34.203  1.00  0.00     0.158 A 
BRANCH  15  18
ATOM     18  O   UNL     1      30.167  28.124  32.282  1.00  0.00    -0.504 OA
ATOM     19  H   UNL     1      29.621  28.890  31.915  1.00  0.00     0.293 HD
ENDBRANCH  15  18
BRANCH  17  20
ATOM     20  O   UNL     1      30.888  27.284  34.989  1.00  0.00    -0.504 OA
ATOM     21  H   UNL     1      30.733  27.530  35.957  1.00  0.00     0.293 HD
ENDBRANCH  17  20
ENDBRANCH   1  12
BRANCH   2  22
ATOM     22  O   UNL     1      29.571  22.025  33.812  1.00  0.00    -0.502 OA
ATOM     23  H   UNL     1      29.723  22.383  32.876  1.00  0.00     0.293 HD
ENDBRANCH   2  22
BRANCH   6  24
ATOM     24  O   UNL     1      25.982  18.937  36.250  1.00  0.00    -0.507 OA
ATOM     25  H   UNL     1      26.315  18.325  36.979  1.00  0.00     0.293 HD
ENDBRANCH   6  24
BRANCH   8  26
ATOM     26  O   UNL     1      23.103  22.269  38.125  1.00  0.00    -0.508 OA
ATOM     27  H   UNL     1      22.190  22.414  37.709  1.00  0.00     0.293 HD
ENDBRANCH   8  26
TORSDOF 6
ENDMDL
MODEL 5
REMARK VINA RESULT:    -6.309      1.814      3.595
REMARK INTER + INTRA:          -7.842
REMARK INTER:                  -7.519
REMARK INTRA:                  -0.323
REMARK UNBOUND:                -0.242
REMARK SMILES O=c1c(O)c(-c2ccc(O)c(O)c2)oc2cc(O)cc(O)c12
REMARK SMILES IDX 5 1 3 2 2 3 1 4 22 5 20 6 19 7 17 8 16 9 15 10 14 11 6 12
REMARK SMILES IDX 7 13 8 14 9 15 13 16 11 17 10 18 12 20 4 22 21 24 18 26
REMARK H PARENT 10 19 12 21 4 23 21 25 18 27
REMARK Flexibility Score: inf
ROOT
ATOM      1  C   UNL     1      28.782  22.825  33.879  1.00  0.00     0.180 A 
ATOM      2  C   UNL     1      27.580  22.489  34.524  1.00  0.00     0.208 A 
ATOM      3  C   UNL     1      27.368  21.159  34.921  1.00  0.00     0.238 A 
ATOM      4  O   UNL     1      26.267  20.854  35.449  1.00  0.00    -0.285 OA
ATOM      5  C   UNL     1      28.368  20.186  34.684  1.00  0.00     0.111 A 
ATOM      6  C   UNL     1      28.276  18.817  35.079  1.00  0.00     0.134 A 
ATOM      7  C   UNL     1      29.268  17.914  34.676  1.00  0.00     0.093 A 
ATOM      8  C   UNL     1      30.379  18.341  33.950  1.00  0.00     0.123 A 
ATOM      9  C   UNL     1      30.508  19.688  33.608  1.00  0.00     0.094 A 
ATOM     10  C   UNL     1      29.517  20.606  33.964  1.00  0.00     0.146 A 
ATOM     11  O   UNL     1      29.672  21.876  33.612  1.00  0.00    -0.452 OA
ENDROOT
BRANCH   1  12
ATOM     12  C   UNL     1      29.089  24.210  33.454  1.00  0.00     0.025 A 
ATOM     13  C   UNL     1      28.693  24.693  32.196  1.00  0.00     0.016 A 
ATOM     14  C   UNL     1      28.973  26.010  31.826  1.00  0.00     0.051 A 
ATOM     15  C   UNL     1      29.640  26.872  32.703  1.00  0.00     0.157 A 
ATOM     16  C   UNL     1      29.739  25.079  34.344  1.00  0.00     0.062 A 
ATOM     17  C   UNL     1      30.025  26.401  33.981  1.00  0.00     0.158 A 
BRANCH  15  18
ATOM     18  O   UNL     1      29.893  28.175  32.269  1.00  0.00    -0.504 OA
ATOM     19  H   UNL     1      30.505  28.404  31.499  1.00  0.00     0.293 HD
ENDBRANCH  15  18
BRANCH  17  20
ATOM     20  O   UNL     1      30.683  27.206  34.914  1.00  0.00    -0.504 OA
ATOM     21  H   UNL     1      30.365  27.346  35.862  1.00  0.00     0.293 HD
ENDBRANCH  17  20
ENDBRANCH   1  12
BRANCH   2  22
ATOM     22  O   UNL     1      26.598  23.462  34.730  1.00  0.00    -0.502 OA
ATOM     23  H   UNL     1      26.811  24.453  34.758  1.00  0.00     0.293 HD
ENDBRANCH   2  22
BRANCH   6  24
ATOM     24  O   UNL     1      27.255  18.304  35.884  1.00  0.00    -0.507 OA
ATOM     25  H   UNL     1      26.305  18.153  35.582  1.00  0.00     0.293 HD
ENDBRANCH   6  24
BRANCH   8  26
ATOM     26  O   UNL     1      31.354  17.417  33.579  1.00  0.00    -0.508 OA
ATOM     27  H   UNL     1      32.342  17.615  33.691  1.00  0.00     0.293 HD
ENDBRANCH   8  26
TORSDOF 6
ENDMDL
MODEL 6
REMARK VINA RESULT:    -6.235      2.446      7.100
REMARK INTER + INTRA:          -7.753
REMARK INTER:                  -7.768
REMARK INTRA:                   0.015
REMARK UNBOUND:                -0.242
REMARK SMILES O=c1c(O)c(-c2ccc(O)c(O)c2)oc2cc(O)cc(O)c12
REMARK SMILES IDX 5 1 3 2 2 3 1 4 22 5 20 6 19 7 17 8 16 9 15 10 14 11 6 12
REMARK SMILES IDX 7 13 8 14 9 15 13 16 11 17 10 18 12 20 4 22 21 24 18 26
REMARK H PARENT 10 19 12 21 4 23 21 25 18 27
REMARK Flexibility Score: inf
ROOT
ATOM      1  C   UNL     1      27.216  24.559  35.627  1.00  0.00     0.180 A 
ATOM      2  C   UNL     1      28.212  25.227  36.361  1.00  0.00     0.208 A 
ATOM      3  C   UNL     1      29.230  25.902  35.669  1.00  0.00     0.238 A 
ATOM      4  O   UNL     1      30.149  26.451  36.331  1.00  0.00    -0.285 OA
ATOM      5  C   UNL     1      29.230  25.915  34.254  1.00  0.00     0.111 A 
ATOM      6  C   UNL     1      30.191  26.601  33.451  1.00  0.00     0.134 A 
ATOM      7  C   UNL     1      30.171  26.438  32.059  1.00  0.00     0.093 A 
ATOM      8  C   UNL     1      29.188  25.669  31.438  1.00  0.00     0.123 A 
ATOM      9  C   UNL     1      28.209  25.040  32.210  1.00  0.00     0.094 A 
ATOM     10  C   UNL     1      28.225  25.155  33.602  1.00  0.00     0.146 A 
ATOM     11  O   UNL     1      27.281  24.535  34.301  1.00  0.00    -0.452 OA
ENDROOT
BRANCH   1  12
ATOM     12  C   UNL     1      26.096  23.846  36.284  1.00  0.00     0.025 A 
ATOM     13  C   UNL     1      25.360  24.440  37.321  1.00  0.00     0.016 A 
ATOM     14  C   UNL     1      24.294  23.758  37.909  1.00  0.00     0.051 A 
ATOM     15  C   UNL     1      23.933  22.480  37.470  1.00  0.00     0.157 A 
ATOM     16  C   UNL     1      25.723  22.573  35.826  1.00  0.00     0.062 A 
ATOM     17  C   UNL     1      24.655  21.881  36.411  1.00  0.00     0.158 A 
BRANCH  15  18
ATOM     18  O   UNL     1      22.859  21.851  38.104  1.00  0.00    -0.504 OA
ATOM     19  H   UNL     1      22.957  21.064  38.729  1.00  0.00     0.293 HD
ENDBRANCH  15  18
BRANCH  17  20
ATOM     20  O   UNL     1      24.348  20.614  35.911  1.00  0.00    -0.504 OA
ATOM     21  H   UNL     1      24.833  19.769  36.178  1.00  0.00     0.293 HD
ENDBRANCH  17  20
ENDBRANCH   1  12
BRANCH   2  22
ATOM     22  O   UNL     1      28.204  25.182  37.757  1.00  0.00    -0.502 OA
ATOM     23  H   UNL     1      28.947  24.749  38.292  1.00  0.00     0.293 HD
ENDBRANCH   2  22
BRANCH   6  24
ATOM     24  O   UNL     1      31.159  27.470  33.962  1.00  0.00    -0.507 OA
ATOM     25  H   UNL     1      31.912  27.196  34.574  1.00  0.00     0.293 HD
ENDBRANCH   6  24
BRANCH   8  26
ATOM     26  O   UNL     1      29.189  25.540  30.051  1.00  0.00    -0.508 OA
ATOM     27  H   UNL     1      30.049  25.585  29.515  1.00  0.00     0.293 HD
ENDBRANCH   8  26
TORSDOF 6
ENDMDL
MODEL 7
REMARK VINA RESULT:    -6.228      2.016      3.349
REMARK INTER + INTRA:          -7.745
REMARK INTER:                  -8.221
REMARK INTRA:                   0.476
REMARK UNBOUND:                -0.242
REMARK SMILES O=c1c(O)c(-c2ccc(O)c(O)c2)oc2cc(O)cc(O)c12
REMARK SMILES IDX 5 1 3 2 2 3 1 4 22 5 20 6 19 7 17 8 16 9 15 10 14 11 6 12
REMARK SMILES IDX 7 13 8 14 9 15 13 16 11 17 10 18 12 20 4 22 21 24 18 26
REMARK H PARENT 10 19 12 21 4 23 21 25 18 27
REMARK Flexibility Score: inf
ROOT
ATOM      1  C   UNL     1      27.128  23.351  34.508  1.00  0.00     0.180 A 
ATOM      2  C   UNL     1      25.880  23.848  34.922  1.00  0.00     0.208 A 
ATOM      3  C   UNL     1      25.059  23.043  35.726  1.00  0.00     0.238 A 
ATOM      4  O   UNL     1      23.920  23.472  36.047  1.00  0.00    -0.285 OA
ATOM      5  C   UNL     1      25.501  21.758  36.120  1.00  0.00     0.111 A 
ATOM      6  C   UNL     1      24.767  20.873  36.966  1.00  0.00     0.134 A 
ATOM      7  C   UNL     1      25.243  19.573  37.184  1.00  0.00     0.093 A 
ATOM      8  C   UNL     1      26.455  19.149  36.642  1.00  0.00     0.123 A 
ATOM      9  C   UNL     1      27.210  20.026  35.861  1.00  0.00     0.094 A 
ATOM     10  C   UNL     1      26.744  21.316  35.595  1.00  0.00     0.146 A 
ATOM     11  O   UNL     1      27.486  22.116  34.840  1.00  0.00    -0.452 OA
ENDROOT
BRANCH   1  12
ATOM     12  C   UNL     1      28.061  24.150  33.680  1.00  0.00     0.025 A 
ATOM     13  C   UNL     1      29.113  23.545  32.974  1.00  0.00     0.016 A 
ATOM     14  C   UNL     1      29.966  24.315  32.182  1.00  0.00     0.051 A 
ATOM     15  C   UNL     1      29.781  25.697  32.067  1.00  0.00     0.157 A 
ATOM     16  C   UNL     1      27.859  25.532  33.549  1.00  0.00     0.062 A 
ATOM     17  C   UNL     1      28.710  26.313  32.757  1.00  0.00     0.158 A 
BRANCH  15  18
ATOM     18  O   UNL     1      30.671  26.410  31.262  1.00  0.00    -0.504 OA
ATOM     19  H   UNL     1      31.632  26.140  31.108  1.00  0.00     0.293 HD
ENDBRANCH  15  18
BRANCH  17  20
ATOM     20  O   UNL     1      28.455  27.684  32.682  1.00  0.00    -0.504 OA
ATOM     21  H   UNL     1      28.442  28.210  31.819  1.00  0.00     0.293 HD
ENDBRANCH  17  20
ENDBRANCH   1  12
BRANCH   2  22
ATOM     22  O   UNL     1      25.455  25.112  34.503  1.00  0.00    -0.502 OA
ATOM     23  H   UNL     1      25.679  25.958  35.013  1.00  0.00     0.293 HD
ENDBRANCH   2  22
BRANCH   6  24
ATOM     24  O   UNL     1      23.592  21.227  37.634  1.00  0.00    -0.507 OA
ATOM     25  H   UNL     1      22.662  21.108  37.263  1.00  0.00     0.293 HD
ENDBRANCH   6  24
BRANCH   8  26
ATOM     26  O   UNL     1      26.905  17.854  36.892  1.00  0.00    -0.508 OA
ATOM     27  H   UNL     1      26.496  17.052  36.427  1.00  0.00     0.293 HD
ENDBRANCH   8  26
TORSDOF 6
ENDMDL
MODEL 8
REMARK VINA RESULT:    -6.098      1.578      6.647
REMARK INTER + INTRA:          -7.588
REMARK INTER:                  -7.658
REMARK INTRA:                   0.070
REMARK UNBOUND:                -0.242
REMARK SMILES O=c1c(O)c(-c2ccc(O)c(O)c2)oc2cc(O)cc(O)c12
REMARK SMILES IDX 5 1 3 2 2 3 1 4 22 5 20 6 19 7 17 8 16 9 15 10 14 11 6 12
REMARK SMILES IDX 7 13 8 14 9 15 13 16 11 17 10 18 12 20 4 22 21 24 18 26
REMARK H PARENT 10 19 12 21 4 23 21 25 18 27
REMARK Flexibility Score: inf
ROOT
ATOM      1  C   UNL     1      27.508  23.051  35.016  1.00  0.00     0.180 A 
ATOM      2  C   UNL     1      28.643  22.286  34.695  1.00  0.00     0.208 A 
ATOM      3  C   UNL     1      29.666  22.872  33.933  1.00  0.00     0.238 A 
ATOM      4  O   UNL     1      30.653  22.165  33.602  1.00  0.00    -0.285 OA
ATOM      5  C   UNL     1      29.550  24.219  33.516  1.00  0.00     0.111 A 
ATOM      6  C   UNL     1      30.544  24.926  32.775  1.00  0.00     0.134 A 
ATOM      7  C   UNL     1      30.267  26.216  32.304  1.00  0.00     0.093 A 
ATOM      8  C   UNL     1      29.061  26.849  32.602  1.00  0.00     0.123 A 
ATOM      9  C   UNL     1      28.105  26.189  33.376  1.00  0.00     0.094 A 
ATOM     10  C   UNL     1      28.338  24.888  33.829  1.00  0.00     0.146 A 
ATOM     11  O   UNL     1      27.399  24.292  34.554  1.00  0.00    -0.452 OA
ENDROOT
BRANCH   1  12
ATOM     12  C   UNL     1      26.399  22.512  35.836  1.00  0.00     0.025 A 
ATOM     13  C   UNL     1      25.852  23.247  36.900  1.00  0.00     0.016 A 
ATOM     14  C   UNL     1      24.791  22.728  37.644  1.00  0.00     0.051 A 
ATOM     15  C   UNL     1      24.248  21.476  37.338  1.00  0.00     0.157 A 
ATOM     16  C   UNL     1      25.842  21.265  35.512  1.00  0.00     0.062 A 
ATOM     17  C   UNL     1      24.778  20.736  36.254  1.00  0.00     0.158 A 
BRANCH  15  18
ATOM     18  O   UNL     1      23.191  21.013  38.124  1.00  0.00    -0.504 OA
ATOM     19  H   UNL     1      23.220  20.158  38.662  1.00  0.00     0.293 HD
ENDBRANCH  15  18
BRANCH  17  20
ATOM     20  O   UNL     1      24.281  19.485  35.881  1.00  0.00    -0.504 OA
ATOM     21  H   UNL     1      24.796  18.621  35.980  1.00  0.00     0.293 HD
ENDBRANCH  17  20
ENDBRANCH   1  12
BRANCH   2  22
ATOM     22  O   UNL     1      28.726  20.951  35.099  1.00  0.00    -0.502 OA
ATOM     23  H   UNL     1      27.908  20.362  35.204  1.00  0.00     0.293 HD
ENDBRANCH   2  22
BRANCH   6  24
ATOM     24  O   UNL     1      31.819  24.422  32.501  1.00  0.00    -0.507 OA
ATOM     25  H   UNL     1      32.225  23.614  32.946  1.00  0.00     0.293 HD
ENDBRANCH   6  24
BRANCH   8  26
ATOM     26  O   UNL     1      28.826  28.138  32.129  1.00  0.00    -0.508 OA
ATOM     27  H   UNL     1      28.603  28.901  32.758  1.00  0.00     0.293 HD
ENDBRANCH   8  26
TORSDOF 6
ENDMDL
MODEL 9
REMARK VINA RESULT:    -5.932      2.154      2.772
REMARK INTER + INTRA:          -7.387
REMARK INTER:                  -7.402
REMARK INTRA:                   0.015
REMARK UNBOUND:                -0.242
REMARK SMILES O=c1c(O)c(-c2ccc(O)c(O)c2)oc2cc(O)cc(O)c12
REMARK SMILES IDX 5 1 3 2 2 3 1 4 22 5 20 6 19 7 17 8 16 9 15 10 14 11 6 12
REMARK SMILES IDX 7 13 8 14 9 15 13 16 11 17 10 18 12 20 4 22 21 24 18 26
REMARK H PARENT 10 19 12 21 4 23 21 25 18 27
REMARK Flexibility Score: inf
ROOT
ATOM      1  C   UNL     1      29.283  22.039  33.699  1.00  0.00     0.180 A 
ATOM      2  C   UNL     1      30.393  21.333  33.202  1.00  0.00     0.208 A 
ATOM      3  C   UNL     1      30.525  19.969  33.509  1.00  0.00     0.238 A 
ATOM      4  O   UNL     1      31.549  19.356  33.108  1.00  0.00    -0.285 OA
ATOM      5  C   UNL     1      29.539  19.325  34.294  1.00  0.00     0.111 A 
ATOM      6  C   UNL     1      29.553  17.938  34.633  1.00  0.00     0.134 A 
ATOM      7  C   UNL     1      28.596  17.436  35.525  1.00  0.00     0.093 A 
ATOM      8  C   UNL     1      27.589  18.253  36.036  1.00  0.00     0.123 A 
ATOM      9  C   UNL     1      27.532  19.598  35.666  1.00  0.00     0.094 A 
ATOM     10  C   UNL     1      28.494  20.136  34.808  1.00  0.00     0.146 A 
ATOM     11  O   UNL     1      28.410  21.422  34.487  1.00  0.00    -0.452 OA
ENDROOT
BRANCH   1  12
ATOM     12  C   UNL     1      29.061  23.472  33.398  1.00  0.00     0.025 A 
ATOM     13  C   UNL     1      28.842  24.408  34.420  1.00  0.00     0.016 A 
ATOM     14  C   UNL     1      28.657  25.757  34.114  1.00  0.00     0.051 A 
ATOM     15  C   UNL     1      28.700  26.201  32.788  1.00  0.00     0.157 A 
ATOM     16  C   UNL     1      29.126  23.917  32.068  1.00  0.00     0.062 A 
ATOM     17  C   UNL     1      28.941  25.269  31.751  1.00  0.00     0.158 A 
BRANCH  15  18
ATOM     18  O   UNL     1      28.503  27.563  32.549  1.00  0.00    -0.504 OA
ATOM     19  H   UNL     1      28.965  28.298  33.065  1.00  0.00     0.293 HD
ENDBRANCH  15  18
BRANCH  17  20
ATOM     20  O   UNL     1      29.009  25.638  30.406  1.00  0.00    -0.504 OA
ATOM     21  H   UNL     1      29.872  25.820  29.914  1.00  0.00     0.293 HD
ENDBRANCH  17  20
ENDBRANCH   1  12
BRANCH   2  22
ATOM     22  O   UNL     1      31.365  21.994  32.447  1.00  0.00    -0.502 OA
ATOM     23  H   UNL     1      32.012  22.659  32.855  1.00  0.00     0.293 HD
ENDBRANCH   2  22
BRANCH   6  24
ATOM     24  O   UNL     1      30.459  17.014  34.105  1.00  0.00    -0.507 OA
ATOM     25  H   UNL     1      30.247  16.359  33.369  1.00  0.00     0.293 HD
ENDBRANCH   6  24
BRANCH   8  26
ATOM     26  O   UNL     1      26.644  17.717  36.909  1.00  0.00    -0.508 OA
ATOM     27  H   UNL     1      25.791  17.289  36.568  1.00  0.00     0.293 HD
ENDBRANCH   8  26
TORSDOF 6
ENDMDL
