MODEL 1
REMARK VINA RESULT:    -5.264      0.000      0.000
REMARK INTER + INTRA:          -6.155
REMARK INTER:                  -6.341
REMARK INTRA:                   0.186
REMARK UNBOUND:                 0.186
REMARK SMILES O=c1c(O)c(-c2ccc(O)cc2O)oc2cc(O)cc(O)c12
REMARK SMILES IDX 5 1 3 2 2 3 1 4 22 5 20 6 19 7 17 8 16 9 15 10 14 11 6 12
REMARK SMILES IDX 8 13 7 14 9 15 11 16 12 17 10 18 13 20 4 22 21 24 18 26
REMARK H PARENT 10 19 13 21 4 23 21 25 18 27
REMARK Flexibility Score: inf
ROOT
ATOM      1  C   UNL     1       0.932  32.531   6.648  1.00  0.00     0.184 A 
ATOM      2  C   UNL     1       1.398  31.233   6.904  1.00  0.00     0.208 A 
ATOM      3  C   UNL     1       1.965  30.949   8.156  1.00  0.00     0.238 A 
ATOM      4  O   UNL     1       2.325  29.767   8.401  1.00  0.00    -0.285 OA
ATOM      5  C   UNL     1       2.086  31.975   9.124  1.00  0.00     0.111 A 
ATOM      6  C   UNL     1       2.681  31.810  10.411  1.00  0.00     0.134 A 
ATOM      7  C   UNL     1       2.634  32.863  11.333  1.00  0.00     0.093 A 
ATOM      8  C   UNL     1       2.075  34.094  10.994  1.00  0.00     0.123 A 
ATOM      9  C   UNL     1       1.543  34.285   9.718  1.00  0.00     0.094 A 
ATOM     10  C   UNL     1       1.540  33.242   8.789  1.00  0.00     0.146 A 
ATOM     11  O   UNL     1       1.011  33.462   7.591  1.00  0.00    -0.451 OA
ENDROOT
BRANCH   1  12
ATOM     12  C   UNL     1       0.347  32.896   5.340  1.00  0.00     0.063 A 
ATOM     13  C   UNL     1       0.251  32.556   2.932  1.00  0.00     0.047 A 
ATOM     14  C   UNL     1       0.746  32.196   4.187  1.00  0.00     0.020 A 
ATOM     15  C   UNL     1      -0.643  33.620   2.807  1.00  0.00     0.119 A 
ATOM     16  C   UNL     1      -1.046  34.326   3.948  1.00  0.00     0.093 A 
ATOM     17  C   UNL     1      -0.566  33.970   5.213  1.00  0.00     0.130 A 
BRANCH  15  18
ATOM     18  O   UNL     1      -1.124  33.971   1.548  1.00  0.00    -0.508 OA
ATOM     19  H   UNL     1      -2.063  33.730   1.253  1.00  0.00     0.293 HD
ENDBRANCH  15  18
BRANCH  17  20
ATOM     20  O   UNL     1      -1.030  34.683   6.321  1.00  0.00    -0.507 OA
ATOM     21  H   UNL     1      -0.653  34.563   7.252  1.00  0.00     0.293 HD
ENDBRANCH  17  20
ENDBRANCH   1  12
BRANCH   2  22
ATOM     22  O   UNL     1       1.269  30.240   5.928  1.00  0.00    -0.502 OA
ATOM     23  H   UNL     1       0.474  29.615   5.892  1.00  0.00     0.293 HD
ENDBRANCH   2  22
BRANCH   6  24
ATOM     24  O   UNL     1       3.347  30.651  10.821  1.00  0.00    -0.507 OA
ATOM     25  H   UNL     1       4.081  30.194  10.302  1.00  0.00     0.293 HD
ENDBRANCH   6  24
BRANCH   8  26
ATOM     26  O   UNL     1       2.061  35.125  11.931  1.00  0.00    -0.508 OA
ATOM     27  H   UNL     1       1.801  34.960  12.896  1.00  0.00     0.293 HD
ENDBRANCH   8  26
TORSDOF 6
ENDMDL
MODEL 2
REMARK VINA RESULT:    -4.031      2.404      2.605
REMARK INTER + INTRA:          -4.670
REMARK INTER:                  -4.252
REMARK INTRA:                  -0.417
REMARK UNBOUND:                 0.186
REMARK SMILES O=c1c(O)c(-c2ccc(O)cc2O)oc2cc(O)cc(O)c12
REMARK SMILES IDX 5 1 3 2 2 3 1 4 22 5 20 6 19 7 17 8 16 9 15 10 14 11 6 12
REMARK SMILES IDX 8 13 7 14 9 15 11 16 12 17 10 18 13 20 4 22 21 24 18 26
REMARK H PARENT 10 19 13 21 4 23 21 25 18 27
REMARK Flexibility Score: inf
ROOT
ATOM      1  C   UNL     1       1.034  32.070   5.892  1.00  0.00     0.184 A 
ATOM      2  C   UNL     1       0.260  31.304   6.776  1.00  0.00     0.208 A 
ATOM      3  C   UNL     1       0.894  30.651   7.845  1.00  0.00     0.238 A 
ATOM      4  O   UNL     1       0.186  30.016   8.670  1.00  0.00    -0.285 OA
ATOM      5  C   UNL     1       2.298  30.749   7.997  1.00  0.00     0.111 A 
ATOM      6  C   UNL     1       3.051  30.096   9.019  1.00  0.00     0.134 A 
ATOM      7  C   UNL     1       4.420  30.364   9.146  1.00  0.00     0.093 A 
ATOM      8  C   UNL     1       5.076  31.208   8.251  1.00  0.00     0.123 A 
ATOM      9  C   UNL     1       4.361  31.805   7.212  1.00  0.00     0.094 A 
ATOM     10  C   UNL     1       2.987  31.587   7.081  1.00  0.00     0.146 A 
ATOM     11  O   UNL     1       2.342  32.186   6.087  1.00  0.00    -0.451 OA
ENDROOT
BRANCH   1  12
ATOM     12  C   UNL     1       0.426  32.760   4.736  1.00  0.00     0.063 A 
ATOM     13  C   UNL     1      -0.144  32.757   2.369  1.00  0.00     0.047 A 
ATOM     14  C   UNL     1       0.376  32.107   3.491  1.00  0.00     0.020 A 
ATOM     15  C   UNL     1      -0.614  34.067   2.470  1.00  0.00     0.119 A 
ATOM     16  C   UNL     1      -0.569  34.728   3.704  1.00  0.00     0.093 A 
ATOM     17  C   UNL     1      -0.060  34.086   4.839  1.00  0.00     0.130 A 
BRANCH  15  18
ATOM     18  O   UNL     1      -1.125  34.704   1.342  1.00  0.00    -0.508 OA
ATOM     19  H   UNL     1      -1.928  35.319   1.398  1.00  0.00     0.293 HD
ENDBRANCH  15  18
BRANCH  17  20
ATOM     20  O   UNL     1      -0.072  34.778   6.051  1.00  0.00    -0.507 OA
ATOM     21  H   UNL     1       0.150  35.763   6.128  1.00  0.00     0.293 HD
ENDBRANCH  17  20
ENDBRANCH   1  12
BRANCH   2  22
ATOM     22  O   UNL     1      -1.124  31.222   6.600  1.00  0.00    -0.502 OA
ATOM     23  H   UNL     1      -1.578  30.387   6.252  1.00  0.00     0.293 HD
ENDBRANCH   2  22
BRANCH   6  24
ATOM     24  O   UNL     1       2.513  29.164   9.912  1.00  0.00    -0.507 OA
ATOM     25  H   UNL     1       1.636  28.683   9.783  1.00  0.00     0.293 HD
ENDBRANCH   6  24
BRANCH   8  26
ATOM     26  O   UNL     1       6.442  31.438   8.398  1.00  0.00    -0.508 OA
ATOM     27  H   UNL     1       6.844  31.687   9.294  1.00  0.00     0.293 HD
ENDBRANCH   8  26
TORSDOF 6
ENDMDL
MODEL 3
REMARK VINA RESULT:    -3.862      1.362      6.358
REMARK INTER + INTRA:          -4.466
REMARK INTER:                  -4.103
REMARK INTRA:                  -0.363
REMARK UNBOUND:                 0.186
REMARK SMILES O=c1c(O)c(-c2ccc(O)cc2O)oc2cc(O)cc(O)c12
REMARK SMILES IDX 5 1 3 2 2 3 1 4 22 5 20 6 19 7 17 8 16 9 15 10 14 11 6 12
REMARK SMILES IDX 8 13 7 14 9 15 11 16 12 17 10 18 13 20 4 22 21 24 18 26
REMARK H PARENT 10 19 13 21 4 23 21 25 18 27
REMARK Flexibility Score: inf
ROOT
ATOM      1  C   UNL     1       1.664  33.233   7.926  1.00  0.00     0.184 A 
ATOM      2  C   UNL     1       1.971  31.917   7.552  1.00  0.00     0.208 A 
ATOM      3  C   UNL     1       1.558  31.454   6.293  1.00  0.00     0.238 A 
ATOM      4  O   UNL     1       1.891  30.292   5.938  1.00  0.00    -0.285 OA
ATOM      5  C   UNL     1       0.816  32.305   5.438  1.00  0.00     0.111 A 
ATOM      6  C   UNL     1       0.312  31.928   4.157  1.00  0.00     0.134 A 
ATOM      7  C   UNL     1      -0.302  32.891   3.346  1.00  0.00     0.093 A 
ATOM      8  C   UNL     1      -0.489  34.198   3.794  1.00  0.00     0.123 A 
ATOM      9  C   UNL     1      -0.052  34.562   5.068  1.00  0.00     0.094 A 
ATOM     10  C   UNL     1       0.598  33.635   5.886  1.00  0.00     0.146 A 
ATOM     11  O   UNL     1       1.011  34.026   7.085  1.00  0.00    -0.451 OA
ENDROOT
BRANCH   1  12
ATOM     12  C   UNL     1       2.052  33.768   9.248  1.00  0.00     0.063 A 
ATOM     13  C   UNL     1       3.809  34.472  10.778  1.00  0.00     0.047 A 
ATOM     14  C   UNL     1       3.409  34.019   9.520  1.00  0.00     0.020 A 
ATOM     15  C   UNL     1       2.864  34.677  11.785  1.00  0.00     0.119 A 
ATOM     16  C   UNL     1       1.510  34.430  11.527  1.00  0.00     0.093 A 
ATOM     17  C   UNL     1       1.094  33.985  10.267  1.00  0.00     0.130 A 
BRANCH  15  18
ATOM     18  O   UNL     1       3.279  35.125  13.037  1.00  0.00    -0.508 OA
ATOM     19  H   UNL     1       2.988  36.024  13.402  1.00  0.00     0.293 HD
ENDBRANCH  15  18
BRANCH  17  20
ATOM     20  O   UNL     1      -0.272  33.790  10.054  1.00  0.00    -0.507 OA
ATOM     21  H   UNL     1      -0.715  32.882  10.103  1.00  0.00     0.293 HD
ENDBRANCH  17  20
ENDBRANCH   1  12
BRANCH   2  22
ATOM     22  O   UNL     1       2.702  31.098   8.417  1.00  0.00    -0.502 OA
ATOM     23  H   UNL     1       3.491  31.439   8.951  1.00  0.00     0.293 HD
ENDBRANCH   2  22
BRANCH   6  24
ATOM     24  O   UNL     1       0.364  30.626   3.648  1.00  0.00    -0.507 OA
ATOM     25  H   UNL     1       1.088  29.956   3.855  1.00  0.00     0.293 HD
ENDBRANCH   6  24
BRANCH   8  26
ATOM     26  O   UNL     1      -1.119  35.125   2.967  1.00  0.00    -0.508 OA
ATOM     27  H   UNL     1      -0.597  35.853   2.493  1.00  0.00     0.293 HD
ENDBRANCH   8  26
TORSDOF 6
ENDMDL
MODEL 4
REMARK VINA RESULT:    -3.010      1.533      3.106
REMARK INTER + INTRA:          -3.439
REMARK INTER:                  -3.397
REMARK INTRA:                  -0.042
REMARK UNBOUND:                 0.186
REMARK SMILES O=c1c(O)c(-c2ccc(O)cc2O)oc2cc(O)cc(O)c12
REMARK SMILES IDX 5 1 3 2 2 3 1 4 22 5 20 6 19 7 17 8 16 9 15 10 14 11 6 12
REMARK SMILES IDX 8 13 7 14 9 15 11 16 12 17 10 18 13 20 4 22 21 24 18 26
REMARK H PARENT 10 19 13 21 4 23 21 25 18 27
REMARK Flexibility Score: inf
ROOT
ATOM      1  C   UNL     1       1.147  33.288   6.430  1.00  0.00     0.184 A 
ATOM      2  C   UNL     1       0.574  33.863   7.574  1.00  0.00     0.208 A 
ATOM      3  C   UNL     1       1.119  33.561   8.832  1.00  0.00     0.238 A 
ATOM      4  O   UNL     1       0.640  34.127   9.849  1.00  0.00    -0.285 OA
ATOM      5  C   UNL     1       2.211  32.664   8.930  1.00  0.00     0.111 A 
ATOM      6  C   UNL     1       2.818  32.256  10.156  1.00  0.00     0.134 A 
ATOM      7  C   UNL     1       3.970  31.461  10.124  1.00  0.00     0.093 A 
ATOM      8  C   UNL     1       4.500  31.007   8.918  1.00  0.00     0.123 A 
ATOM      9  C   UNL     1       3.881  31.352   7.716  1.00  0.00     0.094 A 
ATOM     10  C   UNL     1       2.752  32.175   7.712  1.00  0.00     0.146 A 
ATOM     11  O   UNL     1       2.202  32.491   6.545  1.00  0.00    -0.451 OA
ENDROOT
BRANCH   1  12
ATOM     12  C   UNL     1       0.601  33.550   5.081  1.00  0.00     0.063 A 
ATOM     13  C   UNL     1      -0.351  35.124   3.488  1.00  0.00     0.047 A 
ATOM     14  C   UNL     1       0.218  34.859   4.735  1.00  0.00     0.020 A 
ATOM     15  C   UNL     1      -0.551  34.091   2.571  1.00  0.00     0.119 A 
ATOM     16  C   UNL     1      -0.175  32.784   2.905  1.00  0.00     0.093 A 
ATOM     17  C   UNL     1       0.406  32.505   4.148  1.00  0.00     0.130 A 
BRANCH  15  18
ATOM     18  O   UNL     1      -1.125  34.370   1.333  1.00  0.00    -0.508 OA
ATOM     19  H   UNL     1      -1.841  35.079   1.228  1.00  0.00     0.293 HD
ENDBRANCH  15  18
BRANCH  17  20
ATOM     20  O   UNL     1       0.796  31.191   4.414  1.00  0.00    -0.507 OA
ATOM     21  H   UNL     1       1.728  30.942   4.721  1.00  0.00     0.293 HD
ENDBRANCH  17  20
ENDBRANCH   1  12
BRANCH   2  22
ATOM     22  O   UNL     1      -0.506  34.741   7.449  1.00  0.00    -0.502 OA
ATOM     23  H   UNL     1      -0.385  35.743   7.379  1.00  0.00     0.293 HD
ENDBRANCH   2  22
BRANCH   6  24
ATOM     24  O   UNL     1       2.317  32.577  11.421  1.00  0.00    -0.507 OA
ATOM     25  H   UNL     1       1.831  33.431  11.648  1.00  0.00     0.293 HD
ENDBRANCH   6  24
BRANCH   8  26
ATOM     26  O   UNL     1       5.639  30.204   8.925  1.00  0.00    -0.508 OA
ATOM     27  H   UNL     1       6.506  30.511   8.499  1.00  0.00     0.293 HD
ENDBRANCH   8  26
TORSDOF 6
ENDMDL
