MODEL 1
REMARK VINA RESULT:    -4.061      0.000      0.000
REMARK INTER + INTRA:         -10.158
REMARK INTER:                  -7.859
REMARK INTRA:                  -2.299
REMARK UNBOUND:                -2.299
REMARK SMILES CCCCCCCCCCCCCCCCCC(=O)[O-]
REMARK SMILES IDX 10 1 11 2 12 3 13 4 14 5 15 6 16 7 17 8 18 9 19 10 20 11
REMARK SMILES IDX 9 12 8 13 7 14 6 15 5 16 4 17 3 18 2 19 1 20
REMARK H PARENT
REMARK Flexibility Score: inf
ROOT
ATOM      1  C   UNL     1       9.752  -8.419  33.574  1.00  0.00     0.000 C 
ENDROOT
BRANCH   1   2
ATOM      2  C   UNL     1       8.726  -7.364  33.128  1.00  0.00     0.000 C 
BRANCH   2   3
ATOM      3  C   UNL     1       9.068  -5.952  33.628  1.00  0.00     0.000 C 
BRANCH   3   4
ATOM      4  C   UNL     1       8.029  -5.465  34.645  1.00  0.00     0.000 C 
BRANCH   4   5
ATOM      5  C   UNL     1       8.640  -4.442  35.610  1.00  0.00     0.000 C 
BRANCH   5   6
ATOM      6  C   UNL     1      10.167  -4.404  35.479  1.00  0.00     0.000 C 
BRANCH   6   7
ATOM      7  C   UNL     1      10.829  -4.143  36.838  1.00  0.00     0.006 C 
BRANCH   7   8
ATOM      8  C   UNL     1      12.256  -4.698  36.869  1.00  0.00     0.053 C 
BRANCH   8   9
ATOM      9  C   UNL     1      13.244  -3.629  36.520  1.00  0.00     0.041 C 
ATOM     10  O   UNL     1      14.480  -3.853  36.613  1.00  0.00    -0.550 OA
ATOM     11  O   UNL     1      12.801  -2.399  36.049  1.00  0.00    -0.550 OA
ENDBRANCH   8   9
ENDBRANCH   7   8
ENDBRANCH   6   7
ENDBRANCH   5   6
ENDBRANCH   4   5
ENDBRANCH   3   4
ENDBRANCH   2   3
ENDBRANCH   1   2
BRANCH   1  12
ATOM     12  C   UNL     1      10.598  -8.021  34.800  1.00  0.00     0.000 C 
BRANCH  12  13
ATOM     13  C   UNL     1      10.183  -8.741  36.101  1.00  0.00    -0.000 C 
BRANCH  13  14
ATOM     14  C   UNL     1       9.848  -7.751  37.230  1.00  0.00    -0.000 C 
BRANCH  14  15
ATOM     15  C   UNL     1      10.732  -7.954  38.471  1.00  0.00    -0.000 C 
BRANCH  15  16
ATOM     16  C   UNL     1      11.497  -9.290  38.438  1.00  0.00    -0.000 C 
BRANCH  16  17
ATOM     17  C   UNL     1      12.975  -9.132  38.831  1.00  0.00    -0.000 C 
BRANCH  17  18
ATOM     18  C   UNL     1      13.451  -7.672  38.767  1.00  0.00    -0.000 C 
BRANCH  18  19
ATOM     19  C   UNL     1      14.981  -7.597  38.709  1.00  0.00    -0.003 C 
ATOM     20  C   UNL     1      15.590  -8.953  38.356  1.00  0.00     0.004 C 
ENDBRANCH  18  19
ENDBRANCH  17  18
ENDBRANCH  16  17
ENDBRANCH  15  16
ENDBRANCH  14  15
ENDBRANCH  13  14
ENDBRANCH  12  13
ENDBRANCH   1  12
TORSDOF 16
ENDMDL
MODEL 2
REMARK VINA RESULT:    -4.053      2.294      5.313
REMARK INTER + INTRA:         -10.143
REMARK INTER:                  -7.351
REMARK INTRA:                  -2.792
REMARK UNBOUND:                -2.299
REMARK SMILES CCCCCCCCCCCCCCCCCC(=O)[O-]
REMARK SMILES IDX 10 1 11 2 12 3 13 4 14 5 15 6 16 7 17 8 18 9 19 10 20 11
REMARK SMILES IDX 9 12 8 13 7 14 6 15 5 16 4 17 3 18 2 19 1 20
REMARK H PARENT
REMARK Flexibility Score: inf
ROOT
ATOM      1  C   UNL     1      10.173  -8.960  35.278  1.00  0.00     0.000 C 
ENDROOT
BRANCH   1   2
ATOM      2  C   UNL     1      10.721  -8.600  33.886  1.00  0.00     0.000 C 
BRANCH   2   3
ATOM      3  C   UNL     1       9.609  -8.279  32.874  1.00  0.00     0.000 C 
BRANCH   3   4
ATOM      4  C   UNL     1       8.590  -7.303  33.473  1.00  0.00     0.000 C 
BRANCH   4   5
ATOM      5  C   UNL     1       8.710  -5.917  32.828  1.00  0.00     0.000 C 
BRANCH   5   6
ATOM      6  C   UNL     1       8.908  -4.830  33.890  1.00  0.00     0.000 C 
BRANCH   6   7
ATOM      7  C   UNL     1      10.305  -4.919  34.516  1.00  0.00     0.006 C 
BRANCH   7   8
ATOM      8  C   UNL     1      10.319  -4.308  35.920  1.00  0.00     0.053 C 
BRANCH   8   9
ATOM      9  C   UNL     1      11.723  -4.045  36.366  1.00  0.00     0.041 C 
ATOM     10  O   UNL     1      12.358  -3.055  35.912  1.00  0.00    -0.550 OA
ATOM     11  O   UNL     1      12.318  -4.867  37.315  1.00  0.00    -0.550 OA
ENDBRANCH   8   9
ENDBRANCH   7   8
ENDBRANCH   6   7
ENDBRANCH   5   6
ENDBRANCH   4   5
ENDBRANCH   3   4
ENDBRANCH   2   3
ENDBRANCH   1   2
BRANCH   1  12
ATOM     12  C   UNL     1      10.702  -8.082  36.428  1.00  0.00     0.000 C 
BRANCH  12  13
ATOM     13  C   UNL     1       9.600  -7.583  37.387  1.00  0.00    -0.000 C 
BRANCH  13  14
ATOM     14  C   UNL     1       8.231  -8.212  37.074  1.00  0.00    -0.000 C 
BRANCH  14  15
ATOM     15  C   UNL     1       7.059  -7.323  37.521  1.00  0.00    -0.000 C 
BRANCH  15  16
ATOM     16  C   UNL     1       7.002  -5.992  36.750  1.00  0.00    -0.000 C 
BRANCH  16  17
ATOM     17  C   UNL     1       5.898  -5.980  35.678  1.00  0.00    -0.000 C 
BRANCH  17  18
ATOM     18  C   UNL     1       5.350  -7.383  35.379  1.00  0.00    -0.000 C 
BRANCH  18  19
ATOM     19  C   UNL     1       3.824  -7.353  35.223  1.00  0.00    -0.003 C 
ATOM     20  C   UNL     1       3.129  -7.359  36.583  1.00  0.00     0.004 C 
ENDBRANCH  18  19
ENDBRANCH  17  18
ENDBRANCH  16  17
ENDBRANCH  15  16
ENDBRANCH  14  15
ENDBRANCH  13  14
ENDBRANCH  12  13
ENDBRANCH   1  12
TORSDOF 16
ENDMDL
MODEL 3
REMARK VINA RESULT:    -3.996      2.044      4.757
REMARK INTER + INTRA:         -10.032
REMARK INTER:                  -6.950
REMARK INTRA:                  -3.082
REMARK UNBOUND:                -2.299
REMARK SMILES CCCCCCCCCCCCCCCCCC(=O)[O-]
REMARK SMILES IDX 10 1 11 2 12 3 13 4 14 5 15 6 16 7 17 8 18 9 19 10 20 11
REMARK SMILES IDX 9 12 8 13 7 14 6 15 5 16 4 17 3 18 2 19 1 20
REMARK H PARENT
REMARK Flexibility Score: inf
ROOT
ATOM      1  C   UNL     1       8.635  -6.658  33.235  1.00  0.00     0.000 C 
ENDROOT
BRANCH   1   2
ATOM      2  C   UNL     1       9.451  -7.926  33.539  1.00  0.00     0.000 C 
BRANCH   2   3
ATOM      3  C   UNL     1      10.623  -7.664  34.498  1.00  0.00     0.000 C 
BRANCH   3   4
ATOM      4  C   UNL     1      10.486  -8.505  35.772  1.00  0.00     0.000 C 
BRANCH   4   5
ATOM      5  C   UNL     1      11.077  -7.772  36.983  1.00  0.00     0.000 C 
BRANCH   5   6
ATOM      6  C   UNL     1      10.601  -6.316  37.032  1.00  0.00     0.000 C 
BRANCH   6   7
ATOM      7  C   UNL     1      11.749  -5.373  37.411  1.00  0.00     0.006 C 
BRANCH   7   8
ATOM      8  C   UNL     1      11.408  -3.922  37.059  1.00  0.00     0.053 C 
BRANCH   8   9
ATOM      9  C   UNL     1      12.271  -3.436  35.937  1.00  0.00     0.041 C 
ATOM     10  O   UNL     1      12.390  -4.121  34.886  1.00  0.00    -0.550 OA
ATOM     11  O   UNL     1      12.909  -2.205  36.032  1.00  0.00    -0.550 OA
ENDBRANCH   8   9
ENDBRANCH   7   8
ENDBRANCH   6   7
ENDBRANCH   5   6
ENDBRANCH   4   5
ENDBRANCH   3   4
ENDBRANCH   2   3
ENDBRANCH   1   2
BRANCH   1  12
ATOM     12  C   UNL     1       9.261  -5.347  33.752  1.00  0.00     0.000 C 
BRANCH  12  13
ATOM     13  C   UNL     1       8.227  -4.240  34.049  1.00  0.00    -0.000 C 
BRANCH  13  14
ATOM     14  C   UNL     1       8.228  -3.827  35.531  1.00  0.00    -0.000 C 
BRANCH  14  15
ATOM     15  C   UNL     1       7.371  -4.759  36.402  1.00  0.00    -0.000 C 
BRANCH  15  16
ATOM     16  C   UNL     1       6.065  -5.182  35.704  1.00  0.00    -0.000 C 
BRANCH  16  17
ATOM     17  C   UNL     1       5.834  -6.702  35.758  1.00  0.00    -0.000 C 
BRANCH  17  18
ATOM     18  C   UNL     1       7.041  -7.463  36.330  1.00  0.00    -0.000 C 
BRANCH  18  19
ATOM     19  C   UNL     1       6.650  -8.238  37.594  1.00  0.00    -0.003 C 
ATOM     20  C   UNL     1       7.704  -8.082  38.688  1.00  0.00     0.004 C 
ENDBRANCH  18  19
ENDBRANCH  17  18
ENDBRANCH  16  17
ENDBRANCH  15  16
ENDBRANCH  14  15
ENDBRANCH  13  14
ENDBRANCH  12  13
ENDBRANCH   1  12
TORSDOF 16
ENDMDL
MODEL 4
REMARK VINA RESULT:    -3.994      2.322      5.347
REMARK INTER + INTRA:         -10.029
REMARK INTER:                  -6.973
REMARK INTRA:                  -3.056
REMARK UNBOUND:                -2.299
REMARK SMILES CCCCCCCCCCCCCCCCCC(=O)[O-]
REMARK SMILES IDX 10 1 11 2 12 3 13 4 14 5 15 6 16 7 17 8 18 9 19 10 20 11
REMARK SMILES IDX 9 12 8 13 7 14 6 15 5 16 4 17 3 18 2 19 1 20
REMARK H PARENT
REMARK Flexibility Score: inf
ROOT
ATOM      1  C   UNL     1       8.633  -6.165  32.864  1.00  0.00     0.000 C 
ENDROOT
BRANCH   1   2
ATOM      2  C   UNL     1       8.759  -7.668  33.167  1.00  0.00     0.000 C 
BRANCH   2   3
ATOM      3  C   UNL     1       9.962  -7.995  34.066  1.00  0.00     0.000 C 
BRANCH   3   4
ATOM      4  C   UNL     1       9.535  -8.866  35.254  1.00  0.00     0.000 C 
BRANCH   4   5
ATOM      5  C   UNL     1      10.192  -8.384  36.554  1.00  0.00     0.000 C 
BRANCH   5   6
ATOM      6  C   UNL     1      10.934  -7.060  36.339  1.00  0.00     0.000 C 
BRANCH   6   7
ATOM      7  C   UNL     1      10.680  -6.092  37.501  1.00  0.00     0.006 C 
BRANCH   7   8
ATOM      8  C   UNL     1      11.788  -5.039  37.591  1.00  0.00     0.053 C 
BRANCH   8   9
ATOM      9  C   UNL     1      11.363  -3.769  36.923  1.00  0.00     0.041 C 
ATOM     10  O   UNL     1      11.789  -3.485  35.772  1.00  0.00    -0.550 OA
ATOM     11  O   UNL     1      10.462  -2.919  37.554  1.00  0.00    -0.550 OA
ENDBRANCH   8   9
ENDBRANCH   7   8
ENDBRANCH   6   7
ENDBRANCH   5   6
ENDBRANCH   4   5
ENDBRANCH   3   4
ENDBRANCH   2   3
ENDBRANCH   1   2
BRANCH   1  12
ATOM     12  C   UNL     1       9.154  -5.235  33.977  1.00  0.00     0.000 C 
BRANCH  12  13
ATOM     13  C   UNL     1       8.306  -3.959  34.168  1.00  0.00    -0.000 C 
BRANCH  13  14
ATOM     14  C   UNL     1       7.678  -3.884  35.570  1.00  0.00    -0.000 C 
BRANCH  14  15
ATOM     15  C   UNL     1       6.623  -4.977  35.802  1.00  0.00    -0.000 C 
BRANCH  15  16
ATOM     16  C   UNL     1       7.124  -6.088  36.744  1.00  0.00    -0.000 C 
BRANCH  16  17
ATOM     17  C   UNL     1       6.369  -7.413  36.544  1.00  0.00    -0.000 C 
BRANCH  17  18
ATOM     18  C   UNL     1       5.657  -7.489  35.185  1.00  0.00    -0.000 C 
BRANCH  18  19
ATOM     19  C   UNL     1       5.595  -8.936  34.680  1.00  0.00    -0.003 C 
ATOM     20  C   UNL     1       5.248  -8.989  33.193  1.00  0.00     0.004 C 
ENDBRANCH  18  19
ENDBRANCH  17  18
ENDBRANCH  16  17
ENDBRANCH  15  16
ENDBRANCH  14  15
ENDBRANCH  13  14
ENDBRANCH  12  13
ENDBRANCH   1  12
TORSDOF 16
ENDMDL
MODEL 5
REMARK VINA RESULT:    -3.911      4.191      6.281
REMARK INTER + INTRA:          -9.868
REMARK INTER:                  -6.891
REMARK INTRA:                  -2.977
REMARK UNBOUND:                -2.299
REMARK SMILES CCCCCCCCCCCCCCCCCC(=O)[O-]
REMARK SMILES IDX 10 1 11 2 12 3 13 4 14 5 15 6 16 7 17 8 18 9 19 10 20 11
REMARK SMILES IDX 9 12 8 13 7 14 6 15 5 16 4 17 3 18 2 19 1 20
REMARK H PARENT
REMARK Flexibility Score: inf
ROOT
ATOM      1  C   UNL     1      10.684  -8.324  34.228  1.00  0.00     0.000 C 
ENDROOT
BRANCH   1   2
ATOM      2  C   UNL     1      10.118  -8.508  35.646  1.00  0.00     0.000 C 
BRANCH   2   3
ATOM      3  C   UNL     1      10.789  -7.588  36.679  1.00  0.00     0.000 C 
BRANCH   3   4
ATOM      4  C   UNL     1       9.740  -6.811  37.482  1.00  0.00     0.000 C 
BRANCH   4   5
ATOM      5  C   UNL     1       8.485  -7.660  37.717  1.00  0.00     0.000 C 
BRANCH   5   6
ATOM      6  C   UNL     1       7.213  -6.859  37.420  1.00  0.00     0.000 C 
BRANCH   6   7
ATOM      7  C   UNL     1       6.361  -7.552  36.350  1.00  0.00     0.006 C 
BRANCH   7   8
ATOM      8  C   UNL     1       5.176  -6.675  35.937  1.00  0.00     0.053 C 
BRANCH   8   9
ATOM      9  C   UNL     1       3.899  -7.453  35.997  1.00  0.00     0.041 C 
ATOM     10  O   UNL     1       3.722  -8.441  35.236  1.00  0.00    -0.550 OA
ATOM     11  O   UNL     1       2.921  -7.115  36.925  1.00  0.00    -0.550 OA
ENDBRANCH   8   9
ENDBRANCH   7   8
ENDBRANCH   6   7
ENDBRANCH   5   6
ENDBRANCH   4   5
ENDBRANCH   3   4
ENDBRANCH   2   3
ENDBRANCH   1   2
BRANCH   1  12
ATOM     12  C   UNL     1       9.623  -8.230  33.115  1.00  0.00     0.000 C 
BRANCH  12  13
ATOM     13  C   UNL     1       8.405  -7.359  33.490  1.00  0.00    -0.000 C 
BRANCH  13  14
ATOM     14  C   UNL     1       8.665  -5.862  33.245  1.00  0.00    -0.000 C 
BRANCH  14  15
ATOM     15  C   UNL     1       8.321  -4.997  34.468  1.00  0.00    -0.000 C 
BRANCH  15  16
ATOM     16  C   UNL     1       9.542  -4.233  35.011  1.00  0.00    -0.000 C 
BRANCH  16  17
ATOM     17  C   UNL     1      10.841  -4.598  34.272  1.00  0.00    -0.000 C 
BRANCH  17  18
ATOM     18  C   UNL     1      12.086  -4.456  35.161  1.00  0.00    -0.000 C 
BRANCH  18  19
ATOM     19  C   UNL     1      11.838  -3.456  36.296  1.00  0.00    -0.003 C 
ATOM     20  C   UNL     1      12.820  -2.287  36.230  1.00  0.00     0.004 C 
ENDBRANCH  18  19
ENDBRANCH  17  18
ENDBRANCH  16  17
ENDBRANCH  15  16
ENDBRANCH  14  15
ENDBRANCH  13  14
ENDBRANCH  12  13
ENDBRANCH   1  12
TORSDOF 16
ENDMDL
MODEL 6
REMARK VINA RESULT:    -3.907      1.487      4.810
REMARK INTER + INTRA:          -9.861
REMARK INTER:                  -7.097
REMARK INTRA:                  -2.764
REMARK UNBOUND:                -2.299
REMARK SMILES CCCCCCCCCCCCCCCCCC(=O)[O-]
REMARK SMILES IDX 10 1 11 2 12 3 13 4 14 5 15 6 16 7 17 8 18 9 19 10 20 11
REMARK SMILES IDX 9 12 8 13 7 14 6 15 5 16 4 17 3 18 2 19 1 20
REMARK H PARENT
REMARK Flexibility Score: inf
ROOT
ATOM      1  C   UNL     1       9.731  -9.475  35.410  1.00  0.00     0.000 C 
ENDROOT
BRANCH   1   2
ATOM      2  C   UNL     1      10.689  -9.945  36.519  1.00  0.00     0.000 C 
BRANCH   2   3
ATOM      3  C   UNL     1      10.651  -9.040  37.761  1.00  0.00     0.000 C 
BRANCH   3   4
ATOM      4  C   UNL     1      12.017  -8.387  38.004  1.00  0.00     0.000 C 
BRANCH   4   5
ATOM      5  C   UNL     1      11.886  -6.865  38.131  1.00  0.00     0.000 C 
BRANCH   5   6
ATOM      6  C   UNL     1      11.299  -6.253  36.854  1.00  0.00     0.000 C 
BRANCH   6   7
ATOM      7  C   UNL     1      11.221  -4.725  36.960  1.00  0.00     0.006 C 
BRANCH   7   8
ATOM      8  C   UNL     1      11.860  -4.056  35.740  1.00  0.00     0.053 C 
BRANCH   8   9
ATOM      9  C   UNL     1      13.022  -3.208  36.153  1.00  0.00     0.041 C 
ATOM     10  O   UNL     1      12.973  -1.956  36.019  1.00  0.00    -0.550 OA
ATOM     11  O   UNL     1      14.143  -3.796  36.728  1.00  0.00    -0.550 OA
ENDBRANCH   8   9
ENDBRANCH   7   8
ENDBRANCH   6   7
ENDBRANCH   5   6
ENDBRANCH   4   5
ENDBRANCH   3   4
ENDBRANCH   2   3
ENDBRANCH   1   2
BRANCH   1  12
ATOM     12  C   UNL     1      10.369  -8.554  34.352  1.00  0.00     0.000 C 
BRANCH  12  13
ATOM     13  C   UNL     1       9.463  -8.293  33.129  1.00  0.00    -0.000 C 
BRANCH  13  14
ATOM     14  C   UNL     1       8.405  -7.213  33.411  1.00  0.00    -0.000 C 
BRANCH  14  15
ATOM     15  C   UNL     1       8.958  -5.789  33.242  1.00  0.00    -0.000 C 
BRANCH  15  16
ATOM     16  C   UNL     1       8.475  -4.834  34.350  1.00  0.00    -0.000 C 
BRANCH  16  17
ATOM     17  C   UNL     1       7.332  -5.434  35.186  1.00  0.00    -0.000 C 
BRANCH  17  18
ATOM     18  C   UNL     1       7.579  -5.313  36.698  1.00  0.00    -0.000 C 
BRANCH  18  19
ATOM     19  C   UNL     1       7.743  -6.697  37.338  1.00  0.00    -0.003 C 
ATOM     20  C   UNL     1       8.041  -6.585  38.832  1.00  0.00     0.004 C 
ENDBRANCH  18  19
ENDBRANCH  17  18
ENDBRANCH  16  17
ENDBRANCH  15  16
ENDBRANCH  14  15
ENDBRANCH  13  14
ENDBRANCH  12  13
ENDBRANCH   1  12
TORSDOF 16
ENDMDL
MODEL 7
REMARK VINA RESULT:    -3.896      1.790      4.549
REMARK INTER + INTRA:          -9.839
REMARK INTER:                  -7.431
REMARK INTRA:                  -2.408
REMARK UNBOUND:                -2.299
REMARK SMILES CCCCCCCCCCCCCCCCCC(=O)[O-]
REMARK SMILES IDX 10 1 11 2 12 3 13 4 14 5 15 6 16 7 17 8 18 9 19 10 20 11
REMARK SMILES IDX 9 12 8 13 7 14 6 15 5 16 4 17 3 18 2 19 1 20
REMARK H PARENT
REMARK Flexibility Score: inf
ROOT
ATOM      1  C   UNL     1       9.627  -6.319  34.122  1.00  0.00     0.000 C 
ENDROOT
BRANCH   1   2
ATOM      2  C   UNL     1       9.225  -7.719  33.628  1.00  0.00     0.000 C 
BRANCH   2   3
ATOM      3  C   UNL     1       9.799  -8.845  34.502  1.00  0.00     0.000 C 
BRANCH   3   4
ATOM      4  C   UNL     1       9.496  -8.596  35.984  1.00  0.00     0.000 C 
BRANCH   4   5
ATOM      5  C   UNL     1      10.757  -8.768  36.840  1.00  0.00     0.000 C 
BRANCH   5   6
ATOM      6  C   UNL     1      11.452  -7.422  37.075  1.00  0.00     0.000 C 
BRANCH   6   7
ATOM      7  C   UNL     1      12.017  -7.335  38.498  1.00  0.00     0.006 C 
BRANCH   7   8
ATOM      8  C   UNL     1      13.048  -8.438  38.749  1.00  0.00     0.053 C 
BRANCH   8   9
ATOM      9  C   UNL     1      14.437  -7.883  38.696  1.00  0.00     0.041 C 
ATOM     10  O   UNL     1      14.623  -6.637  38.731  1.00  0.00    -0.550 OA
ATOM     11  O   UNL     1      15.529  -8.741  38.651  1.00  0.00    -0.550 OA
ENDBRANCH   8   9
ENDBRANCH   7   8
ENDBRANCH   6   7
ENDBRANCH   5   6
ENDBRANCH   4   5
ENDBRANCH   3   4
ENDBRANCH   2   3
ENDBRANCH   1   2
BRANCH   1  12
ATOM     12  C   UNL     1       8.628  -5.198  33.772  1.00  0.00     0.000 C 
BRANCH  12  13
ATOM     13  C   UNL     1       8.120  -4.413  35.000  1.00  0.00    -0.000 C 
BRANCH  13  14
ATOM     14  C   UNL     1       7.889  -5.325  36.217  1.00  0.00    -0.000 C 
BRANCH  14  15
ATOM     15  C   UNL     1       8.718  -4.897  37.439  1.00  0.00    -0.000 C 
BRANCH  15  16
ATOM     16  C   UNL     1       9.539  -3.621  37.177  1.00  0.00    -0.000 C 
BRANCH  16  17
ATOM     17  C   UNL     1      11.055  -3.874  37.240  1.00  0.00    -0.000 C 
BRANCH  17  18
ATOM     18  C   UNL     1      11.722  -3.812  35.857  1.00  0.00    -0.000 C 
BRANCH  18  19
ATOM     19  C   UNL     1      13.049  -3.046  35.924  1.00  0.00    -0.003 C 
ATOM     20  C   UNL     1      14.093  -3.814  36.733  1.00  0.00     0.004 C 
ENDBRANCH  18  19
ENDBRANCH  17  18
ENDBRANCH  16  17
ENDBRANCH  15  16
ENDBRANCH  14  15
ENDBRANCH  13  14
ENDBRANCH  12  13
ENDBRANCH   1  12
TORSDOF 16
ENDMDL
MODEL 8
REMARK VINA RESULT:    -3.868      2.795      5.432
REMARK INTER + INTRA:          -9.785
REMARK INTER:                  -7.143
REMARK INTRA:                  -2.642
REMARK UNBOUND:                -2.299
REMARK SMILES CCCCCCCCCCCCCCCCCC(=O)[O-]
REMARK SMILES IDX 10 1 11 2 12 3 13 4 14 5 15 6 16 7 17 8 18 9 19 10 20 11
REMARK SMILES IDX 9 12 8 13 7 14 6 15 5 16 4 17 3 18 2 19 1 20
REMARK H PARENT
REMARK Flexibility Score: inf
ROOT
ATOM      1  C   UNL     1       8.625  -5.275  33.117  1.00  0.00     0.000 C 
ENDROOT
BRANCH   1   2
ATOM      2  C   UNL     1       8.809  -4.328  34.315  1.00  0.00     0.000 C 
BRANCH   2   3
ATOM      3  C   UNL     1       7.475  -3.911  34.954  1.00  0.00     0.000 C 
BRANCH   3   4
ATOM      4  C   UNL     1       7.605  -3.819  36.479  1.00  0.00     0.000 C 
BRANCH   4   5
ATOM      5  C   UNL     1       9.052  -3.525  36.892  1.00  0.00     0.000 C 
BRANCH   5   6
ATOM      6  C   UNL     1       9.658  -4.709  37.654  1.00  0.00     0.000 C 
BRANCH   6   7
ATOM      7  C   UNL     1      11.167  -4.815  37.397  1.00  0.00     0.006 C 
BRANCH   7   8
ATOM      8  C   UNL     1      11.715  -3.518  36.796  1.00  0.00     0.053 C 
BRANCH   8   9
ATOM      9  C   UNL     1      12.660  -3.817  35.674  1.00  0.00     0.041 C 
ATOM     10  O   UNL     1      13.862  -3.442  35.741  1.00  0.00    -0.550 OA
ATOM     11  O   UNL     1      12.227  -4.547  34.574  1.00  0.00    -0.550 OA
ENDBRANCH   8   9
ENDBRANCH   7   8
ENDBRANCH   6   7
ENDBRANCH   5   6
ENDBRANCH   4   5
ENDBRANCH   3   4
ENDBRANCH   2   3
ENDBRANCH   1   2
BRANCH   1  12
ATOM     12  C   UNL     1       9.026  -6.739  33.381  1.00  0.00     0.000 C 
BRANCH  12  13
ATOM     13  C   UNL     1       9.624  -6.975  34.785  1.00  0.00    -0.000 C 
BRANCH  13  14
ATOM     14  C   UNL     1       8.802  -7.986  35.604  1.00  0.00    -0.000 C 
BRANCH  14  15
ATOM     15  C   UNL     1       7.390  -7.471  35.928  1.00  0.00    -0.000 C 
BRANCH  15  16
ATOM     16  C   UNL     1       6.294  -8.244  35.173  1.00  0.00    -0.000 C 
BRANCH  16  17
ATOM     17  C   UNL     1       5.007  -7.419  34.999  1.00  0.00    -0.000 C 
BRANCH  17  18
ATOM     18  C   UNL     1       4.819  -6.375  36.110  1.00  0.00    -0.000 C 
BRANCH  18  19
ATOM     19  C   UNL     1       3.886  -6.905  37.207  1.00  0.00    -0.003 C 
ATOM     20  C   UNL     1       2.679  -7.624  36.608  1.00  0.00     0.004 C 
ENDBRANCH  18  19
ENDBRANCH  17  18
ENDBRANCH  16  17
ENDBRANCH  15  16
ENDBRANCH  14  15
ENDBRANCH  13  14
ENDBRANCH  12  13
ENDBRANCH   1  12
TORSDOF 16
ENDMDL
MODEL 9
REMARK VINA RESULT:    -3.827      1.343      2.249
REMARK INTER + INTRA:          -9.706
REMARK INTER:                  -7.085
REMARK INTRA:                  -2.621
REMARK UNBOUND:                -2.299
REMARK SMILES CCCCCCCCCCCCCCCCCC(=O)[O-]
REMARK SMILES IDX 10 1 11 2 12 3 13 4 14 5 15 6 16 7 17 8 18 9 19 10 20 11
REMARK SMILES IDX 9 12 8 13 7 14 6 15 5 16 4 17 3 18 2 19 1 20
REMARK H PARENT
REMARK Flexibility Score: inf
ROOT
ATOM      1  C   UNL     1       9.959 -10.016  34.996  1.00  0.00     0.000 C 
ENDROOT
BRANCH   1   2
ATOM      2  C   UNL     1      10.683  -8.882  34.251  1.00  0.00     0.000 C 
BRANCH   2   3
ATOM      3  C   UNL     1       9.769  -8.142  33.261  1.00  0.00     0.000 C 
BRANCH   3   4
ATOM      4  C   UNL     1       8.351  -8.000  33.828  1.00  0.00     0.000 C 
BRANCH   4   5
ATOM      5  C   UNL     1       8.162  -6.636  34.503  1.00  0.00     0.000 C 
BRANCH   5   6
ATOM      6  C   UNL     1       9.005  -5.558  33.812  1.00  0.00     0.000 C 
BRANCH   6   7
ATOM      7  C   UNL     1       9.755  -4.702  34.841  1.00  0.00     0.006 C 
BRANCH   7   8
ATOM      8  C   UNL     1      11.271  -4.845  34.673  1.00  0.00     0.053 C 
BRANCH   8   9
ATOM      9  C   UNL     1      11.992  -3.934  35.616  1.00  0.00     0.041 C 
ATOM     10  O   UNL     1      11.374  -3.390  36.570  1.00  0.00    -0.550 OA
ATOM     11  O   UNL     1      13.357  -3.719  35.469  1.00  0.00    -0.550 OA
ENDBRANCH   8   9
ENDBRANCH   7   8
ENDBRANCH   6   7
ENDBRANCH   5   6
ENDBRANCH   4   5
ENDBRANCH   3   4
ENDBRANCH   2   3
ENDBRANCH   1   2
BRANCH   1  12
ATOM     12  C   UNL     1      10.817 -10.753  36.043  1.00  0.00     0.000 C 
BRANCH  12  13
ATOM     13  C   UNL     1      10.281 -10.628  37.485  1.00  0.00    -0.000 C 
BRANCH  13  14
ATOM     14  C   UNL     1       9.196  -9.544  37.609  1.00  0.00    -0.000 C 
BRANCH  14  15
ATOM     15  C   UNL     1       9.637  -8.370  38.498  1.00  0.00    -0.000 C 
BRANCH  15  16
ATOM     16  C   UNL     1      10.119  -7.159  37.678  1.00  0.00    -0.000 C 
BRANCH  16  17
ATOM     17  C   UNL     1      11.638  -7.176  37.442  1.00  0.00    -0.000 C 
BRANCH  17  18
ATOM     18  C   UNL     1      12.416  -7.745  38.638  1.00  0.00    -0.000 C 
BRANCH  18  19
ATOM     19  C   UNL     1      13.749  -7.009  38.825  1.00  0.00    -0.003 C 
ATOM     20  C   UNL     1      14.931  -7.973  38.745  1.00  0.00     0.004 C 
ENDBRANCH  18  19
ENDBRANCH  17  18
ENDBRANCH  16  17
ENDBRANCH  15  16
ENDBRANCH  14  15
ENDBRANCH  13  14
ENDBRANCH  12  13
ENDBRANCH   1  12
TORSDOF 16
ENDMDL
