MODEL 1
REMARK VINA RESULT:    -3.172      0.000      0.000
REMARK INTER + INTRA:          -3.491
REMARK INTER:                  -3.822
REMARK INTRA:                   0.330
REMARK UNBOUND:                 0.330
REMARK SMILES O=c1c(O)c(-c2ccc(O)c(O)c2)oc2cc(O)cc(O)c12
REMARK SMILES IDX 5 1 3 2 2 3 1 4 22 5 20 6 19 7 17 8 16 9 15 10 14 11 6 12
REMARK SMILES IDX 7 13 8 14 9 15 13 16 11 17 10 18 12 20 4 22 21 24 18 26
REMARK H PARENT 10 19 12 21 4 23 21 25 18 27
REMARK Flexibility Score: inf
ROOT
ATOM      1  C   UNL     1      52.278  26.150  57.934  1.00  0.00     0.180 A 
ATOM      2  C   UNL     1      51.218  26.869  57.347  1.00  0.00     0.208 A 
ATOM      3  C   UNL     1      50.965  28.179  57.782  1.00  0.00     0.238 A 
ATOM      4  O   UNL     1      50.026  28.836  57.256  1.00  0.00    -0.285 OA
ATOM      5  C   UNL     1      51.756  28.739  58.806  1.00  0.00     0.111 A 
ATOM      6  C   UNL     1      51.562  30.051  59.303  1.00  0.00     0.134 A 
ATOM      7  C   UNL     1      52.387  30.534  60.331  1.00  0.00     0.093 A 
ATOM      8  C   UNL     1      53.397  29.733  60.869  1.00  0.00     0.123 A 
ATOM      9  C   UNL     1      53.593  28.437  60.381  1.00  0.00     0.094 A 
ATOM     10  C   UNL     1      52.783  27.938  59.357  1.00  0.00     0.146 A 
ATOM     11  O   UNL     1      52.994  26.707  58.908  1.00  0.00    -0.452 OA
ENDROOT
BRANCH   1  12
ATOM     12  C   UNL     1      52.620  24.771  57.517  1.00  0.00     0.025 A 
ATOM     13  C   UNL     1      52.244  24.274  56.257  1.00  0.00     0.016 A 
ATOM     14  C   UNL     1      52.600  22.977  55.875  1.00  0.00     0.051 A 
ATOM     15  C   UNL     1      53.345  22.165  56.736  1.00  0.00     0.157 A 
ATOM     16  C   UNL     1      53.387  23.961  58.370  1.00  0.00     0.062 A 
ATOM     17  C   UNL     1      53.745  22.660  57.989  1.00  0.00     0.158 A 
BRANCH  15  18
ATOM     18  O   UNL     1      53.682  20.875  56.328  1.00  0.00    -0.504 OA
ATOM     19  H   UNL     1      54.638  20.540  56.340  1.00  0.00     0.293 HD
ENDBRANCH  15  18
BRANCH  17  20
ATOM     20  O   UNL     1      54.493  21.858  58.849  1.00  0.00    -0.504 OA
ATOM     21  H   UNL     1      55.215  21.237  58.502  1.00  0.00     0.293 HD
ENDBRANCH  17  20
ENDBRANCH   1  12
BRANCH   2  22
ATOM     22  O   UNL     1      50.418  26.273  56.370  1.00  0.00    -0.502 OA
ATOM     23  H   UNL     1      50.782  25.597  55.709  1.00  0.00     0.293 HD
ENDBRANCH   2  22
BRANCH   6  24
ATOM     24  O   UNL     1      50.561  30.875  58.787  1.00  0.00    -0.507 OA
ATOM     25  H   UNL     1      49.818  30.509  58.204  1.00  0.00     0.293 HD
ENDBRANCH   6  24
BRANCH   8  26
ATOM     26  O   UNL     1      54.201  30.236  61.890  1.00  0.00    -0.508 OA
ATOM     27  H   UNL     1      54.769  31.064  61.757  1.00  0.00     0.293 HD
ENDBRANCH   8  26
TORSDOF 6
ENDMDL
MODEL 2
REMARK VINA RESULT:    -2.631      2.776      5.604
REMARK INTER + INTRA:          -2.839
REMARK INTER:                  -3.292
REMARK INTRA:                   0.453
REMARK UNBOUND:                 0.330
REMARK SMILES O=c1c(O)c(-c2ccc(O)c(O)c2)oc2cc(O)cc(O)c12
REMARK SMILES IDX 5 1 3 2 2 3 1 4 22 5 20 6 19 7 17 8 16 9 15 10 14 11 6 12
REMARK SMILES IDX 7 13 8 14 9 15 13 16 11 17 10 18 12 20 4 22 21 24 18 26
REMARK H PARENT 10 19 12 21 4 23 21 25 18 27
REMARK Flexibility Score: inf
ROOT
ATOM      1  C   UNL     1      51.032  28.254  58.182  1.00  0.00     0.180 A 
ATOM      2  C   UNL     1      51.904  27.222  57.786  1.00  0.00     0.208 A 
ATOM      3  C   UNL     1      53.144  27.096  58.433  1.00  0.00     0.238 A 
ATOM      4  O   UNL     1      53.927  26.168  58.094  1.00  0.00    -0.285 OA
ATOM      5  C   UNL     1      53.499  28.012  59.443  1.00  0.00     0.111 A 
ATOM      6  C   UNL     1      54.730  27.957  60.140  1.00  0.00     0.134 A 
ATOM      7  C   UNL     1      55.014  28.911  61.129  1.00  0.00     0.093 A 
ATOM      8  C   UNL     1      54.093  29.917  61.433  1.00  0.00     0.123 A 
ATOM      9  C   UNL     1      52.875  29.976  60.748  1.00  0.00     0.094 A 
ATOM     10  C   UNL     1      52.573  29.034  59.761  1.00  0.00     0.146 A 
ATOM     11  O   UNL     1      51.407  29.109  59.130  1.00  0.00    -0.452 OA
ENDROOT
BRANCH   1  12
ATOM     12  C   UNL     1      49.700  28.441  57.563  1.00  0.00     0.025 A 
ATOM     13  C   UNL     1      49.311  27.707  56.429  1.00  0.00     0.016 A 
ATOM     14  C   UNL     1      48.040  27.882  55.875  1.00  0.00     0.051 A 
ATOM     15  C   UNL     1      47.135  28.779  56.451  1.00  0.00     0.157 A 
ATOM     16  C   UNL     1      48.781  29.326  58.151  1.00  0.00     0.062 A 
ATOM     17  C   UNL     1      47.505  29.503  57.597  1.00  0.00     0.158 A 
BRANCH  15  18
ATOM     18  O   UNL     1      45.875  28.935  55.875  1.00  0.00    -0.504 OA
ATOM     19  H   UNL     1      45.741  29.423  54.997  1.00  0.00     0.293 HD
ENDBRANCH  15  18
BRANCH  17  20
ATOM     20  O   UNL     1      46.606  30.395  58.180  1.00  0.00    -0.504 OA
ATOM     21  H   UNL     1      46.065  30.143  58.999  1.00  0.00     0.293 HD
ENDBRANCH  17  20
ENDBRANCH   1  12
BRANCH   2  22
ATOM     22  O   UNL     1      51.548  26.358  56.747  1.00  0.00    -0.502 OA
ATOM     23  H   UNL     1      51.714  25.360  56.791  1.00  0.00     0.293 HD
ENDBRANCH   2  22
BRANCH   6  24
ATOM     24  O   UNL     1      55.671  26.965  59.859  1.00  0.00    -0.507 OA
ATOM     25  H   UNL     1      55.423  26.124  59.352  1.00  0.00     0.293 HD
ENDBRANCH   6  24
BRANCH   8  26
ATOM     26  O   UNL     1      54.400  30.853  62.417  1.00  0.00    -0.508 OA
ATOM     27  H   UNL     1      55.335  30.934  62.798  1.00  0.00     0.293 HD
ENDBRANCH   8  26
TORSDOF 6
ENDMDL
MODEL 3
REMARK VINA RESULT:    -2.043      1.202      2.808
REMARK INTER + INTRA:          -2.131
REMARK INTER:                  -2.333
REMARK INTRA:                   0.202
REMARK UNBOUND:                 0.330
REMARK SMILES O=c1c(O)c(-c2ccc(O)c(O)c2)oc2cc(O)cc(O)c12
REMARK SMILES IDX 5 1 3 2 2 3 1 4 22 5 20 6 19 7 17 8 16 9 15 10 14 11 6 12
REMARK SMILES IDX 7 13 8 14 9 15 13 16 11 17 10 18 12 20 4 22 21 24 18 26
REMARK H PARENT 10 19 12 21 4 23 21 25 18 27
REMARK Flexibility Score: inf
ROOT
ATOM      1  C   UNL     1      52.763  26.292  58.458  1.00  0.00     0.180 A 
ATOM      2  C   UNL     1      53.822  26.760  59.261  1.00  0.00     0.208 A 
ATOM      3  C   UNL     1      53.705  28.020  59.870  1.00  0.00     0.238 A 
ATOM      4  O   UNL     1      54.641  28.444  60.599  1.00  0.00    -0.285 OA
ATOM      5  C   UNL     1      52.548  28.796  59.650  1.00  0.00     0.111 A 
ATOM      6  C   UNL     1      52.355  30.076  60.223  1.00  0.00     0.134 A 
ATOM      7  C   UNL     1      51.178  30.790  59.950  1.00  0.00     0.093 A 
ATOM      8  C   UNL     1      50.195  30.252  59.116  1.00  0.00     0.123 A 
ATOM      9  C   UNL     1      50.381  28.987  58.548  1.00  0.00     0.094 A 
ATOM     10  C   UNL     1      51.545  28.259  58.809  1.00  0.00     0.146 A 
ATOM     11  O   UNL     1      51.694  27.059  58.262  1.00  0.00    -0.452 OA
ENDROOT
BRANCH   1  12
ATOM     12  C   UNL     1      52.803  24.967  57.797  1.00  0.00     0.025 A 
ATOM     13  C   UNL     1      52.323  24.788  56.488  1.00  0.00     0.016 A 
ATOM     14  C   UNL     1      52.393  23.534  55.875  1.00  0.00     0.051 A 
ATOM     15  C   UNL     1      52.953  22.446  56.552  1.00  0.00     0.157 A 
ATOM     16  C   UNL     1      53.384  23.878  58.466  1.00  0.00     0.062 A 
ATOM     17  C   UNL     1      53.455  22.619  57.853  1.00  0.00     0.158 A 
BRANCH  15  18
ATOM     18  O   UNL     1      53.006  21.207  55.917  1.00  0.00    -0.504 OA
ATOM     19  H   UNL     1      53.642  20.476  56.215  1.00  0.00     0.293 HD
ENDBRANCH  15  18
BRANCH  17  20
ATOM     20  O   UNL     1      54.021  21.540  58.532  1.00  0.00    -0.504 OA
ATOM     21  H   UNL     1      53.819  21.364  59.509  1.00  0.00     0.293 HD
ENDBRANCH  17  20
ENDBRANCH   1  12
BRANCH   2  22
ATOM     22  O   UNL     1      54.978  25.993  59.421  1.00  0.00    -0.502 OA
ATOM     23  H   UNL     1      55.780  26.087  58.810  1.00  0.00     0.293 HD
ENDBRANCH   2  22
BRANCH   6  24
ATOM     24  O   UNL     1      53.318  30.642  61.059  1.00  0.00    -0.507 OA
ATOM     25  H   UNL     1      53.417  30.359  62.026  1.00  0.00     0.293 HD
ENDBRANCH   6  24
BRANCH   8  26
ATOM     26  O   UNL     1      49.038  30.982  58.859  1.00  0.00    -0.508 OA
ATOM     27  H   UNL     1      48.158  30.755  59.307  1.00  0.00     0.293 HD
ENDBRANCH   8  26
TORSDOF 6
ENDMDL
MODEL 4
REMARK VINA RESULT:    -1.746      1.751      7.082
REMARK INTER + INTRA:          -1.773
REMARK INTER:                  -1.681
REMARK INTRA:                  -0.093
REMARK UNBOUND:                 0.330
REMARK SMILES O=c1c(O)c(-c2ccc(O)c(O)c2)oc2cc(O)cc(O)c12
REMARK SMILES IDX 5 1 3 2 2 3 1 4 22 5 20 6 19 7 17 8 16 9 15 10 14 11 6 12
REMARK SMILES IDX 7 13 8 14 9 15 13 16 11 17 10 18 12 20 4 22 21 24 18 26
REMARK H PARENT 10 19 12 21 4 23 21 25 18 27
REMARK Flexibility Score: inf
ROOT
ATOM      1  C   UNL     1      52.727  26.512  57.776  1.00  0.00     0.180 A 
ATOM      2  C   UNL     1      53.664  26.285  58.804  1.00  0.00     0.208 A 
ATOM      3  C   UNL     1      54.105  24.973  59.041  1.00  0.00     0.238 A 
ATOM      4  O   UNL     1      54.951  24.759  59.950  1.00  0.00    -0.285 OA
ATOM      5  C   UNL     1      53.590  23.913  58.267  1.00  0.00     0.111 A 
ATOM      6  C   UNL     1      53.979  22.564  58.445  1.00  0.00     0.134 A 
ATOM      7  C   UNL     1      53.414  21.564  57.639  1.00  0.00     0.093 A 
ATOM      8  C   UNL     1      52.469  21.886  56.661  1.00  0.00     0.123 A 
ATOM      9  C   UNL     1      52.081  23.219  56.480  1.00  0.00     0.094 A 
ATOM     10  C   UNL     1      52.634  24.229  57.272  1.00  0.00     0.146 A 
ATOM     11  O   UNL     1      52.253  25.485  57.076  1.00  0.00    -0.452 OA
ENDROOT
BRANCH   1  12
ATOM     12  C   UNL     1      52.228  27.868  57.452  1.00  0.00     0.025 A 
ATOM     13  C   UNL     1      52.376  28.414  56.166  1.00  0.00     0.016 A 
ATOM     14  C   UNL     1      51.875  29.686  55.876  1.00  0.00     0.051 A 
ATOM     15  C   UNL     1      51.209  30.425  56.859  1.00  0.00     0.157 A 
ATOM     16  C   UNL     1      51.539  28.603  58.431  1.00  0.00     0.062 A 
ATOM     17  C   UNL     1      51.036  29.880  58.142  1.00  0.00     0.158 A 
BRANCH  15  18
ATOM     18  O   UNL     1      50.723  31.692  56.541  1.00  0.00    -0.504 OA
ATOM     19  H   UNL     1      49.771  31.971  56.749  1.00  0.00     0.293 HD
ENDBRANCH  15  18
BRANCH  17  20
ATOM     20  O   UNL     1      50.366  30.608  59.125  1.00  0.00    -0.504 OA
ATOM     21  H   UNL     1      50.861  31.236  59.748  1.00  0.00     0.293 HD
ENDBRANCH  17  20
ENDBRANCH   1  12
BRANCH   2  22
ATOM     22  O   UNL     1      54.120  27.345  59.590  1.00  0.00    -0.502 OA
ATOM     23  H   UNL     1      54.925  27.904  59.332  1.00  0.00     0.293 HD
ENDBRANCH   2  22
BRANCH   6  24
ATOM     24  O   UNL     1      54.919  22.209  59.413  1.00  0.00    -0.507 OA
ATOM     25  H   UNL     1      55.005  22.719  60.284  1.00  0.00     0.293 HD
ENDBRANCH   6  24
BRANCH   8  26
ATOM     26  O   UNL     1      51.922  20.875  55.875  1.00  0.00    -0.508 OA
ATOM     27  H   UNL     1      51.937  19.907  56.173  1.00  0.00     0.293 HD
ENDBRANCH   8  26
TORSDOF 6
ENDMDL
MODEL 5
REMARK VINA RESULT:    -0.831      2.461      6.282
REMARK INTER + INTRA:          -0.671
REMARK INTER:                  -0.889
REMARK INTRA:                   0.218
REMARK UNBOUND:                 0.330
REMARK SMILES O=c1c(O)c(-c2ccc(O)c(O)c2)oc2cc(O)cc(O)c12
REMARK SMILES IDX 5 1 3 2 2 3 1 4 22 5 20 6 19 7 17 8 16 9 15 10 14 11 6 12
REMARK SMILES IDX 7 13 8 14 9 15 13 16 11 17 10 18 12 20 4 22 21 24 18 26
REMARK H PARENT 10 19 12 21 4 23 21 25 18 27
REMARK Flexibility Score: inf
ROOT
ATOM      1  C   UNL     1      50.846  28.631  58.487  1.00  0.00     0.180 A 
ATOM      2  C   UNL     1      51.447  29.569  59.348  1.00  0.00     0.208 A 
ATOM      3  C   UNL     1      52.673  29.248  59.952  1.00  0.00     0.238 A 
ATOM      4  O   UNL     1      53.225  30.085  60.716  1.00  0.00    -0.285 OA
ATOM      5  C   UNL     1      53.264  27.993  59.703  1.00  0.00     0.111 A 
ATOM      6  C   UNL     1      54.496  27.590  60.275  1.00  0.00     0.134 A 
ATOM      7  C   UNL     1      55.015  26.320  59.984  1.00  0.00     0.093 A 
ATOM      8  C   UNL     1      54.330  25.446  59.136  1.00  0.00     0.123 A 
ATOM      9  C   UNL     1      53.113  25.839  58.568  1.00  0.00     0.094 A 
ATOM     10  C   UNL     1      52.580  27.101  58.844  1.00  0.00     0.146 A 
ATOM     11  O   UNL     1      51.427  27.451  58.287  1.00  0.00    -0.452 OA
ENDROOT
BRANCH   1  12
ATOM     12  C   UNL     1      49.563  28.903  57.798  1.00  0.00     0.025 A 
ATOM     13  C   UNL     1      49.318  28.432  56.496  1.00  0.00     0.016 A 
ATOM     14  C   UNL     1      48.091  28.680  55.875  1.00  0.00     0.051 A 
ATOM     15  C   UNL     1      47.088  29.387  56.546  1.00  0.00     0.157 A 
ATOM     16  C   UNL     1      48.547  29.594  58.477  1.00  0.00     0.062 A 
ATOM     17  C   UNL     1      47.315  29.844  57.855  1.00  0.00     0.158 A 
BRANCH  15  18
ATOM     18  O   UNL     1      45.875  29.621  55.900  1.00  0.00    -0.504 OA
ATOM     19  H   UNL     1      45.822  30.120  55.019  1.00  0.00     0.293 HD
ENDBRANCH  15  18
BRANCH  17  20
ATOM     20  O   UNL     1      46.317  30.544  58.533  1.00  0.00    -0.504 OA
ATOM     21  H   UNL     1      45.574  30.063  59.026  1.00  0.00     0.293 HD
ENDBRANCH  17  20
ENDBRANCH   1  12
BRANCH   2  22
ATOM     22  O   UNL     1      50.815  30.786  59.617  1.00  0.00    -0.502 OA
ATOM     23  H   UNL     1      50.015  30.856  60.234  1.00  0.00     0.293 HD
ENDBRANCH   2  22
BRANCH   6  24
ATOM     24  O   UNL     1      55.204  28.439  61.126  1.00  0.00    -0.507 OA
ATOM     25  H   UNL     1      55.981  28.107  61.684  1.00  0.00     0.293 HD
ENDBRANCH   6  24
BRANCH   8  26
ATOM     26  O   UNL     1      54.867  24.190  58.865  1.00  0.00    -0.508 OA
ATOM     27  H   UNL     1      55.862  24.014  58.933  1.00  0.00     0.293 HD
ENDBRANCH   8  26
TORSDOF 6
ENDMDL
MODEL 6
REMARK VINA RESULT:    -0.821      3.196      5.606
REMARK INTER + INTRA:          -0.658
REMARK INTER:                  -1.119
REMARK INTRA:                   0.461
REMARK UNBOUND:                 0.330
REMARK SMILES O=c1c(O)c(-c2ccc(O)c(O)c2)oc2cc(O)cc(O)c12
REMARK SMILES IDX 5 1 3 2 2 3 1 4 22 5 20 6 19 7 17 8 16 9 15 10 14 11 6 12
REMARK SMILES IDX 7 13 8 14 9 15 13 16 11 17 10 18 12 20 4 22 21 24 18 26
REMARK H PARENT 10 19 12 21 4 23 21 25 18 27
REMARK Flexibility Score: inf
ROOT
ATOM      1  C   UNL     1      50.903  28.506  58.567  1.00  0.00     0.180 A 
ATOM      2  C   UNL     1      50.522  27.736  57.451  1.00  0.00     0.208 A 
ATOM      3  C   UNL     1      49.245  27.928  56.900  1.00  0.00     0.238 A 
ATOM      4  O   UNL     1      48.896  27.253  55.894  1.00  0.00    -0.285 OA
ATOM      5  C   UNL     1      48.367  28.865  57.483  1.00  0.00     0.111 A 
ATOM      6  C   UNL     1      47.063  29.115  56.991  1.00  0.00     0.134 A 
ATOM      7  C   UNL     1      46.247  30.058  57.633  1.00  0.00     0.093 A 
ATOM      8  C   UNL     1      46.706  30.754  58.754  1.00  0.00     0.123 A 
ATOM      9  C   UNL     1      47.994  30.512  59.243  1.00  0.00     0.094 A 
ATOM     10  C   UNL     1      48.824  29.577  58.618  1.00  0.00     0.146 A 
ATOM     11  O   UNL     1      50.043  29.370  59.099  1.00  0.00    -0.452 OA
ENDROOT
BRANCH   1  12
ATOM     12  C   UNL     1      52.239  28.376  59.193  1.00  0.00     0.025 A 
ATOM     13  C   UNL     1      53.167  27.419  58.746  1.00  0.00     0.016 A 
ATOM     14  C   UNL     1      54.431  27.330  59.336  1.00  0.00     0.051 A 
ATOM     15  C   UNL     1      54.792  28.201  60.368  1.00  0.00     0.157 A 
ATOM     16  C   UNL     1      52.613  29.263  60.216  1.00  0.00     0.062 A 
ATOM     17  C   UNL     1      53.880  29.175  60.809  1.00  0.00     0.158 A 
BRANCH  15  18
ATOM     18  O   UNL     1      56.059  28.087  60.939  1.00  0.00    -0.504 OA
ATOM     19  H   UNL     1      56.829  27.642  60.454  1.00  0.00     0.293 HD
ENDBRANCH  15  18
BRANCH  17  20
ATOM     20  O   UNL     1      54.237  30.051  61.834  1.00  0.00    -0.504 OA
ATOM     21  H   UNL     1      55.207  30.238  62.059  1.00  0.00     0.293 HD
ENDBRANCH  17  20
ENDBRANCH   1  12
BRANCH   2  22
ATOM     22  O   UNL     1      51.391  26.779  56.923  1.00  0.00    -0.502 OA
ATOM     23  H   UNL     1      51.995  26.971  56.133  1.00  0.00     0.293 HD
ENDBRANCH   2  22
BRANCH   6  24
ATOM     24  O   UNL     1      46.574  28.435  55.875  1.00  0.00    -0.507 OA
ATOM     25  H   UNL     1      45.734  28.735  55.395  1.00  0.00     0.293 HD
ENDBRANCH   6  24
BRANCH   8  26
ATOM     26  O   UNL     1      45.875  31.684  59.373  1.00  0.00    -0.508 OA
ATOM     27  H   UNL     1      46.240  32.548  59.757  1.00  0.00     0.293 HD
ENDBRANCH   8  26
TORSDOF 6
ENDMDL
