MODEL 1
REMARK VINA RESULT:    -4.806      0.000      0.000
REMARK INTER + INTRA:         -13.595
REMARK INTER:                 -10.425
REMARK INTRA:                  -3.170
REMARK UNBOUND:                -3.170
REMARK SMILES CCCCCCCCCCCCCCCCCCCCCC(=O)[O-]
REMARK SMILES IDX 12 1 11 2 10 3 9 4 8 5 7 6 6 7 5 8 4 9 3 10 2 11 1 12 13 13
REMARK SMILES IDX 14 14 15 15 16 16 17 17 18 18 19 19 20 20 21 21 22 22 23 23
REMARK SMILES IDX 24 24
REMARK H PARENT
REMARK Flexibility Score: inf
ROOT
ATOM      1  C   UNL     1      60.796  28.606  13.737  1.00  0.00     0.000 C 
ENDROOT
BRANCH   1   2
ATOM      2  C   UNL     1      59.999  27.877  12.636  1.00  0.00     0.000 C 
BRANCH   2   3
ATOM      3  C   UNL     1      59.241  28.818  11.678  1.00  0.00     0.000 C 
BRANCH   3   4
ATOM      4  C   UNL     1      59.666  28.647  10.209  1.00  0.00    -0.000 C 
BRANCH   4   5
ATOM      5  C   UNL     1      61.064  28.017  10.084  1.00  0.00    -0.000 C 
BRANCH   5   6
ATOM      6  C   UNL     1      61.955  28.789   9.096  1.00  0.00    -0.000 C 
BRANCH   6   7
ATOM      7  C   UNL     1      63.370  29.037   9.653  1.00  0.00    -0.000 C 
BRANCH   7   8
ATOM      8  C   UNL     1      63.953  30.427   9.325  1.00  0.00    -0.000 C 
BRANCH   8   9
ATOM      9  C   UNL     1      64.843  31.052  10.422  1.00  0.00    -0.000 C 
BRANCH   9  10
ATOM     10  C   UNL     1      65.024  32.579  10.326  1.00  0.00    -0.000 C 
BRANCH  10  11
ATOM     11  C   UNL     1      65.710  33.169  11.568  1.00  0.00    -0.003 C 
ATOM     12  C   UNL     1      64.748  33.226  12.753  1.00  0.00     0.004 C 
ENDBRANCH  10  11
ENDBRANCH   9  10
ENDBRANCH   8   9
ENDBRANCH   7   8
ENDBRANCH   6   7
ENDBRANCH   5   6
ENDBRANCH   4   5
ENDBRANCH   3   4
ENDBRANCH   2   3
ENDBRANCH   1   2
BRANCH   1  13
ATOM     13  C   UNL     1      62.253  28.944  13.377  1.00  0.00     0.000 C 
BRANCH  13  14
ATOM     14  C   UNL     1      62.563  30.450  13.235  1.00  0.00     0.000 C 
BRANCH  14  15
ATOM     15  C   UNL     1      61.704  31.197  12.197  1.00  0.00     0.000 C 
BRANCH  15  16
ATOM     16  C   UNL     1      60.949  32.396  12.797  1.00  0.00     0.000 C 
BRANCH  16  17
ATOM     17  C   UNL     1      59.769  31.962  13.683  1.00  0.00     0.000 C 
BRANCH  17  18
ATOM     18  C   UNL     1      60.061  32.177  15.180  1.00  0.00     0.000 C 
BRANCH  18  19
ATOM     19  C   UNL     1      60.738  33.525  15.472  1.00  0.00     0.000 C 
BRANCH  19  20
ATOM     20  C   UNL     1      62.162  33.395  16.051  1.00  0.00     0.006 C 
BRANCH  20  21
ATOM     21  C   UNL     1      62.452  34.435  17.145  1.00  0.00     0.053 C 
BRANCH  21  22
ATOM     22  C   UNL     1      63.309  33.840  18.218  1.00  0.00     0.041 C 
ATOM     23  O   UNL     1      64.386  33.257  17.923  1.00  0.00    -0.550 OA
ATOM     24  O   UNL     1      62.894  33.885  19.543  1.00  0.00    -0.550 OA
ENDBRANCH  21  22
ENDBRANCH  20  21
ENDBRANCH  19  20
ENDBRANCH  18  19
ENDBRANCH  17  18
ENDBRANCH  16  17
ENDBRANCH  15  16
ENDBRANCH  14  15
ENDBRANCH  13  14
ENDBRANCH   1  13
TORSDOF 20
ENDMDL
MODEL 2
REMARK VINA RESULT:    -4.779      1.255      3.915
REMARK INTER + INTRA:         -13.536
REMARK INTER:                 -10.297
REMARK INTRA:                  -3.239
REMARK UNBOUND:                -3.170
REMARK SMILES CCCCCCCCCCCCCCCCCCCCCC(=O)[O-]
REMARK SMILES IDX 12 1 11 2 10 3 9 4 8 5 7 6 6 7 5 8 4 9 3 10 2 11 1 12 13 13
REMARK SMILES IDX 14 14 15 15 16 16 17 17 18 18 19 19 20 20 21 21 22 22 23 23
REMARK SMILES IDX 24 24
REMARK H PARENT
REMARK Flexibility Score: inf
ROOT
ATOM      1  C   UNL     1      63.239  28.977   9.973  1.00  0.00     0.000 C 
ENDROOT
BRANCH   1   2
ATOM      2  C   UNL     1      62.363  29.783   8.993  1.00  0.00     0.000 C 
BRANCH   2   3
ATOM      3  C   UNL     1      60.878  29.365   8.985  1.00  0.00     0.000 C 
BRANCH   3   4
ATOM      4  C   UNL     1      60.147  29.721  10.292  1.00  0.00    -0.000 C 
BRANCH   4   5
ATOM      5  C   UNL     1      59.307  28.545  10.819  1.00  0.00    -0.000 C 
BRANCH   5   6
ATOM      6  C   UNL     1      59.376  28.431  12.351  1.00  0.00    -0.000 C 
BRANCH   6   7
ATOM      7  C   UNL     1      60.822  28.295  12.865  1.00  0.00    -0.000 C 
BRANCH   7   8
ATOM      8  C   UNL     1      61.093  28.999  14.211  1.00  0.00    -0.000 C 
BRANCH   8   9
ATOM      9  C   UNL     1      61.515  30.481  14.113  1.00  0.00    -0.000 C 
BRANCH   9  10
ATOM     10  C   UNL     1      60.799  31.431  15.094  1.00  0.00    -0.000 C 
BRANCH  10  11
ATOM     11  C   UNL     1      60.042  32.557  14.373  1.00  0.00    -0.003 C 
ATOM     12  C   UNL     1      60.316  32.528  12.870  1.00  0.00     0.004 C 
ENDBRANCH  10  11
ENDBRANCH   9  10
ENDBRANCH   8   9
ENDBRANCH   7   8
ENDBRANCH   6   7
ENDBRANCH   5   6
ENDBRANCH   4   5
ENDBRANCH   3   4
ENDBRANCH   2   3
ENDBRANCH   1   2
BRANCH   1  13
ATOM     13  C   UNL     1      63.731  29.756  11.205  1.00  0.00     0.000 C 
BRANCH  13  14
ATOM     14  C   UNL     1      63.436  31.272  11.186  1.00  0.00     0.000 C 
BRANCH  14  15
ATOM     15  C   UNL     1      64.664  32.172  10.954  1.00  0.00     0.000 C 
BRANCH  15  16
ATOM     16  C   UNL     1      64.959  33.100  12.146  1.00  0.00     0.000 C 
BRANCH  16  17
ATOM     17  C   UNL     1      63.929  32.945  13.277  1.00  0.00     0.000 C 
BRANCH  17  18
ATOM     18  C   UNL     1      64.388  33.637  14.575  1.00  0.00     0.000 C 
BRANCH  18  19
ATOM     19  C   UNL     1      64.531  32.664  15.756  1.00  0.00     0.000 C 
BRANCH  19  20
ATOM     20  C   UNL     1      64.116  33.267  17.113  1.00  0.00     0.006 C 
BRANCH  20  21
ATOM     21  C   UNL     1      62.684  33.826  17.099  1.00  0.00     0.053 C 
BRANCH  21  22
ATOM     22  C   UNL     1      62.141  33.908  18.492  1.00  0.00     0.041 C 
ATOM     23  O   UNL     1      62.919  33.855  19.482  1.00  0.00    -0.550 OA
ATOM     24  O   UNL     1      60.770  33.992  18.699  1.00  0.00    -0.550 OA
ENDBRANCH  21  22
ENDBRANCH  20  21
ENDBRANCH  19  20
ENDBRANCH  18  19
ENDBRANCH  17  18
ENDBRANCH  16  17
ENDBRANCH  15  16
ENDBRANCH  14  15
ENDBRANCH  13  14
ENDBRANCH   1  13
TORSDOF 20
ENDMDL
MODEL 3
REMARK VINA RESULT:    -4.768      1.077      1.817
REMARK INTER + INTRA:         -13.513
REMARK INTER:                 -10.783
REMARK INTRA:                  -2.730
REMARK UNBOUND:                -3.170
REMARK SMILES CCCCCCCCCCCCCCCCCCCCCC(=O)[O-]
REMARK SMILES IDX 12 1 11 2 10 3 9 4 8 5 7 6 6 7 5 8 4 9 3 10 2 11 1 12 13 13
REMARK SMILES IDX 14 14 15 15 16 16 17 17 18 18 19 19 20 20 21 21 22 22 23 23
REMARK SMILES IDX 24 24
REMARK H PARENT
REMARK Flexibility Score: inf
ROOT
ATOM      1  C   UNL     1      59.680  28.416  12.458  1.00  0.00     0.000 C 
ENDROOT
BRANCH   1   2
ATOM      2  C   UNL     1      59.712  29.645  11.528  1.00  0.00     0.000 C 
BRANCH   2   3
ATOM      3  C   UNL     1      59.675  29.299  10.025  1.00  0.00     0.000 C 
BRANCH   3   4
ATOM      4  C   UNL     1      60.620  28.143   9.651  1.00  0.00    -0.000 C 
BRANCH   4   5
ATOM      5  C   UNL     1      61.857  28.638   8.883  1.00  0.00    -0.000 C 
BRANCH   5   6
ATOM      6  C   UNL     1      63.005  29.024   9.831  1.00  0.00    -0.000 C 
BRANCH   6   7
ATOM      7  C   UNL     1      64.182  29.685   9.089  1.00  0.00    -0.000 C 
BRANCH   7   8
ATOM      8  C   UNL     1      64.519  31.114   9.564  1.00  0.00    -0.000 C 
BRANCH   8   9
ATOM      9  C   UNL     1      66.012  31.386   9.848  1.00  0.00    -0.000 C 
BRANCH   9  10
ATOM     10  C   UNL     1      66.359  32.852  10.174  1.00  0.00    -0.000 C 
BRANCH  10  11
ATOM     11  C   UNL     1      65.325  33.507  11.104  1.00  0.00    -0.003 C 
ATOM     12  C   UNL     1      65.873  33.643  12.524  1.00  0.00     0.004 C 
ENDBRANCH  10  11
ENDBRANCH   9  10
ENDBRANCH   8   9
ENDBRANCH   7   8
ENDBRANCH   6   7
ENDBRANCH   5   6
ENDBRANCH   4   5
ENDBRANCH   3   4
ENDBRANCH   2   3
ENDBRANCH   1   2
BRANCH   1  13
ATOM     13  C   UNL     1      60.683  28.450  13.625  1.00  0.00     0.000 C 
BRANCH  13  14
ATOM     14  C   UNL     1      62.155  28.681  13.220  1.00  0.00     0.000 C 
BRANCH  14  15
ATOM     15  C   UNL     1      62.801  29.951  13.805  1.00  0.00     0.000 C 
BRANCH  15  16
ATOM     16  C   UNL     1      63.013  31.054  12.753  1.00  0.00     0.000 C 
BRANCH  16  17
ATOM     17  C   UNL     1      62.503  32.424  13.231  1.00  0.00     0.000 C 
BRANCH  17  18
ATOM     18  C   UNL     1      60.971  32.542  13.116  1.00  0.00     0.000 C 
BRANCH  18  19
ATOM     19  C   UNL     1      60.300  32.950  14.437  1.00  0.00     0.000 C 
BRANCH  19  20
ATOM     20  C   UNL     1      61.294  33.196  15.591  1.00  0.00     0.006 C 
BRANCH  20  21
ATOM     21  C   UNL     1      60.840  34.323  16.532  1.00  0.00     0.053 C 
BRANCH  21  22
ATOM     22  C   UNL     1      61.556  34.229  17.843  1.00  0.00     0.041 C 
ATOM     23  O   UNL     1      61.013  33.654  18.824  1.00  0.00    -0.550 OA
ATOM     24  O   UNL     1      62.803  34.821  17.998  1.00  0.00    -0.550 OA
ENDBRANCH  21  22
ENDBRANCH  20  21
ENDBRANCH  19  20
ENDBRANCH  18  19
ENDBRANCH  17  18
ENDBRANCH  16  17
ENDBRANCH  15  16
ENDBRANCH  14  15
ENDBRANCH  13  14
ENDBRANCH   1  13
TORSDOF 20
ENDMDL
MODEL 4
REMARK VINA RESULT:    -4.641      1.451      2.071
REMARK INTER + INTRA:         -13.237
REMARK INTER:                  -9.862
REMARK INTRA:                  -3.375
REMARK UNBOUND:                -3.170
REMARK SMILES CCCCCCCCCCCCCCCCCCCCCC(=O)[O-]
REMARK SMILES IDX 12 1 11 2 10 3 9 4 8 5 7 6 6 7 5 8 4 9 3 10 2 11 1 12 13 13
REMARK SMILES IDX 14 14 15 15 16 16 17 17 18 18 19 19 20 20 21 21 22 22 23 23
REMARK SMILES IDX 24 24
REMARK H PARENT
REMARK Flexibility Score: inf
ROOT
ATOM      1  C   UNL     1      59.608  28.118  12.699  1.00  0.00     0.000 C 
ENDROOT
BRANCH   1   2
ATOM      2  C   UNL     1      59.346  28.476  11.222  1.00  0.00     0.000 C 
BRANCH   2   3
ATOM      3  C   UNL     1      60.172  29.673  10.708  1.00  0.00     0.000 C 
BRANCH   3   4
ATOM      4  C   UNL     1      60.530  29.559   9.216  1.00  0.00    -0.000 C 
BRANCH   4   5
ATOM      5  C   UNL     1      61.799  28.720   8.992  1.00  0.00    -0.000 C 
BRANCH   5   6
ATOM      6  C   UNL     1      62.870  29.002  10.060  1.00  0.00    -0.000 C 
BRANCH   6   7
ATOM      7  C   UNL     1      63.912  30.033   9.588  1.00  0.00    -0.000 C 
BRANCH   7   8
ATOM      8  C   UNL     1      64.132  31.212  10.559  1.00  0.00    -0.000 C 
BRANCH   8   9
ATOM      9  C   UNL     1      63.415  31.096  11.921  1.00  0.00    -0.000 C 
BRANCH   9  10
ATOM     10  C   UNL     1      63.146  32.435  12.635  1.00  0.00    -0.000 C 
BRANCH  10  11
ATOM     11  C   UNL     1      64.160  32.718  13.754  1.00  0.00    -0.003 C 
ATOM     12  C   UNL     1      64.116  31.627  14.823  1.00  0.00     0.004 C 
ENDBRANCH  10  11
ENDBRANCH   9  10
ENDBRANCH   8   9
ENDBRANCH   7   8
ENDBRANCH   6   7
ENDBRANCH   5   6
ENDBRANCH   4   5
ENDBRANCH   3   4
ENDBRANCH   2   3
ENDBRANCH   1   2
BRANCH   1  13
ATOM     13  C   UNL     1      61.039  28.392  13.196  1.00  0.00     0.000 C 
BRANCH  13  14
ATOM     14  C   UNL     1      61.153  29.443  14.322  1.00  0.00     0.000 C 
BRANCH  14  15
ATOM     15  C   UNL     1      60.357  30.740  14.086  1.00  0.00     0.000 C 
BRANCH  15  16
ATOM     16  C   UNL     1      60.440  31.718  15.271  1.00  0.00     0.000 C 
BRANCH  16  17
ATOM     17  C   UNL     1      60.277  33.183  14.834  1.00  0.00     0.000 C 
BRANCH  17  18
ATOM     18  C   UNL     1      60.757  34.166  15.918  1.00  0.00     0.000 C 
BRANCH  18  19
ATOM     19  C   UNL     1      61.765  33.539  16.894  1.00  0.00     0.000 C 
BRANCH  19  20
ATOM     20  C   UNL     1      63.021  34.403  17.133  1.00  0.00     0.006 C 
BRANCH  20  21
ATOM     21  C   UNL     1      63.893  33.873  18.282  1.00  0.00     0.053 C 
BRANCH  21  22
ATOM     22  C   UNL     1      65.285  33.606  17.802  1.00  0.00     0.041 C 
ATOM     23  O   UNL     1      65.710  34.151  16.748  1.00  0.00    -0.550 OA
ATOM     24  O   UNL     1      66.099  32.717  18.491  1.00  0.00    -0.550 OA
ENDBRANCH  21  22
ENDBRANCH  20  21
ENDBRANCH  19  20
ENDBRANCH  18  19
ENDBRANCH  17  18
ENDBRANCH  16  17
ENDBRANCH  15  16
ENDBRANCH  14  15
ENDBRANCH  13  14
ENDBRANCH   1  13
TORSDOF 20
ENDMDL
MODEL 5
REMARK VINA RESULT:    -4.583      1.095      2.508
REMARK INTER + INTRA:         -13.111
REMARK INTER:                 -10.146
REMARK INTRA:                  -2.965
REMARK UNBOUND:                -3.170
REMARK SMILES CCCCCCCCCCCCCCCCCCCCCC(=O)[O-]
REMARK SMILES IDX 12 1 11 2 10 3 9 4 8 5 7 6 6 7 5 8 4 9 3 10 2 11 1 12 13 13
REMARK SMILES IDX 14 14 15 15 16 16 17 17 18 18 19 19 20 20 21 21 22 22 23 23
REMARK SMILES IDX 24 24
REMARK H PARENT
REMARK Flexibility Score: inf
ROOT
ATOM      1  C   UNL     1      59.602  29.173  11.014  1.00  0.00     0.000 C 
ENDROOT
BRANCH   1   2
ATOM      2  C   UNL     1      59.886  28.243   9.818  1.00  0.00     0.000 C 
BRANCH   2   3
ATOM      3  C   UNL     1      61.350  28.269   9.333  1.00  0.00     0.000 C 
BRANCH   3   4
ATOM      4  C   UNL     1      62.022  29.640   9.525  1.00  0.00    -0.000 C 
BRANCH   4   5
ATOM      5  C   UNL     1      63.510  29.503   9.893  1.00  0.00    -0.000 C 
BRANCH   5   6
ATOM      6  C   UNL     1      64.294  30.794   9.599  1.00  0.00    -0.000 C 
BRANCH   6   7
ATOM      7  C   UNL     1      64.328  31.747  10.808  1.00  0.00    -0.000 C 
BRANCH   7   8
ATOM      8  C   UNL     1      65.521  32.725  10.820  1.00  0.00    -0.000 C 
BRANCH   8   9
ATOM      9  C   UNL     1      65.627  33.631  12.067  1.00  0.00    -0.000 C 
BRANCH   9  10
ATOM     10  C   UNL     1      64.424  33.565  13.027  1.00  0.00    -0.000 C 
BRANCH  10  11
ATOM     11  C   UNL     1      64.850  33.375  14.491  1.00  0.00    -0.003 C 
ATOM     12  C   UNL     1      65.675  34.565  14.981  1.00  0.00     0.004 C 
ENDBRANCH  10  11
ENDBRANCH   9  10
ENDBRANCH   8   9
ENDBRANCH   7   8
ENDBRANCH   6   7
ENDBRANCH   5   6
ENDBRANCH   4   5
ENDBRANCH   3   4
ENDBRANCH   2   3
ENDBRANCH   1   2
BRANCH   1  13
ATOM     13  C   UNL     1      59.557  28.480  12.387  1.00  0.00     0.000 C 
BRANCH  13  14
ATOM     14  C   UNL     1      60.905  28.419  13.137  1.00  0.00     0.000 C 
BRANCH  14  15
ATOM     15  C   UNL     1      61.218  29.644  14.016  1.00  0.00     0.000 C 
BRANCH  15  16
ATOM     16  C   UNL     1      62.041  30.716  13.279  1.00  0.00     0.000 C 
BRANCH  16  17
ATOM     17  C   UNL     1      61.197  31.943  12.896  1.00  0.00     0.000 C 
BRANCH  17  18
ATOM     18  C   UNL     1      60.099  32.234  13.936  1.00  0.00     0.000 C 
BRANCH  18  19
ATOM     19  C   UNL     1      60.457  33.394  14.879  1.00  0.00     0.000 C 
BRANCH  19  20
ATOM     20  C   UNL     1      61.406  32.994  16.026  1.00  0.00     0.006 C 
BRANCH  20  21
ATOM     21  C   UNL     1      61.469  34.052  17.139  1.00  0.00     0.053 C 
BRANCH  21  22
ATOM     22  C   UNL     1      62.890  34.326  17.521  1.00  0.00     0.041 C 
ATOM     23  O   UNL     1      63.328  35.507  17.535  1.00  0.00    -0.550 OA
ATOM     24  O   UNL     1      63.746  33.272  17.814  1.00  0.00    -0.550 OA
ENDBRANCH  21  22
ENDBRANCH  20  21
ENDBRANCH  19  20
ENDBRANCH  18  19
ENDBRANCH  17  18
ENDBRANCH  16  17
ENDBRANCH  15  16
ENDBRANCH  14  15
ENDBRANCH  13  14
ENDBRANCH   1  13
TORSDOF 20
ENDMDL
MODEL 6
REMARK VINA RESULT:    -4.583      2.805      6.231
REMARK INTER + INTRA:         -13.111
REMARK INTER:                  -9.748
REMARK INTRA:                  -3.363
REMARK UNBOUND:                -3.170
REMARK SMILES CCCCCCCCCCCCCCCCCCCCCC(=O)[O-]
REMARK SMILES IDX 12 1 11 2 10 3 9 4 8 5 7 6 6 7 5 8 4 9 3 10 2 11 1 12 13 13
REMARK SMILES IDX 14 14 15 15 16 16 17 17 18 18 19 19 20 20 21 21 22 22 23 23
REMARK SMILES IDX 24 24
REMARK H PARENT
REMARK Flexibility Score: inf
ROOT
ATOM      1  C   UNL     1      61.062  32.631  13.150  1.00  0.00     0.000 C 
ENDROOT
BRANCH   1   2
ATOM      2  C   UNL     1      60.352  31.759  14.204  1.00  0.00     0.000 C 
BRANCH   2   3
ATOM      3  C   UNL     1      60.611  32.195  15.661  1.00  0.00     0.000 C 
BRANCH   3   4
ATOM      4  C   UNL     1      61.118  33.644  15.773  1.00  0.00    -0.000 C 
BRANCH   4   5
ATOM      5  C   UNL     1      62.354  33.751  16.682  1.00  0.00    -0.000 C 
BRANCH   5   6
ATOM      6  C   UNL     1      63.610  33.164  16.016  1.00  0.00    -0.000 C 
BRANCH   6   7
ATOM      7  C   UNL     1      64.104  34.023  14.837  1.00  0.00    -0.000 C 
BRANCH   7   8
ATOM      8  C   UNL     1      65.407  33.521  14.181  1.00  0.00    -0.000 C 
BRANCH   8   9
ATOM      9  C   UNL     1      65.833  34.263  12.895  1.00  0.00    -0.000 C 
BRANCH   9  10
ATOM     10  C   UNL     1      65.487  33.541  11.578  1.00  0.00    -0.000 C 
BRANCH  10  11
ATOM     11  C   UNL     1      66.714  33.346  10.675  1.00  0.00    -0.003 C 
ATOM     12  C   UNL     1      66.481  32.223   9.666  1.00  0.00     0.004 C 
ENDBRANCH  10  11
ENDBRANCH   9  10
ENDBRANCH   8   9
ENDBRANCH   7   8
ENDBRANCH   6   7
ENDBRANCH   5   6
ENDBRANCH   4   5
ENDBRANCH   3   4
ENDBRANCH   2   3
ENDBRANCH   1   2
BRANCH   1  13
ATOM     13  C   UNL     1      62.338  32.019  12.544  1.00  0.00     0.000 C 
BRANCH  13  14
ATOM     14  C   UNL     1      62.817  30.709  13.208  1.00  0.00     0.000 C 
BRANCH  14  15
ATOM     15  C   UNL     1      63.466  29.692  12.250  1.00  0.00     0.000 C 
BRANCH  15  16
ATOM     16  C   UNL     1      63.694  30.262  10.838  1.00  0.00     0.000 C 
BRANCH  16  17
ATOM     17  C   UNL     1      63.493  29.204   9.741  1.00  0.00     0.000 C 
BRANCH  17  18
ATOM     18  C   UNL     1      62.141  28.478   9.879  1.00  0.00     0.000 C 
BRANCH  18  19
ATOM     19  C   UNL     1      60.953  29.327   9.399  1.00  0.00     0.000 C 
BRANCH  19  20
ATOM     20  C   UNL     1      59.637  29.035  10.148  1.00  0.00     0.006 C 
BRANCH  20  21
ATOM     21  C   UNL     1      59.655  29.547  11.597  1.00  0.00     0.053 C 
BRANCH  21  22
ATOM     22  C   UNL     1      59.494  28.409  12.556  1.00  0.00     0.041 C 
ATOM     23  O   UNL     1      60.452  28.062  13.297  1.00  0.00    -0.550 OA
ATOM     24  O   UNL     1      58.301  27.698  12.597  1.00  0.00    -0.550 OA
ENDBRANCH  21  22
ENDBRANCH  20  21
ENDBRANCH  19  20
ENDBRANCH  18  19
ENDBRANCH  17  18
ENDBRANCH  16  17
ENDBRANCH  15  16
ENDBRANCH  14  15
ENDBRANCH  13  14
ENDBRANCH   1  13
TORSDOF 20
ENDMDL
MODEL 7
REMARK VINA RESULT:    -4.510      1.284      4.067
REMARK INTER + INTRA:         -12.953
REMARK INTER:                  -9.767
REMARK INTRA:                  -3.186
REMARK UNBOUND:                -3.170
REMARK SMILES CCCCCCCCCCCCCCCCCCCCCC(=O)[O-]
REMARK SMILES IDX 12 1 11 2 10 3 9 4 8 5 7 6 6 7 5 8 4 9 3 10 2 11 1 12 13 13
REMARK SMILES IDX 14 14 15 15 16 16 17 17 18 18 19 19 20 20 21 21 22 22 23 23
REMARK SMILES IDX 24 24
REMARK H PARENT
REMARK Flexibility Score: inf
ROOT
ATOM      1  C   UNL     1      62.111  28.643   9.532  1.00  0.00     0.000 C 
ENDROOT
BRANCH   1   2
ATOM      2  C   UNL     1      60.713  28.771   8.895  1.00  0.00     0.000 C 
BRANCH   2   3
ATOM      3  C   UNL     1      59.594  29.127   9.896  1.00  0.00     0.000 C 
BRANCH   3   4
ATOM      4  C   UNL     1      60.134  29.577  11.264  1.00  0.00    -0.000 C 
BRANCH   4   5
ATOM      5  C   UNL     1      59.771  28.583  12.380  1.00  0.00    -0.000 C 
BRANCH   5   6
ATOM      6  C   UNL     1      60.882  28.478  13.439  1.00  0.00    -0.000 C 
BRANCH   6   7
ATOM      7  C   UNL     1      62.130  29.298  13.064  1.00  0.00    -0.000 C 
BRANCH   7   8
ATOM      8  C   UNL     1      62.774  30.061  14.240  1.00  0.00    -0.000 C 
BRANCH   8   9
ATOM      9  C   UNL     1      61.937  31.223  14.817  1.00  0.00    -0.000 C 
BRANCH   9  10
ATOM     10  C   UNL     1      61.698  32.400  13.850  1.00  0.00    -0.000 C 
BRANCH  10  11
ATOM     11  C   UNL     1      60.274  32.968  13.957  1.00  0.00    -0.003 C 
ATOM     12  C   UNL     1      59.245  31.847  14.100  1.00  0.00     0.004 C 
ENDBRANCH  10  11
ENDBRANCH   9  10
ENDBRANCH   8   9
ENDBRANCH   7   8
ENDBRANCH   6   7
ENDBRANCH   5   6
ENDBRANCH   4   5
ENDBRANCH   3   4
ENDBRANCH   2   3
ENDBRANCH   1   2
BRANCH   1  13
ATOM     13  C   UNL     1      63.120  29.731   9.125  1.00  0.00     0.000 C 
BRANCH  13  14
ATOM     14  C   UNL     1      64.053  30.218  10.254  1.00  0.00     0.000 C 
BRANCH  14  15
ATOM     15  C   UNL     1      64.289  31.740  10.293  1.00  0.00     0.000 C 
BRANCH  15  16
ATOM     16  C   UNL     1      64.434  32.287  11.725  1.00  0.00     0.000 C 
BRANCH  16  17
ATOM     17  C   UNL     1      65.450  33.438  11.812  1.00  0.00     0.000 C 
BRANCH  17  18
ATOM     18  C   UNL     1      65.222  34.316  13.057  1.00  0.00     0.000 C 
BRANCH  18  19
ATOM     19  C   UNL     1      65.319  33.528  14.373  1.00  0.00     0.000 C 
BRANCH  19  20
ATOM     20  C   UNL     1      64.486  34.131  15.523  1.00  0.00     0.006 C 
BRANCH  20  21
ATOM     21  C   UNL     1      64.181  33.110  16.630  1.00  0.00     0.053 C 
BRANCH  21  22
ATOM     22  C   UNL     1      63.211  33.682  17.616  1.00  0.00     0.041 C 
ATOM     23  O   UNL     1      61.971  33.565  17.430  1.00  0.00    -0.550 OA
ATOM     24  O   UNL     1      63.676  34.390  18.718  1.00  0.00    -0.550 OA
ENDBRANCH  21  22
ENDBRANCH  20  21
ENDBRANCH  19  20
ENDBRANCH  18  19
ENDBRANCH  17  18
ENDBRANCH  16  17
ENDBRANCH  15  16
ENDBRANCH  14  15
ENDBRANCH  13  14
ENDBRANCH   1  13
TORSDOF 20
ENDMDL
MODEL 8
REMARK VINA RESULT:    -4.472      1.460      5.182
REMARK INTER + INTRA:         -12.870
REMARK INTER:                 -10.134
REMARK INTRA:                  -2.735
REMARK UNBOUND:                -3.170
REMARK SMILES CCCCCCCCCCCCCCCCCCCCCC(=O)[O-]
REMARK SMILES IDX 12 1 11 2 10 3 9 4 8 5 7 6 6 7 5 8 4 9 3 10 2 11 1 12 13 13
REMARK SMILES IDX 14 14 15 15 16 16 17 17 18 18 19 19 20 20 21 21 22 22 23 23
REMARK SMILES IDX 24 24
REMARK H PARENT
REMARK Flexibility Score: inf
ROOT
ATOM      1  C   UNL     1      60.681  28.268  10.746  1.00  0.00     0.000 C 
ENDROOT
BRANCH   1   2
ATOM      2  C   UNL     1      60.014  28.615  12.093  1.00  0.00     0.000 C 
BRANCH   2   3
ATOM      3  C   UNL     1      60.883  28.296  13.327  1.00  0.00     0.000 C 
BRANCH   3   4
ATOM      4  C   UNL     1      61.252  29.549  14.141  1.00  0.00    -0.000 C 
BRANCH   4   5
ATOM      5  C   UNL     1      62.045  30.566  13.303  1.00  0.00    -0.000 C 
BRANCH   5   6
ATOM      6  C   UNL     1      61.142  31.681  12.749  1.00  0.00    -0.000 C 
BRANCH   6   7
ATOM      7  C   UNL     1      60.020  32.071  13.730  1.00  0.00    -0.000 C 
BRANCH   7   8
ATOM      8  C   UNL     1      60.358  33.264  14.648  1.00  0.00    -0.000 C 
BRANCH   8   9
ATOM      9  C   UNL     1      61.042  32.903  15.985  1.00  0.00    -0.000 C 
BRANCH   9  10
ATOM     10  C   UNL     1      62.069  33.934  16.492  1.00  0.00    -0.000 C 
BRANCH  10  11
ATOM     11  C   UNL     1      62.326  33.813  18.002  1.00  0.00    -0.003 C 
ATOM     12  C   UNL     1      61.012  33.799  18.783  1.00  0.00     0.004 C 
ENDBRANCH  10  11
ENDBRANCH   9  10
ENDBRANCH   8   9
ENDBRANCH   7   8
ENDBRANCH   6   7
ENDBRANCH   5   6
ENDBRANCH   4   5
ENDBRANCH   3   4
ENDBRANCH   2   3
ENDBRANCH   1   2
BRANCH   1  13
ATOM     13  C   UNL     1      60.645  29.386   9.690  1.00  0.00     0.000 C 
BRANCH  13  14
ATOM     14  C   UNL     1      61.962  29.596   8.911  1.00  0.00     0.000 C 
BRANCH  14  15
ATOM     15  C   UNL     1      63.207  28.952   9.550  1.00  0.00     0.000 C 
BRANCH  15  16
ATOM     16  C   UNL     1      64.110  29.974  10.263  1.00  0.00     0.000 C 
BRANCH  16  17
ATOM     17  C   UNL     1      64.479  31.161   9.358  1.00  0.00     0.000 C 
BRANCH  17  18
ATOM     18  C   UNL     1      65.032  32.352  10.164  1.00  0.00     0.000 C 
BRANCH  18  19
ATOM     19  C   UNL     1      64.447  32.440  11.583  1.00  0.00     0.000 C 
BRANCH  19  20
ATOM     20  C   UNL     1      65.181  33.440  12.498  1.00  0.00     0.006 C 
BRANCH  20  21
ATOM     21  C   UNL     1      64.474  33.635  13.849  1.00  0.00     0.053 C 
BRANCH  21  22
ATOM     22  C   UNL     1      65.163  32.845  14.918  1.00  0.00     0.041 C 
ATOM     23  O   UNL     1      66.273  33.228  15.376  1.00  0.00    -0.550 OA
ATOM     24  O   UNL     1      64.604  31.659  15.376  1.00  0.00    -0.550 OA
ENDBRANCH  21  22
ENDBRANCH  20  21
ENDBRANCH  19  20
ENDBRANCH  18  19
ENDBRANCH  17  18
ENDBRANCH  16  17
ENDBRANCH  15  16
ENDBRANCH  14  15
ENDBRANCH  13  14
ENDBRANCH   1  13
TORSDOF 20
ENDMDL
MODEL 9
REMARK VINA RESULT:    -4.437      1.065      4.247
REMARK INTER + INTRA:         -12.795
REMARK INTER:                  -9.970
REMARK INTRA:                  -2.825
REMARK UNBOUND:                -3.170
REMARK SMILES CCCCCCCCCCCCCCCCCCCCCC(=O)[O-]
REMARK SMILES IDX 12 1 11 2 10 3 9 4 8 5 7 6 6 7 5 8 4 9 3 10 2 11 1 12 13 13
REMARK SMILES IDX 14 14 15 15 16 16 17 17 18 18 19 19 20 20 21 21 22 22 23 23
REMARK SMILES IDX 24 24
REMARK H PARENT
REMARK Flexibility Score: inf
ROOT
ATOM      1  C   UNL     1      64.401  32.949  13.779  1.00  0.00     0.000 C 
ENDROOT
BRANCH   1   2
ATOM      2  C   UNL     1      64.309  32.692  12.262  1.00  0.00     0.000 C 
BRANCH   2   3
ATOM      3  C   UNL     1      65.355  33.462  11.428  1.00  0.00     0.000 C 
BRANCH   3   4
ATOM      4  C   UNL     1      66.118  32.560  10.442  1.00  0.00    -0.000 C 
BRANCH   4   5
ATOM      5  C   UNL     1      65.194  31.986   9.355  1.00  0.00    -0.000 C 
BRANCH   5   6
ATOM      6  C   UNL     1      65.430  30.482   9.135  1.00  0.00    -0.000 C 
BRANCH   6   7
ATOM      7  C   UNL     1      64.113  29.689   9.042  1.00  0.00    -0.000 C 
BRANCH   7   8
ATOM      8  C   UNL     1      63.205  29.808  10.283  1.00  0.00    -0.000 C 
BRANCH   8   9
ATOM      9  C   UNL     1      62.229  28.632  10.509  1.00  0.00    -0.000 C 
BRANCH   9  10
ATOM     10  C   UNL     1      61.046  28.566   9.523  1.00  0.00    -0.000 C 
BRANCH  10  11
ATOM     11  C   UNL     1      59.783  29.246  10.075  1.00  0.00    -0.003 C 
ATOM     12  C   UNL     1      59.215  28.467  11.260  1.00  0.00     0.004 C 
ENDBRANCH  10  11
ENDBRANCH   9  10
ENDBRANCH   8   9
ENDBRANCH   7   8
ENDBRANCH   6   7
ENDBRANCH   5   6
ENDBRANCH   4   5
ENDBRANCH   3   4
ENDBRANCH   2   3
ENDBRANCH   1   2
BRANCH   1  13
ATOM     13  C   UNL     1      63.961  31.774  14.670  1.00  0.00     0.000 C 
BRANCH  13  14
ATOM     14  C   UNL     1      63.368  30.563  13.917  1.00  0.00     0.000 C 
BRANCH  14  15
ATOM     15  C   UNL     1      61.940  30.168  14.339  1.00  0.00     0.000 C 
BRANCH  15  16
ATOM     16  C   UNL     1      60.868  30.637  13.338  1.00  0.00     0.000 C 
BRANCH  16  17
ATOM     17  C   UNL     1      59.943  31.712  13.932  1.00  0.00     0.000 C 
BRANCH  17  18
ATOM     18  C   UNL     1      60.597  33.107  13.919  1.00  0.00     0.000 C 
BRANCH  18  19
ATOM     19  C   UNL     1      60.417  33.866  15.243  1.00  0.00     0.000 C 
BRANCH  19  20
ATOM     20  C   UNL     1      61.278  33.315  16.398  1.00  0.00     0.006 C 
BRANCH  20  21
ATOM     21  C   UNL     1      61.980  34.427  17.194  1.00  0.00     0.053 C 
BRANCH  21  22
ATOM     22  C   UNL     1      62.800  33.840  18.300  1.00  0.00     0.041 C 
ATOM     23  O   UNL     1      62.334  33.769  19.469  1.00  0.00    -0.550 OA
ATOM     24  O   UNL     1      64.099  33.415  18.053  1.00  0.00    -0.550 OA
ENDBRANCH  21  22
ENDBRANCH  20  21
ENDBRANCH  19  20
ENDBRANCH  18  19
ENDBRANCH  17  18
ENDBRANCH  16  17
ENDBRANCH  15  16
ENDBRANCH  14  15
ENDBRANCH  13  14
ENDBRANCH   1  13
TORSDOF 20
ENDMDL
