MODEL 1
REMARK VINA RESULT:    -6.653      0.000      0.000
REMARK INTER + INTRA:          -7.946
REMARK INTER:                  -7.820
REMARK INTRA:                  -0.126
REMARK UNBOUND:                -0.126
REMARK SMILES O=C([O-])C=Cc1ccc(O)c(O)c1
REMARK SMILES IDX 6 1 13 2 7 3 11 4 8 5 9 6 5 7 4 8 2 9 1 10 3 11 12 12 10 14
REMARK H PARENT 12 13 10 15
REMARK Flexibility Score: inf
ROOT
ATOM      1  C   UNL     1     -20.914 -22.761 -44.701  1.00  0.00    -0.022 A 
ATOM      2  C   UNL     1     -21.611 -23.974 -44.814  1.00  0.00     0.058 A 
ATOM      3  C   UNL     1     -20.999 -22.040 -43.496  1.00  0.00     0.012 A 
ATOM      4  C   UNL     1     -22.403 -24.455 -43.764  1.00  0.00     0.157 A 
ATOM      5  C   UNL     1     -21.787 -22.513 -42.445  1.00  0.00     0.051 A 
ATOM      6  C   UNL     1     -22.495 -23.713 -42.564  1.00  0.00     0.157 A 
ENDROOT
BRANCH   1   7
ATOM      7  C   UNL     1     -20.083 -22.309 -45.845  1.00  0.00     0.010 C 
ATOM      8  C   UNL     1     -18.922 -22.880 -46.195  1.00  0.00     0.025 C 
BRANCH   8   9
ATOM      9  C   UNL     1     -18.119 -22.395 -47.331  1.00  0.00     0.064 C 
ATOM     10  O   UNL     1     -18.567 -22.427 -48.507  1.00  0.00    -0.545 OA
ATOM     11  O   UNL     1     -16.844 -21.896 -47.099  1.00  0.00    -0.545 OA
ENDBRANCH   8   9
ENDBRANCH   1   7
BRANCH   4  12
ATOM     12  O   UNL     1     -23.075 -25.665 -43.955  1.00  0.00    -0.504 OA
ATOM     13  H   UNL     1     -24.076 -25.772 -43.883  1.00  0.00     0.293 HD
ENDBRANCH   4  12
BRANCH   6  14
ATOM     14  O   UNL     1     -23.266 -24.127 -41.476  1.00  0.00    -0.504 OA
ATOM     15  H   UNL     1     -23.056 -24.937 -40.912  1.00  0.00     0.293 HD
ENDBRANCH   6  14
TORSDOF 4
ENDMDL
MODEL 2
REMARK VINA RESULT:    -6.488      0.781      1.847
REMARK INTER + INTRA:          -7.752
REMARK INTER:                  -7.622
REMARK INTRA:                  -0.130
REMARK UNBOUND:                -0.126
REMARK SMILES O=C([O-])C=Cc1ccc(O)c(O)c1
REMARK SMILES IDX 6 1 13 2 7 3 11 4 8 5 9 6 5 7 4 8 2 9 1 10 3 11 12 12 10 14
REMARK H PARENT 12 13 10 15
REMARK Flexibility Score: inf
ROOT
ATOM      1  C   UNL     1     -20.911 -23.054 -44.938  1.00  0.00    -0.022 A 
ATOM      2  C   UNL     1     -21.292 -22.276 -43.834  1.00  0.00     0.058 A 
ATOM      3  C   UNL     1     -21.422 -24.360 -45.056  1.00  0.00     0.012 A 
ATOM      4  C   UNL     1     -22.143 -22.787 -42.846  1.00  0.00     0.157 A 
ATOM      5  C   UNL     1     -22.272 -24.876 -44.075  1.00  0.00     0.051 A 
ATOM      6  C   UNL     1     -22.638 -24.107 -42.966  1.00  0.00     0.157 A 
ENDROOT
BRANCH   1   7
ATOM      7  C   UNL     1     -20.014 -22.453 -45.956  1.00  0.00     0.010 C 
ATOM      8  C   UNL     1     -18.862 -23.009 -46.356  1.00  0.00     0.025 C 
BRANCH   8   9
ATOM      9  C   UNL     1     -17.992 -22.376 -47.362  1.00  0.00     0.064 C 
ATOM     10  O   UNL     1     -18.355 -22.267 -48.563  1.00  0.00    -0.545 OA
ATOM     11  O   UNL     1     -16.748 -21.893 -46.979  1.00  0.00    -0.545 OA
ENDBRANCH   8   9
ENDBRANCH   1   7
BRANCH   4  12
ATOM     12  O   UNL     1     -22.469 -21.956 -41.771  1.00  0.00    -0.504 OA
ATOM     13  H   UNL     1     -21.928 -21.894 -40.921  1.00  0.00     0.293 HD
ENDBRANCH   4  12
BRANCH   6  14
ATOM     14  O   UNL     1     -23.487 -24.685 -42.021  1.00  0.00    -0.504 OA
ATOM     15  H   UNL     1     -24.482 -24.517 -41.979  1.00  0.00     0.293 HD
ENDBRANCH   6  14
TORSDOF 4
ENDMDL
MODEL 3
REMARK VINA RESULT:    -6.378      0.236      0.236
REMARK INTER + INTRA:          -7.623
REMARK INTER:                  -7.496
REMARK INTRA:                  -0.127
REMARK UNBOUND:                -0.126
REMARK SMILES O=C([O-])C=Cc1ccc(O)c(O)c1
REMARK SMILES IDX 6 1 13 2 7 3 11 4 8 5 9 6 5 7 4 8 2 9 1 10 3 11 12 12 10 14
REMARK H PARENT 12 13 10 15
REMARK Flexibility Score: inf
ROOT
ATOM      1  C   UNL     1     -21.101 -22.949 -44.713  1.00  0.00    -0.022 A 
ATOM      2  C   UNL     1     -21.868 -24.123 -44.758  1.00  0.00     0.058 A 
ATOM      3  C   UNL     1     -21.097 -22.188 -43.530  1.00  0.00     0.012 A 
ATOM      4  C   UNL     1     -22.641 -24.527 -43.663  1.00  0.00     0.157 A 
ATOM      5  C   UNL     1     -21.865 -22.584 -42.433  1.00  0.00     0.051 A 
ATOM      6  C   UNL     1     -22.642 -23.744 -42.484  1.00  0.00     0.157 A 
ENDROOT
BRANCH   1   7
ATOM      7  C   UNL     1     -20.295 -22.580 -45.902  1.00  0.00     0.010 C 
ATOM      8  C   UNL     1     -18.976 -22.802 -46.008  1.00  0.00     0.025 C 
BRANCH   8   9
ATOM      9  C   UNL     1     -18.207 -22.410 -47.202  1.00  0.00     0.064 C 
ATOM     10  O   UNL     1     -18.677 -22.564 -48.360  1.00  0.00    -0.545 OA
ATOM     11  O   UNL     1     -16.941 -21.863 -47.046  1.00  0.00    -0.545 OA
ENDBRANCH   8   9
ENDBRANCH   1   7
BRANCH   4  12
ATOM     12  O   UNL     1     -23.387 -25.702 -43.787  1.00  0.00    -0.504 OA
ATOM     13  H   UNL     1     -24.024 -25.889 -44.547  1.00  0.00     0.293 HD
ENDBRANCH   4  12
BRANCH   6  14
ATOM     14  O   UNL     1     -23.390 -24.081 -41.354  1.00  0.00    -0.504 OA
ATOM     15  H   UNL     1     -24.336 -24.431 -41.387  1.00  0.00     0.293 HD
ENDBRANCH   6  14
TORSDOF 4
ENDMDL
MODEL 4
REMARK VINA RESULT:    -4.944      2.572      6.162
REMARK INTER + INTRA:          -5.937
REMARK INTER:                  -5.802
REMARK INTRA:                  -0.135
REMARK UNBOUND:                -0.126
REMARK SMILES O=C([O-])C=Cc1ccc(O)c(O)c1
REMARK SMILES IDX 6 1 13 2 7 3 11 4 8 5 9 6 5 7 4 8 2 9 1 10 3 11 12 12 10 14
REMARK H PARENT 12 13 10 15
REMARK Flexibility Score: inf
ROOT
ATOM      1  C   UNL     1     -22.336 -23.696 -42.744  1.00  0.00    -0.022 A 
ATOM      2  C   UNL     1     -22.812 -23.941 -44.041  1.00  0.00     0.058 A 
ATOM      3  C   UNL     1     -21.466 -22.611 -42.535  1.00  0.00     0.012 A 
ATOM      4  C   UNL     1     -22.415 -23.144 -45.121  1.00  0.00     0.157 A 
ATOM      5  C   UNL     1     -21.065 -21.811 -43.607  1.00  0.00     0.051 A 
ATOM      6  C   UNL     1     -21.527 -22.065 -44.902  1.00  0.00     0.157 A 
ENDROOT
BRANCH   1   7
ATOM      7  C   UNL     1     -22.802 -24.570 -41.638  1.00  0.00     0.010 C 
ATOM      8  C   UNL     1     -23.461 -25.722 -41.826  1.00  0.00     0.025 C 
BRANCH   8   9
ATOM      9  C   UNL     1     -23.918 -26.558 -40.702  1.00  0.00     0.064 C 
ATOM     10  O   UNL     1     -24.125 -26.062 -39.563  1.00  0.00    -0.545 OA
ATOM     11  O   UNL     1     -24.121 -27.916 -40.902  1.00  0.00    -0.545 OA
ENDBRANCH   8   9
ENDBRANCH   1   7
BRANCH   4  12
ATOM     12  O   UNL     1     -22.923 -23.456 -46.384  1.00  0.00    -0.504 OA
ATOM     13  H   UNL     1     -22.497 -24.116 -47.017  1.00  0.00     0.293 HD
ENDBRANCH   4  12
BRANCH   6  14
ATOM     14  O   UNL     1     -21.084 -21.230 -45.929  1.00  0.00    -0.504 OA
ATOM     15  H   UNL     1     -20.481 -21.531 -46.681  1.00  0.00     0.293 HD
ENDBRANCH   6  14
TORSDOF 4
ENDMDL
MODEL 5
REMARK VINA RESULT:    -4.383      2.156      6.041
REMARK INTER + INTRA:          -5.278
REMARK INTER:                  -5.143
REMARK INTRA:                  -0.134
REMARK UNBOUND:                -0.126
REMARK SMILES O=C([O-])C=Cc1ccc(O)c(O)c1
REMARK SMILES IDX 6 1 13 2 7 3 11 4 8 5 9 6 5 7 4 8 2 9 1 10 3 11 12 12 10 14
REMARK H PARENT 12 13 10 15
REMARK Flexibility Score: inf
ROOT
ATOM      1  C   UNL     1     -22.039 -23.460 -43.033  1.00  0.00    -0.022 A 
ATOM      2  C   UNL     1     -21.460 -24.212 -44.066  1.00  0.00     0.058 A 
ATOM      3  C   UNL     1     -21.991 -22.056 -43.107  1.00  0.00     0.012 A 
ATOM      4  C   UNL     1     -20.818 -23.589 -45.144  1.00  0.00     0.157 A 
ATOM      5  C   UNL     1     -21.352 -21.427 -44.179  1.00  0.00     0.051 A 
ATOM      6  C   UNL     1     -20.760 -22.177 -45.199  1.00  0.00     0.157 A 
ENDROOT
BRANCH   1   7
ATOM      7  C   UNL     1     -22.714 -24.177 -41.923  1.00  0.00     0.010 C 
ATOM      8  C   UNL     1     -23.143 -25.445 -42.006  1.00  0.00     0.025 C 
BRANCH   8   9
ATOM      9  C   UNL     1     -23.820 -26.120 -40.885  1.00  0.00     0.064 C 
ATOM     10  O   UNL     1     -24.125 -25.495 -39.836  1.00  0.00    -0.545 OA
ATOM     11  O   UNL     1     -24.125 -27.471 -40.989  1.00  0.00    -0.545 OA
ENDBRANCH   8   9
ENDBRANCH   1   7
BRANCH   4  12
ATOM     12  O   UNL     1     -20.255 -24.405 -46.128  1.00  0.00    -0.504 OA
ATOM     13  H   UNL     1     -19.311 -24.759 -46.097  1.00  0.00     0.293 HD
ENDBRANCH   4  12
BRANCH   6  14
ATOM     14  O   UNL     1     -20.135 -21.486 -46.239  1.00  0.00    -0.504 OA
ATOM     15  H   UNL     1     -19.808 -21.922 -47.089  1.00  0.00     0.293 HD
ENDBRANCH   6  14
TORSDOF 4
ENDMDL
MODEL 6
REMARK VINA RESULT:    -4.198      1.670      2.253
REMARK INTER + INTRA:          -5.060
REMARK INTER:                  -4.930
REMARK INTRA:                  -0.130
REMARK UNBOUND:                -0.126
REMARK SMILES O=C([O-])C=Cc1ccc(O)c(O)c1
REMARK SMILES IDX 6 1 13 2 7 3 11 4 8 5 9 6 5 7 4 8 2 9 1 10 3 11 12 12 10 14
REMARK H PARENT 12 13 10 15
REMARK Flexibility Score: inf
ROOT
ATOM      1  C   UNL     1     -22.171 -23.697 -43.278  1.00  0.00    -0.022 A 
ATOM      2  C   UNL     1     -22.823 -24.834 -43.781  1.00  0.00     0.058 A 
ATOM      3  C   UNL     1     -22.166 -23.478 -41.889  1.00  0.00     0.012 A 
ATOM      4  C   UNL     1     -23.483 -25.727 -42.928  1.00  0.00     0.157 A 
ATOM      5  C   UNL     1     -22.822 -24.364 -41.031  1.00  0.00     0.051 A 
ATOM      6  C   UNL     1     -23.486 -25.487 -41.534  1.00  0.00     0.157 A 
ENDROOT
BRANCH   1   7
ATOM      7  C   UNL     1     -21.481 -22.794 -44.232  1.00  0.00     0.010 C 
ATOM      8  C   UNL     1     -20.677 -23.222 -45.216  1.00  0.00     0.025 C 
BRANCH   8   9
ATOM      9  C   UNL     1     -19.999 -22.293 -46.137  1.00  0.00     0.064 C 
ATOM     10  O   UNL     1     -20.501 -21.173 -46.420  1.00  0.00    -0.545 OA
ATOM     11  O   UNL     1     -18.787 -22.660 -46.704  1.00  0.00    -0.545 OA
ENDBRANCH   8   9
ENDBRANCH   1   7
BRANCH   4  12
ATOM     12  O   UNL     1     -24.118 -26.830 -43.503  1.00  0.00    -0.504 OA
ATOM     13  H   UNL     1     -24.978 -27.230 -43.158  1.00  0.00     0.293 HD
ENDBRANCH   4  12
BRANCH   6  14
ATOM     14  O   UNL     1     -24.125 -26.330 -40.623  1.00  0.00    -0.504 OA
ATOM     15  H   UNL     1     -24.393 -27.282 -40.827  1.00  0.00     0.293 HD
ENDBRANCH   6  14
TORSDOF 4
ENDMDL
MODEL 7
REMARK VINA RESULT:    -3.692      1.871      5.984
REMARK INTER + INTRA:          -4.465
REMARK INTER:                  -4.332
REMARK INTRA:                  -0.133
REMARK UNBOUND:                -0.126
REMARK SMILES O=C([O-])C=Cc1ccc(O)c(O)c1
REMARK SMILES IDX 6 1 13 2 7 3 11 4 8 5 9 6 5 7 4 8 2 9 1 10 3 11 12 12 10 14
REMARK H PARENT 12 13 10 15
REMARK Flexibility Score: inf
ROOT
ATOM      1  C   UNL     1     -21.857 -23.697 -44.511  1.00  0.00    -0.022 A 
ATOM      2  C   UNL     1     -22.081 -22.341 -44.796  1.00  0.00     0.058 A 
ATOM      3  C   UNL     1     -20.713 -24.321 -45.041  1.00  0.00     0.012 A 
ATOM      4  C   UNL     1     -21.203 -21.618 -45.614  1.00  0.00     0.157 A 
ATOM      5  C   UNL     1     -19.833 -23.607 -45.857  1.00  0.00     0.051 A 
ATOM      6  C   UNL     1     -20.065 -22.261 -46.155  1.00  0.00     0.157 A 
ENDROOT
BRANCH   1   7
ATOM      7  C   UNL     1     -22.817 -24.406 -43.630  1.00  0.00     0.010 C 
ATOM      8  C   UNL     1     -22.486 -24.951 -42.450  1.00  0.00     0.025 C 
BRANCH   8   9
ATOM      9  C   UNL     1     -23.465 -25.658 -41.608  1.00  0.00     0.064 C 
ATOM     10  O   UNL     1     -24.125 -26.634 -42.054  1.00  0.00    -0.545 OA
ATOM     11  O   UNL     1     -23.666 -25.239 -40.300  1.00  0.00    -0.545 OA
ENDBRANCH   8   9
ENDBRANCH   1   7
BRANCH   4  12
ATOM     12  O   UNL     1     -21.498 -20.275 -45.861  1.00  0.00    -0.504 OA
ATOM     13  H   UNL     1     -21.979 -19.944 -46.684  1.00  0.00     0.293 HD
ENDBRANCH   4  12
BRANCH   6  14
ATOM     14  O   UNL     1     -19.148 -21.606 -46.980  1.00  0.00    -0.504 OA
ATOM     15  H   UNL     1     -18.147 -21.716 -46.909  1.00  0.00     0.293 HD
ENDBRANCH   6  14
TORSDOF 4
ENDMDL
