MODEL 1
REMARK VINA RESULT:    -3.651      0.000      0.000
REMARK INTER + INTRA:         -11.150
REMARK INTER:                  -7.920
REMARK INTRA:                  -3.229
REMARK UNBOUND:                -3.229
REMARK SMILES CCCCCCCCCCCCCCCCCCCCCC(=O)[O-]
REMARK SMILES IDX 12 1 11 2 10 3 9 4 8 5 7 6 6 7 5 8 4 9 3 10 2 11 1 12 13 13
REMARK SMILES IDX 14 14 15 15 16 16 17 17 18 18 19 19 20 20 21 21 22 22 23 23
REMARK SMILES IDX 24 24
REMARK H PARENT
REMARK Flexibility Score: inf
ROOT
ATOM      1  C   UNL     1      25.253   8.443  22.759  1.00  0.00     0.000 C 
ENDROOT
BRANCH   1   2
ATOM      2  C   UNL     1      24.816   6.995  23.036  1.00  0.00     0.000 C 
BRANCH   2   3
ATOM      3  C   UNL     1      25.368   6.462  24.369  1.00  0.00     0.000 C 
BRANCH   3   4
ATOM      4  C   UNL     1      26.687   5.690  24.203  1.00  0.00    -0.000 C 
BRANCH   4   5
ATOM      5  C   UNL     1      27.761   6.125  25.212  1.00  0.00    -0.000 C 
BRANCH   5   6
ATOM      6  C   UNL     1      27.830   7.654  25.319  1.00  0.00    -0.000 C 
BRANCH   6   7
ATOM      7  C   UNL     1      28.964   8.138  26.238  1.00  0.00    -0.000 C 
BRANCH   7   8
ATOM      8  C   UNL     1      28.748   7.785  27.725  1.00  0.00    -0.000 C 
BRANCH   8   9
ATOM      9  C   UNL     1      29.356   8.838  28.668  1.00  0.00    -0.000 C 
BRANCH   9  10
ATOM     10  C   UNL     1      29.142  10.277  28.153  1.00  0.00    -0.000 C 
BRANCH  10  11
ATOM     11  C   UNL     1      29.525  11.361  29.174  1.00  0.00    -0.003 C 
ATOM     12  C   UNL     1      30.567  10.889  30.186  1.00  0.00     0.004 C 
ENDBRANCH  10  11
ENDBRANCH   9  10
ENDBRANCH   8   9
ENDBRANCH   7   8
ENDBRANCH   6   7
ENDBRANCH   5   6
ENDBRANCH   4   5
ENDBRANCH   3   4
ENDBRANCH   2   3
ENDBRANCH   1   2
BRANCH   1  13
ATOM     13  C   UNL     1      24.315   9.476  23.410  1.00  0.00     0.000 C 
BRANCH  13  14
ATOM     14  C   UNL     1      24.887  10.047  24.724  1.00  0.00     0.000 C 
BRANCH  14  15
ATOM     15  C   UNL     1      23.876  10.075  25.886  1.00  0.00     0.000 C 
BRANCH  15  16
ATOM     16  C   UNL     1      23.944   8.870  26.841  1.00  0.00     0.000 C 
BRANCH  16  17
ATOM     17  C   UNL     1      25.285   8.697  27.581  1.00  0.00     0.000 C 
BRANCH  17  18
ATOM     18  C   UNL     1      25.249   7.568  28.626  1.00  0.00     0.000 C 
BRANCH  18  19
ATOM     19  C   UNL     1      24.926   6.199  28.005  1.00  0.00     0.000 C 
BRANCH  19  20
ATOM     20  C   UNL     1      25.538   5.031  28.799  1.00  0.00     0.006 C 
BRANCH  20  21
ATOM     21  C   UNL     1      26.913   4.621  28.253  1.00  0.00     0.053 C 
BRANCH  21  22
ATOM     22  C   UNL     1      26.949   3.174  27.866  1.00  0.00     0.041 C 
ATOM     23  O   UNL     1      26.185   2.347  28.432  1.00  0.00    -0.550 OA
ATOM     24  O   UNL     1      27.851   2.732  26.908  1.00  0.00    -0.550 OA
ENDBRANCH  21  22
ENDBRANCH  20  21
ENDBRANCH  19  20
ENDBRANCH  18  19
ENDBRANCH  17  18
ENDBRANCH  16  17
ENDBRANCH  15  16
ENDBRANCH  14  15
ENDBRANCH  13  14
ENDBRANCH   1  13
TORSDOF 20
ENDMDL
MODEL 2
REMARK VINA RESULT:    -3.640      2.030      3.005
REMARK INTER + INTRA:         -11.126
REMARK INTER:                  -7.554
REMARK INTRA:                  -3.572
REMARK UNBOUND:                -3.229
REMARK SMILES CCCCCCCCCCCCCCCCCCCCCC(=O)[O-]
REMARK SMILES IDX 12 1 11 2 10 3 9 4 8 5 7 6 6 7 5 8 4 9 3 10 2 11 1 12 13 13
REMARK SMILES IDX 14 14 15 15 16 16 17 17 18 18 19 19 20 20 21 21 22 22 23 23
REMARK SMILES IDX 24 24
REMARK H PARENT
REMARK Flexibility Score: inf
ROOT
ATOM      1  C   UNL     1      25.940   9.239  22.093  1.00  0.00     0.000 C 
ENDROOT
BRANCH   1   2
ATOM      2  C   UNL     1      27.135   9.558  23.005  1.00  0.00     0.000 C 
BRANCH   2   3
ATOM      3  C   UNL     1      28.117   8.380  23.118  1.00  0.00     0.000 C 
BRANCH   3   4
ATOM      4  C   UNL     1      28.643   8.177  24.548  1.00  0.00    -0.000 C 
BRANCH   4   5
ATOM      5  C   UNL     1      30.060   7.584  24.582  1.00  0.00    -0.000 C 
BRANCH   5   6
ATOM      6  C   UNL     1      31.000   8.452  25.427  1.00  0.00    -0.000 C 
BRANCH   6   7
ATOM      7  C   UNL     1      30.985   9.932  25.009  1.00  0.00    -0.000 C 
BRANCH   7   8
ATOM      8  C   UNL     1      30.829  10.908  26.196  1.00  0.00    -0.000 C 
BRANCH   8   9
ATOM      9  C   UNL     1      29.375  11.375  26.379  1.00  0.00    -0.000 C 
BRANCH   9  10
ATOM     10  C   UNL     1      28.821  11.032  27.778  1.00  0.00    -0.000 C 
BRANCH  10  11
ATOM     11  C   UNL     1      28.257   9.607  27.887  1.00  0.00    -0.003 C 
ATOM     12  C   UNL     1      29.193   8.646  28.619  1.00  0.00     0.004 C 
ENDBRANCH  10  11
ENDBRANCH   9  10
ENDBRANCH   8   9
ENDBRANCH   7   8
ENDBRANCH   6   7
ENDBRANCH   5   6
ENDBRANCH   4   5
ENDBRANCH   3   4
ENDBRANCH   2   3
ENDBRANCH   1   2
BRANCH   1  13
ATOM     13  C   UNL     1      24.757   8.625  22.864  1.00  0.00     0.000 C 
BRANCH  13  14
ATOM     14  C   UNL     1      24.669   7.094  22.688  1.00  0.00     0.000 C 
BRANCH  14  15
ATOM     15  C   UNL     1      24.869   6.303  23.994  1.00  0.00     0.000 C 
BRANCH  15  16
ATOM     16  C   UNL     1      25.270   7.150  25.217  1.00  0.00     0.000 C 
BRANCH  16  17
ATOM     17  C   UNL     1      24.746   6.631  26.570  1.00  0.00     0.000 C 
BRANCH  17  18
ATOM     18  C   UNL     1      25.771   6.790  27.707  1.00  0.00     0.000 C 
BRANCH  18  19
ATOM     19  C   UNL     1      26.524   5.483  28.008  1.00  0.00     0.000 C 
BRANCH  19  20
ATOM     20  C   UNL     1      27.865   5.388  27.258  1.00  0.00     0.006 C 
BRANCH  20  21
ATOM     21  C   UNL     1      28.061   4.015  26.599  1.00  0.00     0.053 C 
BRANCH  21  22
ATOM     22  C   UNL     1      28.649   4.135  25.226  1.00  0.00     0.041 C 
ATOM     23  O   UNL     1      27.983   4.664  24.296  1.00  0.00    -0.550 OA
ATOM     24  O   UNL     1      29.915   3.630  24.965  1.00  0.00    -0.550 OA
ENDBRANCH  21  22
ENDBRANCH  20  21
ENDBRANCH  19  20
ENDBRANCH  18  19
ENDBRANCH  17  18
ENDBRANCH  16  17
ENDBRANCH  15  16
ENDBRANCH  14  15
ENDBRANCH  13  14
ENDBRANCH   1  13
TORSDOF 20
ENDMDL
MODEL 3
REMARK VINA RESULT:    -3.639      2.541      4.852
REMARK INTER + INTRA:         -11.124
REMARK INTER:                  -6.912
REMARK INTRA:                  -4.212
REMARK UNBOUND:                -3.229
REMARK SMILES CCCCCCCCCCCCCCCCCCCCCC(=O)[O-]
REMARK SMILES IDX 12 1 11 2 10 3 9 4 8 5 7 6 6 7 5 8 4 9 3 10 2 11 1 12 13 13
REMARK SMILES IDX 14 14 15 15 16 16 17 17 18 18 19 19 20 20 21 21 22 22 23 23
REMARK SMILES IDX 24 24
REMARK H PARENT
REMARK Flexibility Score: inf
ROOT
ATOM      1  C   UNL     1      31.238   9.438  25.748  1.00  0.00     0.000 C 
ENDROOT
BRANCH   1   2
ATOM      2  C   UNL     1      31.468  10.939  25.990  1.00  0.00     0.000 C 
BRANCH   2   3
ATOM      3  C   UNL     1      31.389  11.760  24.692  1.00  0.00     0.000 C 
BRANCH   3   4
ATOM      4  C   UNL     1      30.000  12.374  24.458  1.00  0.00    -0.000 C 
BRANCH   4   5
ATOM      5  C   UNL     1      29.110  11.506  23.556  1.00  0.00    -0.000 C 
BRANCH   5   6
ATOM      6  C   UNL     1      27.843  11.060  24.297  1.00  0.00    -0.000 C 
BRANCH   6   7
ATOM      7  C   UNL     1      27.703  11.707  25.685  1.00  0.00    -0.000 C 
BRANCH   7   8
ATOM      8  C   UNL     1      26.912  10.846  26.692  1.00  0.00    -0.000 C 
BRANCH   8   9
ATOM      9  C   UNL     1      27.464  10.968  28.123  1.00  0.00    -0.000 C 
BRANCH   9  10
ATOM     10  C   UNL     1      28.716  11.868  28.192  1.00  0.00    -0.000 C 
BRANCH  10  11
ATOM     11  C   UNL     1      29.228  12.104  29.622  1.00  0.00    -0.003 C 
ATOM     12  C   UNL     1      30.685  11.686  29.812  1.00  0.00     0.004 C 
ENDBRANCH  10  11
ENDBRANCH   9  10
ENDBRANCH   8   9
ENDBRANCH   7   8
ENDBRANCH   6   7
ENDBRANCH   5   6
ENDBRANCH   4   5
ENDBRANCH   3   4
ENDBRANCH   2   3
ENDBRANCH   1   2
BRANCH   1  13
ATOM     13  C   UNL     1      30.146   8.854  26.662  1.00  0.00     0.000 C 
BRANCH  13  14
ATOM     14  C   UNL     1      29.147   7.964  25.894  1.00  0.00     0.000 C 
BRANCH  14  15
ATOM     15  C   UNL     1      29.526   7.729  24.419  1.00  0.00     0.000 C 
BRANCH  15  16
ATOM     16  C   UNL     1      28.340   7.471  23.471  1.00  0.00     0.000 C 
BRANCH  16  17
ATOM     17  C   UNL     1      27.091   6.863  24.139  1.00  0.00     0.000 C 
BRANCH  17  18
ATOM     18  C   UNL     1      25.891   7.826  24.147  1.00  0.00     0.000 C 
BRANCH  18  19
ATOM     19  C   UNL     1      25.181   7.872  25.510  1.00  0.00     0.000 C 
BRANCH  19  20
ATOM     20  C   UNL     1      25.554   6.681  26.411  1.00  0.00     0.006 C 
BRANCH  20  21
ATOM     21  C   UNL     1      25.902   7.125  27.839  1.00  0.00     0.053 C 
BRANCH  21  22
ATOM     22  C   UNL     1      25.719   6.014  28.827  1.00  0.00     0.041 C 
ATOM     23  O   UNL     1      24.989   6.183  29.841  1.00  0.00    -0.550 OA
ATOM     24  O   UNL     1      26.382   4.808  28.650  1.00  0.00    -0.550 OA
ENDBRANCH  21  22
ENDBRANCH  20  21
ENDBRANCH  19  20
ENDBRANCH  18  19
ENDBRANCH  17  18
ENDBRANCH  16  17
ENDBRANCH  15  16
ENDBRANCH  14  15
ENDBRANCH  13  14
ENDBRANCH   1  13
TORSDOF 20
ENDMDL
MODEL 4
REMARK VINA RESULT:    -3.623     11.850     14.648
REMARK INTER + INTRA:         -11.089
REMARK INTER:                  -7.920
REMARK INTRA:                  -3.169
REMARK UNBOUND:                -3.229
REMARK SMILES CCCCCCCCCCCCCCCCCCCCCC(=O)[O-]
REMARK SMILES IDX 12 1 11 2 10 3 9 4 8 5 7 6 6 7 5 8 4 9 3 10 2 11 1 12 13 13
REMARK SMILES IDX 14 14 15 15 16 16 17 17 18 18 19 19 20 20 21 21 22 22 23 23
REMARK SMILES IDX 24 24
REMARK H PARENT
REMARK Flexibility Score: inf
ROOT
ATOM      1  C   UNL     1      19.236  14.980  20.412  1.00  0.00     0.000 C 
ENDROOT
BRANCH   1   2
ATOM      2  C   UNL     1      19.377  15.909  19.195  1.00  0.00     0.000 C 
BRANCH   2   3
ATOM      3  C   UNL     1      18.040  16.127  18.467  1.00  0.00     0.000 C 
BRANCH   3   4
ATOM      4  C   UNL     1      17.985  17.464  17.710  1.00  0.00    -0.000 C 
BRANCH   4   5
ATOM      5  C   UNL     1      17.670  17.289  16.216  1.00  0.00    -0.000 C 
BRANCH   5   6
ATOM      6  C   UNL     1      16.939  15.965  15.959  1.00  0.00    -0.000 C 
BRANCH   6   7
ATOM      7  C   UNL     1      17.708  15.033  15.008  1.00  0.00    -0.000 C 
BRANCH   7   8
ATOM      8  C   UNL     1      19.224  15.318  14.954  1.00  0.00    -0.000 C 
BRANCH   8   9
ATOM      9  C   UNL     1      20.044  14.255  15.705  1.00  0.00    -0.000 C 
BRANCH   9  10
ATOM     10  C   UNL     1      19.149  13.174  16.349  1.00  0.00    -0.000 C 
BRANCH  10  11
ATOM     11  C   UNL     1      19.889  12.282  17.359  1.00  0.00    -0.003 C 
ATOM     12  C   UNL     1      21.190  12.902  17.865  1.00  0.00     0.004 C 
ENDBRANCH  10  11
ENDBRANCH   9  10
ENDBRANCH   8   9
ENDBRANCH   7   8
ENDBRANCH   6   7
ENDBRANCH   5   6
ENDBRANCH   4   5
ENDBRANCH   3   4
ENDBRANCH   2   3
ENDBRANCH   1   2
BRANCH   1  13
ATOM     13  C   UNL     1      18.855  15.742  21.695  1.00  0.00     0.000 C 
BRANCH  13  14
ATOM     14  C   UNL     1      19.572  17.104  21.806  1.00  0.00     0.000 C 
BRANCH  14  15
ATOM     15  C   UNL     1      18.615  18.306  21.913  1.00  0.00     0.000 C 
BRANCH  15  16
ATOM     16  C   UNL     1      17.217  18.086  21.306  1.00  0.00     0.000 C 
BRANCH  16  17
ATOM     17  C   UNL     1      16.042  18.579  22.173  1.00  0.00     0.000 C 
BRANCH  17  18
ATOM     18  C   UNL     1      16.343  18.508  23.680  1.00  0.00     0.000 C 
BRANCH  18  19
ATOM     19  C   UNL     1      15.476  17.467  24.407  1.00  0.00     0.000 C 
BRANCH  19  20
ATOM     20  C   UNL     1      16.171  16.099  24.528  1.00  0.00     0.006 C 
BRANCH  20  21
ATOM     21  C   UNL     1      17.587  16.222  25.110  1.00  0.00     0.053 C 
BRANCH  21  22
ATOM     22  C   UNL     1      17.708  15.525  26.431  1.00  0.00     0.041 C 
ATOM     23  O   UNL     1      18.325  14.429  26.515  1.00  0.00    -0.550 OA
ATOM     24  O   UNL     1      17.109  16.065  27.560  1.00  0.00    -0.550 OA
ENDBRANCH  21  22
ENDBRANCH  20  21
ENDBRANCH  19  20
ENDBRANCH  18  19
ENDBRANCH  17  18
ENDBRANCH  16  17
ENDBRANCH  15  16
ENDBRANCH  14  15
ENDBRANCH  13  14
ENDBRANCH   1  13
TORSDOF 20
ENDMDL
MODEL 5
REMARK VINA RESULT:    -3.616      1.472      5.031
REMARK INTER + INTRA:         -11.073
REMARK INTER:                  -7.819
REMARK INTRA:                  -3.254
REMARK UNBOUND:                -3.229
REMARK SMILES CCCCCCCCCCCCCCCCCCCCCC(=O)[O-]
REMARK SMILES IDX 12 1 11 2 10 3 9 4 8 5 7 6 6 7 5 8 4 9 3 10 2 11 1 12 13 13
REMARK SMILES IDX 14 14 15 15 16 16 17 17 18 18 19 19 20 20 21 21 22 22 23 23
REMARK SMILES IDX 24 24
REMARK H PARENT
REMARK Flexibility Score: inf
ROOT
ATOM      1  C   UNL     1      29.752   9.733  28.957  1.00  0.00     0.000 C 
ENDROOT
BRANCH   1   2
ATOM      2  C   UNL     1      29.578  11.135  28.351  1.00  0.00     0.000 C 
BRANCH   2   3
ATOM      3  C   UNL     1      29.709  11.130  26.818  1.00  0.00     0.000 C 
BRANCH   3   4
ATOM      4  C   UNL     1      31.138  10.818  26.343  1.00  0.00    -0.000 C 
BRANCH   4   5
ATOM      5  C   UNL     1      31.174  10.186  24.943  1.00  0.00    -0.000 C 
BRANCH   5   6
ATOM      6  C   UNL     1      30.991   8.665  25.021  1.00  0.00    -0.000 C 
BRANCH   6   7
ATOM      7  C   UNL     1      29.780   8.166  24.215  1.00  0.00    -0.000 C 
BRANCH   7   8
ATOM      8  C   UNL     1      28.884   7.179  24.994  1.00  0.00    -0.000 C 
BRANCH   8   9
ATOM      9  C   UNL     1      27.392   7.363  24.667  1.00  0.00    -0.000 C 
BRANCH   9  10
ATOM     10  C   UNL     1      26.762   6.088  24.068  1.00  0.00    -0.000 C 
BRANCH  10  11
ATOM     11  C   UNL     1      25.272   6.238  23.723  1.00  0.00    -0.003 C 
ATOM     12  C   UNL     1      24.958   7.532  22.974  1.00  0.00     0.004 C 
ENDBRANCH  10  11
ENDBRANCH   9  10
ENDBRANCH   8   9
ENDBRANCH   7   8
ENDBRANCH   6   7
ENDBRANCH   5   6
ENDBRANCH   4   5
ENDBRANCH   3   4
ENDBRANCH   2   3
ENDBRANCH   1   2
BRANCH   1  13
ATOM     13  C   UNL     1      29.057   8.640  28.125  1.00  0.00     0.000 C 
BRANCH  13  14
ATOM     14  C   UNL     1      27.610   8.374  28.593  1.00  0.00     0.000 C 
BRANCH  14  15
ATOM     15  C   UNL     1      26.551   9.216  27.856  1.00  0.00     0.000 C 
BRANCH  15  16
ATOM     16  C   UNL     1      25.096   8.747  28.043  1.00  0.00     0.000 C 
BRANCH  16  17
ATOM     17  C   UNL     1      24.546   7.856  26.912  1.00  0.00     0.000 C 
BRANCH  17  18
ATOM     18  C   UNL     1      24.188   6.438  27.390  1.00  0.00     0.000 C 
BRANCH  18  19
ATOM     19  C   UNL     1      24.661   6.163  28.827  1.00  0.00     0.000 C 
BRANCH  19  20
ATOM     20  C   UNL     1      25.912   5.268  28.877  1.00  0.00     0.006 C 
BRANCH  20  21
ATOM     21  C   UNL     1      26.409   4.893  27.474  1.00  0.00     0.053 C 
BRANCH  21  22
ATOM     22  C   UNL     1      27.580   3.960  27.529  1.00  0.00     0.041 C 
ATOM     23  O   UNL     1      27.718   3.175  28.505  1.00  0.00    -0.550 OA
ATOM     24  O   UNL     1      28.536   3.982  26.523  1.00  0.00    -0.550 OA
ENDBRANCH  21  22
ENDBRANCH  20  21
ENDBRANCH  19  20
ENDBRANCH  18  19
ENDBRANCH  17  18
ENDBRANCH  16  17
ENDBRANCH  15  16
ENDBRANCH  14  15
ENDBRANCH  13  14
ENDBRANCH   1  13
TORSDOF 20
ENDMDL
MODEL 6
REMARK VINA RESULT:    -3.583      2.884      4.908
REMARK INTER + INTRA:         -11.002
REMARK INTER:                  -8.012
REMARK INTRA:                  -2.990
REMARK UNBOUND:                -3.229
REMARK SMILES CCCCCCCCCCCCCCCCCCCCCC(=O)[O-]
REMARK SMILES IDX 12 1 11 2 10 3 9 4 8 5 7 6 6 7 5 8 4 9 3 10 2 11 1 12 13 13
REMARK SMILES IDX 14 14 15 15 16 16 17 17 18 18 19 19 20 20 21 21 22 22 23 23
REMARK SMILES IDX 24 24
REMARK H PARENT
REMARK Flexibility Score: inf
ROOT
ATOM      1  C   UNL     1      25.332   7.743  22.254  1.00  0.00     0.000 C 
ENDROOT
BRANCH   1   2
ATOM      2  C   UNL     1      24.750   6.724  23.247  1.00  0.00     0.000 C 
BRANCH   2   3
ATOM      3  C   UNL     1      25.822   6.138  24.181  1.00  0.00     0.000 C 
BRANCH   3   4
ATOM      4  C   UNL     1      27.243   6.259  23.607  1.00  0.00    -0.000 C 
BRANCH   4   5
ATOM      5  C   UNL     1      28.250   5.337  24.314  1.00  0.00    -0.000 C 
BRANCH   5   6
ATOM      6  C   UNL     1      27.559   4.078  24.853  1.00  0.00    -0.000 C 
BRANCH   6   7
ATOM      7  C   UNL     1      28.238   3.517  26.113  1.00  0.00    -0.000 C 
BRANCH   7   8
ATOM      8  C   UNL     1      28.118   4.442  27.344  1.00  0.00    -0.000 C 
BRANCH   8   9
ATOM      9  C   UNL     1      26.696   4.446  27.932  1.00  0.00    -0.000 C 
BRANCH   9  10
ATOM     10  C   UNL     1      26.038   5.841  27.863  1.00  0.00    -0.000 C 
BRANCH  10  11
ATOM     11  C   UNL     1      24.581   5.861  28.351  1.00  0.00    -0.003 C 
ATOM     12  C   UNL     1      24.206   4.627  29.169  1.00  0.00     0.004 C 
ENDBRANCH  10  11
ENDBRANCH   9  10
ENDBRANCH   8   9
ENDBRANCH   7   8
ENDBRANCH   6   7
ENDBRANCH   5   6
ENDBRANCH   4   5
ENDBRANCH   3   4
ENDBRANCH   2   3
ENDBRANCH   1   2
BRANCH   1  13
ATOM     13  C   UNL     1      25.291   9.183  22.797  1.00  0.00     0.000 C 
BRANCH  13  14
ATOM     14  C   UNL     1      23.976   9.496  23.541  1.00  0.00     0.000 C 
BRANCH  14  15
ATOM     15  C   UNL     1      24.173  10.281  24.853  1.00  0.00     0.000 C 
BRANCH  15  16
ATOM     16  C   UNL     1      24.145   9.429  26.135  1.00  0.00     0.000 C 
BRANCH  16  17
ATOM     17  C   UNL     1      25.429   9.485  26.986  1.00  0.00     0.000 C 
BRANCH  17  18
ATOM     18  C   UNL     1      26.653   8.906  26.256  1.00  0.00     0.000 C 
BRANCH  18  19
ATOM     19  C   UNL     1      27.980   9.478  26.785  1.00  0.00     0.000 C 
BRANCH  19  20
ATOM     20  C   UNL     1      28.185   9.204  28.285  1.00  0.00     0.006 C 
BRANCH  20  21
ATOM     21  C   UNL     1      29.668   9.234  28.680  1.00  0.00     0.053 C 
BRANCH  21  22
ATOM     22  C   UNL     1      30.032  10.505  29.384  1.00  0.00     0.041 C 
ATOM     23  O   UNL     1      30.651  10.466  30.481  1.00  0.00    -0.550 OA
ATOM     24  O   UNL     1      29.655  11.729  28.850  1.00  0.00    -0.550 OA
ENDBRANCH  21  22
ENDBRANCH  20  21
ENDBRANCH  19  20
ENDBRANCH  18  19
ENDBRANCH  17  18
ENDBRANCH  16  17
ENDBRANCH  15  16
ENDBRANCH  14  15
ENDBRANCH  13  14
ENDBRANCH   1  13
TORSDOF 20
ENDMDL
MODEL 7
REMARK VINA RESULT:    -3.577      2.503      6.288
REMARK INTER + INTRA:         -10.989
REMARK INTER:                  -7.296
REMARK INTRA:                  -3.693
REMARK UNBOUND:                -3.229
REMARK SMILES CCCCCCCCCCCCCCCCCCCCCC(=O)[O-]
REMARK SMILES IDX 12 1 11 2 10 3 9 4 8 5 7 6 6 7 5 8 4 9 3 10 2 11 1 12 13 13
REMARK SMILES IDX 14 14 15 15 16 16 17 17 18 18 19 19 20 20 21 21 22 22 23 23
REMARK SMILES IDX 24 24
REMARK H PARENT
REMARK Flexibility Score: inf
ROOT
ATOM      1  C   UNL     1      29.456  12.016  29.225  1.00  0.00     0.000 C 
ENDROOT
BRANCH   1   2
ATOM      2  C   UNL     1      27.973  12.088  28.828  1.00  0.00     0.000 C 
BRANCH   2   3
ATOM      3  C   UNL     1      27.782  12.370  27.328  1.00  0.00     0.000 C 
BRANCH   3   4
ATOM      4  C   UNL     1      26.607  11.588  26.719  1.00  0.00    -0.000 C 
BRANCH   4   5
ATOM      5  C   UNL     1      26.220  10.354  27.549  1.00  0.00    -0.000 C 
BRANCH   5   6
ATOM      6  C   UNL     1      25.915   9.155  26.643  1.00  0.00    -0.000 C 
BRANCH   6   7
ATOM      7  C   UNL     1      24.593   8.455  27.001  1.00  0.00    -0.000 C 
BRANCH   7   8
ATOM      8  C   UNL     1      24.618   6.930  26.766  1.00  0.00    -0.000 C 
BRANCH   8   9
ATOM      9  C   UNL     1      24.295   6.138  28.045  1.00  0.00    -0.000 C 
BRANCH   9  10
ATOM     10  C   UNL     1      25.568   5.640  28.762  1.00  0.00    -0.000 C 
BRANCH  10  11
ATOM     11  C   UNL     1      26.843   5.766  27.914  1.00  0.00    -0.003 C 
ATOM     12  C   UNL     1      27.549   4.430  27.690  1.00  0.00     0.004 C 
ENDBRANCH  10  11
ENDBRANCH   9  10
ENDBRANCH   8   9
ENDBRANCH   7   8
ENDBRANCH   6   7
ENDBRANCH   5   6
ENDBRANCH   4   5
ENDBRANCH   3   4
ENDBRANCH   2   3
ENDBRANCH   1   2
BRANCH   1  13
ATOM     13  C   UNL     1      30.189  10.838  28.557  1.00  0.00     0.000 C 
BRANCH  13  14
ATOM     14  C   UNL     1      29.621   9.469  28.988  1.00  0.00     0.000 C 
BRANCH  14  15
ATOM     15  C   UNL     1      29.394   8.492  27.819  1.00  0.00     0.000 C 
BRANCH  15  16
ATOM     16  C   UNL     1      29.603   9.091  26.415  1.00  0.00     0.000 C 
BRANCH  16  17
ATOM     17  C   UNL     1      30.123   8.102  25.354  1.00  0.00     0.000 C 
BRANCH  17  18
ATOM     18  C   UNL     1      29.058   7.737  24.306  1.00  0.00     0.000 C 
BRANCH  18  19
ATOM     19  C   UNL     1      28.406   6.371  24.578  1.00  0.00     0.000 C 
BRANCH  19  20
ATOM     20  C   UNL     1      26.942   6.310  24.109  1.00  0.00     0.006 C 
BRANCH  20  21
ATOM     21  C   UNL     1      26.540   7.557  23.308  1.00  0.00     0.053 C 
BRANCH  21  22
ATOM     22  C   UNL     1      25.059   7.628  23.095  1.00  0.00     0.041 C 
ATOM     23  O   UNL     1      24.414   6.592  22.780  1.00  0.00    -0.550 OA
ATOM     24  O   UNL     1      24.398   8.844  23.207  1.00  0.00    -0.550 OA
ENDBRANCH  21  22
ENDBRANCH  20  21
ENDBRANCH  19  20
ENDBRANCH  18  19
ENDBRANCH  17  18
ENDBRANCH  16  17
ENDBRANCH  15  16
ENDBRANCH  14  15
ENDBRANCH  13  14
ENDBRANCH   1  13
TORSDOF 20
ENDMDL
MODEL 8
REMARK VINA RESULT:    -3.563      1.986      4.304
REMARK INTER + INTRA:         -10.959
REMARK INTER:                  -6.840
REMARK INTRA:                  -4.119
REMARK UNBOUND:                -3.229
REMARK SMILES CCCCCCCCCCCCCCCCCCCCCC(=O)[O-]
REMARK SMILES IDX 12 1 11 2 10 3 9 4 8 5 7 6 6 7 5 8 4 9 3 10 2 11 1 12 13 13
REMARK SMILES IDX 14 14 15 15 16 16 17 17 18 18 19 19 20 20 21 21 22 22 23 23
REMARK SMILES IDX 24 24
REMARK H PARENT
REMARK Flexibility Score: inf
ROOT
ATOM      1  C   UNL     1      28.242   7.823  27.755  1.00  0.00     0.000 C 
ENDROOT
BRANCH   1   2
ATOM      2  C   UNL     1      29.310   8.726  28.393  1.00  0.00     0.000 C 
BRANCH   2   3
ATOM      3  C   UNL     1      30.105   9.523  27.345  1.00  0.00     0.000 C 
BRANCH   3   4
ATOM      4  C   UNL     1      30.446   8.693  26.097  1.00  0.00    -0.000 C 
BRANCH   4   5
ATOM      5  C   UNL     1      29.895   9.311  24.802  1.00  0.00    -0.000 C 
BRANCH   5   6
ATOM      6  C   UNL     1      28.995  10.515  25.107  1.00  0.00    -0.000 C 
BRANCH   6   7
ATOM      7  C   UNL     1      27.500  10.206  24.923  1.00  0.00    -0.000 C 
BRANCH   7   8
ATOM      8  C   UNL     1      26.595  10.879  25.978  1.00  0.00    -0.000 C 
BRANCH   8   9
ATOM      9  C   UNL     1      27.348  11.939  26.801  1.00  0.00    -0.000 C 
BRANCH   9  10
ATOM     10  C   UNL     1      27.150  11.749  28.320  1.00  0.00    -0.000 C 
BRANCH  10  11
ATOM     11  C   UNL     1      27.932  12.759  29.175  1.00  0.00    -0.003 C 
ATOM     12  C   UNL     1      29.271  12.214  29.670  1.00  0.00     0.004 C 
ENDBRANCH  10  11
ENDBRANCH   9  10
ENDBRANCH   8   9
ENDBRANCH   7   8
ENDBRANCH   6   7
ENDBRANCH   5   6
ENDBRANCH   4   5
ENDBRANCH   3   4
ENDBRANCH   2   3
ENDBRANCH   1   2
BRANCH   1  13
ATOM     13  C   UNL     1      26.841   8.056  28.349  1.00  0.00     0.000 C 
BRANCH  13  14
ATOM     14  C   UNL     1      26.044   6.745  28.514  1.00  0.00     0.000 C 
BRANCH  14  15
ATOM     15  C   UNL     1      25.388   6.246  27.213  1.00  0.00     0.000 C 
BRANCH  15  16
ATOM     16  C   UNL     1      24.893   7.352  26.263  1.00  0.00     0.000 C 
BRANCH  16  17
ATOM     17  C   UNL     1      25.457   7.282  24.830  1.00  0.00     0.000 C 
BRANCH  17  18
ATOM     18  C   UNL     1      26.108   5.926  24.511  1.00  0.00     0.000 C 
BRANCH  18  19
ATOM     19  C   UNL     1      27.527   6.073  23.935  1.00  0.00     0.000 C 
BRANCH  19  20
ATOM     20  C   UNL     1      28.620   5.714  24.956  1.00  0.00     0.006 C 
BRANCH  20  21
ATOM     21  C   UNL     1      28.249   4.478  25.788  1.00  0.00     0.053 C 
BRANCH  21  22
ATOM     22  C   UNL     1      28.671   3.208  25.117  1.00  0.00     0.041 C 
ATOM     23  O   UNL     1      29.895   2.963  24.935  1.00  0.00    -0.550 OA
ATOM     24  O   UNL     1      27.716   2.311  24.658  1.00  0.00    -0.550 OA
ENDBRANCH  21  22
ENDBRANCH  20  21
ENDBRANCH  19  20
ENDBRANCH  18  19
ENDBRANCH  17  18
ENDBRANCH  16  17
ENDBRANCH  15  16
ENDBRANCH  14  15
ENDBRANCH  13  14
ENDBRANCH   1  13
TORSDOF 20
ENDMDL
MODEL 9
REMARK VINA RESULT:    -3.478      2.953      6.186
REMARK INTER + INTRA:         -10.773
REMARK INTER:                  -6.282
REMARK INTRA:                  -4.491
REMARK UNBOUND:                -3.229
REMARK SMILES CCCCCCCCCCCCCCCCCCCCCC(=O)[O-]
REMARK SMILES IDX 12 1 11 2 10 3 9 4 8 5 7 6 6 7 5 8 4 9 3 10 2 11 1 12 13 13
REMARK SMILES IDX 14 14 15 15 16 16 17 17 18 18 19 19 20 20 21 21 22 22 23 23
REMARK SMILES IDX 24 24
REMARK H PARENT
REMARK Flexibility Score: inf
ROOT
ATOM      1  C   UNL     1      27.663   7.412  25.143  1.00  0.00     0.000 C 
ENDROOT
BRANCH   1   2
ATOM      2  C   UNL     1      28.313   7.778  26.487  1.00  0.00     0.000 C 
BRANCH   2   3
ATOM      3  C   UNL     1      28.244   9.287  26.780  1.00  0.00     0.000 C 
BRANCH   3   4
ATOM      4  C   UNL     1      27.540  10.079  25.666  1.00  0.00    -0.000 C 
BRANCH   4   5
ATOM      5  C   UNL     1      26.304  10.841  26.169  1.00  0.00    -0.000 C 
BRANCH   5   6
ATOM      6  C   UNL     1      25.015  10.239  25.596  1.00  0.00    -0.000 C 
BRANCH   6   7
ATOM      7  C   UNL     1      24.192   9.475  26.647  1.00  0.00    -0.000 C 
BRANCH   7   8
ATOM      8  C   UNL     1      24.757   9.595  28.079  1.00  0.00    -0.000 C 
BRANCH   8   9
ATOM      9  C   UNL     1      25.270   8.248  28.617  1.00  0.00    -0.000 C 
BRANCH   9  10
ATOM     10  C   UNL     1      24.894   7.068  27.695  1.00  0.00    -0.000 C 
BRANCH  10  11
ATOM     11  C   UNL     1      24.741   5.730  28.436  1.00  0.00    -0.003 C 
ATOM     12  C   UNL     1      26.045   4.939  28.519  1.00  0.00     0.004 C 
ENDBRANCH  10  11
ENDBRANCH   9  10
ENDBRANCH   8   9
ENDBRANCH   7   8
ENDBRANCH   6   7
ENDBRANCH   5   6
ENDBRANCH   4   5
ENDBRANCH   3   4
ENDBRANCH   2   3
ENDBRANCH   1   2
BRANCH   1  13
ATOM     13  C   UNL     1      27.347   5.910  25.030  1.00  0.00     0.000 C 
BRANCH  13  14
ATOM     14  C   UNL     1      26.092   5.634  24.175  1.00  0.00     0.000 C 
BRANCH  14  15
ATOM     15  C   UNL     1      25.141   6.840  24.056  1.00  0.00     0.000 C 
BRANCH  15  16
ATOM     16  C   UNL     1      24.902   7.344  22.620  1.00  0.00     0.000 C 
BRANCH  16  17
ATOM     17  C   UNL     1      25.602   8.672  22.269  1.00  0.00     0.000 C 
BRANCH  17  18
ATOM     18  C   UNL     1      26.598   8.530  21.106  1.00  0.00     0.000 C 
BRANCH  18  19
ATOM     19  C   UNL     1      27.967   7.997  21.563  1.00  0.00     0.000 C 
BRANCH  19  20
ATOM     20  C   UNL     1      28.873   9.104  22.131  1.00  0.00     0.006 C 
BRANCH  20  21
ATOM     21  C   UNL     1      30.180   8.541  22.706  1.00  0.00     0.053 C 
BRANCH  21  22
ATOM     22  C   UNL     1      30.773   9.453  23.736  1.00  0.00     0.041 C 
ATOM     23  O   UNL     1      30.865  10.690  23.510  1.00  0.00    -0.550 OA
ATOM     24  O   UNL     1      31.258   8.934  24.928  1.00  0.00    -0.550 OA
ENDBRANCH  21  22
ENDBRANCH  20  21
ENDBRANCH  19  20
ENDBRANCH  18  19
ENDBRANCH  17  18
ENDBRANCH  16  17
ENDBRANCH  15  16
ENDBRANCH  14  15
ENDBRANCH  13  14
ENDBRANCH   1  13
TORSDOF 20
ENDMDL
