MODEL 1
REMARK VINA RESULT:    -5.568      0.000      0.000
REMARK INTER + INTRA:         -10.381
REMARK INTER:                  -9.474
REMARK INTRA:                  -0.907
REMARK UNBOUND:                -0.907
REMARK SMILES CCCCCCCCCCCCCC(=O)[O-]
REMARK SMILES IDX 8 1 9 2 10 3 11 4 12 5 13 6 14 7 15 8 16 9 7 10 6 11 5 12
REMARK SMILES IDX 4 13 3 14 2 15 1 16
REMARK H PARENT
REMARK Flexibility Score: inf
ROOT
ATOM      1  C   UNL     1      -0.064  44.884  -0.904  1.00  0.00     0.000 C 
ENDROOT
BRANCH   1   2
ATOM      2  C   UNL     1      -1.479  45.459  -1.130  1.00  0.00     0.000 C 
BRANCH   2   3
ATOM      3  C   UNL     1      -2.177  45.996   0.132  1.00  0.00     0.000 C 
BRANCH   3   4
ATOM      4  C   UNL     1      -3.471  45.256   0.522  1.00  0.00     0.000 C 
BRANCH   4   5
ATOM      5  C   UNL     1      -3.356  44.458   1.840  1.00  0.00     0.006 C 
BRANCH   5   6
ATOM      6  C   UNL     1      -2.464  45.156   2.874  1.00  0.00     0.053 C 
BRANCH   6   7
ATOM      7  C   UNL     1      -2.916  44.828   4.261  1.00  0.00     0.041 C 
ATOM      8  O   UNL     1      -2.553  45.543   5.232  1.00  0.00    -0.550 OA
ATOM      9  O   UNL     1      -3.698  43.703   4.490  1.00  0.00    -0.550 OA
ENDBRANCH   6   7
ENDBRANCH   5   6
ENDBRANCH   4   5
ENDBRANCH   3   4
ENDBRANCH   2   3
ENDBRANCH   1   2
BRANCH   1  10
ATOM     10  C   UNL     1       0.218  44.366   0.518  1.00  0.00     0.000 C 
BRANCH  10  11
ATOM     11  C   UNL     1       1.606  44.776   1.040  1.00  0.00    -0.000 C 
BRANCH  11  12
ATOM     12  C   UNL     1       1.554  45.442   2.427  1.00  0.00    -0.000 C 
BRANCH  12  13
ATOM     13  C   UNL     1       2.912  45.899   2.992  1.00  0.00    -0.000 C 
BRANCH  13  14
ATOM     14  C   UNL     1       3.813  44.726   3.416  1.00  0.00    -0.000 C 
BRANCH  14  15
ATOM     15  C   UNL     1       3.771  44.468   4.930  1.00  0.00    -0.003 C 
ATOM     16  C   UNL     1       5.156  44.515   5.577  1.00  0.00     0.004 C 
ENDBRANCH  14  15
ENDBRANCH  13  14
ENDBRANCH  12  13
ENDBRANCH  11  12
ENDBRANCH  10  11
ENDBRANCH   1  10
TORSDOF 12
ENDMDL
MODEL 2
REMARK VINA RESULT:    -5.501      6.433      8.968
REMARK INTER + INTRA:         -10.267
REMARK INTER:                  -9.273
REMARK INTRA:                  -0.994
REMARK UNBOUND:                -0.907
REMARK SMILES CCCCCCCCCCCCCC(=O)[O-]
REMARK SMILES IDX 8 1 9 2 10 3 11 4 12 5 13 6 14 7 15 8 16 9 7 10 6 11 5 12
REMARK SMILES IDX 4 13 3 14 2 15 1 16
REMARK H PARENT
REMARK Flexibility Score: inf
ROOT
ATOM      1  C   UNL     1       4.506  44.822  10.304  1.00  0.00     0.000 C 
ENDROOT
BRANCH   1   2
ATOM      2  C   UNL     1       3.133  44.874  11.006  1.00  0.00     0.000 C 
BRANCH   2   3
ATOM      3  C   UNL     1       3.084  45.728  12.286  1.00  0.00     0.000 C 
BRANCH   3   4
ATOM      4  C   UNL     1       1.682  46.233  12.676  1.00  0.00     0.000 C 
BRANCH   4   5
ATOM      5  C   UNL     1       1.386  47.671  12.196  1.00  0.00     0.006 C 
BRANCH   5   6
ATOM      6  C   UNL     1       0.823  47.710  10.770  1.00  0.00     0.053 C 
BRANCH   6   7
ATOM      7  C   UNL     1      -0.226  46.658  10.591  1.00  0.00     0.041 C 
ATOM      8  O   UNL     1      -0.037  45.702   9.795  1.00  0.00    -0.550 OA
ATOM      9  O   UNL     1      -1.435  46.761  11.268  1.00  0.00    -0.550 OA
ENDBRANCH   6   7
ENDBRANCH   5   6
ENDBRANCH   4   5
ENDBRANCH   3   4
ENDBRANCH   2   3
ENDBRANCH   1   2
BRANCH   1  10
ATOM     10  C   UNL     1       4.951  43.428   9.825  1.00  0.00     0.000 C 
BRANCH  10  11
ATOM     11  C   UNL     1       3.788  42.583   9.278  1.00  0.00    -0.000 C 
BRANCH  11  12
ATOM     12  C   UNL     1       3.339  43.019   7.871  1.00  0.00    -0.000 C 
BRANCH  12  13
ATOM     13  C   UNL     1       4.440  43.016   6.795  1.00  0.00    -0.000 C 
BRANCH  13  14
ATOM     14  C   UNL     1       4.186  44.037   5.672  1.00  0.00    -0.000 C 
BRANCH  14  15
ATOM     15  C   UNL     1       5.421  44.899   5.369  1.00  0.00    -0.003 C 
ATOM     16  C   UNL     1       6.223  45.247   6.624  1.00  0.00     0.004 C 
ENDBRANCH  14  15
ENDBRANCH  13  14
ENDBRANCH  12  13
ENDBRANCH  11  12
ENDBRANCH  10  11
ENDBRANCH   1  10
TORSDOF 12
ENDMDL
MODEL 3
REMARK VINA RESULT:    -5.492      5.546      9.070
REMARK INTER + INTRA:         -10.252
REMARK INTER:                  -9.533
REMARK INTRA:                  -0.719
REMARK UNBOUND:                -0.907
REMARK SMILES CCCCCCCCCCCCCC(=O)[O-]
REMARK SMILES IDX 8 1 9 2 10 3 11 4 12 5 13 6 14 7 15 8 16 9 7 10 6 11 5 12
REMARK SMILES IDX 4 13 3 14 2 15 1 16
REMARK H PARENT
REMARK Flexibility Score: inf
ROOT
ATOM      1  C   UNL     1       2.872  44.053  10.079  1.00  0.00     0.000 C 
ENDROOT
BRANCH   1   2
ATOM      2  C   UNL     1       3.830  45.023  10.803  1.00  0.00     0.000 C 
BRANCH   2   3
ATOM      3  C   UNL     1       3.267  45.663  12.085  1.00  0.00     0.000 C 
BRANCH   3   4
ATOM      4  C   UNL     1       1.751  45.478  12.290  1.00  0.00     0.000 C 
BRANCH   4   5
ATOM      5  C   UNL     1       0.977  46.806  12.431  1.00  0.00     0.006 C 
BRANCH   5   6
ATOM      6  C   UNL     1       1.827  48.025  12.052  1.00  0.00     0.053 C 
BRANCH   6   7
ATOM      7  C   UNL     1       1.474  48.504  10.680  1.00  0.00     0.041 C 
ATOM      8  O   UNL     1       0.431  48.086  10.111  1.00  0.00    -0.550 OA
ATOM      9  O   UNL     1       2.322  49.375  10.008  1.00  0.00    -0.550 OA
ENDBRANCH   6   7
ENDBRANCH   5   6
ENDBRANCH   4   5
ENDBRANCH   3   4
ENDBRANCH   2   3
ENDBRANCH   1   2
BRANCH   1  10
ATOM     10  C   UNL     1       3.509  42.741   9.585  1.00  0.00     0.000 C 
BRANCH  10  11
ATOM     11  C   UNL     1       3.493  42.606   8.053  1.00  0.00    -0.000 C 
BRANCH  11  12
ATOM     12  C   UNL     1       4.408  43.626   7.351  1.00  0.00    -0.000 C 
BRANCH  12  13
ATOM     13  C   UNL     1       3.960  44.055   5.941  1.00  0.00    -0.000 C 
BRANCH  13  14
ATOM     14  C   UNL     1       5.119  44.576   5.074  1.00  0.00    -0.000 C 
BRANCH  14  15
ATOM     15  C   UNL     1       4.632  45.395   3.870  1.00  0.00    -0.003 C 
ATOM     16  C   UNL     1       3.180  45.094   3.497  1.00  0.00     0.004 C 
ENDBRANCH  14  15
ENDBRANCH  13  14
ENDBRANCH  12  13
ENDBRANCH  11  12
ENDBRANCH  10  11
ENDBRANCH   1  10
TORSDOF 12
ENDMDL
MODEL 4
REMARK VINA RESULT:    -5.470      4.629      8.273
REMARK INTER + INTRA:         -10.215
REMARK INTER:                  -9.581
REMARK INTRA:                  -0.634
REMARK UNBOUND:                -0.907
REMARK SMILES CCCCCCCCCCCCCC(=O)[O-]
REMARK SMILES IDX 8 1 9 2 10 3 11 4 12 5 13 6 14 7 15 8 16 9 7 10 6 11 5 12
REMARK SMILES IDX 4 13 3 14 2 15 1 16
REMARK H PARENT
REMARK Flexibility Score: inf
ROOT
ATOM      1  C   UNL     1       5.147  44.584   8.369  1.00  0.00     0.000 C 
ENDROOT
BRANCH   1   2
ATOM      2  C   UNL     1       4.828  45.167   9.762  1.00  0.00     0.000 C 
BRANCH   2   3
ATOM      3  C   UNL     1       3.464  44.758  10.346  1.00  0.00     0.000 C 
BRANCH   3   4
ATOM      4  C   UNL     1       2.932  45.682  11.459  1.00  0.00     0.000 C 
BRANCH   4   5
ATOM      5  C   UNL     1       1.570  45.237  12.036  1.00  0.00     0.006 C 
BRANCH   5   6
ATOM      6  C   UNL     1       0.544  46.376  12.065  1.00  0.00     0.053 C 
BRANCH   6   7
ATOM      7  C   UNL     1      -0.459  46.204  10.968  1.00  0.00     0.041 C 
ATOM      8  O   UNL     1      -1.642  46.610  11.120  1.00  0.00    -0.550 OA
ATOM      9  O   UNL     1      -0.102  45.551   9.796  1.00  0.00    -0.550 OA
ENDBRANCH   6   7
ENDBRANCH   5   6
ENDBRANCH   4   5
ENDBRANCH   3   4
ENDBRANCH   2   3
ENDBRANCH   1   2
BRANCH   1  10
ATOM     10  C   UNL     1       4.194  43.478   7.882  1.00  0.00     0.000 C 
BRANCH  10  11
ATOM     11  C   UNL     1       3.971  43.506   6.360  1.00  0.00    -0.000 C 
BRANCH  11  12
ATOM     12  C   UNL     1       5.075  44.268   5.605  1.00  0.00    -0.000 C 
BRANCH  12  13
ATOM     13  C   UNL     1       4.631  44.954   4.300  1.00  0.00    -0.000 C 
BRANCH  13  14
ATOM     14  C   UNL     1       3.105  44.939   4.102  1.00  0.00    -0.000 C 
BRANCH  14  15
ATOM     15  C   UNL     1       2.656  45.813   2.921  1.00  0.00    -0.003 C 
ATOM     16  C   UNL     1       2.484  45.016   1.627  1.00  0.00     0.004 C 
ENDBRANCH  14  15
ENDBRANCH  13  14
ENDBRANCH  12  13
ENDBRANCH  11  12
ENDBRANCH  10  11
ENDBRANCH   1  10
TORSDOF 12
ENDMDL
MODEL 5
REMARK VINA RESULT:    -5.436      1.622      5.180
REMARK INTER + INTRA:         -10.156
REMARK INTER:                  -8.993
REMARK INTRA:                  -1.164
REMARK UNBOUND:                -0.907
REMARK SMILES CCCCCCCCCCCCCC(=O)[O-]
REMARK SMILES IDX 8 1 9 2 10 3 11 4 12 5 13 6 14 7 15 8 16 9 7 10 6 11 5 12
REMARK SMILES IDX 4 13 3 14 2 15 1 16
REMARK H PARENT
REMARK Flexibility Score: inf
ROOT
ATOM      1  C   UNL     1       2.806  45.712   1.542  1.00  0.00     0.000 C 
ENDROOT
BRANCH   1   2
ATOM      2  C   UNL     1       2.693  46.124   3.025  1.00  0.00     0.000 C 
BRANCH   2   3
ATOM      3  C   UNL     1       1.509  45.501   3.788  1.00  0.00     0.000 C 
BRANCH   3   4
ATOM      4  C   UNL     1       0.208  46.327   3.752  1.00  0.00     0.000 C 
BRANCH   4   5
ATOM      5  C   UNL     1      -1.025  45.521   3.287  1.00  0.00     0.006 C 
BRANCH   5   6
ATOM      6  C   UNL     1      -2.212  45.658   4.248  1.00  0.00     0.053 C 
BRANCH   6   7
ATOM      7  C   UNL     1      -3.195  44.552   4.025  1.00  0.00     0.041 C 
ATOM      8  O   UNL     1      -3.007  43.711   3.107  1.00  0.00    -0.550 OA
ATOM      9  O   UNL     1      -4.346  44.479   4.800  1.00  0.00    -0.550 OA
ENDBRANCH   6   7
ENDBRANCH   5   6
ENDBRANCH   4   5
ENDBRANCH   3   4
ENDBRANCH   2   3
ENDBRANCH   1   2
BRANCH   1  10
ATOM     10  C   UNL     1       1.970  44.487   1.130  1.00  0.00     0.000 C 
BRANCH  10  11
ATOM     11  C   UNL     1       1.118  44.738  -0.126  1.00  0.00    -0.000 C 
BRANCH  11  12
ATOM     12  C   UNL     1      -0.380  44.465   0.101  1.00  0.00    -0.000 C 
BRANCH  12  13
ATOM     13  C   UNL     1      -1.342  45.284  -0.781  1.00  0.00    -0.000 C 
BRANCH  13  14
ATOM     14  C   UNL     1      -2.559  45.820  -0.006  1.00  0.00    -0.000 C 
BRANCH  14  15
ATOM     15  C   UNL     1      -3.686  44.783   0.110  1.00  0.00    -0.003 C 
ATOM     16  C   UNL     1      -4.956  45.357   0.741  1.00  0.00     0.004 C 
ENDBRANCH  14  15
ENDBRANCH  13  14
ENDBRANCH  12  13
ENDBRANCH  11  12
ENDBRANCH  10  11
ENDBRANCH   1  10
TORSDOF 12
ENDMDL
MODEL 6
REMARK VINA RESULT:    -5.418      7.398      9.638
REMARK INTER + INTRA:         -10.126
REMARK INTER:                  -9.451
REMARK INTRA:                  -0.675
REMARK UNBOUND:                -0.907
REMARK SMILES CCCCCCCCCCCCCC(=O)[O-]
REMARK SMILES IDX 8 1 9 2 10 3 11 4 12 5 13 6 14 7 15 8 16 9 7 10 6 11 5 12
REMARK SMILES IDX 4 13 3 14 2 15 1 16
REMARK H PARENT
REMARK Flexibility Score: inf
ROOT
ATOM      1  C   UNL     1       9.066  47.352  -0.196  1.00  0.00     0.000 C 
ENDROOT
BRANCH   1   2
ATOM      2  C   UNL     1       9.085  47.341  -1.739  1.00  0.00     0.000 C 
BRANCH   2   3
ATOM      3  C   UNL     1       7.806  47.872  -2.413  1.00  0.00     0.000 C 
BRANCH   3   4
ATOM      4  C   UNL     1       7.379  47.110  -3.683  1.00  0.00     0.000 C 
BRANCH   4   5
ATOM      5  C   UNL     1       8.339  45.965  -4.072  1.00  0.00     0.006 C 
BRANCH   5   6
ATOM      6  C   UNL     1       7.732  44.579  -3.825  1.00  0.00     0.053 C 
BRANCH   6   7
ATOM      7  C   UNL     1       6.597  44.328  -4.767  1.00  0.00     0.041 C 
ATOM      8  O   UNL     1       5.527  43.815  -4.348  1.00  0.00    -0.550 OA
ATOM      9  O   UNL     1       6.739  44.616  -6.118  1.00  0.00    -0.550 OA
ENDBRANCH   6   7
ENDBRANCH   5   6
ENDBRANCH   4   5
ENDBRANCH   3   4
ENDBRANCH   2   3
ENDBRANCH   1   2
BRANCH   1  10
ATOM     10  C   UNL     1       7.946  48.191   0.445  1.00  0.00     0.000 C 
BRANCH  10  11
ATOM     11  C   UNL     1       7.198  47.441   1.560  1.00  0.00    -0.000 C 
BRANCH  11  12
ATOM     12  C   UNL     1       5.686  47.728   1.568  1.00  0.00    -0.000 C 
BRANCH  12  13
ATOM     13  C   UNL     1       4.882  47.010   2.668  1.00  0.00    -0.000 C 
BRANCH  13  14
ATOM     14  C   UNL     1       3.559  46.415   2.154  1.00  0.00    -0.000 C 
BRANCH  14  15
ATOM     15  C   UNL     1       2.889  45.492   3.184  1.00  0.00    -0.003 C 
ATOM     16  C   UNL     1       3.899  44.766   4.074  1.00  0.00     0.004 C 
ENDBRANCH  14  15
ENDBRANCH  13  14
ENDBRANCH  12  13
ENDBRANCH  11  12
ENDBRANCH  10  11
ENDBRANCH   1  10
TORSDOF 12
ENDMDL
MODEL 7
REMARK VINA RESULT:    -5.415      7.575      9.585
REMARK INTER + INTRA:         -10.121
REMARK INTER:                  -9.353
REMARK INTRA:                  -0.768
REMARK UNBOUND:                -0.907
REMARK SMILES CCCCCCCCCCCCCC(=O)[O-]
REMARK SMILES IDX 8 1 9 2 10 3 11 4 12 5 13 6 14 7 15 8 16 9 7 10 6 11 5 12
REMARK SMILES IDX 4 13 3 14 2 15 1 16
REMARK H PARENT
REMARK Flexibility Score: inf
ROOT
ATOM      1  C   UNL     1       7.156  47.869  -2.810  1.00  0.00     0.000 C 
ENDROOT
BRANCH   1   2
ATOM      2  C   UNL     1       7.833  46.485  -2.904  1.00  0.00     0.000 C 
BRANCH   2   3
ATOM      3  C   UNL     1       9.025  46.404  -3.875  1.00  0.00     0.000 C 
BRANCH   3   4
ATOM      4  C   UNL     1       8.645  46.158  -5.348  1.00  0.00     0.000 C 
BRANCH   4   5
ATOM      5  C   UNL     1       7.886  44.833  -5.580  1.00  0.00     0.006 C 
BRANCH   5   6
ATOM      6  C   UNL     1       6.412  45.055  -5.938  1.00  0.00     0.053 C 
BRANCH   6   7
ATOM      7  C   UNL     1       5.527  44.587  -4.826  1.00  0.00     0.041 C 
ATOM      8  O   UNL     1       4.537  45.277  -4.470  1.00  0.00    -0.550 OA
ATOM      9  O   UNL     1       5.826  43.411  -4.148  1.00  0.00    -0.550 OA
ENDBRANCH   6   7
ENDBRANCH   5   6
ENDBRANCH   4   5
ENDBRANCH   3   4
ENDBRANCH   2   3
ENDBRANCH   1   2
BRANCH   1  10
ATOM     10  C   UNL     1       7.039  48.453  -1.390  1.00  0.00     0.000 C 
BRANCH  10  11
ATOM     11  C   UNL     1       5.659  49.069  -1.108  1.00  0.00    -0.000 C 
BRANCH  11  12
ATOM     12  C   UNL     1       5.163  48.803   0.325  1.00  0.00    -0.000 C 
BRANCH  12  13
ATOM     13  C   UNL     1       6.112  47.973   1.210  1.00  0.00    -0.000 C 
BRANCH  13  14
ATOM     14  C   UNL     1       5.384  47.240   2.350  1.00  0.00    -0.000 C 
BRANCH  14  15
ATOM     15  C   UNL     1       3.990  46.743   1.935  1.00  0.00    -0.003 C 
ATOM     16  C   UNL     1       3.307  45.917   3.026  1.00  0.00     0.004 C 
ENDBRANCH  14  15
ENDBRANCH  13  14
ENDBRANCH  12  13
ENDBRANCH  11  12
ENDBRANCH  10  11
ENDBRANCH   1  10
TORSDOF 12
ENDMDL
MODEL 8
REMARK VINA RESULT:    -5.337      7.485      9.473
REMARK INTER + INTRA:          -9.989
REMARK INTER:                  -9.353
REMARK INTRA:                  -0.636
REMARK UNBOUND:                -0.907
REMARK SMILES CCCCCCCCCCCCCC(=O)[O-]
REMARK SMILES IDX 8 1 9 2 10 3 11 4 12 5 13 6 14 7 15 8 16 9 7 10 6 11 5 12
REMARK SMILES IDX 4 13 3 14 2 15 1 16
REMARK H PARENT
REMARK Flexibility Score: inf
ROOT
ATOM      1  C   UNL     1       6.615  48.784  -2.008  1.00  0.00     0.000 C 
ENDROOT
BRANCH   1   2
ATOM      2  C   UNL     1       7.576  47.588  -1.845  1.00  0.00     0.000 C 
BRANCH   2   3
ATOM      3  C   UNL     1       8.016  46.917  -3.159  1.00  0.00     0.000 C 
BRANCH   3   4
ATOM      4  C   UNL     1       6.896  46.739  -4.202  1.00  0.00     0.000 C 
BRANCH   4   5
ATOM      5  C   UNL     1       7.076  45.496  -5.100  1.00  0.00     0.006 C 
BRANCH   5   6
ATOM      6  C   UNL     1       6.633  44.201  -4.409  1.00  0.00     0.053 C 
BRANCH   6   7
ATOM      7  C   UNL     1       7.823  43.413  -3.961  1.00  0.00     0.041 C 
ATOM      8  O   UNL     1       7.826  42.855  -2.832  1.00  0.00    -0.550 OA
ATOM      9  O   UNL     1       8.950  43.336  -4.769  1.00  0.00    -0.550 OA
ENDBRANCH   6   7
ENDBRANCH   5   6
ENDBRANCH   4   5
ENDBRANCH   3   4
ENDBRANCH   2   3
ENDBRANCH   1   2
BRANCH   1  10
ATOM     10  C   UNL     1       5.580  48.959  -0.883  1.00  0.00     0.000 C 
BRANCH  10  11
ATOM     11  C   UNL     1       5.971  48.225   0.411  1.00  0.00    -0.000 C 
BRANCH  11  12
ATOM     12  C   UNL     1       4.764  47.609   1.142  1.00  0.00    -0.000 C 
BRANCH  12  13
ATOM     13  C   UNL     1       4.991  47.276   2.628  1.00  0.00    -0.000 C 
BRANCH  13  14
ATOM     14  C   UNL     1       4.344  45.945   3.050  1.00  0.00    -0.000 C 
BRANCH  14  15
ATOM     15  C   UNL     1       2.955  45.742   2.425  1.00  0.00    -0.003 C 
ATOM     16  C   UNL     1       1.817  46.007   3.412  1.00  0.00     0.004 C 
ENDBRANCH  14  15
ENDBRANCH  13  14
ENDBRANCH  12  13
ENDBRANCH  11  12
ENDBRANCH  10  11
ENDBRANCH   1  10
TORSDOF 12
ENDMDL
MODEL 9
REMARK VINA RESULT:    -5.330      3.565      4.955
REMARK INTER + INTRA:          -9.976
REMARK INTER:                  -9.277
REMARK INTRA:                  -0.698
REMARK UNBOUND:                -0.907
REMARK SMILES CCCCCCCCCCCCCC(=O)[O-]
REMARK SMILES IDX 8 1 9 2 10 3 11 4 12 5 13 6 14 7 15 8 16 9 7 10 6 11 5 12
REMARK SMILES IDX 4 13 3 14 2 15 1 16
REMARK H PARENT
REMARK Flexibility Score: inf
ROOT
ATOM      1  C   UNL     1      -0.615  46.417   3.199  1.00  0.00     0.000 C 
ENDROOT
BRANCH   1   2
ATOM      2  C   UNL     1      -1.607  45.254   3.415  1.00  0.00     0.000 C 
BRANCH   2   3
ATOM      3  C   UNL     1      -2.302  44.741   2.141  1.00  0.00     0.000 C 
BRANCH   3   4
ATOM      4  C   UNL     1      -1.350  44.383   0.983  1.00  0.00     0.000 C 
BRANCH   4   5
ATOM      5  C   UNL     1      -1.452  45.341  -0.223  1.00  0.00     0.006 C 
BRANCH   5   6
ATOM      6  C   UNL     1      -0.590  44.890  -1.408  1.00  0.00     0.053 C 
BRANCH   6   7
ATOM      7  C   UNL     1      -1.241  45.265  -2.702  1.00  0.00     0.041 C 
ATOM      8  O   UNL     1      -1.274  44.444  -3.657  1.00  0.00    -0.550 OA
ATOM      9  O   UNL     1      -1.768  46.539  -2.871  1.00  0.00    -0.550 OA
ENDBRANCH   6   7
ENDBRANCH   5   6
ENDBRANCH   4   5
ENDBRANCH   3   4
ENDBRANCH   2   3
ENDBRANCH   1   2
BRANCH   1  10
ATOM     10  C   UNL     1       0.811  46.175   3.726  1.00  0.00     0.000 C 
BRANCH  10  11
ATOM     11  C   UNL     1       1.826  45.899   2.604  1.00  0.00    -0.000 C 
BRANCH  11  12
ATOM     12  C   UNL     1       3.236  45.579   3.134  1.00  0.00    -0.000 C 
BRANCH  12  13
ATOM     13  C   UNL     1       4.288  46.683   2.921  1.00  0.00    -0.000 C 
BRANCH  13  14
ATOM     14  C   UNL     1       4.381  47.150   1.457  1.00  0.00    -0.000 C 
BRANCH  14  15
ATOM     15  C   UNL     1       5.705  47.865   1.150  1.00  0.00    -0.003 C 
ATOM     16  C   UNL     1       5.505  49.206   0.442  1.00  0.00     0.004 C 
ENDBRANCH  14  15
ENDBRANCH  13  14
ENDBRANCH  12  13
ENDBRANCH  11  12
ENDBRANCH  10  11
ENDBRANCH   1  10
TORSDOF 12
ENDMDL
