MODEL 1
REMARK VINA RESULT:    -5.132      0.000      0.000
REMARK INTER + INTRA:         -11.860
REMARK INTER:                  -9.332
REMARK INTRA:                  -2.528
REMARK UNBOUND:                -2.528
REMARK SMILES CCCCCCCCCCCCCCCC(=O)[O-]
REMARK SMILES IDX 9 1 10 2 11 3 12 4 13 5 14 6 15 7 16 8 17 9 18 10 8 11 7 12
REMARK SMILES IDX 6 13 5 14 4 15 3 16 2 17 1 18
REMARK H PARENT
REMARK Flexibility Score: inf
ROOT
ATOM      1  C   UNL     1      13.169  -3.572  11.917  1.00  0.00     0.000 C 
ENDROOT
BRANCH   1   2
ATOM      2  C   UNL     1      14.460  -2.817  12.266  1.00  0.00     0.000 C 
BRANCH   2   3
ATOM      3  C   UNL     1      14.598  -2.644  13.786  1.00  0.00     0.000 C 
BRANCH   3   4
ATOM      4  C   UNL     1      13.244  -2.674  14.514  1.00  0.00     0.000 C 
BRANCH   4   5
ATOM      5  C   UNL     1      13.283  -3.518  15.800  1.00  0.00     0.000 C 
BRANCH   5   6
ATOM      6  C   UNL     1      14.717  -3.785  16.294  1.00  0.00     0.006 C 
BRANCH   6   7
ATOM      7  C   UNL     1      15.179  -2.859  17.431  1.00  0.00     0.053 C 
BRANCH   7   8
ATOM      8  C   UNL     1      16.672  -2.786  17.522  1.00  0.00     0.041 C 
ATOM      9  O   UNL     1      17.370  -2.736  16.475  1.00  0.00    -0.550 OA
ATOM     10  O   UNL     1      17.291  -2.741  18.766  1.00  0.00    -0.550 OA
ENDBRANCH   7   8
ENDBRANCH   6   7
ENDBRANCH   5   6
ENDBRANCH   4   5
ENDBRANCH   3   4
ENDBRANCH   2   3
ENDBRANCH   1   2
BRANCH   1  11
ATOM     11  C   UNL     1      13.401  -4.723  10.924  1.00  0.00     0.000 C 
BRANCH  11  12
ATOM     12  C   UNL     1      14.094  -5.933  11.574  1.00  0.00    -0.000 C 
BRANCH  12  13
ATOM     13  C   UNL     1      13.449  -6.332  12.912  1.00  0.00    -0.000 C 
BRANCH  13  14
ATOM     14  C   UNL     1      14.489  -6.621  14.007  1.00  0.00    -0.000 C 
BRANCH  14  15
ATOM     15  C   UNL     1      15.921  -6.732  13.454  1.00  0.00    -0.000 C 
BRANCH  15  16
ATOM     16  C   UNL     1      16.845  -5.545  13.797  1.00  0.00    -0.000 C 
BRANCH  16  17
ATOM     17  C   UNL     1      17.559  -4.908  12.591  1.00  0.00    -0.003 C 
ATOM     18  C   UNL     1      17.784  -5.894  11.444  1.00  0.00     0.004 C 
ENDBRANCH  16  17
ENDBRANCH  15  16
ENDBRANCH  14  15
ENDBRANCH  13  14
ENDBRANCH  12  13
ENDBRANCH  11  12
ENDBRANCH   1  11
TORSDOF 14
ENDMDL
MODEL 2
REMARK VINA RESULT:    -5.027      2.326      4.450
REMARK INTER + INTRA:         -11.670
REMARK INTER:                  -9.833
REMARK INTRA:                  -1.836
REMARK UNBOUND:                -2.528
REMARK SMILES CCCCCCCCCCCCCCCC(=O)[O-]
REMARK SMILES IDX 9 1 10 2 11 3 12 4 13 5 14 6 15 7 16 8 17 9 18 10 8 11 7 12
REMARK SMILES IDX 6 13 5 14 4 15 3 16 2 17 1 18
REMARK H PARENT
REMARK Flexibility Score: inf
ROOT
ATOM      1  C   UNL     1      15.406  -5.037  11.681  1.00  0.00     0.000 C 
ENDROOT
BRANCH   1   2
ATOM      2  C   UNL     1      16.481  -5.599  10.739  1.00  0.00     0.000 C 
BRANCH   2   3
ATOM      3  C   UNL     1      17.778  -5.898  11.506  1.00  0.00     0.000 C 
BRANCH   3   4
ATOM      4  C   UNL     1      18.033  -4.905  12.653  1.00  0.00     0.000 C 
BRANCH   4   5
ATOM      5  C   UNL     1      19.404  -4.216  12.543  1.00  0.00     0.000 C 
BRANCH   5   6
ATOM      6  C   UNL     1      19.379  -2.758  13.041  1.00  0.00     0.006 C 
BRANCH   6   7
ATOM      7  C   UNL     1      18.087  -2.358  13.770  1.00  0.00     0.053 C 
BRANCH   7   8
ATOM      8  C   UNL     1      17.427  -1.174  13.134  1.00  0.00     0.041 C 
ATOM      9  O   UNL     1      16.303  -1.295  12.580  1.00  0.00    -0.550 OA
ATOM     10  O   UNL     1      18.041   0.072  13.180  1.00  0.00    -0.550 OA
ENDBRANCH   7   8
ENDBRANCH   6   7
ENDBRANCH   5   6
ENDBRANCH   4   5
ENDBRANCH   3   4
ENDBRANCH   2   3
ENDBRANCH   1   2
BRANCH   1  11
ATOM     11  C   UNL     1      14.093  -5.835  11.629  1.00  0.00     0.000 C 
BRANCH  11  12
ATOM     12  C   UNL     1      13.743  -6.484  12.980  1.00  0.00    -0.000 C 
BRANCH  12  13
ATOM     13  C   UNL     1      14.972  -7.086  13.680  1.00  0.00    -0.000 C 
BRANCH  13  14
ATOM     14  C   UNL     1      14.962  -6.851  15.200  1.00  0.00    -0.000 C 
BRANCH  14  15
ATOM     15  C   UNL     1      16.189  -6.061  15.688  1.00  0.00    -0.000 C 
BRANCH  15  16
ATOM     16  C   UNL     1      16.037  -4.527  15.637  1.00  0.00    -0.000 C 
BRANCH  16  17
ATOM     17  C   UNL     1      14.676  -3.992  16.116  1.00  0.00    -0.003 C 
ATOM     18  C   UNL     1      14.797  -3.023  17.291  1.00  0.00     0.004 C 
ENDBRANCH  16  17
ENDBRANCH  15  16
ENDBRANCH  14  15
ENDBRANCH  13  14
ENDBRANCH  12  13
ENDBRANCH  11  12
ENDBRANCH   1  11
TORSDOF 14
ENDMDL
MODEL 3
REMARK VINA RESULT:    -4.996      2.313      4.718
REMARK INTER + INTRA:         -11.614
REMARK INTER:                  -9.443
REMARK INTRA:                  -2.170
REMARK UNBOUND:                -2.528
REMARK SMILES CCCCCCCCCCCCCCCC(=O)[O-]
REMARK SMILES IDX 9 1 10 2 11 3 12 4 13 5 14 6 15 7 16 8 17 9 18 10 8 11 7 12
REMARK SMILES IDX 6 13 5 14 4 15 3 16 2 17 1 18
REMARK H PARENT
REMARK Flexibility Score: inf
ROOT
ATOM      1  C   UNL     1      16.410  -5.859  11.787  1.00  0.00     0.000 C 
ENDROOT
BRANCH   1   2
ATOM      2  C   UNL     1      15.754  -5.559  10.431  1.00  0.00     0.000 C 
BRANCH   2   3
ATOM      3  C   UNL     1      14.227  -5.471  10.570  1.00  0.00     0.000 C 
BRANCH   3   4
ATOM      4  C   UNL     1      13.757  -5.553  12.032  1.00  0.00     0.000 C 
BRANCH   4   5
ATOM      5  C   UNL     1      12.719  -4.472  12.380  1.00  0.00     0.000 C 
BRANCH   5   6
ATOM      6  C   UNL     1      13.191  -3.052  12.016  1.00  0.00     0.006 C 
BRANCH   6   7
ATOM      7  C   UNL     1      14.417  -2.568  12.807  1.00  0.00     0.053 C 
BRANCH   7   8
ATOM      8  C   UNL     1      14.964  -1.284  12.263  1.00  0.00     0.041 C 
ATOM      9  O   UNL     1      16.197  -1.036  12.342  1.00  0.00    -0.550 OA
ATOM     10  O   UNL     1      14.118  -0.376  11.639  1.00  0.00    -0.550 OA
ENDBRANCH   7   8
ENDBRANCH   6   7
ENDBRANCH   5   6
ENDBRANCH   4   5
ENDBRANCH   3   4
ENDBRANCH   2   3
ENDBRANCH   1   2
BRANCH   1  11
ATOM     11  C   UNL     1      17.946  -5.814  11.729  1.00  0.00     0.000 C 
BRANCH  11  12
ATOM     12  C   UNL     1      18.536  -4.671  12.572  1.00  0.00    -0.000 C 
BRANCH  12  13
ATOM     13  C   UNL     1      17.540  -4.132  13.611  1.00  0.00    -0.000 C 
BRANCH  13  14
ATOM     14  C   UNL     1      17.824  -4.654  15.030  1.00  0.00    -0.000 C 
BRANCH  14  15
ATOM     15  C   UNL     1      16.762  -5.655  15.519  1.00  0.00    -0.000 C 
BRANCH  15  16
ATOM     16  C   UNL     1      15.305  -5.161  15.417  1.00  0.00    -0.000 C 
BRANCH  16  17
ATOM     17  C   UNL     1      14.971  -3.938  16.290  1.00  0.00    -0.003 C 
ATOM     18  C   UNL     1      13.492  -3.556  16.239  1.00  0.00     0.004 C 
ENDBRANCH  16  17
ENDBRANCH  15  16
ENDBRANCH  14  15
ENDBRANCH  13  14
ENDBRANCH  12  13
ENDBRANCH  11  12
ENDBRANCH   1  11
TORSDOF 14
ENDMDL
MODEL 4
REMARK VINA RESULT:    -4.989      3.219      6.289
REMARK INTER + INTRA:         -11.600
REMARK INTER:                  -9.971
REMARK INTRA:                  -1.629
REMARK UNBOUND:                -2.528
REMARK SMILES CCCCCCCCCCCCCCCC(=O)[O-]
REMARK SMILES IDX 9 1 10 2 11 3 12 4 13 5 14 6 15 7 16 8 17 9 18 10 8 11 7 12
REMARK SMILES IDX 6 13 5 14 4 15 3 16 2 17 1 18
REMARK H PARENT
REMARK Flexibility Score: inf
ROOT
ATOM      1  C   UNL     1      19.405  -4.176  15.058  1.00  0.00     0.000 C 
ENDROOT
BRANCH   1   2
ATOM      2  C   UNL     1      19.025  -3.137  13.992  1.00  0.00     0.000 C 
BRANCH   2   3
ATOM      3  C   UNL     1      18.169  -3.776  12.888  1.00  0.00     0.000 C 
BRANCH   3   4
ATOM      4  C   UNL     1      18.871  -4.961  12.202  1.00  0.00     0.000 C 
BRANCH   4   5
ATOM      5  C   UNL     1      17.882  -6.046  11.741  1.00  0.00     0.000 C 
BRANCH   5   6
ATOM      6  C   UNL     1      16.457  -5.502  11.526  1.00  0.00     0.006 C 
BRANCH   6   7
ATOM      7  C   UNL     1      16.004  -5.472  10.058  1.00  0.00     0.053 C 
BRANCH   7   8
ATOM      8  C   UNL     1      14.522  -5.291   9.932  1.00  0.00     0.041 C 
ATOM      9  O   UNL     1      13.868  -5.974   9.101  1.00  0.00    -0.550 OA
ATOM     10  O   UNL     1      13.860  -4.390  10.757  1.00  0.00    -0.550 OA
ENDBRANCH   7   8
ENDBRANCH   6   7
ENDBRANCH   5   6
ENDBRANCH   4   5
ENDBRANCH   3   4
ENDBRANCH   2   3
ENDBRANCH   1   2
BRANCH   1  11
ATOM     11  C   UNL     1      18.197  -4.658  15.878  1.00  0.00     0.000 C 
BRANCH  11  12
ATOM     12  C   UNL     1      17.744  -3.626  16.925  1.00  0.00    -0.000 C 
BRANCH  12  13
ATOM     13  C   UNL     1      16.528  -2.809  16.458  1.00  0.00    -0.000 C 
BRANCH  13  14
ATOM     14  C   UNL     1      15.295  -3.017  17.353  1.00  0.00    -0.000 C 
BRANCH  14  15
ATOM     15  C   UNL     1      14.122  -3.676  16.607  1.00  0.00    -0.000 C 
BRANCH  15  16
ATOM     16  C   UNL     1      14.530  -4.624  15.460  1.00  0.00    -0.000 C 
BRANCH  16  17
ATOM     17  C   UNL     1      14.822  -6.073  15.889  1.00  0.00    -0.003 C 
ATOM     18  C   UNL     1      15.453  -6.908  14.775  1.00  0.00     0.004 C 
ENDBRANCH  16  17
ENDBRANCH  15  16
ENDBRANCH  14  15
ENDBRANCH  13  14
ENDBRANCH  12  13
ENDBRANCH  11  12
ENDBRANCH   1  11
TORSDOF 14
ENDMDL
MODEL 5
REMARK VINA RESULT:    -4.981      1.777      4.644
REMARK INTER + INTRA:         -11.585
REMARK INTER:                  -9.479
REMARK INTRA:                  -2.107
REMARK UNBOUND:                -2.528
REMARK SMILES CCCCCCCCCCCCCCCC(=O)[O-]
REMARK SMILES IDX 9 1 10 2 11 3 12 4 13 5 14 6 15 7 16 8 17 9 18 10 8 11 7 12
REMARK SMILES IDX 6 13 5 14 4 15 3 16 2 17 1 18
REMARK H PARENT
REMARK Flexibility Score: inf
ROOT
ATOM      1  C   UNL     1      13.921  -6.294  13.020  1.00  0.00     0.000 C 
ENDROOT
BRANCH   1   2
ATOM      2  C   UNL     1      14.361  -5.653  11.695  1.00  0.00     0.000 C 
BRANCH   2   3
ATOM      3  C   UNL     1      15.740  -4.991  11.840  1.00  0.00     0.000 C 
BRANCH   3   4
ATOM      4  C   UNL     1      16.852  -5.769  11.117  1.00  0.00     0.000 C 
BRANCH   4   5
ATOM      5  C   UNL     1      18.222  -5.610  11.797  1.00  0.00     0.000 C 
BRANCH   5   6
ATOM      6  C   UNL     1      18.208  -4.564  12.928  1.00  0.00     0.006 C 
BRANCH   6   7
ATOM      7  C   UNL     1      19.268  -3.460  12.786  1.00  0.00     0.053 C 
BRANCH   7   8
ATOM      8  C   UNL     1      19.033  -2.330  13.740  1.00  0.00     0.041 C 
ATOM      9  O   UNL     1      19.494  -2.381  14.910  1.00  0.00    -0.550 OA
ATOM     10  O   UNL     1      18.330  -1.205  13.324  1.00  0.00    -0.550 OA
ENDBRANCH   7   8
ENDBRANCH   6   7
ENDBRANCH   5   6
ENDBRANCH   4   5
ENDBRANCH   3   4
ENDBRANCH   2   3
ENDBRANCH   1   2
BRANCH   1  11
ATOM     11  C   UNL     1      15.048  -7.089  13.700  1.00  0.00     0.000 C 
BRANCH  11  12
ATOM     12  C   UNL     1      15.152  -6.795  15.207  1.00  0.00    -0.000 C 
BRANCH  12  13
ATOM     13  C   UNL     1      16.399  -5.968  15.560  1.00  0.00    -0.000 C 
BRANCH  13  14
ATOM     14  C   UNL     1      16.050  -4.617  16.206  1.00  0.00    -0.000 C 
BRANCH  14  15
ATOM     15  C   UNL     1      15.163  -3.738  15.307  1.00  0.00    -0.000 C 
BRANCH  15  16
ATOM     16  C   UNL     1      13.768  -3.418  15.883  1.00  0.00    -0.000 C 
BRANCH  16  17
ATOM     17  C   UNL     1      12.715  -3.004  14.840  1.00  0.00    -0.003 C 
ATOM     18  C   UNL     1      13.332  -2.415  13.571  1.00  0.00     0.004 C 
ENDBRANCH  16  17
ENDBRANCH  15  16
ENDBRANCH  14  15
ENDBRANCH  13  14
ENDBRANCH  12  13
ENDBRANCH  11  12
ENDBRANCH   1  11
TORSDOF 14
ENDMDL
MODEL 6
REMARK VINA RESULT:    -4.953      2.724      4.864
REMARK INTER + INTRA:         -11.535
REMARK INTER:                  -9.511
REMARK INTRA:                  -2.024
REMARK UNBOUND:                -2.528
REMARK SMILES CCCCCCCCCCCCCCCC(=O)[O-]
REMARK SMILES IDX 9 1 10 2 11 3 12 4 13 5 14 6 15 7 16 8 17 9 18 10 8 11 7 12
REMARK SMILES IDX 6 13 5 14 4 15 3 16 2 17 1 18
REMARK H PARENT
REMARK Flexibility Score: inf
ROOT
ATOM      1  C   UNL     1      16.360  -2.882  16.418  1.00  0.00     0.000 C 
ENDROOT
BRANCH   1   2
ATOM      2  C   UNL     1      15.160  -2.996  17.371  1.00  0.00     0.000 C 
BRANCH   2   3
ATOM      3  C   UNL     1      13.926  -3.538  16.633  1.00  0.00     0.000 C 
BRANCH   3   4
ATOM      4  C   UNL     1      13.977  -3.278  15.118  1.00  0.00     0.000 C 
BRANCH   4   5
ATOM      5  C   UNL     1      12.630  -2.792  14.556  1.00  0.00     0.000 C 
BRANCH   5   6
ATOM      6  C   UNL     1      12.678  -2.526  13.040  1.00  0.00     0.006 C 
BRANCH   6   7
ATOM      7  C   UNL     1      13.763  -3.316  12.291  1.00  0.00     0.053 C 
BRANCH   7   8
ATOM      8  C   UNL     1      13.211  -4.547  11.640  1.00  0.00     0.041 C 
ATOM      9  O   UNL     1      13.272  -5.658  12.231  1.00  0.00    -0.550 OA
ATOM     10  O   UNL     1      12.602  -4.462  10.395  1.00  0.00    -0.550 OA
ENDBRANCH   7   8
ENDBRANCH   6   7
ENDBRANCH   5   6
ENDBRANCH   4   5
ENDBRANCH   3   4
ENDBRANCH   2   3
ENDBRANCH   1   2
BRANCH   1  11
ATOM     11  C   UNL     1      17.559  -3.734  16.864  1.00  0.00     0.000 C 
BRANCH  11  12
ATOM     12  C   UNL     1      17.815  -4.929  15.929  1.00  0.00    -0.000 C 
BRANCH  12  13
ATOM     13  C   UNL     1      16.709  -5.993  16.017  1.00  0.00    -0.000 C 
BRANCH  13  14
ATOM     14  C   UNL     1      16.169  -6.401  14.636  1.00  0.00    -0.000 C 
BRANCH  14  15
ATOM     15  C   UNL     1      16.478  -5.361  13.544  1.00  0.00    -0.000 C 
BRANCH  15  16
ATOM     16  C   UNL     1      16.781  -5.950  12.151  1.00  0.00    -0.000 C 
BRANCH  16  17
ATOM     17  C   UNL     1      18.259  -5.884  11.725  1.00  0.00    -0.003 C 
ATOM     18  C   UNL     1      19.048  -4.813  12.478  1.00  0.00     0.004 C 
ENDBRANCH  16  17
ENDBRANCH  15  16
ENDBRANCH  14  15
ENDBRANCH  13  14
ENDBRANCH  12  13
ENDBRANCH  11  12
ENDBRANCH   1  11
TORSDOF 14
ENDMDL
MODEL 7
REMARK VINA RESULT:    -4.948      3.286      5.895
REMARK INTER + INTRA:         -11.526
REMARK INTER:                  -9.348
REMARK INTRA:                  -2.178
REMARK UNBOUND:                -2.528
REMARK SMILES CCCCCCCCCCCCCCCC(=O)[O-]
REMARK SMILES IDX 9 1 10 2 11 3 12 4 13 5 14 6 15 7 16 8 17 9 18 10 8 11 7 12
REMARK SMILES IDX 6 13 5 14 4 15 3 16 2 17 1 18
REMARK H PARENT
REMARK Flexibility Score: inf
ROOT
ATOM      1  C   UNL     1      15.017  -4.120  15.675  1.00  0.00     0.000 C 
ENDROOT
BRANCH   1   2
ATOM      2  C   UNL     1      14.859  -5.638  15.855  1.00  0.00     0.000 C 
BRANCH   2   3
ATOM      3  C   UNL     1      16.081  -6.384  15.297  1.00  0.00     0.000 C 
BRANCH   3   4
ATOM      4  C   UNL     1      15.789  -7.092  13.964  1.00  0.00     0.000 C 
BRANCH   4   5
ATOM      5  C   UNL     1      16.471  -6.405  12.768  1.00  0.00     0.000 C 
BRANCH   5   6
ATOM      6  C   UNL     1      15.583  -5.332  12.111  1.00  0.00     0.006 C 
BRANCH   6   7
ATOM      7  C   UNL     1      14.136  -5.779  11.849  1.00  0.00     0.053 C 
BRANCH   7   8
ATOM      8  C   UNL     1      13.609  -5.241  10.554  1.00  0.00     0.041 C 
ATOM      9  O   UNL     1      14.014  -5.714   9.459  1.00  0.00    -0.550 OA
ATOM     10  O   UNL     1      12.646  -4.240  10.557  1.00  0.00    -0.550 OA
ENDBRANCH   7   8
ENDBRANCH   6   7
ENDBRANCH   5   6
ENDBRANCH   4   5
ENDBRANCH   3   4
ENDBRANCH   2   3
ENDBRANCH   1   2
BRANCH   1  11
ATOM     11  C   UNL     1      14.924  -3.350  17.003  1.00  0.00     0.000 C 
BRANCH  11  12
ATOM     12  C   UNL     1      16.244  -2.655  17.377  1.00  0.00    -0.000 C 
BRANCH  12  13
ATOM     13  C   UNL     1      17.438  -3.623  17.384  1.00  0.00    -0.000 C 
BRANCH  13  14
ATOM     14  C   UNL     1      18.610  -3.125  16.521  1.00  0.00    -0.000 C 
BRANCH  14  15
ATOM     15  C   UNL     1      19.022  -4.136  15.437  1.00  0.00    -0.000 C 
BRANCH  15  16
ATOM     16  C   UNL     1      18.657  -3.730  13.994  1.00  0.00    -0.000 C 
BRANCH  16  17
ATOM     17  C   UNL     1      17.686  -2.541  13.881  1.00  0.00    -0.003 C 
ATOM     18  C   UNL     1      18.352  -1.279  13.333  1.00  0.00     0.004 C 
ENDBRANCH  16  17
ENDBRANCH  15  16
ENDBRANCH  14  15
ENDBRANCH  13  14
ENDBRANCH  12  13
ENDBRANCH  11  12
ENDBRANCH   1  11
TORSDOF 14
ENDMDL
MODEL 8
REMARK VINA RESULT:    -4.930      1.382      3.630
REMARK INTER + INTRA:         -11.494
REMARK INTER:                  -8.955
REMARK INTRA:                  -2.538
REMARK UNBOUND:                -2.528
REMARK SMILES CCCCCCCCCCCCCCCC(=O)[O-]
REMARK SMILES IDX 9 1 10 2 11 3 12 4 13 5 14 6 15 7 16 8 17 9 18 10 8 11 7 12
REMARK SMILES IDX 6 13 5 14 4 15 3 16 2 17 1 18
REMARK H PARENT
REMARK Flexibility Score: inf
ROOT
ATOM      1  C   UNL     1      16.806  -5.696  13.398  1.00  0.00     0.000 C 
ENDROOT
BRANCH   1   2
ATOM      2  C   UNL     1      15.734  -6.794  13.317  1.00  0.00     0.000 C 
BRANCH   2   3
ATOM      3  C   UNL     1      14.836  -6.774  14.563  1.00  0.00     0.000 C 
BRANCH   3   4
ATOM      4  C   UNL     1      15.402  -5.894  15.690  1.00  0.00     0.000 C 
BRANCH   4   5
ATOM      5  C   UNL     1      14.481  -4.711  16.035  1.00  0.00     0.000 C 
BRANCH   5   6
ATOM      6  C   UNL     1      15.260  -3.463  16.491  1.00  0.00     0.006 C 
BRANCH   6   7
ATOM      7  C   UNL     1      16.749  -3.714  16.782  1.00  0.00     0.053 C 
BRANCH   7   8
ATOM      8  C   UNL     1      17.639  -2.981  15.827  1.00  0.00     0.041 C 
ATOM      9  O   UNL     1      17.141  -2.290  14.899  1.00  0.00    -0.550 OA
ATOM     10  O   UNL     1      19.018  -3.035  15.981  1.00  0.00    -0.550 OA
ENDBRANCH   7   8
ENDBRANCH   6   7
ENDBRANCH   5   6
ENDBRANCH   4   5
ENDBRANCH   3   4
ENDBRANCH   2   3
ENDBRANCH   1   2
BRANCH   1  11
ATOM     11  C   UNL     1      16.970  -4.925  12.078  1.00  0.00     0.000 C 
BRANCH  11  12
ATOM     12  C   UNL     1      16.669  -5.794  10.845  1.00  0.00    -0.000 C 
BRANCH  12  13
ATOM     13  C   UNL     1      15.688  -5.118   9.873  1.00  0.00    -0.000 C 
BRANCH  13  14
ATOM     14  C   UNL     1      14.276  -5.725   9.939  1.00  0.00    -0.000 C 
BRANCH  14  15
ATOM     15  C   UNL     1      13.233  -4.745  10.506  1.00  0.00    -0.000 C 
BRANCH  15  16
ATOM     16  C   UNL     1      13.025  -4.826  12.032  1.00  0.00    -0.000 C 
BRANCH  16  17
ATOM     17  C   UNL     1      12.928  -3.467  12.747  1.00  0.00    -0.003 C 
ATOM     18  C   UNL     1      14.278  -2.760  12.868  1.00  0.00     0.004 C 
ENDBRANCH  16  17
ENDBRANCH  15  16
ENDBRANCH  14  15
ENDBRANCH  13  14
ENDBRANCH  12  13
ENDBRANCH  11  12
ENDBRANCH   1  11
TORSDOF 14
ENDMDL
MODEL 9
REMARK VINA RESULT:    -4.926      3.029      5.855
REMARK INTER + INTRA:         -11.486
REMARK INTER:                  -9.581
REMARK INTRA:                  -1.905
REMARK UNBOUND:                -2.528
REMARK SMILES CCCCCCCCCCCCCCCC(=O)[O-]
REMARK SMILES IDX 9 1 10 2 11 3 12 4 13 5 14 6 15 7 16 8 17 9 18 10 8 11 7 12
REMARK SMILES IDX 6 13 5 14 4 15 3 16 2 17 1 18
REMARK H PARENT
REMARK Flexibility Score: inf
ROOT
ATOM      1  C   UNL     1      18.029  -4.025  13.100  1.00  0.00     0.000 C 
ENDROOT
BRANCH   1   2
ATOM      2  C   UNL     1      18.167  -5.213  12.136  1.00  0.00     0.000 C 
BRANCH   2   3
ATOM      3  C   UNL     1      16.786  -5.759  11.742  1.00  0.00     0.000 C 
BRANCH   3   4
ATOM      4  C   UNL     1      16.531  -5.694  10.227  1.00  0.00     0.000 C 
BRANCH   4   5
ATOM      5  C   UNL     1      15.073  -5.337   9.888  1.00  0.00     0.000 C 
BRANCH   5   6
ATOM      6  C   UNL     1      14.158  -5.328  11.127  1.00  0.00     0.006 C 
BRANCH   6   7
ATOM      7  C   UNL     1      13.599  -3.944  11.494  1.00  0.00     0.053 C 
BRANCH   7   8
ATOM      8  C   UNL     1      12.105  -3.953  11.599  1.00  0.00     0.041 C 
ATOM      9  O   UNL     1      11.396  -3.747  10.579  1.00  0.00    -0.550 OA
ATOM     10  O   UNL     1      11.496  -4.219  12.819  1.00  0.00    -0.550 OA
ENDBRANCH   7   8
ENDBRANCH   6   7
ENDBRANCH   5   6
ENDBRANCH   4   5
ENDBRANCH   3   4
ENDBRANCH   2   3
ENDBRANCH   1   2
BRANCH   1  11
ATOM     11  C   UNL     1      18.753  -4.256  14.437  1.00  0.00     0.000 C 
BRANCH  11  12
ATOM     12  C   UNL     1      18.160  -3.418  15.583  1.00  0.00    -0.000 C 
BRANCH  12  13
ATOM     13  C   UNL     1      17.441  -4.282  16.632  1.00  0.00    -0.000 C 
BRANCH  13  14
ATOM     14  C   UNL     1      17.027  -5.658  16.084  1.00  0.00    -0.000 C 
BRANCH  14  15
ATOM     15  C   UNL     1      15.502  -5.812  15.953  1.00  0.00    -0.000 C 
BRANCH  15  16
ATOM     16  C   UNL     1      14.865  -5.026  14.788  1.00  0.00    -0.000 C 
BRANCH  16  17
ATOM     17  C   UNL     1      14.260  -3.666  15.177  1.00  0.00    -0.003 C 
ATOM     18  C   UNL     1      13.726  -3.639  16.609  1.00  0.00     0.004 C 
ENDBRANCH  16  17
ENDBRANCH  15  16
ENDBRANCH  14  15
ENDBRANCH  13  14
ENDBRANCH  12  13
ENDBRANCH  11  12
ENDBRANCH   1  11
TORSDOF 14
ENDMDL
