MODEL 1
REMARK VINA RESULT:    -5.981      0.000      0.000
REMARK INTER + INTRA:          -7.325
REMARK INTER:                  -7.030
REMARK INTRA:                  -0.295
REMARK UNBOUND:                -0.295
REMARK SMILES O=c1cc(-c2ccc(O)c(O)c2)oc2cc(O)cc(O)c12
REMARK SMILES IDX 4 1 3 2 2 3 1 4 21 5 19 6 18 7 16 8 15 9 14 10 13 11 5 12
REMARK SMILES IDX 6 13 7 14 8 15 12 16 10 17 9 18 11 20 20 22 17 24
REMARK H PARENT 9 19 11 21 20 23 17 25
REMARK Flexibility Score: inf
ROOT
ATOM      1  C   UNL     1      15.443  -9.064  12.395  1.00  0.00     0.138 A 
ATOM      2  C   UNL     1      14.479  -8.048  12.450  1.00  0.00     0.100 A 
ATOM      3  C   UNL     1      14.874  -6.714  12.349  1.00  0.00     0.197 A 
ATOM      4  O   UNL     1      13.993  -5.823  12.464  1.00  0.00    -0.289 OA
ATOM      5  C   UNL     1      16.241  -6.398  12.157  1.00  0.00     0.107 A 
ATOM      6  C   UNL     1      16.754  -5.075  11.999  1.00  0.00     0.134 A 
ATOM      7  C   UNL     1      18.139  -4.877  11.933  1.00  0.00     0.093 A 
ATOM      8  C   UNL     1      19.024  -5.953  11.958  1.00  0.00     0.123 A 
ATOM      9  C   UNL     1      18.530  -7.255  12.059  1.00  0.00     0.094 A 
ATOM     10  C   UNL     1      17.155  -7.484  12.161  1.00  0.00     0.146 A 
ATOM     11  O   UNL     1      16.726  -8.736  12.269  1.00  0.00    -0.456 OA
ENDROOT
BRANCH   1  12
ATOM     12  C   UNL     1      15.079 -10.499  12.498  1.00  0.00     0.021 A 
ATOM     13  C   UNL     1      16.058 -11.510  12.518  1.00  0.00     0.016 A 
ATOM     14  C   UNL     1      15.688 -12.853  12.626  1.00  0.00     0.051 A 
ATOM     15  C   UNL     1      14.340 -13.211  12.726  1.00  0.00     0.157 A 
ATOM     16  C   UNL     1      13.725 -10.863  12.612  1.00  0.00     0.062 A 
ATOM     17  C   UNL     1      13.352 -12.211  12.720  1.00  0.00     0.158 A 
BRANCH  15  18
ATOM     18  O   UNL     1      14.001 -14.559  12.831  1.00  0.00    -0.504 OA
ATOM     19  H   UNL     1      13.910 -15.023  13.728  1.00  0.00     0.293 HD
ENDBRANCH  15  18
BRANCH  17  20
ATOM     20  O   UNL     1      12.007 -12.560  12.823  1.00  0.00    -0.504 OA
ATOM     21  H   UNL     1      11.419 -12.193  13.562  1.00  0.00     0.293 HD
ENDBRANCH  17  20
ENDBRANCH   1  12
BRANCH   6  22
ATOM     22  O   UNL     1      15.954  -3.936  11.877  1.00  0.00    -0.507 OA
ATOM     23  H   UNL     1      14.948  -3.925  11.960  1.00  0.00     0.293 HD
ENDBRANCH   6  22
BRANCH   8  24
ATOM     24  O   UNL     1      20.394  -5.719  11.875  1.00  0.00    -0.508 OA
ATOM     25  H   UNL     1      20.962  -6.142  11.150  1.00  0.00     0.293 HD
ENDBRANCH   8  24
TORSDOF 5
ENDMDL
MODEL 2
REMARK VINA RESULT:    -5.879      1.391      7.461
REMARK INTER + INTRA:          -7.205
REMARK INTER:                  -6.913
REMARK INTRA:                  -0.293
REMARK UNBOUND:                -0.295
REMARK SMILES O=c1cc(-c2ccc(O)c(O)c2)oc2cc(O)cc(O)c12
REMARK SMILES IDX 4 1 3 2 2 3 1 4 21 5 19 6 18 7 16 8 15 9 14 10 13 11 5 12
REMARK SMILES IDX 6 13 7 14 8 15 12 16 10 17 9 18 11 20 20 22 17 24
REMARK H PARENT 9 19 11 21 20 23 17 25
REMARK Flexibility Score: inf
ROOT
ATOM      1  C   UNL     1      15.801  -9.311  12.381  1.00  0.00     0.138 A 
ATOM      2  C   UNL     1      16.565 -10.464  12.611  1.00  0.00     0.100 A 
ATOM      3  C   UNL     1      15.933 -11.704  12.701  1.00  0.00     0.197 A 
ATOM      4  O   UNL     1      16.637 -12.711  12.969  1.00  0.00    -0.289 OA
ATOM      5  C   UNL     1      14.531 -11.794  12.526  1.00  0.00     0.107 A 
ATOM      6  C   UNL     1      13.785 -13.011  12.554  1.00  0.00     0.134 A 
ATOM      7  C   UNL     1      12.387 -12.963  12.485  1.00  0.00     0.093 A 
ATOM      8  C   UNL     1      11.712 -11.753  12.328  1.00  0.00     0.123 A 
ATOM      9  C   UNL     1      12.436 -10.562  12.245  1.00  0.00     0.094 A 
ATOM     10  C   UNL     1      13.829 -10.572  12.344  1.00  0.00     0.146 A 
ATOM     11  O   UNL     1      14.480  -9.416  12.274  1.00  0.00    -0.456 OA
ENDROOT
BRANCH   1  12
ATOM     12  C   UNL     1      16.421  -7.966  12.277  1.00  0.00     0.021 A 
ATOM     13  C   UNL     1      15.653  -6.790  12.357  1.00  0.00     0.016 A 
ATOM     14  C   UNL     1      16.263  -5.536  12.266  1.00  0.00     0.051 A 
ATOM     15  C   UNL     1      17.648  -5.433  12.103  1.00  0.00     0.157 A 
ATOM     16  C   UNL     1      17.815  -7.856  12.126  1.00  0.00     0.062 A 
ATOM     17  C   UNL     1      18.429  -6.598  12.034  1.00  0.00     0.158 A 
BRANCH  15  18
ATOM     18  O   UNL     1      18.228  -4.168  12.015  1.00  0.00    -0.504 OA
ATOM     19  H   UNL     1      18.196  -3.506  12.781  1.00  0.00     0.293 HD
ENDBRANCH  15  18
BRANCH  17  20
ATOM     20  O   UNL     1      19.810  -6.503  11.876  1.00  0.00    -0.504 OA
ATOM     21  H   UNL     1      20.251  -6.628  10.972  1.00  0.00     0.293 HD
ENDBRANCH  17  20
ENDBRANCH   1  12
BRANCH   6  22
ATOM     22  O   UNL     1      14.364 -14.280  12.624  1.00  0.00    -0.507 OA
ATOM     23  H   UNL     1      13.855 -15.150  12.571  1.00  0.00     0.293 HD
ENDBRANCH   6  22
BRANCH   8  24
ATOM     24  O   UNL     1      10.322 -11.747  12.248  1.00  0.00    -0.508 OA
ATOM     25  H   UNL     1       9.749 -12.226  12.933  1.00  0.00     0.293 HD
ENDBRANCH   8  24
TORSDOF 5
ENDMDL
MODEL 3
REMARK VINA RESULT:    -5.710      1.202      2.711
REMARK INTER + INTRA:          -7.006
REMARK INTER:                  -6.688
REMARK INTRA:                  -0.318
REMARK UNBOUND:                -0.295
REMARK SMILES O=c1cc(-c2ccc(O)c(O)c2)oc2cc(O)cc(O)c12
REMARK SMILES IDX 4 1 3 2 2 3 1 4 21 5 19 6 18 7 16 8 15 9 14 10 13 11 5 12
REMARK SMILES IDX 6 13 7 14 8 15 12 16 10 17 9 18 11 20 20 22 17 24
REMARK H PARENT 9 19 11 21 20 23 17 25
REMARK Flexibility Score: inf
ROOT
ATOM      1  C   UNL     1      15.865  -9.374  12.420  1.00  0.00     0.138 A 
ATOM      2  C   UNL     1      17.230  -9.052  12.405  1.00  0.00     0.100 A 
ATOM      3  C   UNL     1      17.623  -7.717  12.315  1.00  0.00     0.197 A 
ATOM      4  O   UNL     1      18.854  -7.465  12.242  1.00  0.00    -0.289 OA
ATOM      5  C   UNL     1      16.644  -6.696  12.272  1.00  0.00     0.107 A 
ATOM      6  C   UNL     1      16.930  -5.298  12.222  1.00  0.00     0.134 A 
ATOM      7  C   UNL     1      15.879  -4.386  12.065  1.00  0.00     0.093 A 
ATOM      8  C   UNL     1      14.553  -4.813  12.017  1.00  0.00     0.123 A 
ATOM      9  C   UNL     1      14.259  -6.174  12.120  1.00  0.00     0.094 A 
ATOM     10  C   UNL     1      15.287  -7.112  12.243  1.00  0.00     0.146 A 
ATOM     11  O   UNL     1      14.966  -8.399  12.324  1.00  0.00    -0.456 OA
ENDROOT
BRANCH   1  12
ATOM     12  C   UNL     1      15.390 -10.777  12.514  1.00  0.00     0.021 A 
ATOM     13  C   UNL     1      16.288 -11.861  12.528  1.00  0.00     0.016 A 
ATOM     14  C   UNL     1      15.815 -13.172  12.628  1.00  0.00     0.051 A 
ATOM     15  C   UNL     1      14.443 -13.425  12.724  1.00  0.00     0.157 A 
ATOM     16  C   UNL     1      14.013 -11.036  12.625  1.00  0.00     0.062 A 
ATOM     17  C   UNL     1      13.536 -12.351  12.725  1.00  0.00     0.158 A 
BRANCH  15  18
ATOM     18  O   UNL     1      14.001 -14.743  12.822  1.00  0.00    -0.504 OA
ATOM     19  H   UNL     1      13.522 -15.208  12.060  1.00  0.00     0.293 HD
ENDBRANCH  15  18
BRANCH  17  20
ATOM     20  O   UNL     1      12.168 -12.595  12.825  1.00  0.00    -0.504 OA
ATOM     21  H   UNL     1      11.809 -13.509  13.076  1.00  0.00     0.293 HD
ENDBRANCH  17  20
ENDBRANCH   1  12
BRANCH   6  22
ATOM     22  O   UNL     1      18.213  -4.758  12.346  1.00  0.00    -0.507 OA
ATOM     23  H   UNL     1      18.573  -4.308  13.175  1.00  0.00     0.293 HD
ENDBRANCH   6  22
BRANCH   8  24
ATOM     24  O   UNL     1      13.534  -3.875  11.876  1.00  0.00    -0.508 OA
ATOM     25  H   UNL     1      12.793  -3.996  11.195  1.00  0.00     0.293 HD
ENDBRANCH   8  24
TORSDOF 5
ENDMDL
MODEL 4
REMARK VINA RESULT:    -4.919      1.392      6.902
REMARK INTER + INTRA:          -6.076
REMARK INTER:                  -5.762
REMARK INTRA:                  -0.314
REMARK UNBOUND:                -0.295
REMARK SMILES O=c1cc(-c2ccc(O)c(O)c2)oc2cc(O)cc(O)c12
REMARK SMILES IDX 4 1 3 2 2 3 1 4 21 5 19 6 18 7 16 8 15 9 14 10 13 11 5 12
REMARK SMILES IDX 6 13 7 14 8 15 12 16 10 17 9 18 11 20 20 22 17 24
REMARK H PARENT 9 19 11 21 20 23 17 25
REMARK Flexibility Score: inf
ROOT
ATOM      1  C   UNL     1      15.909  -8.026  12.597  1.00  0.00     0.138 A 
ATOM      2  C   UNL     1      14.533  -7.760  12.582  1.00  0.00     0.100 A 
ATOM      3  C   UNL     1      13.625  -8.819  12.583  1.00  0.00     0.197 A 
ATOM      4  O   UNL     1      12.399  -8.549  12.506  1.00  0.00    -0.289 OA
ATOM      5  C   UNL     1      14.099 -10.152  12.632  1.00  0.00     0.107 A 
ATOM      6  C   UNL     1      13.264 -11.309  12.680  1.00  0.00     0.134 A 
ATOM      7  C   UNL     1      13.846 -12.581  12.609  1.00  0.00     0.093 A 
ATOM      8  C   UNL     1      15.230 -12.740  12.554  1.00  0.00     0.123 A 
ATOM      9  C   UNL     1      16.057 -11.616  12.561  1.00  0.00     0.094 A 
ATOM     10  C   UNL     1      15.507 -10.332  12.597  1.00  0.00     0.146 A 
ATOM     11  O   UNL     1      16.328  -9.288  12.589  1.00  0.00    -0.456 OA
ENDROOT
BRANCH   1  12
ATOM     12  C   UNL     1      16.919  -6.938  12.597  1.00  0.00     0.021 A 
ATOM     13  C   UNL     1      16.589  -5.623  12.974  1.00  0.00     0.016 A 
ATOM     14  C   UNL     1      17.561  -4.619  12.975  1.00  0.00     0.051 A 
ATOM     15  C   UNL     1      18.879  -4.910  12.610  1.00  0.00     0.157 A 
ATOM     16  C   UNL     1      18.249  -7.227  12.244  1.00  0.00     0.062 A 
ATOM     17  C   UNL     1      19.226  -6.221  12.243  1.00  0.00     0.158 A 
BRANCH  15  18
ATOM     18  O   UNL     1      19.827  -3.888  12.619  1.00  0.00    -0.504 OA
ATOM     19  H   UNL     1      20.407  -3.684  11.814  1.00  0.00     0.293 HD
ENDBRANCH  15  18
BRANCH  17  20
ATOM     20  O   UNL     1      20.539  -6.519  11.882  1.00  0.00    -0.504 OA
ATOM     21  H   UNL     1      21.327  -6.038  12.301  1.00  0.00     0.293 HD
ENDBRANCH  17  20
ENDBRANCH   1  12
BRANCH   6  22
ATOM     22  O   UNL     1      11.875 -11.265  12.819  1.00  0.00    -0.507 OA
ATOM     23  H   UNL     1      11.247 -10.782  12.194  1.00  0.00     0.293 HD
ENDBRANCH   6  22
BRANCH   8  24
ATOM     24  O   UNL     1      15.773 -14.021  12.499  1.00  0.00    -0.508 OA
ATOM     25  H   UNL     1      15.231 -14.838  12.756  1.00  0.00     0.293 HD
ENDBRANCH   8  24
TORSDOF 5
ENDMDL
MODEL 5
REMARK VINA RESULT:    -4.356      1.416      3.218
REMARK INTER + INTRA:          -5.415
REMARK INTER:                  -5.121
REMARK INTRA:                  -0.294
REMARK UNBOUND:                -0.295
REMARK SMILES O=c1cc(-c2ccc(O)c(O)c2)oc2cc(O)cc(O)c12
REMARK SMILES IDX 4 1 3 2 2 3 1 4 21 5 19 6 18 7 16 8 15 9 14 10 13 11 5 12
REMARK SMILES IDX 6 13 7 14 8 15 12 16 10 17 9 18 11 20 20 22 17 24
REMARK H PARENT 9 19 11 21 20 23 17 25
REMARK Flexibility Score: inf
ROOT
ATOM      1  C   UNL     1      15.504  -9.267  12.476  1.00  0.00     0.138 A 
ATOM      2  C   UNL     1      16.830  -8.877  12.241  1.00  0.00     0.100 A 
ATOM      3  C   UNL     1      17.145  -7.522  12.148  1.00  0.00     0.197 A 
ATOM      4  O   UNL     1      18.332  -7.205  11.875  1.00  0.00    -0.289 OA
ATOM      5  C   UNL     1      16.131  -6.550  12.324  1.00  0.00     0.107 A 
ATOM      6  C   UNL     1      16.344  -5.139  12.292  1.00  0.00     0.134 A 
ATOM      7  C   UNL     1      15.244  -4.275  12.362  1.00  0.00     0.093 A 
ATOM      8  C   UNL     1      13.949  -4.765  12.525  1.00  0.00     0.123 A 
ATOM      9  C   UNL     1      13.736  -6.142  12.611  1.00  0.00     0.094 A 
ATOM     10  C   UNL     1      14.808  -7.032  12.510  1.00  0.00     0.146 A 
ATOM     11  O   UNL     1      14.561  -8.335  12.584  1.00  0.00    -0.456 OA
ENDROOT
BRANCH   1  12
ATOM     12  C   UNL     1      15.113 -10.695  12.584  1.00  0.00     0.021 A 
ATOM     13  C   UNL     1      13.762 -11.090  12.622  1.00  0.00     0.016 A 
ATOM     14  C   UNL     1      13.422 -12.442  12.714  1.00  0.00     0.051 A 
ATOM     15  C   UNL     1      14.418 -13.422  12.761  1.00  0.00     0.157 A 
ATOM     16  C   UNL     1      16.110 -11.686  12.617  1.00  0.00     0.062 A 
ATOM     17  C   UNL     1      15.770 -13.043  12.711  1.00  0.00     0.158 A 
BRANCH  15  18
ATOM     18  O   UNL     1      14.047 -14.763  12.853  1.00  0.00    -0.504 OA
ATOM     19  H   UNL     1      13.308 -15.158  12.283  1.00  0.00     0.293 HD
ENDBRANCH  15  18
BRANCH  17  20
ATOM     20  O   UNL     1      16.768 -14.015  12.752  1.00  0.00    -0.504 OA
ATOM     21  H   UNL     1      16.556 -14.985  12.955  1.00  0.00     0.293 HD
ENDBRANCH  17  20
ENDBRANCH   1  12
BRANCH   6  22
ATOM     22  O   UNL     1      17.604  -4.540  12.217  1.00  0.00    -0.507 OA
ATOM     23  H   UNL     1      18.162  -4.267  13.013  1.00  0.00     0.293 HD
ENDBRANCH   6  22
BRANCH   8  24
ATOM     24  O   UNL     1      12.882  -3.875  12.606  1.00  0.00    -0.508 OA
ATOM     25  H   UNL     1      12.762  -3.262  13.404  1.00  0.00     0.293 HD
ENDBRANCH   8  24
TORSDOF 5
ENDMDL
MODEL 6
REMARK VINA RESULT:    -3.376      1.507      3.243
REMARK INTER + INTRA:          -4.263
REMARK INTER:                  -3.968
REMARK INTRA:                  -0.295
REMARK UNBOUND:                -0.295
REMARK SMILES O=c1cc(-c2ccc(O)c(O)c2)oc2cc(O)cc(O)c12
REMARK SMILES IDX 4 1 3 2 2 3 1 4 21 5 19 6 18 7 16 8 15 9 14 10 13 11 5 12
REMARK SMILES IDX 6 13 7 14 8 15 12 16 10 17 9 18 11 20 20 22 17 24
REMARK H PARENT 9 19 11 21 20 23 17 25
REMARK Flexibility Score: inf
ROOT
ATOM      1  C   UNL     1      14.554  -9.738  12.347  1.00  0.00     0.138 A 
ATOM      2  C   UNL     1      15.849 -10.225  12.569  1.00  0.00     0.100 A 
ATOM      3  C   UNL     1      16.917  -9.332  12.656  1.00  0.00     0.197 A 
ATOM      4  O   UNL     1      18.076  -9.804  12.794  1.00  0.00    -0.289 OA
ATOM      5  C   UNL     1      16.681  -7.940  12.551  1.00  0.00     0.107 A 
ATOM      6  C   UNL     1      17.688  -6.935  12.666  1.00  0.00     0.134 A 
ATOM      7  C   UNL     1      17.353  -5.595  12.429  1.00  0.00     0.093 A 
ATOM      8  C   UNL     1      16.042  -5.218  12.142  1.00  0.00     0.123 A 
ATOM      9  C   UNL     1      15.040  -6.188  12.080  1.00  0.00     0.094 A 
ATOM     10  C   UNL     1      15.347  -7.537  12.279  1.00  0.00     0.146 A 
ATOM     11  O   UNL     1      14.367  -8.430  12.198  1.00  0.00    -0.456 OA
ENDROOT
BRANCH   1  12
ATOM     12  C   UNL     1      13.381 -10.643  12.246  1.00  0.00     0.021 A 
ATOM     13  C   UNL     1      12.081 -10.147  12.033  1.00  0.00     0.016 A 
ATOM     14  C   UNL     1      10.996 -11.022  11.932  1.00  0.00     0.051 A 
ATOM     15  C   UNL     1      11.188 -12.403  12.032  1.00  0.00     0.157 A 
ATOM     16  C   UNL     1      13.570 -12.034  12.333  1.00  0.00     0.062 A 
ATOM     17  C   UNL     1      12.482 -12.913  12.232  1.00  0.00     0.158 A 
BRANCH  15  18
ATOM     18  O   UNL     1      10.086 -13.250  11.928  1.00  0.00    -0.504 OA
ATOM     19  H   UNL     1       9.318 -13.060  11.296  1.00  0.00     0.293 HD
ENDBRANCH  15  18
BRANCH  17  20
ATOM     20  O   UNL     1      12.681 -14.289  12.329  1.00  0.00    -0.504 OA
ATOM     21  H   UNL     1      13.274 -14.690  13.046  1.00  0.00     0.293 HD
ENDBRANCH  17  20
ENDBRANCH   1  12
BRANCH   6  22
ATOM     22  O   UNL     1      19.012  -7.192  13.031  1.00  0.00    -0.507 OA
ATOM     23  H   UNL     1      19.780  -6.551  12.905  1.00  0.00     0.293 HD
ENDBRANCH   6  22
BRANCH   8  24
ATOM     24  O   UNL     1      15.745  -3.875  11.927  1.00  0.00    -0.508 OA
ATOM     25  H   UNL     1      15.539  -3.248  12.696  1.00  0.00     0.293 HD
ENDBRANCH   8  24
TORSDOF 5
ENDMDL
