MODEL 1
REMARK VINA RESULT:    -7.026      0.000      0.000
REMARK INTER + INTRA:         -11.044
REMARK INTER:                  -9.285
REMARK INTRA:                  -1.759
REMARK UNBOUND:                -1.759
REMARK SMILES CC[C@H](C=C[C@H](C)[C@@H]1CC[C@H]2C3=CC[C@@H]4C[C@@H](O)CC[C@]4(C)[C@@H]3CC[C@]21C)C(C)C
REMARK SMILES IDX 6 1 7 2 5 3 4 4 3 5 2 6 1 7 28 8 29 9 30 10 8 11 9 12 26 13
REMARK SMILES IDX 10 14 11 15 25 16 27 17 12 18 24 19 23 20 13 21 21 22 14 23
REMARK SMILES IDX 15 24 20 25 22 26 16 27 19 28 17 29 18 30
REMARK H PARENT 18 31
REMARK Flexibility Score: inf
ROOT
ATOM      1  C   UNL     1     140.198 134.010 146.969  1.00  0.00     0.012 C 
ATOM      2  C   UNL     1     139.966 134.539 145.545  1.00  0.00     0.012 C 
ENDROOT
BRANCH   1   3
ATOM      3  C   UNL     1     139.302 132.795 147.148  1.00  0.00    -0.028 C 
ATOM      4  C   UNL     1     138.613 132.478 148.263  1.00  0.00    -0.027 C 
BRANCH   4   5
ATOM      5  C   UNL     1     138.572 133.310 149.536  1.00  0.00     0.014 C 
BRANCH   5   6
ATOM      6  C   UNL     1     137.139 133.278 150.123  1.00  0.00     0.004 C 
ATOM      7  C   UNL     1     136.405 131.966 149.846  1.00  0.00     0.004 C 
ENDBRANCH   5   6
BRANCH   5   8
ATOM      8  C   UNL     1     139.679 132.885 150.555  1.00  0.00    -0.011 C 
ATOM      9  C   UNL     1     139.445 133.389 151.992  1.00  0.00     0.008 C 
ATOM     10  C   UNL     1     139.888 131.362 150.553  1.00  0.00     0.008 C 
ENDBRANCH   5   8
ENDBRANCH   4   5
ENDBRANCH   1   3
BRANCH   1  11
ATOM     11  C   UNL     1     141.695 133.621 147.211  1.00  0.00     0.002 C 
ATOM     12  C   UNL     1     141.854 132.217 147.803  1.00  0.00     0.005 C 
ATOM     13  C   UNL     1     142.572 134.546 148.140  1.00  0.00    -0.023 C 
ATOM     14  C   UNL     1     143.271 132.176 148.329  1.00  0.00     0.009 C 
ATOM     15  C   UNL     1     143.498 133.559 148.927  1.00  0.00     0.021 C 
ATOM     16  C   UNL     1     143.400 135.564 147.298  1.00  0.00     0.008 C 
ATOM     17  C   UNL     1     141.729 135.336 149.176  1.00  0.00     0.012 C 
ATOM     18  C   UNL     1     144.973 133.944 148.929  1.00  0.00    -0.067 C 
ATOM     19  C   UNL     1     144.620 134.926 146.614  1.00  0.00     0.009 C 
ATOM     20  C   UNL     1     145.649 134.337 147.623  1.00  0.00     0.021 C 
ATOM     21  C   UNL     1     145.688 133.761 150.052  1.00  0.00    -0.027 C 
ATOM     22  C   UNL     1     146.964 135.190 147.804  1.00  0.00    -0.023 C 
ATOM     23  C   UNL     1     147.083 134.271 150.233  1.00  0.00     0.031 C 
ATOM     24  C   UNL     1     147.851 134.536 148.917  1.00  0.00     0.002 C 
ATOM     25  C   UNL     1     146.649 136.662 148.201  1.00  0.00     0.010 C 
ATOM     26  C   UNL     1     147.744 135.155 146.451  1.00  0.00     0.012 C 
ATOM     27  C   UNL     1     149.123 135.369 149.225  1.00  0.00     0.036 C 
ATOM     28  C   UNL     1     147.917 137.490 148.472  1.00  0.00     0.032 C 
ATOM     29  C   UNL     1     148.821 136.852 149.536  1.00  0.00     0.114 C 
BRANCH  29  30
ATOM     30  O   UNL     1     150.022 137.575 149.599  1.00  0.00    -0.393 OA
ATOM     31  H   UNL     1     150.747 136.914 149.756  1.00  0.00     0.210 HD
ENDBRANCH  29  30
ENDBRANCH   1  11
TORSDOF 6
ENDMDL
MODEL 2
REMARK VINA RESULT:    -6.699      2.973      8.542
REMARK INTER + INTRA:         -10.612
REMARK INTER:                  -8.763
REMARK INTRA:                  -1.850
REMARK UNBOUND:                -1.759
REMARK SMILES CC[C@H](C=C[C@H](C)[C@@H]1CC[C@H]2C3=CC[C@@H]4C[C@@H](O)CC[C@]4(C)[C@@H]3CC[C@]21C)C(C)C
REMARK SMILES IDX 6 1 7 2 5 3 4 4 3 5 2 6 1 7 28 8 29 9 30 10 8 11 9 12 26 13
REMARK SMILES IDX 10 14 11 15 25 16 27 17 12 18 24 19 23 20 13 21 21 22 14 23
REMARK SMILES IDX 15 24 20 25 22 26 16 27 19 28 17 29 18 30
REMARK H PARENT 18 31
REMARK Flexibility Score: inf
ROOT
ATOM      1  C   UNL     1     147.222 135.283 148.926  1.00  0.00     0.012 C 
ATOM      2  C   UNL     1     148.011 134.454 149.953  1.00  0.00     0.012 C 
ENDROOT
BRANCH   1   3
ATOM      3  C   UNL     1     148.174 135.608 147.787  1.00  0.00    -0.028 C 
ATOM      4  C   UNL     1     148.285 136.800 147.165  1.00  0.00    -0.027 C 
BRANCH   4   5
ATOM      5  C   UNL     1     147.503 138.055 147.526  1.00  0.00     0.014 C 
BRANCH   5   6
ATOM      6  C   UNL     1     148.416 139.015 148.327  1.00  0.00     0.004 C 
ATOM      7  C   UNL     1     149.905 138.716 148.151  1.00  0.00     0.004 C 
ENDBRANCH   5   6
BRANCH   5   8
ATOM      8  C   UNL     1     146.839 138.717 146.275  1.00  0.00    -0.011 C 
ATOM      9  C   UNL     1     147.816 139.020 145.124  1.00  0.00     0.008 C 
ATOM     10  C   UNL     1     145.654 137.881 145.761  1.00  0.00     0.008 C 
ENDBRANCH   5   8
ENDBRANCH   4   5
ENDBRANCH   1   3
BRANCH   1  11
ATOM     11  C   UNL     1     145.974 134.507 148.386  1.00  0.00     0.002 C 
ATOM     12  C   UNL     1     145.965 134.391 146.858  1.00  0.00     0.005 C 
ATOM     13  C   UNL     1     144.538 135.046 148.752  1.00  0.00    -0.023 C 
ATOM     14  C   UNL     1     144.549 133.994 146.508  1.00  0.00     0.009 C 
ATOM     15  C   UNL     1     143.679 134.796 147.468  1.00  0.00     0.021 C 
ATOM     16  C   UNL     1     143.955 134.296 149.988  1.00  0.00     0.008 C 
ATOM     17  C   UNL     1     144.519 136.569 149.048  1.00  0.00     0.012 C 
ATOM     18  C   UNL     1     142.339 134.115 147.727  1.00  0.00    -0.067 C 
ATOM     19  C   UNL     1     143.449 132.884 149.652  1.00  0.00     0.009 C 
ATOM     20  C   UNL     1     142.283 132.882 148.618  1.00  0.00     0.021 C 
ATOM     21  C   UNL     1     141.264 134.512 147.025  1.00  0.00    -0.027 C 
ATOM     22  C   UNL     1     140.858 132.585 149.227  1.00  0.00    -0.023 C 
ATOM     23  C   UNL     1     139.871 134.054 147.322  1.00  0.00     0.031 C 
ATOM     24  C   UNL     1     139.781 132.718 148.098  1.00  0.00     0.002 C 
ATOM     25  C   UNL     1     140.509 133.563 150.386  1.00  0.00     0.010 C 
ATOM     26  C   UNL     1     140.861 131.113 149.750  1.00  0.00     0.012 C 
ATOM     27  C   UNL     1     138.337 132.535 148.635  1.00  0.00     0.036 C 
ATOM     28  C   UNL     1     139.087 133.352 150.935  1.00  0.00     0.032 C 
ATOM     29  C   UNL     1     138.013 133.445 149.841  1.00  0.00     0.114 C 
BRANCH  29  30
ATOM     30  O   UNL     1     136.776 133.076 150.391  1.00  0.00    -0.393 OA
ATOM     31  H   UNL     1     136.138 133.806 150.177  1.00  0.00     0.210 HD
ENDBRANCH  29  30
ENDBRANCH   1  11
TORSDOF 6
ENDMDL
MODEL 3
REMARK VINA RESULT:    -6.698      5.901      9.495
REMARK INTER + INTRA:         -10.611
REMARK INTER:                  -9.127
REMARK INTRA:                  -1.484
REMARK UNBOUND:                -1.759
REMARK SMILES CC[C@H](C=C[C@H](C)[C@@H]1CC[C@H]2C3=CC[C@@H]4C[C@@H](O)CC[C@]4(C)[C@@H]3CC[C@]21C)C(C)C
REMARK SMILES IDX 6 1 7 2 5 3 4 4 3 5 2 6 1 7 28 8 29 9 30 10 8 11 9 12 26 13
REMARK SMILES IDX 10 14 11 15 25 16 27 17 12 18 24 19 23 20 13 21 21 22 14 23
REMARK SMILES IDX 15 24 20 25 22 26 16 27 19 28 17 29 18 30
REMARK H PARENT 18 31
REMARK Flexibility Score: inf
ROOT
ATOM      1  C   UNL     1     150.371 132.602 153.305  1.00  0.00     0.012 C 
ATOM      2  C   UNL     1     149.829 131.167 153.411  1.00  0.00     0.012 C 
ENDROOT
BRANCH   1   3
ATOM      3  C   UNL     1     151.781 132.591 153.871  1.00  0.00    -0.028 C 
ATOM      4  C   UNL     1     152.108 132.581 155.179  1.00  0.00    -0.027 C 
BRANCH   4   5
ATOM      5  C   UNL     1     151.116 132.530 156.332  1.00  0.00     0.014 C 
BRANCH   5   6
ATOM      6  C   UNL     1     151.610 131.514 157.390  1.00  0.00     0.004 C 
ATOM      7  C   UNL     1     150.931 130.149 157.275  1.00  0.00     0.004 C 
ENDBRANCH   5   6
BRANCH   5   8
ATOM      8  C   UNL     1     150.816 133.950 156.915  1.00  0.00    -0.011 C 
ATOM      9  C   UNL     1     151.901 135.001 156.614  1.00  0.00     0.008 C 
ATOM     10  C   UNL     1     149.439 134.462 156.464  1.00  0.00     0.008 C 
ENDBRANCH   5   8
ENDBRANCH   4   5
ENDBRANCH   1   3
BRANCH   1  11
ATOM     11  C   UNL     1     150.383 133.112 151.825  1.00  0.00     0.002 C 
ATOM     12  C   UNL     1     151.766 133.006 151.174  1.00  0.00     0.005 C 
ATOM     13  C   UNL     1     149.922 134.593 151.537  1.00  0.00    -0.023 C 
ATOM     14  C   UNL     1     151.686 133.885 149.947  1.00  0.00     0.009 C 
ATOM     15  C   UNL     1     150.866 135.090 150.393  1.00  0.00     0.021 C 
ATOM     16  C   UNL     1     148.424 134.640 151.107  1.00  0.00     0.008 C 
ATOM     17  C   UNL     1     150.113 135.535 152.755  1.00  0.00     0.012 C 
ATOM     18  C   UNL     1     150.147 135.754 149.224  1.00  0.00    -0.067 C 
ATOM     19  C   UNL     1     148.199 134.181 149.657  1.00  0.00     0.009 C 
ATOM     20  C   UNL     1     148.926 135.080 148.612  1.00  0.00     0.021 C 
ATOM     21  C   UNL     1     150.706 136.830 148.645  1.00  0.00    -0.027 C 
ATOM     22  C   UNL     1     147.982 136.053 147.805  1.00  0.00    -0.023 C 
ATOM     23  C   UNL     1     150.010 137.672 147.623  1.00  0.00     0.031 C 
ATOM     24  C   UNL     1     148.858 136.960 146.875  1.00  0.00     0.002 C 
ATOM     25  C   UNL     1     147.137 136.955 148.750  1.00  0.00     0.010 C 
ATOM     26  C   UNL     1     147.042 135.178 146.917  1.00  0.00     0.012 C 
ATOM     27  C   UNL     1     148.012 138.016 146.114  1.00  0.00     0.036 C 
ATOM     28  C   UNL     1     146.276 137.977 147.986  1.00  0.00     0.032 C 
ATOM     29  C   UNL     1     147.107 138.857 147.041  1.00  0.00     0.114 C 
BRANCH  29  30
ATOM     30  O   UNL     1     146.233 139.636 146.267  1.00  0.00    -0.393 OA
ATOM     31  H   UNL     1     145.354 139.624 146.728  1.00  0.00     0.210 HD
ENDBRANCH  29  30
ENDBRANCH   1  11
TORSDOF 6
ENDMDL
MODEL 4
REMARK VINA RESULT:    -6.664      1.639      2.476
REMARK INTER + INTRA:         -10.566
REMARK INTER:                  -8.821
REMARK INTRA:                  -1.745
REMARK UNBOUND:                -1.759
REMARK SMILES CC[C@H](C=C[C@H](C)[C@@H]1CC[C@H]2C3=CC[C@@H]4C[C@@H](O)CC[C@]4(C)[C@@H]3CC[C@]21C)C(C)C
REMARK SMILES IDX 6 1 7 2 5 3 4 4 3 5 2 6 1 7 28 8 29 9 30 10 8 11 9 12 26 13
REMARK SMILES IDX 10 14 11 15 25 16 27 17 12 18 24 19 23 20 13 21 21 22 14 23
REMARK SMILES IDX 15 24 20 25 22 26 16 27 19 28 17 29 18 30
REMARK H PARENT 18 31
REMARK Flexibility Score: inf
ROOT
ATOM      1  C   UNL     1     141.037 131.848 146.882  1.00  0.00     0.012 C 
ATOM      2  C   UNL     1     141.464 130.879 145.768  1.00  0.00     0.012 C 
ENDROOT
BRANCH   1   3
ATOM      3  C   UNL     1     140.228 131.045 147.888  1.00  0.00    -0.028 C 
ATOM      4  C   UNL     1     139.155 131.489 148.574  1.00  0.00    -0.027 C 
BRANCH   4   5
ATOM      5  C   UNL     1     138.528 132.868 148.429  1.00  0.00     0.014 C 
BRANCH   5   6
ATOM      6  C   UNL     1     137.486 132.840 147.285  1.00  0.00     0.004 C 
ATOM      7  C   UNL     1     137.866 133.732 146.103  1.00  0.00     0.004 C 
ENDBRANCH   5   6
BRANCH   5   8
ATOM      8  C   UNL     1     137.961 133.404 149.784  1.00  0.00    -0.011 C 
ATOM      9  C   UNL     1     136.712 132.659 150.287  1.00  0.00     0.008 C 
ATOM     10  C   UNL     1     139.044 133.426 150.875  1.00  0.00     0.008 C 
ENDBRANCH   5   8
ENDBRANCH   4   5
ENDBRANCH   1   3
BRANCH   1  11
ATOM     11  C   UNL     1     142.270 132.511 147.583  1.00  0.00     0.002 C 
ATOM     12  C   UNL     1     142.220 132.391 149.109  1.00  0.00     0.005 C 
ATOM     13  C   UNL     1     142.555 134.039 147.314  1.00  0.00    -0.023 C 
ATOM     14  C   UNL     1     143.228 133.398 149.612  1.00  0.00     0.009 C 
ATOM     15  C   UNL     1     143.066 134.596 148.685  1.00  0.00     0.021 C 
ATOM     16  C   UNL     1     143.617 134.222 146.187  1.00  0.00     0.008 C 
ATOM     17  C   UNL     1     141.281 134.833 146.923  1.00  0.00     0.012 C 
ATOM     18  C   UNL     1     144.344 135.423 148.593  1.00  0.00    -0.067 C 
ATOM     19  C   UNL     1     145.051 133.934 146.660  1.00  0.00     0.009 C 
ATOM     20  C   UNL     1     145.526 134.893 147.792  1.00  0.00     0.021 C 
ATOM     21  C   UNL     1     144.464 136.518 149.362  1.00  0.00    -0.027 C 
ATOM     22  C   UNL     1     146.551 136.002 147.336  1.00  0.00    -0.023 C 
ATOM     23  C   UNL     1     145.580 137.504 149.223  1.00  0.00     0.031 C 
ATOM     24  C   UNL     1     146.856 136.947 148.547  1.00  0.00     0.002 C 
ATOM     25  C   UNL     1     145.999 136.848 146.153  1.00  0.00     0.010 C 
ATOM     26  C   UNL     1     147.872 135.284 146.911  1.00  0.00     0.012 C 
ATOM     27  C   UNL     1     147.785 138.127 148.156  1.00  0.00     0.036 C 
ATOM     28  C   UNL     1     146.942 137.995 145.750  1.00  0.00     0.032 C 
ATOM     29  C   UNL     1     147.283 138.919 146.928  1.00  0.00     0.114 C 
BRANCH  29  30
ATOM     30  O   UNL     1     148.271 139.827 146.517  1.00  0.00    -0.393 OA
ATOM     31  H   UNL     1     147.991 140.174 145.630  1.00  0.00     0.210 HD
ENDBRANCH  29  30
ENDBRANCH   1  11
TORSDOF 6
ENDMDL
MODEL 5
REMARK VINA RESULT:    -6.589      1.540      2.810
REMARK INTER + INTRA:         -10.466
REMARK INTER:                  -8.941
REMARK INTRA:                  -1.525
REMARK UNBOUND:                -1.759
REMARK SMILES CC[C@H](C=C[C@H](C)[C@@H]1CC[C@H]2C3=CC[C@@H]4C[C@@H](O)CC[C@]4(C)[C@@H]3CC[C@]21C)C(C)C
REMARK SMILES IDX 6 1 7 2 5 3 4 4 3 5 2 6 1 7 28 8 29 9 30 10 8 11 9 12 26 13
REMARK SMILES IDX 10 14 11 15 25 16 27 17 12 18 24 19 23 20 13 21 21 22 14 23
REMARK SMILES IDX 15 24 20 25 22 26 16 27 19 28 17 29 18 30
REMARK H PARENT 18 31
REMARK Flexibility Score: inf
ROOT
ATOM      1  C   UNL     1     141.620 134.373 149.288  1.00  0.00     0.012 C 
ATOM      2  C   UNL     1     140.739 135.484 149.884  1.00  0.00     0.012 C 
ENDROOT
BRANCH   1   3
ATOM      3  C   UNL     1     140.703 133.441 148.514  1.00  0.00    -0.028 C 
ATOM      4  C   UNL     1     139.929 132.473 149.045  1.00  0.00    -0.027 C 
BRANCH   4   5
ATOM      5  C   UNL     1     139.798 132.168 150.530  1.00  0.00     0.014 C 
BRANCH   5   6
ATOM      6  C   UNL     1     138.308 131.923 150.874  1.00  0.00     0.004 C 
ATOM      7  C   UNL     1     137.393 133.065 150.432  1.00  0.00     0.004 C 
ENDBRANCH   5   6
BRANCH   5   8
ATOM      8  C   UNL     1     140.746 131.010 150.981  1.00  0.00    -0.011 C 
ATOM      9  C   UNL     1     141.143 130.040 149.853  1.00  0.00     0.008 C 
ATOM     10  C   UNL     1     142.003 131.555 151.680  1.00  0.00     0.008 C 
ENDBRANCH   5   8
ENDBRANCH   4   5
ENDBRANCH   1   3
BRANCH   1  11
ATOM     11  C   UNL     1     142.729 134.951 148.346  1.00  0.00     0.002 C 
ATOM     12  C   UNL     1     142.611 134.436 146.908  1.00  0.00     0.005 C 
ATOM     13  C   UNL     1     144.240 134.713 148.730  1.00  0.00    -0.023 C 
ATOM     14  C   UNL     1     143.943 134.758 146.270  1.00  0.00     0.009 C 
ATOM     15  C   UNL     1     144.967 134.481 147.364  1.00  0.00     0.021 C 
ATOM     16  C   UNL     1     144.825 135.941 149.491  1.00  0.00     0.008 C 
ATOM     17  C   UNL     1     144.451 133.448 149.603  1.00  0.00     0.012 C 
ATOM     18  C   UNL     1     146.237 135.303 147.177  1.00  0.00    -0.067 C 
ATOM     19  C   UNL     1     145.143 137.127 148.566  1.00  0.00     0.009 C 
ATOM     20  C   UNL     1     146.221 136.793 147.492  1.00  0.00     0.021 C 
ATOM     21  C   UNL     1     147.294 134.734 146.573  1.00  0.00    -0.027 C 
ATOM     22  C   UNL     1     147.645 137.414 147.766  1.00  0.00    -0.023 C 
ATOM     23  C   UNL     1     148.645 135.373 146.503  1.00  0.00     0.031 C 
ATOM     24  C   UNL     1     148.643 136.911 146.668  1.00  0.00     0.002 C 
ATOM     25  C   UNL     1     148.188 137.020 149.170  1.00  0.00     0.010 C 
ATOM     26  C   UNL     1     147.516 138.967 147.658  1.00  0.00     0.012 C 
ATOM     27  C   UNL     1     150.093 137.402 146.920  1.00  0.00     0.036 C 
ATOM     28  C   UNL     1     149.614 137.538 149.424  1.00  0.00     0.032 C 
ATOM     29  C   UNL     1     150.606 137.087 148.343  1.00  0.00     0.114 C 
BRANCH  29  30
ATOM     30  O   UNL     1     151.832 137.736 148.557  1.00  0.00    -0.393 OA
ATOM     31  H   UNL     1     152.435 137.461 147.818  1.00  0.00     0.210 HD
ENDBRANCH  29  30
ENDBRANCH   1  11
TORSDOF 6
ENDMDL
MODEL 6
REMARK VINA RESULT:    -6.491      3.211      8.730
REMARK INTER + INTRA:         -10.338
REMARK INTER:                  -8.850
REMARK INTRA:                  -1.487
REMARK UNBOUND:                -1.759
REMARK SMILES CC[C@H](C=C[C@H](C)[C@@H]1CC[C@H]2C3=CC[C@@H]4C[C@@H](O)CC[C@]4(C)[C@@H]3CC[C@]21C)C(C)C
REMARK SMILES IDX 6 1 7 2 5 3 4 4 3 5 2 6 1 7 28 8 29 9 30 10 8 11 9 12 26 13
REMARK SMILES IDX 10 14 11 15 25 16 27 17 12 18 24 19 23 20 13 21 21 22 14 23
REMARK SMILES IDX 15 24 20 25 22 26 16 27 19 28 17 29 18 30
REMARK H PARENT 18 31
REMARK Flexibility Score: inf
ROOT
ATOM      1  C   UNL     1     145.042 134.136 147.178  1.00  0.00     0.012 C 
ATOM      2  C   UNL     1     145.033 133.187 145.969  1.00  0.00     0.012 C 
ENDROOT
BRANCH   1   3
ATOM      3  C   UNL     1     145.720 135.422 146.733  1.00  0.00    -0.028 C 
ATOM      4  C   UNL     1     146.969 135.812 147.059  1.00  0.00    -0.027 C 
BRANCH   4   5
ATOM      5  C   UNL     1     147.949 135.006 147.900  1.00  0.00     0.014 C 
BRANCH   5   6
ATOM      6  C   UNL     1     149.389 135.257 147.390  1.00  0.00     0.004 C 
ATOM      7  C   UNL     1     149.435 136.042 146.079  1.00  0.00     0.004 C 
ENDBRANCH   5   6
BRANCH   5   8
ATOM      8  C   UNL     1     147.769 135.270 149.430  1.00  0.00    -0.011 C 
ATOM      9  C   UNL     1     147.014 134.157 150.181  1.00  0.00     0.008 C 
ATOM     10  C   UNL     1     149.117 135.552 150.113  1.00  0.00     0.008 C 
ENDBRANCH   5   8
ENDBRANCH   4   5
ENDBRANCH   1   3
BRANCH   1  11
ATOM     11  C   UNL     1     143.595 134.436 147.696  1.00  0.00     0.002 C 
ATOM     12  C   UNL     1     143.529 135.687 148.577  1.00  0.00     0.005 C 
ATOM     13  C   UNL     1     142.850 133.323 148.529  1.00  0.00    -0.023 C 
ATOM     14  C   UNL     1     142.199 135.590 149.288  1.00  0.00     0.009 C 
ATOM     15  C   UNL     1     142.048 134.110 149.618  1.00  0.00     0.021 C 
ATOM     16  C   UNL     1     141.907 132.478 147.619  1.00  0.00     0.008 C 
ATOM     17  C   UNL     1     143.823 132.358 149.258  1.00  0.00     0.012 C 
ATOM     18  C   UNL     1     140.585 133.700 149.744  1.00  0.00    -0.067 C 
ATOM     19  C   UNL     1     140.609 133.214 147.251  1.00  0.00     0.009 C 
ATOM     20  C   UNL     1     139.732 133.565 148.490  1.00  0.00     0.021 C 
ATOM     21  C   UNL     1     140.033 133.637 150.968  1.00  0.00    -0.027 C 
ATOM     22  C   UNL     1     138.449 132.664 148.672  1.00  0.00    -0.023 C 
ATOM     23  C   UNL     1     138.674 133.070 151.231  1.00  0.00     0.031 C 
ATOM     24  C   UNL     1     137.729 133.060 150.005  1.00  0.00     0.002 C 
ATOM     25  C   UNL     1     138.807 131.150 148.715  1.00  0.00     0.010 C 
ATOM     26  C   UNL     1     137.490 132.954 147.474  1.00  0.00     0.012 C 
ATOM     27  C   UNL     1     136.507 132.154 150.308  1.00  0.00     0.036 C 
ATOM     28  C   UNL     1     137.584 130.256 148.983  1.00  0.00     0.032 C 
ATOM     29  C   UNL     1     136.839 130.646 150.268  1.00  0.00     0.114 C 
BRANCH  29  30
ATOM     30  O   UNL     1     135.654 129.899 150.346  1.00  0.00    -0.393 OA
ATOM     31  H   UNL     1     135.914 128.942 150.300  1.00  0.00     0.210 HD
ENDBRANCH  29  30
ENDBRANCH   1  11
TORSDOF 6
ENDMDL
MODEL 7
REMARK VINA RESULT:    -6.205      1.562      2.331
REMARK INTER + INTRA:          -9.959
REMARK INTER:                  -8.354
REMARK INTRA:                  -1.605
REMARK UNBOUND:                -1.759
REMARK SMILES CC[C@H](C=C[C@H](C)[C@@H]1CC[C@H]2C3=CC[C@@H]4C[C@@H](O)CC[C@]4(C)[C@@H]3CC[C@]21C)C(C)C
REMARK SMILES IDX 6 1 7 2 5 3 4 4 3 5 2 6 1 7 28 8 29 9 30 10 8 11 9 12 26 13
REMARK SMILES IDX 10 14 11 15 25 16 27 17 12 18 24 19 23 20 13 21 21 22 14 23
REMARK SMILES IDX 15 24 20 25 22 26 16 27 19 28 17 29 18 30
REMARK H PARENT 18 31
REMARK Flexibility Score: inf
ROOT
ATOM      1  C   UNL     1     141.809 134.782 146.825  1.00  0.00     0.012 C 
ATOM      2  C   UNL     1     141.039 135.435 145.666  1.00  0.00     0.012 C 
ENDROOT
BRANCH   1   3
ATOM      3  C   UNL     1     141.304 133.354 146.950  1.00  0.00    -0.028 C 
ATOM      4  C   UNL     1     140.484 132.887 147.914  1.00  0.00    -0.027 C 
BRANCH   4   5
ATOM      5  C   UNL     1     139.876 133.723 149.031  1.00  0.00     0.014 C 
BRANCH   5   6
ATOM      6  C   UNL     1     138.368 133.395 149.154  1.00  0.00     0.004 C 
ATOM      7  C   UNL     1     137.696 133.140 147.805  1.00  0.00     0.004 C 
ENDBRANCH   5   6
BRANCH   5   8
ATOM      8  C   UNL     1     140.663 133.575 150.374  1.00  0.00    -0.011 C 
ATOM      9  C   UNL     1     139.771 133.475 151.624  1.00  0.00     0.008 C 
ATOM     10  C   UNL     1     141.643 132.391 150.322  1.00  0.00     0.008 C 
ENDBRANCH   5   8
ENDBRANCH   4   5
ENDBRANCH   1   3
BRANCH   1  11
ATOM     11  C   UNL     1     143.355 134.790 146.577  1.00  0.00     0.002 C 
ATOM     12  C   UNL     1     143.923 133.390 146.329  1.00  0.00     0.005 C 
ATOM     13  C   UNL     1     144.290 135.407 147.688  1.00  0.00    -0.023 C 
ATOM     14  C   UNL     1     145.416 133.538 146.512  1.00  0.00     0.009 C 
ATOM     15  C   UNL     1     145.563 134.497 147.688  1.00  0.00     0.021 C 
ATOM     16  C   UNL     1     144.644 136.890 147.362  1.00  0.00     0.008 C 
ATOM     17  C   UNL     1     143.665 135.351 149.106  1.00  0.00     0.012 C 
ATOM     18  C   UNL     1     146.884 135.257 147.640  1.00  0.00    -0.067 C 
ATOM     19  C   UNL     1     145.701 137.028 146.254  1.00  0.00     0.009 C 
ATOM     20  C   UNL     1     147.068 136.381 146.629  1.00  0.00     0.021 C 
ATOM     21  C   UNL     1     147.918 134.808 148.372  1.00  0.00    -0.027 C 
ATOM     22  C   UNL     1     148.208 137.407 146.998  1.00  0.00    -0.023 C 
ATOM     23  C   UNL     1     149.193 135.569 148.552  1.00  0.00     0.031 C 
ATOM     24  C   UNL     1     149.482 136.617 147.451  1.00  0.00     0.002 C 
ATOM     25  C   UNL     1     147.771 138.370 148.140  1.00  0.00     0.010 C 
ATOM     26  C   UNL     1     148.550 138.223 145.711  1.00  0.00     0.012 C 
ATOM     27  C   UNL     1     150.623 137.556 147.924  1.00  0.00     0.036 C 
ATOM     28  C   UNL     1     148.898 139.321 148.581  1.00  0.00     0.032 C 
ATOM     29  C   UNL     1     150.172 138.571 148.998  1.00  0.00     0.114 C 
BRANCH  29  30
ATOM     30  O   UNL     1     151.193 139.507 149.220  1.00  0.00    -0.393 OA
ATOM     31  H   UNL     1     151.028 140.264 148.600  1.00  0.00     0.210 HD
ENDBRANCH  29  30
ENDBRANCH   1  11
TORSDOF 6
ENDMDL
MODEL 8
REMARK VINA RESULT:    -6.180      3.152      8.383
REMARK INTER + INTRA:          -9.927
REMARK INTER:                  -8.039
REMARK INTRA:                  -1.888
REMARK UNBOUND:                -1.759
REMARK SMILES CC[C@H](C=C[C@H](C)[C@@H]1CC[C@H]2C3=CC[C@@H]4C[C@@H](O)CC[C@]4(C)[C@@H]3CC[C@]21C)C(C)C
REMARK SMILES IDX 6 1 7 2 5 3 4 4 3 5 2 6 1 7 28 8 29 9 30 10 8 11 9 12 26 13
REMARK SMILES IDX 10 14 11 15 25 16 27 17 12 18 24 19 23 20 13 21 21 22 14 23
REMARK SMILES IDX 15 24 20 25 22 26 16 27 19 28 17 29 18 30
REMARK H PARENT 18 31
REMARK Flexibility Score: inf
ROOT
ATOM      1  C   UNL     1     145.772 137.454 146.072  1.00  0.00     0.012 C 
ATOM      2  C   UNL     1     144.770 137.873 144.983  1.00  0.00     0.012 C 
ENDROOT
BRANCH   1   3
ATOM      3  C   UNL     1     146.554 138.697 146.463  1.00  0.00    -0.028 C 
ATOM      4  C   UNL     1     147.897 138.809 146.493  1.00  0.00    -0.027 C 
BRANCH   4   5
ATOM      5  C   UNL     1     148.879 137.717 146.093  1.00  0.00     0.014 C 
BRANCH   5   6
ATOM      6  C   UNL     1     149.866 138.276 145.039  1.00  0.00     0.004 C 
ATOM      7  C   UNL     1     149.851 139.802 144.950  1.00  0.00     0.004 C 
ENDBRANCH   5   6
BRANCH   5   8
ATOM      8  C   UNL     1     149.581 137.072 147.332  1.00  0.00    -0.011 C 
ATOM      9  C   UNL     1     149.461 137.894 148.629  1.00  0.00     0.008 C 
ATOM     10  C   UNL     1     149.092 135.633 147.567  1.00  0.00     0.008 C 
ENDBRANCH   5   8
ENDBRANCH   4   5
ENDBRANCH   1   3
BRANCH   1  11
ATOM     11  C   UNL     1     145.053 136.848 147.323  1.00  0.00     0.002 C 
ATOM     12  C   UNL     1     145.787 137.152 148.633  1.00  0.00     0.005 C 
ATOM     13  C   UNL     1     144.799 135.291 147.363  1.00  0.00    -0.023 C 
ATOM     14  C   UNL     1     145.204 136.186 149.639  1.00  0.00     0.009 C 
ATOM     15  C   UNL     1     145.018 134.890 148.860  1.00  0.00     0.021 C 
ATOM     16  C   UNL     1     143.357 134.946 146.881  1.00  0.00     0.008 C 
ATOM     17  C   UNL     1     145.810 134.490 146.502  1.00  0.00     0.012 C 
ATOM     18  C   UNL     1     143.910 134.025 149.451  1.00  0.00    -0.067 C 
ATOM     19  C   UNL     1     142.281 135.250 147.935  1.00  0.00     0.009 C 
ATOM     20  C   UNL     1     142.455 134.423 149.243  1.00  0.00     0.021 C 
ATOM     21  C   UNL     1     144.242 133.027 150.287  1.00  0.00    -0.027 C 
ATOM     22  C   UNL     1     141.426 133.240 149.422  1.00  0.00    -0.023 C 
ATOM     23  C   UNL     1     143.269 132.002 150.776  1.00  0.00     0.031 C 
ATOM     24  C   UNL     1     141.786 132.440 150.719  1.00  0.00     0.002 C 
ATOM     25  C   UNL     1     141.440 132.272 148.203  1.00  0.00     0.010 C 
ATOM     26  C   UNL     1     140.005 133.866 149.593  1.00  0.00     0.012 C 
ATOM     27  C   UNL     1     140.877 131.197 150.918  1.00  0.00     0.036 C 
ATOM     28  C   UNL     1     140.511 131.061 148.394  1.00  0.00     0.032 C 
ATOM     29  C   UNL     1     140.821 130.277 149.678  1.00  0.00     0.114 C 
BRANCH  29  30
ATOM     30  O   UNL     1     139.831 129.300 149.860  1.00  0.00    -0.393 OA
ATOM     31  H   UNL     1     138.961 129.730 149.647  1.00  0.00     0.210 HD
ENDBRANCH  29  30
ENDBRANCH   1  11
TORSDOF 6
ENDMDL
