MODEL 1
REMARK VINA RESULT:    -6.230      0.000      0.000
REMARK INTER + INTRA:         -14.255
REMARK INTER:                 -12.056
REMARK INTRA:                  -2.199
REMARK UNBOUND:                -2.199
REMARK SMILES CCCCCCCCCCCCCCCCCC(=O)[O-]
REMARK SMILES IDX 10 1 11 2 12 3 13 4 14 5 15 6 16 7 17 8 18 9 19 10 20 11
REMARK SMILES IDX 9 12 8 13 7 14 6 15 5 16 4 17 3 18 2 19 1 20
REMARK H PARENT
REMARK Flexibility Score: inf
ROOT
ATOM      1  C   UNL     1     -16.619  -1.623 -16.209  1.00  0.00     0.000 C 
ENDROOT
BRANCH   1   2
ATOM      2  C   UNL     1     -17.383  -0.769 -15.188  1.00  0.00     0.000 C 
BRANCH   2   3
ATOM      3  C   UNL     1     -17.304   0.721 -15.549  1.00  0.00     0.000 C 
BRANCH   3   4
ATOM      4  C   UNL     1     -15.858   1.229 -15.686  1.00  0.00     0.000 C 
BRANCH   4   5
ATOM      5  C   UNL     1     -15.529   2.494 -14.866  1.00  0.00     0.000 C 
BRANCH   5   6
ATOM      6  C   UNL     1     -14.805   2.236 -13.533  1.00  0.00     0.000 C 
BRANCH   6   7
ATOM      7  C   UNL     1     -15.685   2.522 -12.309  1.00  0.00     0.006 C 
BRANCH   7   8
ATOM      8  C   UNL     1     -15.765   1.296 -11.394  1.00  0.00     0.053 C 
BRANCH   8   9
ATOM      9  C   UNL     1     -17.191   0.955 -11.095  1.00  0.00     0.041 C 
ATOM     10  O   UNL     1     -18.016   0.810 -12.036  1.00  0.00    -0.550 OA
ATOM     11  O   UNL     1     -17.623   0.849  -9.779  1.00  0.00    -0.550 OA
ENDBRANCH   8   9
ENDBRANCH   7   8
ENDBRANCH   6   7
ENDBRANCH   5   6
ENDBRANCH   4   5
ENDBRANCH   3   4
ENDBRANCH   2   3
ENDBRANCH   1   2
BRANCH   1  12
ATOM     12  C   UNL     1     -17.548  -2.371 -17.178  1.00  0.00     0.000 C 
BRANCH  12  13
ATOM     13  C   UNL     1     -17.359  -1.931 -18.640  1.00  0.00    -0.000 C 
BRANCH  13  14
ATOM     14  C   UNL     1     -17.832  -0.489 -18.887  1.00  0.00    -0.000 C 
BRANCH  14  15
ATOM     15  C   UNL     1     -16.717   0.413 -19.442  1.00  0.00    -0.000 C 
BRANCH  15  16
ATOM     16  C   UNL     1     -15.321  -0.220 -19.318  1.00  0.00    -0.000 C 
BRANCH  16  17
ATOM     17  C   UNL     1     -14.172   0.747 -19.680  1.00  0.00    -0.000 C 
BRANCH  17  18
ATOM     18  C   UNL     1     -13.588   1.445 -18.438  1.00  0.00    -0.000 C 
BRANCH  18  19
ATOM     19  C   UNL     1     -13.802   2.966 -18.461  1.00  0.00    -0.003 C 
ATOM     20  C   UNL     1     -12.971   3.697 -17.406  1.00  0.00     0.004 C 
ENDBRANCH  18  19
ENDBRANCH  17  18
ENDBRANCH  16  17
ENDBRANCH  15  16
ENDBRANCH  14  15
ENDBRANCH  13  14
ENDBRANCH  12  13
ENDBRANCH   1  12
TORSDOF 16
ENDMDL
MODEL 2
REMARK VINA RESULT:    -6.102      2.500      6.468
REMARK INTER + INTRA:         -14.009
REMARK INTER:                 -11.681
REMARK INTRA:                  -2.328
REMARK UNBOUND:                -2.199
REMARK SMILES CCCCCCCCCCCCCCCCCC(=O)[O-]
REMARK SMILES IDX 10 1 11 2 12 3 13 4 14 5 15 6 16 7 17 8 18 9 19 10 20 11
REMARK SMILES IDX 9 12 8 13 7 14 6 15 5 16 4 17 3 18 2 19 1 20
REMARK H PARENT
REMARK Flexibility Score: inf
ROOT
ATOM      1  C   UNL     1     -13.480   3.068 -16.255  1.00  0.00     0.000 C 
ENDROOT
BRANCH   1   2
ATOM      2  C   UNL     1     -14.466   3.348 -17.398  1.00  0.00     0.000 C 
BRANCH   2   3
ATOM      3  C   UNL     1     -13.997   2.689 -18.702  1.00  0.00     0.000 C 
BRANCH   3   4
ATOM      4  C   UNL     1     -13.719   1.183 -18.548  1.00  0.00     0.000 C 
BRANCH   4   5
ATOM      5  C   UNL     1     -14.039   0.329 -19.793  1.00  0.00     0.000 C 
BRANCH   5   6
ATOM      6  C   UNL     1     -15.522   0.305 -20.203  1.00  0.00     0.000 C 
BRANCH   6   7
ATOM      7  C   UNL     1     -16.469   0.116 -19.009  1.00  0.00     0.006 C 
BRANCH   7   8
ATOM      8  C   UNL     1     -17.107  -1.276 -19.033  1.00  0.00     0.053 C 
BRANCH   8   9
ATOM      9  C   UNL     1     -16.588  -2.111 -17.905  1.00  0.00     0.041 C 
ATOM     10  O   UNL     1     -17.390  -2.740 -17.164  1.00  0.00    -0.550 OA
ATOM     11  O   UNL     1     -15.225  -2.156 -17.639  1.00  0.00    -0.550 OA
ENDBRANCH   8   9
ENDBRANCH   7   8
ENDBRANCH   6   7
ENDBRANCH   5   6
ENDBRANCH   4   5
ENDBRANCH   3   4
ENDBRANCH   2   3
ENDBRANCH   1   2
BRANCH   1  12
ATOM     12  C   UNL     1     -14.142   2.389 -15.046  1.00  0.00     0.000 C 
BRANCH  12  13
ATOM     13  C   UNL     1     -15.641   2.119 -15.264  1.00  0.00    -0.000 C 
BRANCH  13  14
ATOM     14  C   UNL     1     -15.989   0.625 -15.170  1.00  0.00    -0.000 C 
BRANCH  14  15
ATOM     15  C   UNL     1     -17.482   0.348 -15.418  1.00  0.00    -0.000 C 
BRANCH  15  16
ATOM     16  C   UNL     1     -18.200  -0.204 -14.175  1.00  0.00    -0.000 C 
BRANCH  16  17
ATOM     17  C   UNL     1     -17.342  -0.148 -12.892  1.00  0.00    -0.000 C 
BRANCH  17  18
ATOM     18  C   UNL     1     -17.972   0.750 -11.811  1.00  0.00    -0.000 C 
BRANCH  18  19
ATOM     19  C   UNL     1     -17.060   1.920 -11.410  1.00  0.00    -0.003 C 
ATOM     20  C   UNL     1     -15.574   1.586 -11.546  1.00  0.00     0.004 C 
ENDBRANCH  18  19
ENDBRANCH  17  18
ENDBRANCH  16  17
ENDBRANCH  15  16
ENDBRANCH  14  15
ENDBRANCH  13  14
ENDBRANCH  12  13
ENDBRANCH   1  12
TORSDOF 16
ENDMDL
MODEL 3
REMARK VINA RESULT:    -6.065      2.433      6.932
REMARK INTER + INTRA:         -13.936
REMARK INTER:                 -12.160
REMARK INTRA:                  -1.776
REMARK UNBOUND:                -2.199
REMARK SMILES CCCCCCCCCCCCCCCCCC(=O)[O-]
REMARK SMILES IDX 10 1 11 2 12 3 13 4 14 5 15 6 16 7 17 8 18 9 19 10 20 11
REMARK SMILES IDX 9 12 8 13 7 14 6 15 5 16 4 17 3 18 2 19 1 20
REMARK H PARENT
REMARK Flexibility Score: inf
ROOT
ATOM      1  C   UNL     1     -13.631   2.912 -16.311  1.00  0.00     0.000 C 
ENDROOT
BRANCH   1   2
ATOM      2  C   UNL     1     -13.973   3.784 -17.528  1.00  0.00     0.000 C 
BRANCH   2   3
ATOM      3  C   UNL     1     -14.008   2.944 -18.813  1.00  0.00     0.000 C 
BRANCH   3   4
ATOM      4  C   UNL     1     -13.657   1.465 -18.573  1.00  0.00     0.000 C 
BRANCH   4   5
ATOM      5  C   UNL     1     -14.221   0.481 -19.619  1.00  0.00     0.000 C 
BRANCH   5   6
ATOM      6  C   UNL     1     -15.706   0.685 -19.970  1.00  0.00     0.000 C 
BRANCH   6   7
ATOM      7  C   UNL     1     -16.651   0.245 -18.844  1.00  0.00     0.006 C 
BRANCH   7   8
ATOM      8  C   UNL     1     -17.044  -1.227 -19.004  1.00  0.00     0.053 C 
BRANCH   8   9
ATOM      9  C   UNL     1     -16.560  -2.030 -17.838  1.00  0.00     0.041 C 
ATOM     10  O   UNL     1     -15.324  -2.179 -17.643  1.00  0.00    -0.550 OA
ATOM     11  O   UNL     1     -17.470  -2.657 -16.995  1.00  0.00    -0.550 OA
ENDBRANCH   8   9
ENDBRANCH   7   8
ENDBRANCH   6   7
ENDBRANCH   5   6
ENDBRANCH   4   5
ENDBRANCH   3   4
ENDBRANCH   2   3
ENDBRANCH   1   2
BRANCH   1  12
ATOM     12  C   UNL     1     -14.847   2.638 -15.412  1.00  0.00     0.000 C 
BRANCH  12  13
ATOM     13  C   UNL     1     -14.449   2.119 -14.019  1.00  0.00    -0.000 C 
BRANCH  13  14
ATOM     14  C   UNL     1     -15.309   2.724 -12.898  1.00  0.00    -0.000 C 
BRANCH  14  15
ATOM     15  C   UNL     1     -15.620   1.714 -11.780  1.00  0.00    -0.000 C 
BRANCH  15  16
ATOM     16  C   UNL     1     -16.975   1.978 -11.099  1.00  0.00    -0.000 C 
BRANCH  16  17
ATOM     17  C   UNL     1     -18.090   1.010 -11.550  1.00  0.00    -0.000 C 
BRANCH  17  18
ATOM     18  C   UNL     1     -17.546  -0.133 -12.427  1.00  0.00    -0.000 C 
BRANCH  18  19
ATOM     19  C   UNL     1     -18.324  -0.290 -13.743  1.00  0.00    -0.003 C 
ATOM     20  C   UNL     1     -17.515   0.146 -14.964  1.00  0.00     0.004 C 
ENDBRANCH  18  19
ENDBRANCH  17  18
ENDBRANCH  16  17
ENDBRANCH  15  16
ENDBRANCH  14  15
ENDBRANCH  13  14
ENDBRANCH  12  13
ENDBRANCH   1  12
TORSDOF 16
ENDMDL
MODEL 4
REMARK VINA RESULT:    -6.018      2.208      4.799
REMARK INTER + INTRA:         -13.846
REMARK INTER:                 -11.546
REMARK INTRA:                  -2.300
REMARK UNBOUND:                -2.199
REMARK SMILES CCCCCCCCCCCCCCCCCC(=O)[O-]
REMARK SMILES IDX 10 1 11 2 12 3 13 4 14 5 15 6 16 7 17 8 18 9 19 10 20 11
REMARK SMILES IDX 9 12 8 13 7 14 6 15 5 16 4 17 3 18 2 19 1 20
REMARK H PARENT
REMARK Flexibility Score: inf
ROOT
ATOM      1  C   UNL     1     -15.267   2.595 -14.710  1.00  0.00     0.000 C 
ENDROOT
BRANCH   1   2
ATOM      2  C   UNL     1     -15.276   3.049 -13.243  1.00  0.00     0.000 C 
BRANCH   2   3
ATOM      3  C   UNL     1     -15.530   1.862 -12.303  1.00  0.00     0.000 C 
BRANCH   3   4
ATOM      4  C   UNL     1     -16.747   2.072 -11.385  1.00  0.00     0.000 C 
BRANCH   4   5
ATOM      5  C   UNL     1     -17.860   1.011 -11.522  1.00  0.00     0.000 C 
BRANCH   5   6
ATOM      6  C   UNL     1     -17.518  -0.175 -12.440  1.00  0.00     0.000 C 
BRANCH   6   7
ATOM      7  C   UNL     1     -18.414  -0.245 -13.685  1.00  0.00     0.006 C 
BRANCH   7   8
ATOM      8  C   UNL     1     -17.591  -0.582 -14.932  1.00  0.00     0.053 C 
BRANCH   8   9
ATOM      9  C   UNL     1     -18.406  -1.383 -15.898  1.00  0.00     0.041 C 
ATOM     10  O   UNL     1     -19.602  -1.063 -16.132  1.00  0.00    -0.550 OA
ATOM     11  O   UNL     1     -17.865  -2.511 -16.501  1.00  0.00    -0.550 OA
ENDBRANCH   8   9
ENDBRANCH   7   8
ENDBRANCH   6   7
ENDBRANCH   5   6
ENDBRANCH   4   5
ENDBRANCH   3   4
ENDBRANCH   2   3
ENDBRANCH   1   2
BRANCH   1  12
ATOM     12  C   UNL     1     -13.869   2.192 -15.203  1.00  0.00     0.000 C 
BRANCH  12  13
ATOM     13  C   UNL     1     -13.215   3.273 -16.082  1.00  0.00    -0.000 C 
BRANCH  13  14
ATOM     14  C   UNL     1     -14.115   3.704 -17.251  1.00  0.00    -0.000 C 
BRANCH  14  15
ATOM     15  C   UNL     1     -13.561   3.265 -18.617  1.00  0.00    -0.000 C 
BRANCH  15  16
ATOM     16  C   UNL     1     -14.384   2.134 -19.257  1.00  0.00    -0.000 C 
BRANCH  16  17
ATOM     17  C   UNL     1     -14.049   0.735 -18.695  1.00  0.00    -0.000 C 
BRANCH  17  18
ATOM     18  C   UNL     1     -15.236   0.116 -17.934  1.00  0.00    -0.000 C 
BRANCH  18  19
ATOM     19  C   UNL     1     -16.551   0.871 -18.176  1.00  0.00    -0.003 C 
ATOM     20  C   UNL     1     -17.477   0.150 -19.154  1.00  0.00     0.004 C 
ENDBRANCH  18  19
ENDBRANCH  17  18
ENDBRANCH  16  17
ENDBRANCH  15  16
ENDBRANCH  14  15
ENDBRANCH  13  14
ENDBRANCH  12  13
ENDBRANCH   1  12
TORSDOF 16
ENDMDL
MODEL 5
REMARK VINA RESULT:    -6.015      2.852      6.879
REMARK INTER + INTRA:         -13.840
REMARK INTER:                 -12.038
REMARK INTRA:                  -1.803
REMARK UNBOUND:                -2.199
REMARK SMILES CCCCCCCCCCCCCCCCCC(=O)[O-]
REMARK SMILES IDX 10 1 11 2 12 3 13 4 14 5 15 6 16 7 17 8 18 9 19 10 20 11
REMARK SMILES IDX 9 12 8 13 7 14 6 15 5 16 4 17 3 18 2 19 1 20
REMARK H PARENT
REMARK Flexibility Score: inf
ROOT
ATOM      1  C   UNL     1     -14.928   2.539 -15.224  1.00  0.00     0.000 C 
ENDROOT
BRANCH   1   2
ATOM      2  C   UNL     1     -13.397   2.632 -15.301  1.00  0.00     0.000 C 
BRANCH   2   3
ATOM      3  C   UNL     1     -12.957   3.421 -16.542  1.00  0.00     0.000 C 
BRANCH   3   4
ATOM      4  C   UNL     1     -14.121   3.733 -17.500  1.00  0.00     0.000 C 
BRANCH   4   5
ATOM      5  C   UNL     1     -14.030   3.055 -18.883  1.00  0.00     0.000 C 
BRANCH   5   6
ATOM      6  C   UNL     1     -13.955   1.519 -18.851  1.00  0.00     0.000 C 
BRANCH   6   7
ATOM      7  C   UNL     1     -15.104   0.848 -19.616  1.00  0.00     0.006 C 
BRANCH   7   8
ATOM      8  C   UNL     1     -15.433  -0.523 -19.016  1.00  0.00     0.053 C 
BRANCH   8   9
ATOM      9  C   UNL     1     -16.908  -0.774 -19.058  1.00  0.00     0.041 C 
ATOM     10  O   UNL     1     -17.348  -1.954 -19.051  1.00  0.00    -0.550 OA
ATOM     11  O   UNL     1     -17.795   0.291 -19.157  1.00  0.00    -0.550 OA
ENDBRANCH   8   9
ENDBRANCH   7   8
ENDBRANCH   6   7
ENDBRANCH   5   6
ENDBRANCH   4   5
ENDBRANCH   3   4
ENDBRANCH   2   3
ENDBRANCH   1   2
BRANCH   1  12
ATOM     12  C   UNL     1     -15.476   2.843 -13.821  1.00  0.00     0.000 C 
BRANCH  12  13
ATOM     13  C   UNL     1     -15.142   1.740 -12.802  1.00  0.00    -0.000 C 
BRANCH  13  14
ATOM     14  C   UNL     1     -15.832   1.963 -11.446  1.00  0.00    -0.000 C 
BRANCH  14  15
ATOM     15  C   UNL     1     -16.793   0.821 -11.076  1.00  0.00    -0.000 C 
BRANCH  15  16
ATOM     16  C   UNL     1     -17.925   0.639 -12.102  1.00  0.00    -0.000 C 
BRANCH  16  17
ATOM     17  C   UNL     1     -17.800  -0.657 -12.933  1.00  0.00    -0.000 C 
BRANCH  17  18
ATOM     18  C   UNL     1     -18.814  -0.705 -14.090  1.00  0.00    -0.000 C 
BRANCH  18  19
ATOM     19  C   UNL     1     -18.137  -0.710 -15.469  1.00  0.00    -0.003 C 
ATOM     20  C   UNL     1     -16.611  -0.702 -15.380  1.00  0.00     0.004 C 
ENDBRANCH  18  19
ENDBRANCH  17  18
ENDBRANCH  16  17
ENDBRANCH  15  16
ENDBRANCH  14  15
ENDBRANCH  13  14
ENDBRANCH  12  13
ENDBRANCH   1  12
TORSDOF 16
ENDMDL
MODEL 6
REMARK VINA RESULT:    -6.008      2.837      6.380
REMARK INTER + INTRA:         -13.827
REMARK INTER:                 -11.534
REMARK INTRA:                  -2.293
REMARK UNBOUND:                -2.199
REMARK SMILES CCCCCCCCCCCCCCCCCC(=O)[O-]
REMARK SMILES IDX 10 1 11 2 12 3 13 4 14 5 15 6 16 7 17 8 18 9 19 10 20 11
REMARK SMILES IDX 9 12 8 13 7 14 6 15 5 16 4 17 3 18 2 19 1 20
REMARK H PARENT
REMARK Flexibility Score: inf
ROOT
ATOM      1  C   UNL     1     -18.419  -0.096 -15.308  1.00  0.00     0.000 C 
ENDROOT
BRANCH   1   2
ATOM      2  C   UNL     1     -18.979  -1.123 -16.303  1.00  0.00     0.000 C 
BRANCH   2   3
ATOM      3  C   UNL     1     -17.924  -2.183 -16.651  1.00  0.00     0.000 C 
BRANCH   3   4
ATOM      4  C   UNL     1     -17.322  -1.992 -18.054  1.00  0.00     0.000 C 
BRANCH   4   5
ATOM      5  C   UNL     1     -17.935  -0.840 -18.877  1.00  0.00     0.000 C 
BRANCH   5   6
ATOM      6  C   UNL     1     -16.992   0.348 -19.136  1.00  0.00     0.000 C 
BRANCH   6   7
ATOM      7  C   UNL     1     -15.731  -0.049 -19.918  1.00  0.00     0.006 C 
BRANCH   7   8
ATOM      8  C   UNL     1     -14.869   1.180 -20.224  1.00  0.00     0.053 C 
BRANCH   8   9
ATOM      9  C   UNL     1     -14.143   1.632 -18.996  1.00  0.00     0.041 C 
ATOM     10  O   UNL     1     -13.906   2.856 -18.818  1.00  0.00    -0.550 OA
ATOM     11  O   UNL     1     -13.683   0.700 -18.074  1.00  0.00    -0.550 OA
ENDBRANCH   8   9
ENDBRANCH   7   8
ENDBRANCH   6   7
ENDBRANCH   5   6
ENDBRANCH   4   5
ENDBRANCH   3   4
ENDBRANCH   2   3
ENDBRANCH   1   2
BRANCH   1  12
ATOM     12  C   UNL     1     -17.093  -0.541 -14.672  1.00  0.00     0.000 C 
BRANCH  12  13
ATOM     13  C   UNL     1     -15.883   0.238 -15.216  1.00  0.00    -0.000 C 
BRANCH  13  14
ATOM     14  C   UNL     1     -16.277   1.608 -15.791  1.00  0.00    -0.000 C 
BRANCH  14  15
ATOM     15  C   UNL     1     -15.215   2.689 -15.526  1.00  0.00    -0.000 C 
BRANCH  15  16
ATOM     16  C   UNL     1     -14.593   2.582 -14.123  1.00  0.00    -0.000 C 
BRANCH  16  17
ATOM     17  C   UNL     1     -15.561   2.980 -12.988  1.00  0.00    -0.000 C 
BRANCH  17  18
ATOM     18  C   UNL     1     -15.626   1.913 -11.879  1.00  0.00    -0.000 C 
BRANCH  18  19
ATOM     19  C   UNL     1     -16.945   1.959 -11.093  1.00  0.00    -0.003 C 
ATOM     20  C   UNL     1     -17.847   0.758 -11.379  1.00  0.00     0.004 C 
ENDBRANCH  18  19
ENDBRANCH  17  18
ENDBRANCH  16  17
ENDBRANCH  15  16
ENDBRANCH  14  15
ENDBRANCH  13  14
ENDBRANCH  12  13
ENDBRANCH   1  12
TORSDOF 16
ENDMDL
MODEL 7
REMARK VINA RESULT:    -6.008      1.011      3.929
REMARK INTER + INTRA:         -13.826
REMARK INTER:                 -11.541
REMARK INTRA:                  -2.285
REMARK UNBOUND:                -2.199
REMARK SMILES CCCCCCCCCCCCCCCCCC(=O)[O-]
REMARK SMILES IDX 10 1 11 2 12 3 13 4 14 5 15 6 16 7 17 8 18 9 19 10 20 11
REMARK SMILES IDX 9 12 8 13 7 14 6 15 5 16 4 17 3 18 2 19 1 20
REMARK H PARENT
REMARK Flexibility Score: inf
ROOT
ATOM      1  C   UNL     1     -14.346   3.345 -18.478  1.00  0.00     0.000 C 
ENDROOT
BRANCH   1   2
ATOM      2  C   UNL     1     -12.993   3.361 -17.752  1.00  0.00     0.000 C 
BRANCH   2   3
ATOM      3  C   UNL     1     -13.185   3.269 -16.232  1.00  0.00     0.000 C 
BRANCH   3   4
ATOM      4  C   UNL     1     -14.160   2.153 -15.816  1.00  0.00     0.000 C 
BRANCH   4   5
ATOM      5  C   UNL     1     -15.359   2.617 -14.962  1.00  0.00     0.000 C 
BRANCH   5   6
ATOM      6  C   UNL     1     -15.077   2.735 -13.454  1.00  0.00     0.000 C 
BRANCH   6   7
ATOM      7  C   UNL     1     -15.530   1.500 -12.663  1.00  0.00     0.006 C 
BRANCH   7   8
ATOM      8  C   UNL     1     -16.197   1.909 -11.346  1.00  0.00     0.053 C 
BRANCH   8   9
ATOM      9  C   UNL     1     -17.369   1.026 -11.055  1.00  0.00     0.041 C 
ATOM     10  O   UNL     1     -17.699   0.787  -9.862  1.00  0.00    -0.550 OA
ATOM     11  O   UNL     1     -18.067   0.426 -12.095  1.00  0.00    -0.550 OA
ENDBRANCH   8   9
ENDBRANCH   7   8
ENDBRANCH   6   7
ENDBRANCH   5   6
ENDBRANCH   4   5
ENDBRANCH   3   4
ENDBRANCH   2   3
ENDBRANCH   1   2
BRANCH   1  12
ATOM     12  C   UNL     1     -14.413   2.291 -19.594  1.00  0.00     0.000 C 
BRANCH  12  13
ATOM     13  C   UNL     1     -13.837   0.931 -19.162  1.00  0.00    -0.000 C 
BRANCH  13  14
ATOM     14  C   UNL     1     -14.933  -0.084 -18.800  1.00  0.00    -0.000 C 
BRANCH  14  15
ATOM     15  C   UNL     1     -16.174   0.039 -19.700  1.00  0.00    -0.000 C 
BRANCH  15  16
ATOM     16  C   UNL     1     -17.490   0.055 -18.903  1.00  0.00    -0.000 C 
BRANCH  16  17
ATOM     17  C   UNL     1     -17.555   1.179 -17.846  1.00  0.00    -0.000 C 
BRANCH  17  18
ATOM     18  C   UNL     1     -18.355   0.759 -16.600  1.00  0.00    -0.000 C 
BRANCH  18  19
ATOM     19  C   UNL     1     -18.078  -0.693 -16.182  1.00  0.00    -0.003 C 
ATOM     20  C   UNL     1     -16.821  -0.834 -15.326  1.00  0.00     0.004 C 
ENDBRANCH  18  19
ENDBRANCH  17  18
ENDBRANCH  16  17
ENDBRANCH  15  16
ENDBRANCH  14  15
ENDBRANCH  13  14
ENDBRANCH  12  13
ENDBRANCH   1  12
TORSDOF 16
ENDMDL
MODEL 8
REMARK VINA RESULT:    -6.003      2.880      6.066
REMARK INTER + INTRA:         -13.817
REMARK INTER:                 -11.728
REMARK INTRA:                  -2.089
REMARK UNBOUND:                -2.199
REMARK SMILES CCCCCCCCCCCCCCCCCC(=O)[O-]
REMARK SMILES IDX 10 1 11 2 12 3 13 4 14 5 15 6 16 7 17 8 18 9 19 10 20 11
REMARK SMILES IDX 9 12 8 13 7 14 6 15 5 16 4 17 3 18 2 19 1 20
REMARK H PARENT
REMARK Flexibility Score: inf
ROOT
ATOM      1  C   UNL     1     -15.861   1.943 -11.614  1.00  0.00     0.000 C 
ENDROOT
BRANCH   1   2
ATOM      2  C   UNL     1     -15.104   1.616 -12.909  1.00  0.00     0.000 C 
BRANCH   2   3
ATOM      3  C   UNL     1     -15.413   2.650 -14.001  1.00  0.00     0.000 C 
BRANCH   3   4
ATOM      4  C   UNL     1     -14.695   2.352 -15.330  1.00  0.00     0.000 C 
BRANCH   4   5
ATOM      5  C   UNL     1     -15.331   3.003 -16.576  1.00  0.00     0.000 C 
BRANCH   5   6
ATOM      6  C   UNL     1     -14.379   3.876 -17.412  1.00  0.00     0.000 C 
BRANCH   6   7
ATOM      7  C   UNL     1     -13.545   3.064 -18.412  1.00  0.00     0.006 C 
BRANCH   7   8
ATOM      8  C   UNL     1     -14.445   2.193 -19.294  1.00  0.00     0.053 C 
BRANCH   8   9
ATOM      9  C   UNL     1     -13.993   0.767 -19.260  1.00  0.00     0.041 C 
ATOM     10  O   UNL     1     -13.918   0.102 -20.328  1.00  0.00    -0.550 OA
ATOM     11  O   UNL     1     -13.705   0.155 -18.047  1.00  0.00    -0.550 OA
ENDBRANCH   8   9
ENDBRANCH   7   8
ENDBRANCH   6   7
ENDBRANCH   5   6
ENDBRANCH   4   5
ENDBRANCH   3   4
ENDBRANCH   2   3
ENDBRANCH   1   2
BRANCH   1  12
ATOM     12  C   UNL     1     -16.868   0.852 -11.218  1.00  0.00     0.000 C 
BRANCH  12  13
ATOM     13  C   UNL     1     -17.984   0.668 -12.262  1.00  0.00    -0.000 C 
BRANCH  13  14
ATOM     14  C   UNL     1     -17.956  -0.724 -12.914  1.00  0.00    -0.000 C 
BRANCH  14  15
ATOM     15  C   UNL     1     -18.644  -0.748 -14.289  1.00  0.00    -0.000 C 
BRANCH  15  16
ATOM     16  C   UNL     1     -17.896   0.086 -15.344  1.00  0.00    -0.000 C 
BRANCH  16  17
ATOM     17  C   UNL     1     -16.618  -0.597 -15.875  1.00  0.00    -0.000 C 
BRANCH  17  18
ATOM     18  C   UNL     1     -16.896  -1.466 -17.115  1.00  0.00    -0.000 C 
BRANCH  18  19
ATOM     19  C   UNL     1     -18.050  -0.921 -17.972  1.00  0.00    -0.003 C 
ATOM     20  C   UNL     1     -17.589   0.115 -18.996  1.00  0.00     0.004 C 
ENDBRANCH  18  19
ENDBRANCH  17  18
ENDBRANCH  16  17
ENDBRANCH  15  16
ENDBRANCH  14  15
ENDBRANCH  13  14
ENDBRANCH  12  13
ENDBRANCH   1  12
TORSDOF 16
ENDMDL
MODEL 9
REMARK VINA RESULT:    -5.994      2.509      5.274
REMARK INTER + INTRA:         -13.800
REMARK INTER:                 -11.517
REMARK INTRA:                  -2.283
REMARK UNBOUND:                -2.199
REMARK SMILES CCCCCCCCCCCCCCCCCC(=O)[O-]
REMARK SMILES IDX 10 1 11 2 12 3 13 4 14 5 15 6 16 7 17 8 18 9 19 10 20 11
REMARK SMILES IDX 9 12 8 13 7 14 6 15 5 16 4 17 3 18 2 19 1 20
REMARK H PARENT
REMARK Flexibility Score: inf
ROOT
ATOM      1  C   UNL     1     -15.701   1.523 -11.372  1.00  0.00     0.000 C 
ENDROOT
BRANCH   1   2
ATOM      2  C   UNL     1     -17.183   1.311 -11.031  1.00  0.00     0.000 C 
BRANCH   2   3
ATOM      3  C   UNL     1     -17.970   0.847 -12.264  1.00  0.00     0.000 C 
BRANCH   3   4
ATOM      4  C   UNL     1     -17.622  -0.590 -12.693  1.00  0.00     0.000 C 
BRANCH   4   5
ATOM      5  C   UNL     1     -17.295  -0.764 -14.190  1.00  0.00     0.000 C 
BRANCH   5   6
ATOM      6  C   UNL     1     -17.863   0.329 -15.112  1.00  0.00     0.000 C 
BRANCH   6   7
ATOM      7  C   UNL     1     -17.265   0.289 -16.526  1.00  0.00     0.006 C 
BRANCH   7   8
ATOM      8  C   UNL     1     -16.318  -0.905 -16.685  1.00  0.00     0.053 C 
BRANCH   8   9
ATOM      9  C   UNL     1     -16.945  -1.963 -17.536  1.00  0.00     0.041 C 
ATOM     10  O   UNL     1     -16.766  -1.959 -18.784  1.00  0.00    -0.550 OA
ATOM     11  O   UNL     1     -17.770  -2.923 -16.963  1.00  0.00    -0.550 OA
ENDBRANCH   8   9
ENDBRANCH   7   8
ENDBRANCH   6   7
ENDBRANCH   5   6
ENDBRANCH   4   5
ENDBRANCH   3   4
ENDBRANCH   2   3
ENDBRANCH   1   2
BRANCH   1  12
ATOM     12  C   UNL     1     -15.491   2.477 -12.558  1.00  0.00     0.000 C 
BRANCH  12  13
ATOM     13  C   UNL     1     -14.694   1.831 -13.705  1.00  0.00    -0.000 C 
BRANCH  13  14
ATOM     14  C   UNL     1     -14.884   2.568 -15.041  1.00  0.00    -0.000 C 
BRANCH  14  15
ATOM     15  C   UNL     1     -13.556   2.805 -15.781  1.00  0.00    -0.000 C 
BRANCH  15  16
ATOM     16  C   UNL     1     -13.737   3.584 -17.095  1.00  0.00    -0.000 C 
BRANCH  16  17
ATOM     17  C   UNL     1     -13.253   2.811 -18.340  1.00  0.00    -0.000 C 
BRANCH  17  18
ATOM     18  C   UNL     1     -13.919   1.428 -18.461  1.00  0.00    -0.000 C 
BRANCH  18  19
ATOM     19  C   UNL     1     -15.103   1.426 -19.440  1.00  0.00    -0.003 C 
ATOM     20  C   UNL     1     -14.927   0.425 -20.581  1.00  0.00     0.004 C 
ENDBRANCH  18  19
ENDBRANCH  17  18
ENDBRANCH  16  17
ENDBRANCH  15  16
ENDBRANCH  14  15
ENDBRANCH  13  14
ENDBRANCH  12  13
ENDBRANCH   1  12
TORSDOF 16
ENDMDL
