MODEL 1
REMARK VINA RESULT:    -4.221      0.000      0.000
REMARK INTER + INTRA:         -10.121
REMARK INTER:                  -7.923
REMARK INTRA:                  -2.198
REMARK UNBOUND:                -2.198
REMARK SMILES CCCCCCCCC=CCCCCCCCC(=O)[O-]
REMARK SMILES IDX 10 1 9 2 11 3 12 4 13 5 14 6 15 7 16 8 17 9 18 10 19 11
REMARK SMILES IDX 20 12 8 13 7 14 6 15 5 16 4 17 3 18 2 19 1 20
REMARK H PARENT
REMARK Flexibility Score: inf
ROOT
ATOM      1  C   UNL     1      -4.984  21.906   1.960  1.00  0.00    -0.031 C 
ATOM      2  C   UNL     1      -5.994  21.119   2.381  1.00  0.00    -0.031 C 
ENDROOT
BRANCH   1   3
ATOM      3  C   UNL     1      -4.353  21.865   0.590  1.00  0.00     0.027 C 
BRANCH   3   4
ATOM      4  C   UNL     1      -4.948  22.928  -0.344  1.00  0.00     0.004 C 
BRANCH   4   5
ATOM      5  C   UNL     1      -4.818  22.541  -1.825  1.00  0.00     0.000 C 
BRANCH   5   6
ATOM      6  C   UNL     1      -3.829  21.385  -2.057  1.00  0.00     0.000 C 
BRANCH   6   7
ATOM      7  C   UNL     1      -2.482  21.790  -2.691  1.00  0.00     0.000 C 
BRANCH   7   8
ATOM      8  C   UNL     1      -1.601  22.707  -1.824  1.00  0.00     0.006 C 
BRANCH   8   9
ATOM      9  C   UNL     1      -0.579  21.929  -0.985  1.00  0.00     0.053 C 
BRANCH   9  10
ATOM     10  C   UNL     1       0.761  22.593  -1.047  1.00  0.00     0.041 C 
ATOM     11  O   UNL     1       1.323  22.782  -2.157  1.00  0.00    -0.550 OA
ATOM     12  O   UNL     1       1.366  23.049   0.117  1.00  0.00    -0.550 OA
ENDBRANCH   9  10
ENDBRANCH   8   9
ENDBRANCH   7   8
ENDBRANCH   6   7
ENDBRANCH   5   6
ENDBRANCH   4   5
ENDBRANCH   3   4
ENDBRANCH   1   3
BRANCH   2  13
ATOM     13  C   UNL     1      -6.647  20.021   1.578  1.00  0.00     0.027 C 
BRANCH  13  14
ATOM     14  C   UNL     1      -7.704  20.575   0.614  1.00  0.00     0.004 C 
BRANCH  14  15
ATOM     15  C   UNL     1      -7.727  19.824  -0.725  1.00  0.00     0.000 C 
BRANCH  15  16
ATOM     16  C   UNL     1      -6.422  19.040  -0.938  1.00  0.00     0.000 C 
BRANCH  16  17
ATOM     17  C   UNL     1      -6.668  17.591  -1.384  1.00  0.00    -0.000 C 
BRANCH  17  18
ATOM     18  C   UNL     1      -7.836  16.929  -0.631  1.00  0.00    -0.000 C 
BRANCH  18  19
ATOM     19  C   UNL     1      -7.365  15.837   0.341  1.00  0.00    -0.003 C 
ATOM     20  C   UNL     1      -6.654  16.402   1.571  1.00  0.00     0.004 C 
ENDBRANCH  18  19
ENDBRANCH  17  18
ENDBRANCH  16  17
ENDBRANCH  15  16
ENDBRANCH  14  15
ENDBRANCH  13  14
ENDBRANCH   2  13
TORSDOF 15
ENDMDL
MODEL 2
REMARK VINA RESULT:    -4.044      2.443      4.072
REMARK INTER + INTRA:          -9.789
REMARK INTER:                  -8.625
REMARK INTRA:                  -1.164
REMARK UNBOUND:                -2.198
REMARK SMILES CCCCCCCCC=CCCCCCCCC(=O)[O-]
REMARK SMILES IDX 10 1 9 2 11 3 12 4 13 5 14 6 15 7 16 8 17 9 18 10 19 11
REMARK SMILES IDX 20 12 8 13 7 14 6 15 5 16 4 17 3 18 2 19 1 20
REMARK H PARENT
REMARK Flexibility Score: inf
ROOT
ATOM      1  C   UNL     1      -6.048  18.773  -2.173  1.00  0.00    -0.031 C 
ATOM      2  C   UNL     1      -6.537  17.531  -2.357  1.00  0.00    -0.031 C 
ENDROOT
BRANCH   1   3
ATOM      3  C   UNL     1      -6.165  19.585  -0.906  1.00  0.00     0.027 C 
BRANCH   3   4
ATOM      4  C   UNL     1      -5.123  20.709  -0.850  1.00  0.00     0.004 C 
BRANCH   4   5
ATOM      5  C   UNL     1      -3.943  20.458  -1.803  1.00  0.00     0.000 C 
BRANCH   5   6
ATOM      6  C   UNL     1      -3.547  21.710  -2.606  1.00  0.00     0.000 C 
BRANCH   6   7
ATOM      7  C   UNL     1      -2.070  22.136  -2.469  1.00  0.00     0.000 C 
BRANCH   7   8
ATOM      8  C   UNL     1      -1.555  22.251  -1.024  1.00  0.00     0.006 C 
BRANCH   8   9
ATOM      9  C   UNL     1      -0.151  21.658  -0.843  1.00  0.00     0.053 C 
BRANCH   9  10
ATOM     10  C   UNL     1       0.885  22.733  -0.934  1.00  0.00     0.041 C 
ATOM     11  O   UNL     1       1.388  23.036  -2.047  1.00  0.00    -0.550 OA
ATOM     12  O   UNL     1       1.260  23.436   0.204  1.00  0.00    -0.550 OA
ENDBRANCH   9  10
ENDBRANCH   8   9
ENDBRANCH   7   8
ENDBRANCH   6   7
ENDBRANCH   5   6
ENDBRANCH   4   5
ENDBRANCH   3   4
ENDBRANCH   1   3
BRANCH   2  13
ATOM     13  C   UNL     1      -7.335  16.743  -1.347  1.00  0.00     0.027 C 
BRANCH  13  14
ATOM     14  C   UNL     1      -6.498  15.626  -0.711  1.00  0.00     0.004 C 
BRANCH  14  15
ATOM     15  C   UNL     1      -7.367  14.491  -0.150  1.00  0.00     0.000 C 
BRANCH  15  16
ATOM     16  C   UNL     1      -7.036  13.155  -0.833  1.00  0.00     0.000 C 
BRANCH  16  17
ATOM     17  C   UNL     1      -6.034  13.312  -1.987  1.00  0.00    -0.000 C 
BRANCH  17  18
ATOM     18  C   UNL     1      -6.651  12.972  -3.356  1.00  0.00    -0.000 C 
BRANCH  18  19
ATOM     19  C   UNL     1      -6.227  13.961  -4.453  1.00  0.00    -0.003 C 
ATOM     20  C   UNL     1      -5.377  13.309  -5.544  1.00  0.00     0.004 C 
ENDBRANCH  18  19
ENDBRANCH  17  18
ENDBRANCH  16  17
ENDBRANCH  15  16
ENDBRANCH  14  15
ENDBRANCH  13  14
ENDBRANCH   2  13
TORSDOF 15
ENDMDL
MODEL 3
REMARK VINA RESULT:    -3.988      1.761      3.672
REMARK INTER + INTRA:          -9.684
REMARK INTER:                  -7.206
REMARK INTRA:                  -2.478
REMARK UNBOUND:                -2.198
REMARK SMILES CCCCCCCCC=CCCCCCCCC(=O)[O-]
REMARK SMILES IDX 10 1 9 2 11 3 12 4 13 5 14 6 15 7 16 8 17 9 18 10 19 11
REMARK SMILES IDX 20 12 8 13 7 14 6 15 5 16 4 17 3 18 2 19 1 20
REMARK H PARENT
REMARK Flexibility Score: inf
ROOT
ATOM      1  C   UNL     1      -6.078  18.840  -3.447  1.00  0.00    -0.031 C 
ATOM      2  C   UNL     1      -7.313  19.376  -3.508  1.00  0.00    -0.031 C 
ENDROOT
BRANCH   1   3
ATOM      3  C   UNL     1      -4.990  19.251  -2.486  1.00  0.00     0.027 C 
BRANCH   3   4
ATOM      4  C   UNL     1      -3.724  19.711  -3.220  1.00  0.00     0.004 C 
BRANCH   4   5
ATOM      5  C   UNL     1      -3.852  21.144  -3.761  1.00  0.00     0.000 C 
BRANCH   5   6
ATOM      6  C   UNL     1      -3.786  22.209  -2.653  1.00  0.00     0.000 C 
BRANCH   6   7
ATOM      7  C   UNL     1      -2.775  21.919  -1.524  1.00  0.00     0.000 C 
BRANCH   7   8
ATOM      8  C   UNL     1      -1.392  22.571  -1.702  1.00  0.00     0.006 C 
BRANCH   8   9
ATOM      9  C   UNL     1      -0.307  21.911  -0.842  1.00  0.00     0.053 C 
BRANCH   9  10
ATOM     10  C   UNL     1       0.931  22.749  -0.829  1.00  0.00     0.041 C 
ATOM     11  O   UNL     1       1.589  22.925  -1.888  1.00  0.00    -0.550 OA
ATOM     12  O   UNL     1       1.332  23.379   0.342  1.00  0.00    -0.550 OA
ENDBRANCH   9  10
ENDBRANCH   8   9
ENDBRANCH   7   8
ENDBRANCH   6   7
ENDBRANCH   5   6
ENDBRANCH   4   5
ENDBRANCH   3   4
ENDBRANCH   1   3
BRANCH   2  13
ATOM     13  C   UNL     1      -7.819  20.517  -2.659  1.00  0.00     0.027 C 
BRANCH  13  14
ATOM     14  C   UNL     1      -7.579  21.875  -3.332  1.00  0.00     0.004 C 
BRANCH  14  15
ATOM     15  C   UNL     1      -7.234  22.976  -2.320  1.00  0.00     0.000 C 
BRANCH  15  16
ATOM     16  C   UNL     1      -7.550  22.525  -0.886  1.00  0.00     0.000 C 
BRANCH  16  17
ATOM     17  C   UNL     1      -6.299  22.460   0.004  1.00  0.00    -0.000 C 
BRANCH  17  18
ATOM     18  C   UNL     1      -6.478  21.518   1.209  1.00  0.00    -0.000 C 
BRANCH  18  19
ATOM     19  C   UNL     1      -5.931  20.108   0.938  1.00  0.00    -0.003 C 
ATOM     20  C   UNL     1      -7.036  19.080   0.689  1.00  0.00     0.004 C 
ENDBRANCH  18  19
ENDBRANCH  17  18
ENDBRANCH  16  17
ENDBRANCH  15  16
ENDBRANCH  14  15
ENDBRANCH  13  14
ENDBRANCH   2  13
TORSDOF 15
ENDMDL
MODEL 4
REMARK VINA RESULT:    -3.974      2.560      5.449
REMARK INTER + INTRA:          -9.656
REMARK INTER:                  -7.878
REMARK INTRA:                  -1.779
REMARK UNBOUND:                -2.198
REMARK SMILES CCCCCCCCC=CCCCCCCCC(=O)[O-]
REMARK SMILES IDX 10 1 9 2 11 3 12 4 13 5 14 6 15 7 16 8 17 9 18 10 19 11
REMARK SMILES IDX 20 12 8 13 7 14 6 15 5 16 4 17 3 18 2 19 1 20
REMARK H PARENT
REMARK Flexibility Score: inf
ROOT
ATOM      1  C   UNL     1      -6.149  19.340  -1.407  1.00  0.00    -0.031 C 
ATOM      2  C   UNL     1      -5.241  18.844  -2.270  1.00  0.00    -0.031 C 
ENDROOT
BRANCH   1   3
ATOM      3  C   UNL     1      -6.315  20.796  -1.047  1.00  0.00     0.027 C 
BRANCH   3   4
ATOM      4  C   UNL     1      -5.452  21.186   0.161  1.00  0.00     0.004 C 
BRANCH   4   5
ATOM      5  C   UNL     1      -5.019  22.660   0.115  1.00  0.00     0.000 C 
BRANCH   5   6
ATOM      6  C   UNL     1      -3.840  22.907  -0.843  1.00  0.00     0.000 C 
BRANCH   6   7
ATOM      7  C   UNL     1      -2.790  21.778  -0.895  1.00  0.00     0.000 C 
BRANCH   7   8
ATOM      8  C   UNL     1      -1.494  22.125  -1.648  1.00  0.00     0.006 C 
BRANCH   8   9
ATOM      9  C   UNL     1      -0.231  21.711  -0.883  1.00  0.00     0.053 C 
BRANCH   9  10
ATOM     10  C   UNL     1       0.816  22.774  -0.988  1.00  0.00     0.041 C 
ATOM     11  O   UNL     1       1.424  22.960  -2.074  1.00  0.00    -0.550 OA
ATOM     12  O   UNL     1       1.084  23.596   0.100  1.00  0.00    -0.550 OA
ENDBRANCH   9  10
ENDBRANCH   8   9
ENDBRANCH   7   8
ENDBRANCH   6   7
ENDBRANCH   5   6
ENDBRANCH   4   5
ENDBRANCH   3   4
ENDBRANCH   1   3
BRANCH   2  13
ATOM     13  C   UNL     1      -4.190  19.647  -2.998  1.00  0.00     0.027 C 
BRANCH  13  14
ATOM     14  C   UNL     1      -4.785  20.417  -4.184  1.00  0.00     0.004 C 
BRANCH  14  15
ATOM     15  C   UNL     1      -4.124  21.788  -4.383  1.00  0.00     0.000 C 
BRANCH  15  16
ATOM     16  C   UNL     1      -3.357  21.842  -5.713  1.00  0.00     0.000 C 
BRANCH  16  17
ATOM     17  C   UNL     1      -3.449  20.528  -6.504  1.00  0.00    -0.000 C 
BRANCH  17  18
ATOM     18  C   UNL     1      -2.066  19.934  -6.826  1.00  0.00    -0.000 C 
BRANCH  18  19
ATOM     19  C   UNL     1      -0.955  20.995  -6.822  1.00  0.00    -0.003 C 
ATOM     20  C   UNL     1       0.268  20.577  -7.639  1.00  0.00     0.004 C 
ENDBRANCH  18  19
ENDBRANCH  17  18
ENDBRANCH  16  17
ENDBRANCH  15  16
ENDBRANCH  14  15
ENDBRANCH  13  14
ENDBRANCH   2  13
TORSDOF 15
ENDMDL
MODEL 5
REMARK VINA RESULT:    -3.973      1.255      2.183
REMARK INTER + INTRA:          -9.654
REMARK INTER:                  -7.767
REMARK INTRA:                  -1.887
REMARK UNBOUND:                -2.198
REMARK SMILES CCCCCCCCC=CCCCCCCCC(=O)[O-]
REMARK SMILES IDX 10 1 9 2 11 3 12 4 13 5 14 6 15 7 16 8 17 9 18 10 19 11
REMARK SMILES IDX 20 12 8 13 7 14 6 15 5 16 4 17 3 18 2 19 1 20
REMARK H PARENT
REMARK Flexibility Score: inf
ROOT
ATOM      1  C   UNL     1      -5.798  21.396   1.001  1.00  0.00    -0.031 C 
ATOM      2  C   UNL     1      -6.520  20.551   1.764  1.00  0.00    -0.031 C 
ENDROOT
BRANCH   1   3
ATOM      3  C   UNL     1      -6.245  21.995  -0.310  1.00  0.00     0.027 C 
BRANCH   3   4
ATOM      4  C   UNL     1      -5.894  21.091  -1.499  1.00  0.00     0.004 C 
BRANCH   4   5
ATOM      5  C   UNL     1      -4.561  20.354  -1.296  1.00  0.00     0.000 C 
BRANCH   5   6
ATOM      6  C   UNL     1      -3.617  20.483  -2.505  1.00  0.00     0.000 C 
BRANCH   6   7
ATOM      7  C   UNL     1      -2.904  21.845  -2.637  1.00  0.00     0.000 C 
BRANCH   7   8
ATOM      8  C   UNL     1      -2.273  22.381  -1.340  1.00  0.00     0.006 C 
BRANCH   8   9
ATOM      9  C   UNL     1      -0.852  21.853  -1.107  1.00  0.00     0.053 C 
BRANCH   9  10
ATOM     10  C   UNL     1       0.149  22.952  -1.280  1.00  0.00     0.041 C 
ATOM     11  O   UNL     1       0.954  23.228  -0.353  1.00  0.00    -0.550 OA
ATOM     12  O   UNL     1       0.226  23.638  -2.485  1.00  0.00    -0.550 OA
ENDBRANCH   9  10
ENDBRANCH   8   9
ENDBRANCH   7   8
ENDBRANCH   6   7
ENDBRANCH   5   6
ENDBRANCH   4   5
ENDBRANCH   3   4
ENDBRANCH   1   3
BRANCH   2  13
ATOM     13  C   UNL     1      -7.888  20.011   1.423  1.00  0.00     0.027 C 
BRANCH  13  14
ATOM     14  C   UNL     1      -7.825  18.541   0.989  1.00  0.00     0.004 C 
BRANCH  14  15
ATOM     15  C   UNL     1      -6.608  17.809   1.574  1.00  0.00     0.000 C 
BRANCH  15  16
ATOM     16  C   UNL     1      -6.910  16.318   1.782  1.00  0.00     0.000 C 
BRANCH  16  17
ATOM     17  C   UNL     1      -7.783  15.728   0.663  1.00  0.00    -0.000 C 
BRANCH  17  18
ATOM     18  C   UNL     1      -6.952  15.053  -0.443  1.00  0.00    -0.000 C 
BRANCH  18  19
ATOM     19  C   UNL     1      -7.167  15.702  -1.819  1.00  0.00    -0.003 C 
ATOM     20  C   UNL     1      -6.355  16.984  -2.004  1.00  0.00     0.004 C 
ENDBRANCH  18  19
ENDBRANCH  17  18
ENDBRANCH  16  17
ENDBRANCH  15  16
ENDBRANCH  14  15
ENDBRANCH  13  14
ENDBRANCH   2  13
TORSDOF 15
ENDMDL
MODEL 6
REMARK VINA RESULT:    -3.892      1.583      3.867
REMARK INTER + INTRA:          -9.503
REMARK INTER:                  -7.844
REMARK INTRA:                  -1.659
REMARK UNBOUND:                -2.198
REMARK SMILES CCCCCCCCC=CCCCCCCCC(=O)[O-]
REMARK SMILES IDX 10 1 9 2 11 3 12 4 13 5 14 6 15 7 16 8 17 9 18 10 19 11
REMARK SMILES IDX 20 12 8 13 7 14 6 15 5 16 4 17 3 18 2 19 1 20
REMARK H PARENT
REMARK Flexibility Score: inf
ROOT
ATOM      1  C   UNL     1      -7.198  17.947  -2.688  1.00  0.00    -0.031 C 
ATOM      2  C   UNL     1      -7.557  16.651  -2.769  1.00  0.00    -0.031 C 
ENDROOT
BRANCH   1   3
ATOM      3  C   UNL     1      -5.791  18.458  -2.497  1.00  0.00     0.027 C 
BRANCH   3   4
ATOM      4  C   UNL     1      -5.767  19.962  -2.193  1.00  0.00     0.004 C 
BRANCH   4   5
ATOM      5  C   UNL     1      -4.434  20.409  -1.571  1.00  0.00     0.000 C 
BRANCH   5   6
ATOM      6  C   UNL     1      -3.355  20.715  -2.625  1.00  0.00     0.000 C 
BRANCH   6   7
ATOM      7  C   UNL     1      -2.497  21.965  -2.341  1.00  0.00     0.000 C 
BRANCH   7   8
ATOM      8  C   UNL     1      -1.682  21.915  -1.036  1.00  0.00     0.006 C 
BRANCH   8   9
ATOM      9  C   UNL     1      -0.168  21.955  -1.278  1.00  0.00     0.053 C 
BRANCH   9  10
ATOM     10  C   UNL     1       0.411  23.232  -0.756  1.00  0.00     0.041 C 
ATOM     11  O   UNL     1       1.339  23.207   0.094  1.00  0.00    -0.550 OA
ATOM     12  O   UNL     1      -0.038  24.451  -1.247  1.00  0.00    -0.550 OA
ENDBRANCH   9  10
ENDBRANCH   8   9
ENDBRANCH   7   8
ENDBRANCH   6   7
ENDBRANCH   5   6
ENDBRANCH   4   5
ENDBRANCH   3   4
ENDBRANCH   1   3
BRANCH   2  13
ATOM     13  C   UNL     1      -6.626  15.471  -2.634  1.00  0.00     0.027 C 
BRANCH  13  14
ATOM     14  C   UNL     1      -6.142  15.292  -1.189  1.00  0.00     0.004 C 
BRANCH  14  15
ATOM     15  C   UNL     1      -7.301  15.273  -0.182  1.00  0.00     0.000 C 
BRANCH  15  16
ATOM     16  C   UNL     1      -6.927  16.027   1.103  1.00  0.00     0.000 C 
BRANCH  16  17
ATOM     17  C   UNL     1      -7.969  17.086   1.494  1.00  0.00    -0.000 C 
BRANCH  17  18
ATOM     18  C   UNL     1      -7.718  18.443   0.813  1.00  0.00    -0.000 C 
BRANCH  18  19
ATOM     19  C   UNL     1      -6.506  19.180   1.402  1.00  0.00    -0.003 C 
ATOM     20  C   UNL     1      -6.699  20.696   1.452  1.00  0.00     0.004 C 
ENDBRANCH  18  19
ENDBRANCH  17  18
ENDBRANCH  16  17
ENDBRANCH  15  16
ENDBRANCH  14  15
ENDBRANCH  13  14
ENDBRANCH   2  13
TORSDOF 15
ENDMDL
MODEL 7
REMARK VINA RESULT:    -3.872      1.318      4.258
REMARK INTER + INTRA:          -9.465
REMARK INTER:                  -7.312
REMARK INTRA:                  -2.153
REMARK UNBOUND:                -2.198
REMARK SMILES CCCCCCCCC=CCCCCCCCC(=O)[O-]
REMARK SMILES IDX 10 1 9 2 11 3 12 4 13 5 14 6 15 7 16 8 17 9 18 10 19 11
REMARK SMILES IDX 20 12 8 13 7 14 6 15 5 16 4 17 3 18 2 19 1 20
REMARK H PARENT
REMARK Flexibility Score: inf
ROOT
ATOM      1  C   UNL     1      -6.256  16.184  -2.073  1.00  0.00    -0.031 C 
ATOM      2  C   UNL     1      -6.469  15.571  -0.892  1.00  0.00    -0.031 C 
ENDROOT
BRANCH   1   3
ATOM      3  C   UNL     1      -7.191  17.169  -2.732  1.00  0.00     0.027 C 
BRANCH   3   4
ATOM      4  C   UNL     1      -6.850  18.617  -2.356  1.00  0.00     0.004 C 
BRANCH   4   5
ATOM      5  C   UNL     1      -5.340  18.830  -2.167  1.00  0.00     0.000 C 
BRANCH   5   6
ATOM      6  C   UNL     1      -4.897  20.274  -2.466  1.00  0.00     0.000 C 
BRANCH   6   7
ATOM      7  C   UNL     1      -3.386  20.458  -2.718  1.00  0.00     0.000 C 
BRANCH   7   8
ATOM      8  C   UNL     1      -2.911  21.919  -2.803  1.00  0.00     0.006 C 
BRANCH   8   9
ATOM      9  C   UNL     1      -2.236  22.401  -1.513  1.00  0.00     0.053 C 
BRANCH   9  10
ATOM     10  C   UNL     1      -0.752  22.465  -1.693  1.00  0.00     0.041 C 
ATOM     11  O   UNL     1      -0.262  22.894  -2.770  1.00  0.00    -0.550 OA
ATOM     12  O   UNL     1       0.092  22.099  -0.652  1.00  0.00    -0.550 OA
ENDBRANCH   9  10
ENDBRANCH   8   9
ENDBRANCH   7   8
ENDBRANCH   6   7
ENDBRANCH   5   6
ENDBRANCH   4   5
ENDBRANCH   3   4
ENDBRANCH   1   3
BRANCH   2  13
ATOM     13  C   UNL     1      -7.701  15.720  -0.034  1.00  0.00     0.027 C 
BRANCH  13  14
ATOM     14  C   UNL     1      -7.344  15.896   1.448  1.00  0.00     0.004 C 
BRANCH  14  15
ATOM     15  C   UNL     1      -6.610  17.217   1.719  1.00  0.00     0.000 C 
BRANCH  15  16
ATOM     16  C   UNL     1      -7.396  18.410   1.154  1.00  0.00     0.000 C 
BRANCH  16  17
ATOM     17  C   UNL     1      -6.650  19.743   1.319  1.00  0.00    -0.000 C 
BRANCH  17  18
ATOM     18  C   UNL     1      -7.236  20.862   0.439  1.00  0.00    -0.000 C 
BRANCH  18  19
ATOM     19  C   UNL     1      -6.418  22.161   0.519  1.00  0.00    -0.003 C 
ATOM     20  C   UNL     1      -4.946  21.917   0.851  1.00  0.00     0.004 C 
ENDBRANCH  18  19
ENDBRANCH  17  18
ENDBRANCH  16  17
ENDBRANCH  15  16
ENDBRANCH  14  15
ENDBRANCH  13  14
ENDBRANCH   2  13
TORSDOF 15
ENDMDL
MODEL 8
REMARK VINA RESULT:    -3.853      1.938      3.634
REMARK INTER + INTRA:          -9.429
REMARK INTER:                  -7.105
REMARK INTRA:                  -2.324
REMARK UNBOUND:                -2.198
REMARK SMILES CCCCCCCCC=CCCCCCCCC(=O)[O-]
REMARK SMILES IDX 10 1 9 2 11 3 12 4 13 5 14 6 15 7 16 8 17 9 18 10 19 11
REMARK SMILES IDX 20 12 8 13 7 14 6 15 5 16 4 17 3 18 2 19 1 20
REMARK H PARENT
REMARK Flexibility Score: inf
ROOT
ATOM      1  C   UNL     1      -6.272  20.165   1.248  1.00  0.00    -0.031 C 
ATOM      2  C   UNL     1      -6.737  18.996   0.766  1.00  0.00    -0.031 C 
ENDROOT
BRANCH   1   3
ATOM      3  C   UNL     1      -6.256  21.478   0.504  1.00  0.00     0.027 C 
BRANCH   3   4
ATOM      4  C   UNL     1      -4.829  21.910   0.141  1.00  0.00     0.004 C 
BRANCH   4   5
ATOM      5  C   UNL     1      -4.202  21.007  -0.933  1.00  0.00     0.000 C 
BRANCH   5   6
ATOM      6  C   UNL     1      -3.888  21.760  -2.238  1.00  0.00     0.000 C 
BRANCH   6   7
ATOM      7  C   UNL     1      -2.390  21.859  -2.595  1.00  0.00     0.000 C 
BRANCH   7   8
ATOM      8  C   UNL     1      -1.547  22.720  -1.638  1.00  0.00     0.006 C 
BRANCH   8   9
ATOM      9  C   UNL     1      -0.489  21.906  -0.881  1.00  0.00     0.053 C 
BRANCH   9  10
ATOM     10  C   UNL     1       0.827  22.618  -0.898  1.00  0.00     0.041 C 
ATOM     11  O   UNL     1       1.383  22.947   0.182  1.00  0.00    -0.550 OA
ATOM     12  O   UNL     1       1.465  22.872  -2.106  1.00  0.00    -0.550 OA
ENDBRANCH   9  10
ENDBRANCH   8   9
ENDBRANCH   7   8
ENDBRANCH   6   7
ENDBRANCH   5   6
ENDBRANCH   4   5
ENDBRANCH   3   4
ENDBRANCH   1   3
BRANCH   2  13
ATOM     13  C   UNL     1      -7.283  18.774  -0.624  1.00  0.00     0.027 C 
BRANCH  13  14
ATOM     14  C   UNL     1      -6.272  18.050  -1.522  1.00  0.00     0.004 C 
BRANCH  14  15
ATOM     15  C   UNL     1      -6.337  18.529  -2.980  1.00  0.00     0.000 C 
BRANCH  15  16
ATOM     16  C   UNL     1      -6.995  19.914  -3.075  1.00  0.00     0.000 C 
BRANCH  16  17
ATOM     17  C   UNL     1      -6.680  20.630  -4.398  1.00  0.00    -0.000 C 
BRANCH  17  18
ATOM     18  C   UNL     1      -5.699  19.837  -5.281  1.00  0.00    -0.000 C 
BRANCH  18  19
ATOM     19  C   UNL     1      -4.473  20.668  -5.691  1.00  0.00    -0.003 C 
ATOM     20  C   UNL     1      -3.178  19.857  -5.688  1.00  0.00     0.004 C 
ENDBRANCH  18  19
ENDBRANCH  17  18
ENDBRANCH  16  17
ENDBRANCH  15  16
ENDBRANCH  14  15
ENDBRANCH  13  14
ENDBRANCH   2  13
TORSDOF 15
ENDMDL
MODEL 9
REMARK VINA RESULT:    -3.815      2.242      4.713
REMARK INTER + INTRA:          -9.359
REMARK INTER:                  -6.977
REMARK INTRA:                  -2.382
REMARK UNBOUND:                -2.198
REMARK SMILES CCCCCCCCC=CCCCCCCCC(=O)[O-]
REMARK SMILES IDX 10 1 9 2 11 3 12 4 13 5 14 6 15 7 16 8 17 9 18 10 19 11
REMARK SMILES IDX 20 12 8 13 7 14 6 15 5 16 4 17 3 18 2 19 1 20
REMARK H PARENT
REMARK Flexibility Score: inf
ROOT
ATOM      1  C   UNL     1      -4.778  19.265  -6.242  1.00  0.00    -0.031 C 
ATOM      2  C   UNL     1      -5.994  19.043  -5.703  1.00  0.00    -0.031 C 
ENDROOT
BRANCH   1   3
ATOM      3  C   UNL     1      -3.627  19.958  -5.554  1.00  0.00     0.027 C 
BRANCH   3   4
ATOM      4  C   UNL     1      -3.657  21.475  -5.782  1.00  0.00     0.004 C 
BRANCH   4   5
ATOM      5  C   UNL     1      -3.167  22.258  -4.553  1.00  0.00     0.000 C 
BRANCH   5   6
ATOM      6  C   UNL     1      -3.725  21.704  -3.230  1.00  0.00     0.000 C 
BRANCH   6   7
ATOM      7  C   UNL     1      -2.661  21.304  -2.187  1.00  0.00     0.000 C 
BRANCH   7   8
ATOM      8  C   UNL     1      -1.481  22.282  -2.048  1.00  0.00     0.006 C 
BRANCH   8   9
ATOM      9  C   UNL     1      -0.513  21.892  -0.924  1.00  0.00     0.053 C 
BRANCH   9  10
ATOM     10  C   UNL     1       0.753  22.682  -1.028  1.00  0.00     0.041 C 
ATOM     11  O   UNL     1       1.355  23.055   0.013  1.00  0.00    -0.550 OA
ATOM     12  O   UNL     1       1.298  22.962  -2.275  1.00  0.00    -0.550 OA
ENDBRANCH   9  10
ENDBRANCH   8   9
ENDBRANCH   7   8
ENDBRANCH   6   7
ENDBRANCH   5   6
ENDBRANCH   4   5
ENDBRANCH   3   4
ENDBRANCH   1   3
BRANCH   2  13
ATOM     13  C   UNL     1      -6.443  19.488  -4.333  1.00  0.00     0.027 C 
BRANCH  13  14
ATOM     14  C   UNL     1      -5.927  18.549  -3.234  1.00  0.00     0.004 C 
BRANCH  14  15
ATOM     15  C   UNL     1      -6.139  19.125  -1.827  1.00  0.00     0.000 C 
BRANCH  15  16
ATOM     16  C   UNL     1      -7.026  20.378  -1.872  1.00  0.00     0.000 C 
BRANCH  16  17
ATOM     17  C   UNL     1      -6.699  21.377  -0.751  1.00  0.00    -0.000 C 
BRANCH  17  18
ATOM     18  C   UNL     1      -5.520  20.918   0.125  1.00  0.00    -0.000 C 
BRANCH  18  19
ATOM     19  C   UNL     1      -4.728  22.097   0.710  1.00  0.00    -0.003 C 
ATOM     20  C   UNL     1      -4.911  23.389  -0.087  1.00  0.00     0.004 C 
ENDBRANCH  18  19
ENDBRANCH  17  18
ENDBRANCH  16  17
ENDBRANCH  15  16
ENDBRANCH  14  15
ENDBRANCH  13  14
ENDBRANCH   2  13
TORSDOF 15
ENDMDL
