MODEL 1
REMARK VINA RESULT:    -4.990      0.000      0.000
REMARK INTER + INTRA:          -6.159
REMARK INTER:                  -5.865
REMARK INTRA:                  -0.294
REMARK UNBOUND:                -0.294
REMARK SMILES O=c1cc(-c2ccc(O)c(O)c2)oc2cc(O)cc(O)c12
REMARK SMILES IDX 4 1 3 2 2 3 1 4 21 5 19 6 18 7 16 8 15 9 14 10 13 11 5 12
REMARK SMILES IDX 6 13 7 14 8 15 12 16 10 17 9 18 11 20 20 22 17 24
REMARK H PARENT 9 19 11 21 20 23 17 25
REMARK Flexibility Score: inf
ROOT
ATOM      1  C   UNL     1      -7.209   0.118  -3.373  1.00  0.00     0.138 A 
ATOM      2  C   UNL     1      -6.594   1.011  -4.261  1.00  0.00     0.100 A 
ATOM      3  C   UNL     1      -6.811   2.383  -4.121  1.00  0.00     0.197 A 
ATOM      4  O   UNL     1      -6.201   3.161  -4.899  1.00  0.00    -0.289 OA
ATOM      5  C   UNL     1      -7.679   2.859  -3.108  1.00  0.00     0.107 A 
ATOM      6  C   UNL     1      -8.003   4.233  -2.893  1.00  0.00     0.134 A 
ATOM      7  C   UNL     1      -8.796   4.590  -1.797  1.00  0.00     0.093 A 
ATOM      8  C   UNL     1      -9.325   3.624  -0.943  1.00  0.00     0.123 A 
ATOM      9  C   UNL     1      -9.056   2.273  -1.173  1.00  0.00     0.094 A 
ATOM     10  C   UNL     1      -8.239   1.886  -2.238  1.00  0.00     0.146 A 
ATOM     11  O   UNL     1      -7.993   0.592  -2.411  1.00  0.00    -0.456 OA
ENDROOT
BRANCH   1  12
ATOM     12  C   UNL     1      -7.015  -1.351  -3.477  1.00  0.00     0.021 A 
ATOM     13  C   UNL     1      -7.786  -2.255  -2.720  1.00  0.00     0.016 A 
ATOM     14  C   UNL     1      -7.588  -3.633  -2.846  1.00  0.00     0.051 A 
ATOM     15  C   UNL     1      -6.627  -4.130  -3.734  1.00  0.00     0.157 A 
ATOM     16  C   UNL     1      -6.062  -1.861  -4.376  1.00  0.00     0.062 A 
ATOM     17  C   UNL     1      -5.864  -3.243  -4.502  1.00  0.00     0.158 A 
BRANCH  15  18
ATOM     18  O   UNL     1      -6.427  -5.505  -3.862  1.00  0.00    -0.504 OA
ATOM     19  H   UNL     1      -5.852  -5.889  -4.602  1.00  0.00     0.293 HD
ENDBRANCH  15  18
BRANCH  17  20
ATOM     20  O   UNL     1      -4.911  -3.743  -5.389  1.00  0.00    -0.504 OA
ATOM     21  H   UNL     1      -4.063  -3.229  -5.598  1.00  0.00     0.293 HD
ENDBRANCH  17  20
ENDBRANCH   1  12
BRANCH   6  22
ATOM     22  O   UNL     1      -7.594   5.274  -3.731  1.00  0.00    -0.507 OA
ATOM     23  H   UNL     1      -7.432   6.225  -3.439  1.00  0.00     0.293 HD
ENDBRANCH   6  22
BRANCH   8  24
ATOM     24  O   UNL     1     -10.124   4.016   0.129  1.00  0.00    -0.508 OA
ATOM     25  H   UNL     1     -10.303   3.397   0.911  1.00  0.00     0.293 HD
ENDBRANCH   8  24
TORSDOF 5
ENDMDL
MODEL 2
REMARK VINA RESULT:    -4.931      1.480      7.295
REMARK INTER + INTRA:          -6.090
REMARK INTER:                  -5.772
REMARK INTRA:                  -0.318
REMARK UNBOUND:                -0.294
REMARK SMILES O=c1cc(-c2ccc(O)c(O)c2)oc2cc(O)cc(O)c12
REMARK SMILES IDX 4 1 3 2 2 3 1 4 21 5 19 6 18 7 16 8 15 9 14 10 13 11 5 12
REMARK SMILES IDX 6 13 7 14 8 15 12 16 10 17 9 18 11 20 20 22 17 24
REMARK H PARENT 9 19 11 21 20 23 17 25
REMARK Flexibility Score: inf
ROOT
ATOM      1  C   UNL     1      -7.621  -0.103  -3.104  1.00  0.00     0.138 A 
ATOM      2  C   UNL     1      -8.435  -0.841  -2.234  1.00  0.00     0.100 A 
ATOM      3  C   UNL     1      -8.369  -2.235  -2.241  1.00  0.00     0.197 A 
ATOM      4  O   UNL     1      -9.072  -2.866  -1.410  1.00  0.00    -0.289 OA
ATOM      5  C   UNL     1      -7.509  -2.894  -3.153  1.00  0.00     0.107 A 
ATOM      6  C   UNL     1      -7.384  -4.311  -3.275  1.00  0.00     0.134 A 
ATOM      7  C   UNL     1      -6.427  -4.846  -4.145  1.00  0.00     0.093 A 
ATOM      8  C   UNL     1      -5.631  -4.021  -4.938  1.00  0.00     0.123 A 
ATOM      9  C   UNL     1      -5.779  -2.635  -4.863  1.00  0.00     0.094 A 
ATOM     10  C   UNL     1      -6.702  -2.069  -3.981  1.00  0.00     0.146 A 
ATOM     11  O   UNL     1      -6.799  -0.744  -3.927  1.00  0.00    -0.456 OA
ENDROOT
BRANCH   1  12
ATOM     12  C   UNL     1      -7.652   1.381  -3.140  1.00  0.00     0.021 A 
ATOM     13  C   UNL     1      -8.427   2.128  -2.231  1.00  0.00     0.016 A 
ATOM     14  C   UNL     1      -8.429   3.525  -2.283  1.00  0.00     0.051 A 
ATOM     15  C   UNL     1      -7.654   4.198  -3.234  1.00  0.00     0.157 A 
ATOM     16  C   UNL     1      -6.866   2.066  -4.084  1.00  0.00     0.062 A 
ATOM     17  C   UNL     1      -6.869   3.468  -4.135  1.00  0.00     0.158 A 
BRANCH  15  18
ATOM     18  O   UNL     1      -7.654   5.591  -3.289  1.00  0.00    -0.504 OA
ATOM     19  H   UNL     1      -7.325   6.088  -4.109  1.00  0.00     0.293 HD
ENDBRANCH  15  18
BRANCH  17  20
ATOM     20  O   UNL     1      -6.095   4.142  -5.079  1.00  0.00    -0.504 OA
ATOM     21  H   UNL     1      -5.223   4.591  -4.824  1.00  0.00     0.293 HD
ENDBRANCH  17  20
ENDBRANCH   1  12
BRANCH   6  22
ATOM     22  O   UNL     1      -8.184  -5.230  -2.589  1.00  0.00    -0.507 OA
ATOM     23  H   UNL     1      -7.870  -6.118  -2.230  1.00  0.00     0.293 HD
ENDBRANCH   6  22
BRANCH   8  24
ATOM     24  O   UNL     1      -4.699  -4.590  -5.804  1.00  0.00    -0.508 OA
ATOM     25  H   UNL     1      -4.985  -5.062  -6.654  1.00  0.00     0.293 HD
ENDBRANCH   8  24
TORSDOF 5
ENDMDL
MODEL 3
REMARK VINA RESULT:    -4.754      1.377      6.928
REMARK INTER + INTRA:          -5.882
REMARK INTER:                  -5.588
REMARK INTRA:                  -0.293
REMARK UNBOUND:                -0.294
REMARK SMILES O=c1cc(-c2ccc(O)c(O)c2)oc2cc(O)cc(O)c12
REMARK SMILES IDX 4 1 3 2 2 3 1 4 21 5 19 6 18 7 16 8 15 9 14 10 13 11 5 12
REMARK SMILES IDX 6 13 7 14 8 15 12 16 10 17 9 18 11 20 20 22 17 24
REMARK H PARENT 9 19 11 21 20 23 17 25
REMARK Flexibility Score: inf
ROOT
ATOM      1  C   UNL     1      -7.187  -0.742  -3.561  1.00  0.00     0.138 A 
ATOM      2  C   UNL     1      -6.183  -1.321  -4.350  1.00  0.00     0.100 A 
ATOM      3  C   UNL     1      -6.079  -2.711  -4.426  1.00  0.00     0.197 A 
ATOM      4  O   UNL     1      -5.203  -3.198  -5.186  1.00  0.00    -0.289 OA
ATOM      5  C   UNL     1      -6.962  -3.525  -3.676  1.00  0.00     0.107 A 
ATOM      6  C   UNL     1      -6.928  -4.952  -3.648  1.00  0.00     0.134 A 
ATOM      7  C   UNL     1      -7.917  -5.651  -2.946  1.00  0.00     0.093 A 
ATOM      8  C   UNL     1      -8.903  -4.979  -2.225  1.00  0.00     0.123 A 
ATOM      9  C   UNL     1      -8.917  -3.583  -2.206  1.00  0.00     0.094 A 
ATOM     10  C   UNL     1      -7.964  -2.856  -2.923  1.00  0.00     0.146 A 
ATOM     11  O   UNL     1      -8.023  -1.529  -2.893  1.00  0.00    -0.456 OA
ENDROOT
BRANCH   1  12
ATOM     12  C   UNL     1      -7.342   0.729  -3.442  1.00  0.00     0.021 A 
ATOM     13  C   UNL     1      -8.203   1.310  -2.490  1.00  0.00     0.016 A 
ATOM     14  C   UNL     1      -8.321   2.698  -2.394  1.00  0.00     0.051 A 
ATOM     15  C   UNL     1      -7.577   3.531  -3.239  1.00  0.00     0.157 A 
ATOM     16  C   UNL     1      -6.589   1.574  -4.277  1.00  0.00     0.062 A 
ATOM     17  C   UNL     1      -6.708   2.968  -4.181  1.00  0.00     0.158 A 
BRANCH  15  18
ATOM     18  O   UNL     1      -7.693   4.917  -3.147  1.00  0.00    -0.504 OA
ATOM     19  H   UNL     1      -8.136   5.461  -3.878  1.00  0.00     0.293 HD
ENDBRANCH  15  18
BRANCH  17  20
ATOM     20  O   UNL     1      -5.965   3.800  -5.018  1.00  0.00    -0.504 OA
ATOM     21  H   UNL     1      -5.232   3.433  -5.613  1.00  0.00     0.293 HD
ENDBRANCH  17  20
ENDBRANCH   1  12
BRANCH   6  22
ATOM     22  O   UNL     1      -5.941  -5.724  -4.267  1.00  0.00    -0.507 OA
ATOM     23  H   UNL     1      -4.947  -5.591  -4.160  1.00  0.00     0.293 HD
ENDBRANCH   6  22
BRANCH   8  24
ATOM     24  O   UNL     1      -9.862  -5.708  -1.526  1.00  0.00    -0.508 OA
ATOM     25  H   UNL     1     -10.311  -5.335  -0.698  1.00  0.00     0.293 HD
ENDBRANCH   8  24
TORSDOF 5
ENDMDL
MODEL 4
REMARK VINA RESULT:    -4.668     11.309     12.859
REMARK INTER + INTRA:          -5.781
REMARK INTER:                  -5.510
REMARK INTRA:                  -0.271
REMARK UNBOUND:                -0.294
REMARK SMILES O=c1cc(-c2ccc(O)c(O)c2)oc2cc(O)cc(O)c12
REMARK SMILES IDX 4 1 3 2 2 3 1 4 21 5 19 6 18 7 16 8 15 9 14 10 13 11 5 12
REMARK SMILES IDX 6 13 7 14 8 15 12 16 10 17 9 18 11 20 20 22 17 24
REMARK H PARENT 9 19 11 21 20 23 17 25
REMARK Flexibility Score: inf
ROOT
ATOM      1  C   UNL     1       1.292   7.266   1.007  1.00  0.00     0.138 A 
ATOM      2  C   UNL     1      -0.005   7.450   1.505  1.00  0.00     0.100 A 
ATOM      3  C   UNL     1      -0.194   8.138   2.705  1.00  0.00     0.197 A 
ATOM      4  O   UNL     1      -1.373   8.334   3.097  1.00  0.00    -0.289 OA
ATOM      5  C   UNL     1       0.928   8.611   3.429  1.00  0.00     0.107 A 
ATOM      6  C   UNL     1       0.860   9.294   4.680  1.00  0.00     0.134 A 
ATOM      7  C   UNL     1       2.031   9.802   5.253  1.00  0.00     0.093 A 
ATOM      8  C   UNL     1       3.274   9.603   4.652  1.00  0.00     0.123 A 
ATOM      9  C   UNL     1       3.358   8.893   3.453  1.00  0.00     0.094 A 
ATOM     10  C   UNL     1       2.203   8.403   2.839  1.00  0.00     0.146 A 
ATOM     11  O   UNL     1       2.325   7.748   1.689  1.00  0.00    -0.456 OA
ENDROOT
BRANCH   1  12
ATOM     12  C   UNL     1       1.550   6.541  -0.262  1.00  0.00     0.021 A 
ATOM     13  C   UNL     1       2.470   5.476  -0.334  1.00  0.00     0.016 A 
ATOM     14  C   UNL     1       2.686   4.805  -1.540  1.00  0.00     0.051 A 
ATOM     15  C   UNL     1       1.982   5.178  -2.691  1.00  0.00     0.157 A 
ATOM     16  C   UNL     1       0.838   6.899  -1.421  1.00  0.00     0.062 A 
ATOM     17  C   UNL     1       1.055   6.225  -2.632  1.00  0.00     0.158 A 
BRANCH  15  18
ATOM     18  O   UNL     1       2.195   4.510  -3.897  1.00  0.00    -0.504 OA
ATOM     19  H   UNL     1       3.108   4.147  -4.146  1.00  0.00     0.293 HD
ENDBRANCH  15  18
BRANCH  17  20
ATOM     20  O   UNL     1       0.353   6.591  -3.779  1.00  0.00    -0.504 OA
ATOM     21  H   UNL     1      -0.622   6.344  -3.904  1.00  0.00     0.293 HD
ENDBRANCH  17  20
ENDBRANCH   1  12
BRANCH   6  22
ATOM     22  O   UNL     1      -0.319   9.480   5.408  1.00  0.00    -0.507 OA
ATOM     23  H   UNL     1      -0.921  10.286   5.344  1.00  0.00     0.293 HD
ENDBRANCH   6  22
BRANCH   8  24
ATOM     24  O   UNL     1       4.421  10.110   5.259  1.00  0.00    -0.508 OA
ATOM     25  H   UNL     1       4.385  10.920   5.867  1.00  0.00     0.293 HD
ENDBRANCH   8  24
TORSDOF 5
ENDMDL
MODEL 5
REMARK VINA RESULT:    -4.634     10.379     11.815
REMARK INTER + INTRA:          -5.740
REMARK INTER:                  -5.457
REMARK INTRA:                  -0.283
REMARK UNBOUND:                -0.294
REMARK SMILES O=c1cc(-c2ccc(O)c(O)c2)oc2cc(O)cc(O)c12
REMARK SMILES IDX 4 1 3 2 2 3 1 4 21 5 19 6 18 7 16 8 15 9 14 10 13 11 5 12
REMARK SMILES IDX 6 13 7 14 8 15 12 16 10 17 9 18 11 20 20 22 17 24
REMARK H PARENT 9 19 11 21 20 23 17 25
REMARK Flexibility Score: inf
ROOT
ATOM      1  C   UNL     1       1.270   7.106   0.690  1.00  0.00     0.138 A 
ATOM      2  C   UNL     1       2.266   7.737   1.447  1.00  0.00     0.100 A 
ATOM      3  C   UNL     1       1.922   8.398   2.628  1.00  0.00     0.197 A 
ATOM      4  O   UNL     1       2.846   8.907   3.313  1.00  0.00    -0.289 OA
ATOM      5  C   UNL     1       0.566   8.457   3.032  1.00  0.00     0.107 A 
ATOM      6  C   UNL     1       0.092   9.132   4.197  1.00  0.00     0.134 A 
ATOM      7  C   UNL     1      -1.260   9.037   4.547  1.00  0.00     0.093 A 
ATOM      8  C   UNL     1      -2.166   8.344   3.746  1.00  0.00     0.123 A 
ATOM      9  C   UNL     1      -1.723   7.722   2.577  1.00  0.00     0.094 A 
ATOM     10  C   UNL     1      -0.374   7.769   2.218  1.00  0.00     0.146 A 
ATOM     11  O   UNL     1       0.009   7.148   1.107  1.00  0.00    -0.456 OA
ENDROOT
BRANCH   1  12
ATOM     12  C   UNL     1       1.579   6.392  -0.574  1.00  0.00     0.021 A 
ATOM     13  C   UNL     1       2.527   5.351  -0.626  1.00  0.00     0.016 A 
ATOM     14  C   UNL     1       2.790   4.690  -1.828  1.00  0.00     0.051 A 
ATOM     15  C   UNL     1       2.107   5.050  -2.996  1.00  0.00     0.157 A 
ATOM     16  C   UNL     1       0.889   6.737  -1.750  1.00  0.00     0.062 A 
ATOM     17  C   UNL     1       1.153   6.074  -2.957  1.00  0.00     0.158 A 
BRANCH  15  18
ATOM     18  O   UNL     1       2.368   4.393  -4.198  1.00  0.00    -0.504 OA
ATOM     19  H   UNL     1       1.640   3.895  -4.698  1.00  0.00     0.293 HD
ENDBRANCH  15  18
BRANCH  17  20
ATOM     20  O   UNL     1       0.472   6.427  -4.121  1.00  0.00    -0.504 OA
ATOM     21  H   UNL     1      -0.525   6.275  -4.218  1.00  0.00     0.293 HD
ENDBRANCH  17  20
ENDBRANCH   1  12
BRANCH   6  22
ATOM     22  O   UNL     1       0.895   9.920   5.027  1.00  0.00    -0.507 OA
ATOM     23  H   UNL     1       0.622  10.280   5.928  1.00  0.00     0.293 HD
ENDBRANCH   6  22
BRANCH   8  24
ATOM     24  O   UNL     1      -3.507   8.285   4.117  1.00  0.00    -0.508 OA
ATOM     25  H   UNL     1      -4.248   8.519   3.467  1.00  0.00     0.293 HD
ENDBRANCH   8  24
TORSDOF 5
ENDMDL
MODEL 6
REMARK VINA RESULT:    -4.634     11.159     13.621
REMARK INTER + INTRA:          -5.740
REMARK INTER:                  -5.423
REMARK INTRA:                  -0.317
REMARK UNBOUND:                -0.294
REMARK SMILES O=c1cc(-c2ccc(O)c(O)c2)oc2cc(O)cc(O)c12
REMARK SMILES IDX 4 1 3 2 2 3 1 4 21 5 19 6 18 7 16 8 15 9 14 10 13 11 5 12
REMARK SMILES IDX 6 13 7 14 8 15 12 16 10 17 9 18 11 20 20 22 17 24
REMARK H PARENT 9 19 11 21 20 23 17 25
REMARK Flexibility Score: inf
ROOT
ATOM      1  C   UNL     1       2.321   7.095   0.768  1.00  0.00     0.138 A 
ATOM      2  C   UNL     1       3.641   7.552   0.881  1.00  0.00     0.100 A 
ATOM      3  C   UNL     1       4.609   7.096  -0.015  1.00  0.00     0.197 A 
ATOM      4  O   UNL     1       5.772   7.567   0.078  1.00  0.00    -0.289 OA
ATOM      5  C   UNL     1       4.259   6.146  -1.006  1.00  0.00     0.107 A 
ATOM      6  C   UNL     1       5.169   5.583  -1.950  1.00  0.00     0.134 A 
ATOM      7  C   UNL     1       4.686   4.727  -2.947  1.00  0.00     0.093 A 
ATOM      8  C   UNL     1       3.340   4.367  -2.999  1.00  0.00     0.123 A 
ATOM      9  C   UNL     1       2.450   4.873  -2.050  1.00  0.00     0.094 A 
ATOM     10  C   UNL     1       2.895   5.756  -1.063  1.00  0.00     0.146 A 
ATOM     11  O   UNL     1       2.012   6.229  -0.190  1.00  0.00    -0.456 OA
ENDROOT
BRANCH   1  12
ATOM     12  C   UNL     1       1.252   7.546   1.695  1.00  0.00     0.021 A 
ATOM     13  C   UNL     1       1.533   8.356   2.813  1.00  0.00     0.016 A 
ATOM     14  C   UNL     1       0.505   8.773   3.662  1.00  0.00     0.051 A 
ATOM     15  C   UNL     1      -0.819   8.396   3.407  1.00  0.00     0.157 A 
ATOM     16  C   UNL     1      -0.083   7.183   1.440  1.00  0.00     0.062 A 
ATOM     17  C   UNL     1      -1.114   7.601   2.293  1.00  0.00     0.158 A 
BRANCH  15  18
ATOM     18  O   UNL     1      -1.848   8.810   4.253  1.00  0.00    -0.504 OA
ATOM     19  H   UNL     1      -2.598   9.405   3.922  1.00  0.00     0.293 HD
ENDBRANCH  15  18
BRANCH  17  20
ATOM     20  O   UNL     1      -2.434   7.231   2.040  1.00  0.00    -0.504 OA
ATOM     21  H   UNL     1      -2.824   7.267   1.105  1.00  0.00     0.293 HD
ENDBRANCH  17  20
ENDBRANCH   1  12
BRANCH   6  22
ATOM     22  O   UNL     1       6.549   5.811  -1.941  1.00  0.00    -0.507 OA
ATOM     23  H   UNL     1       7.236   5.197  -1.534  1.00  0.00     0.293 HD
ENDBRANCH   6  22
BRANCH   8  24
ATOM     24  O   UNL     1       2.898   3.500  -3.996  1.00  0.00    -0.508 OA
ATOM     25  H   UNL     1       2.044   2.965  -3.892  1.00  0.00     0.293 HD
ENDBRANCH   8  24
TORSDOF 5
ENDMDL
MODEL 7
REMARK VINA RESULT:    -4.566      1.472      2.977
REMARK INTER + INTRA:          -5.661
REMARK INTER:                  -5.354
REMARK INTRA:                  -0.307
REMARK UNBOUND:                -0.294
REMARK SMILES O=c1cc(-c2ccc(O)c(O)c2)oc2cc(O)cc(O)c12
REMARK SMILES IDX 4 1 3 2 2 3 1 4 21 5 19 6 18 7 16 8 15 9 14 10 13 11 5 12
REMARK SMILES IDX 6 13 7 14 8 15 12 16 10 17 9 18 11 20 20 22 17 24
REMARK H PARENT 9 19 11 21 20 23 17 25
REMARK Flexibility Score: inf
ROOT
ATOM      1  C   UNL     1      -7.378  -0.291  -3.719  1.00  0.00     0.138 A 
ATOM      2  C   UNL     1      -7.881   0.347  -2.577  1.00  0.00     0.100 A 
ATOM      3  C   UNL     1      -8.146   1.717  -2.611  1.00  0.00     0.197 A 
ATOM      4  O   UNL     1      -8.649   2.248  -1.587  1.00  0.00    -0.289 OA
ATOM      5  C   UNL     1      -7.871   2.458  -3.785  1.00  0.00     0.107 A 
ATOM      6  C   UNL     1      -8.068   3.865  -3.925  1.00  0.00     0.134 A 
ATOM      7  C   UNL     1      -7.852   4.472  -5.168  1.00  0.00     0.093 A 
ATOM      8  C   UNL     1      -7.392   3.736  -6.260  1.00  0.00     0.123 A 
ATOM      9  C   UNL     1      -7.148   2.369  -6.121  1.00  0.00     0.094 A 
ATOM     10  C   UNL     1      -7.386   1.727  -4.903  1.00  0.00     0.146 A 
ATOM     11  O   UNL     1      -7.158   0.421  -4.819  1.00  0.00    -0.456 OA
ENDROOT
BRANCH   1  12
ATOM     12  C   UNL     1      -7.076  -1.744  -3.738  1.00  0.00     0.021 A 
ATOM     13  C   UNL     1      -7.782  -2.660  -2.933  1.00  0.00     0.016 A 
ATOM     14  C   UNL     1      -7.482  -4.023  -2.979  1.00  0.00     0.051 A 
ATOM     15  C   UNL     1      -6.480  -4.498  -3.834  1.00  0.00     0.157 A 
ATOM     16  C   UNL     1      -6.080  -2.232  -4.603  1.00  0.00     0.062 A 
ATOM     17  C   UNL     1      -5.778  -3.601  -4.649  1.00  0.00     0.158 A 
BRANCH  15  18
ATOM     18  O   UNL     1      -6.177  -5.858  -3.882  1.00  0.00    -0.504 OA
ATOM     19  H   UNL     1      -5.220  -6.189  -3.839  1.00  0.00     0.293 HD
ENDBRANCH  15  18
BRANCH  17  20
ATOM     20  O   UNL     1      -4.784  -4.078  -5.502  1.00  0.00    -0.504 OA
ATOM     21  H   UNL     1      -4.961  -4.230  -6.488  1.00  0.00     0.293 HD
ENDBRANCH  17  20
ENDBRANCH   1  12
BRANCH   6  22
ATOM     22  O   UNL     1      -8.449   4.710  -2.879  1.00  0.00    -0.507 OA
ATOM     23  H   UNL     1      -7.903   4.892  -2.051  1.00  0.00     0.293 HD
ENDBRANCH   6  22
BRANCH   8  24
ATOM     24  O   UNL     1      -7.174   4.377  -7.477  1.00  0.00    -0.508 OA
ATOM     25  H   UNL     1      -7.897   4.431  -8.185  1.00  0.00     0.293 HD
ENDBRANCH   8  24
TORSDOF 5
ENDMDL
MODEL 8
REMARK VINA RESULT:    -4.552     11.214     13.673
REMARK INTER + INTRA:          -5.644
REMARK INTER:                  -5.345
REMARK INTRA:                  -0.300
REMARK UNBOUND:                -0.294
REMARK SMILES O=c1cc(-c2ccc(O)c(O)c2)oc2cc(O)cc(O)c12
REMARK SMILES IDX 4 1 3 2 2 3 1 4 21 5 19 6 18 7 16 8 15 9 14 10 13 11 5 12
REMARK SMILES IDX 6 13 7 14 8 15 12 16 10 17 9 18 11 20 20 22 17 24
REMARK H PARENT 9 19 11 21 20 23 17 25
REMARK Flexibility Score: inf
ROOT
ATOM      1  C   UNL     1       1.911   7.408   0.196  1.00  0.00     0.138 A 
ATOM      2  C   UNL     1       0.781   7.780  -0.544  1.00  0.00     0.100 A 
ATOM      3  C   UNL     1       0.548   7.196  -1.790  1.00  0.00     0.197 A 
ATOM      4  O   UNL     1      -0.505   7.510  -2.404  1.00  0.00    -0.289 OA
ATOM      5  C   UNL     1       1.473   6.261  -2.314  1.00  0.00     0.107 A 
ATOM      6  C   UNL     1       1.359   5.628  -3.588  1.00  0.00     0.134 A 
ATOM      7  C   UNL     1       2.286   4.646  -3.956  1.00  0.00     0.093 A 
ATOM      8  C   UNL     1       3.355   4.315  -3.124  1.00  0.00     0.123 A 
ATOM      9  C   UNL     1       3.505   4.964  -1.897  1.00  0.00     0.094 A 
ATOM     10  C   UNL     1       2.578   5.924  -1.486  1.00  0.00     0.146 A 
ATOM     11  O   UNL     1       2.748   6.505  -0.303  1.00  0.00    -0.456 OA
ENDROOT
BRANCH   1  12
ATOM     12  C   UNL     1       2.209   7.998   1.525  1.00  0.00     0.021 A 
ATOM     13  C   UNL     1       1.191   8.272   2.460  1.00  0.00     0.016 A 
ATOM     14  C   UNL     1       1.503   8.820   3.707  1.00  0.00     0.051 A 
ATOM     15  C   UNL     1       2.833   9.094   4.046  1.00  0.00     0.157 A 
ATOM     16  C   UNL     1       3.544   8.265   1.880  1.00  0.00     0.062 A 
ATOM     17  C   UNL     1       3.856   8.815   3.132  1.00  0.00     0.158 A 
BRANCH  15  18
ATOM     18  O   UNL     1       3.148   9.641   5.290  1.00  0.00    -0.504 OA
ATOM     19  H   UNL     1       3.553  10.566   5.374  1.00  0.00     0.293 HD
ENDBRANCH  15  18
BRANCH  17  20
ATOM     20  O   UNL     1       5.180   9.085   3.474  1.00  0.00    -0.504 OA
ATOM     21  H   UNL     1       5.822   9.506   2.813  1.00  0.00     0.293 HD
ENDBRANCH  17  20
ENDBRANCH   1  12
BRANCH   6  22
ATOM     22  O   UNL     1       0.375   5.939  -4.532  1.00  0.00    -0.507 OA
ATOM     23  H   UNL     1       0.542   6.393  -5.416  1.00  0.00     0.293 HD
ENDBRANCH   6  22
BRANCH   8  24
ATOM     24  O   UNL     1       4.267   3.344  -3.531  1.00  0.00    -0.508 OA
ATOM     25  H   UNL     1       4.272   2.417  -3.121  1.00  0.00     0.293 HD
ENDBRANCH   8  24
TORSDOF 5
ENDMDL
MODEL 9
REMARK VINA RESULT:    -4.490     10.861     11.923
REMARK INTER + INTRA:          -5.572
REMARK INTER:                  -5.279
REMARK INTRA:                  -0.293
REMARK UNBOUND:                -0.294
REMARK SMILES O=c1cc(-c2ccc(O)c(O)c2)oc2cc(O)cc(O)c12
REMARK SMILES IDX 4 1 3 2 2 3 1 4 21 5 19 6 18 7 16 8 15 9 14 10 13 11 5 12
REMARK SMILES IDX 6 13 7 14 8 15 12 16 10 17 9 18 11 20 20 22 17 24
REMARK H PARENT 9 19 11 21 20 23 17 25
REMARK Flexibility Score: inf
ROOT
ATOM      1  C   UNL     1       3.421   4.854  -3.420  1.00  0.00     0.138 A 
ATOM      2  C   UNL     1       2.302   5.269  -4.153  1.00  0.00     0.100 A 
ATOM      3  C   UNL     1       1.314   6.037  -3.532  1.00  0.00     0.197 A 
ATOM      4  O   UNL     1       0.350   6.440  -4.231  1.00  0.00    -0.289 OA
ATOM      5  C   UNL     1       1.433   6.357  -2.158  1.00  0.00     0.107 A 
ATOM      6  C   UNL     1       0.472   7.103  -1.410  1.00  0.00     0.134 A 
ATOM      7  C   UNL     1       0.746   7.442  -0.080  1.00  0.00     0.093 A 
ATOM      8  C   UNL     1       1.916   7.016   0.548  1.00  0.00     0.123 A 
ATOM      9  C   UNL     1       2.840   6.244  -0.159  1.00  0.00     0.094 A 
ATOM     10  C   UNL     1       2.612   5.917  -1.498  1.00  0.00     0.146 A 
ATOM     11  O   UNL     1       3.525   5.196  -2.140  1.00  0.00    -0.456 OA
ENDROOT
BRANCH   1  12
ATOM     12  C   UNL     1       4.499   4.035  -4.029  1.00  0.00     0.021 A 
ATOM     13  C   UNL     1       5.729   3.824  -3.375  1.00  0.00     0.016 A 
ATOM     14  C   UNL     1       6.722   3.040  -3.968  1.00  0.00     0.051 A 
ATOM     15  C   UNL     1       6.502   2.448  -5.218  1.00  0.00     0.157 A 
ATOM     16  C   UNL     1       4.283   3.426  -5.278  1.00  0.00     0.062 A 
ATOM     17  C   UNL     1       5.279   2.639  -5.873  1.00  0.00     0.158 A 
BRANCH  15  18
ATOM     18  O   UNL     1       7.491   1.665  -5.813  1.00  0.00    -0.504 OA
ATOM     19  H   UNL     1       7.718   0.742  -5.461  1.00  0.00     0.293 HD
ENDBRANCH  15  18
BRANCH  17  20
ATOM     20  O   UNL     1       5.062   2.044  -7.115  1.00  0.00    -0.504 OA
ATOM     21  H   UNL     1       5.006   2.596  -7.963  1.00  0.00     0.293 HD
ENDBRANCH  17  20
ENDBRANCH   1  12
BRANCH   6  22
ATOM     22  O   UNL     1      -0.766   7.512  -1.913  1.00  0.00    -0.507 OA
ATOM     23  H   UNL     1      -1.461   8.029  -1.397  1.00  0.00     0.293 HD
ENDBRANCH   6  22
BRANCH   8  24
ATOM     24  O   UNL     1       2.148   7.360   1.878  1.00  0.00    -0.508 OA
ATOM     25  H   UNL     1       2.690   6.764   2.492  1.00  0.00     0.293 HD
ENDBRANCH   8  24
TORSDOF 5
ENDMDL
