MODEL 1
REMARK VINA RESULT:    -4.743      0.000      0.000
REMARK INTER + INTRA:          -9.818
REMARK INTER:                  -8.070
REMARK INTRA:                  -1.749
REMARK UNBOUND:                -1.749
REMARK SMILES CCCCCCCCCCCCCC(=O)[O-]
REMARK SMILES IDX 8 1 9 2 10 3 11 4 12 5 13 6 14 7 15 8 16 9 7 10 6 11 5 12
REMARK SMILES IDX 4 13 3 14 2 15 1 16
REMARK H PARENT
REMARK Flexibility Score: inf
ROOT
ATOM      1  C   UNL     1      60.902  28.797  13.693  1.00  0.00     0.000 C 
ENDROOT
BRANCH   1   2
ATOM      2  C   UNL     1      62.331  28.676  13.144  1.00  0.00     0.000 C 
BRANCH   2   3
ATOM      3  C   UNL     1      63.109  30.001  13.207  1.00  0.00     0.000 C 
BRANCH   3   4
ATOM      4  C   UNL     1      62.514  31.142  12.359  1.00  0.00     0.000 C 
BRANCH   4   5
ATOM      5  C   UNL     1      62.075  32.371  13.186  1.00  0.00     0.006 C 
BRANCH   5   6
ATOM      6  C   UNL     1      60.550  32.493  13.346  1.00  0.00     0.053 C 
BRANCH   6   7
ATOM      7  C   UNL     1      60.153  32.684  14.779  1.00  0.00     0.041 C 
ATOM      8  O   UNL     1      60.019  33.845  15.250  1.00  0.00    -0.550 OA
ATOM      9  O   UNL     1      59.951  31.581  15.599  1.00  0.00    -0.550 OA
ENDBRANCH   6   7
ENDBRANCH   5   6
ENDBRANCH   4   5
ENDBRANCH   3   4
ENDBRANCH   2   3
ENDBRANCH   1   2
BRANCH   1  10
ATOM     10  C   UNL     1      59.998  27.702  13.116  1.00  0.00     0.000 C 
BRANCH  10  11
ATOM     11  C   UNL     1      58.846  28.308  12.305  1.00  0.00    -0.000 C 
BRANCH  11  12
ATOM     12  C   UNL     1      59.381  29.190  11.166  1.00  0.00    -0.000 C 
BRANCH  12  13
ATOM     13  C   UNL     1      59.386  28.466   9.810  1.00  0.00    -0.000 C 
BRANCH  13  14
ATOM     14  C   UNL     1      60.791  28.018   9.383  1.00  0.00    -0.000 C 
BRANCH  14  15
ATOM     15  C   UNL     1      61.782  29.186   9.446  1.00  0.00    -0.003 C 
ATOM     16  C   UNL     1      63.223  28.686   9.474  1.00  0.00     0.004 C 
ENDBRANCH  14  15
ENDBRANCH  13  14
ENDBRANCH  12  13
ENDBRANCH  11  12
ENDBRANCH  10  11
ENDBRANCH   1  10
TORSDOF 12
ENDMDL
MODEL 2
REMARK VINA RESULT:    -4.594      2.127      5.171
REMARK INTER + INTRA:          -9.566
REMARK INTER:                  -8.026
REMARK INTRA:                  -1.540
REMARK UNBOUND:                -1.749
REMARK SMILES CCCCCCCCCCCCCC(=O)[O-]
REMARK SMILES IDX 8 1 9 2 10 3 11 4 12 5 13 6 14 7 15 8 16 9 7 10 6 11 5 12
REMARK SMILES IDX 4 13 3 14 2 15 1 16
REMARK H PARENT
REMARK Flexibility Score: inf
ROOT
ATOM      1  C   UNL     1      63.326  29.887  10.927  1.00  0.00     0.000 C 
ENDROOT
BRANCH   1   2
ATOM      2  C   UNL     1      63.100  28.825   9.841  1.00  0.00     0.000 C 
BRANCH   2   3
ATOM      3  C   UNL     1      61.738  28.967   9.141  1.00  0.00     0.000 C 
BRANCH   3   4
ATOM      4  C   UNL     1      60.662  27.967   9.608  1.00  0.00     0.000 C 
BRANCH   4   5
ATOM      5  C   UNL     1      59.373  28.637  10.134  1.00  0.00     0.006 C 
BRANCH   5   6
ATOM      6  C   UNL     1      59.502  29.185  11.565  1.00  0.00     0.053 C 
BRANCH   6   7
ATOM      7  C   UNL     1      59.199  28.138  12.593  1.00  0.00     0.041 C 
ATOM      8  O   UNL     1      60.108  27.722  13.359  1.00  0.00    -0.550 OA
ATOM      9  O   UNL     1      57.919  27.608  12.692  1.00  0.00    -0.550 OA
ENDBRANCH   6   7
ENDBRANCH   5   6
ENDBRANCH   4   5
ENDBRANCH   3   4
ENDBRANCH   2   3
ENDBRANCH   1   2
BRANCH   1  10
ATOM     10  C   UNL     1      63.298  29.257  12.324  1.00  0.00     0.000 C 
BRANCH  10  11
ATOM     11  C   UNL     1      62.667  30.211  13.346  1.00  0.00    -0.000 C 
BRANCH  11  12
ATOM     12  C   UNL     1      62.429  31.597  12.730  1.00  0.00    -0.000 C 
BRANCH  12  13
ATOM     13  C   UNL     1      61.742  32.568  13.704  1.00  0.00    -0.000 C 
BRANCH  13  14
ATOM     14  C   UNL     1      60.225  32.655  13.481  1.00  0.00    -0.000 C 
BRANCH  14  15
ATOM     15  C   UNL     1      59.482  31.640  14.358  1.00  0.00    -0.003 C 
ATOM     16  C   UNL     1      60.115  31.541  15.743  1.00  0.00     0.004 C 
ENDBRANCH  14  15
ENDBRANCH  13  14
ENDBRANCH  12  13
ENDBRANCH  11  12
ENDBRANCH  10  11
ENDBRANCH   1  10
TORSDOF 12
ENDMDL
MODEL 3
REMARK VINA RESULT:    -4.550      0.871      2.928
REMARK INTER + INTRA:          -9.491
REMARK INTER:                  -7.817
REMARK INTRA:                  -1.674
REMARK UNBOUND:                -1.749
REMARK SMILES CCCCCCCCCCCCCC(=O)[O-]
REMARK SMILES IDX 8 1 9 2 10 3 11 4 12 5 13 6 14 7 15 8 16 9 7 10 6 11 5 12
REMARK SMILES IDX 4 13 3 14 2 15 1 16
REMARK H PARENT
REMARK Flexibility Score: inf
ROOT
ATOM      1  C   UNL     1      63.109  29.134  11.060  1.00  0.00     0.000 C 
ENDROOT
BRANCH   1   2
ATOM      2  C   UNL     1      63.081  30.653  11.286  1.00  0.00     0.000 C 
BRANCH   2   3
ATOM      3  C   UNL     1      63.102  31.035  12.776  1.00  0.00     0.000 C 
BRANCH   3   4
ATOM      4  C   UNL     1      62.349  32.334  13.122  1.00  0.00     0.000 C 
BRANCH   4   5
ATOM      5  C   UNL     1      60.814  32.222  12.983  1.00  0.00     0.006 C 
BRANCH   5   6
ATOM      6  C   UNL     1      60.041  32.864  14.147  1.00  0.00     0.053 C 
BRANCH   6   7
ATOM      7  C   UNL     1      60.648  32.523  15.474  1.00  0.00     0.041 C 
ATOM      8  O   UNL     1      60.501  31.370  15.961  1.00  0.00    -0.550 OA
ATOM      9  O   UNL     1      61.359  33.484  16.183  1.00  0.00    -0.550 OA
ENDBRANCH   6   7
ENDBRANCH   5   6
ENDBRANCH   4   5
ENDBRANCH   3   4
ENDBRANCH   2   3
ENDBRANCH   1   2
BRANCH   1  10
ATOM     10  C   UNL     1      63.139  28.802   9.564  1.00  0.00     0.000 C 
BRANCH  10  11
ATOM     11  C   UNL     1      61.720  28.647   9.005  1.00  0.00    -0.000 C 
BRANCH  11  12
ATOM     12  C   UNL     1      60.793  27.985  10.035  1.00  0.00    -0.000 C 
BRANCH  12  13
ATOM     13  C   UNL     1      59.499  28.782  10.265  1.00  0.00    -0.000 C 
BRANCH  13  14
ATOM     14  C   UNL     1      59.277  29.138  11.742  1.00  0.00    -0.000 C 
BRANCH  14  15
ATOM     15  C   UNL     1      59.756  28.004  12.657  1.00  0.00    -0.003 C 
ATOM     16  C   UNL     1      60.677  28.532  13.753  1.00  0.00     0.004 C 
ENDBRANCH  14  15
ENDBRANCH  13  14
ENDBRANCH  12  13
ENDBRANCH  11  12
ENDBRANCH  10  11
ENDBRANCH   1  10
TORSDOF 12
ENDMDL
MODEL 4
REMARK VINA RESULT:    -4.545     12.759     14.897
REMARK INTER + INTRA:          -9.482
REMARK INTER:                  -7.502
REMARK INTRA:                  -1.980
REMARK UNBOUND:                -1.749
REMARK SMILES CCCCCCCCCCCCCC(=O)[O-]
REMARK SMILES IDX 8 1 9 2 10 3 11 4 12 5 13 6 14 7 15 8 16 9 7 10 6 11 5 12
REMARK SMILES IDX 4 13 3 14 2 15 1 16
REMARK H PARENT
REMARK Flexibility Score: inf
ROOT
ATOM      1  C   UNL     1      63.443  30.198  27.815  1.00  0.00     0.000 C 
ENDROOT
BRANCH   1   2
ATOM      2  C   UNL     1      63.030  30.407  26.350  1.00  0.00     0.000 C 
BRANCH   2   3
ATOM      3  C   UNL     1      63.967  29.697  25.359  1.00  0.00     0.000 C 
BRANCH   3   4
ATOM      4  C   UNL     1      64.914  28.659  25.992  1.00  0.00     0.000 C 
BRANCH   4   5
ATOM      5  C   UNL     1      65.265  27.481  25.055  1.00  0.00     0.006 C 
BRANCH   5   6
ATOM      6  C   UNL     1      64.344  26.262  25.226  1.00  0.00     0.053 C 
BRANCH   6   7
ATOM      7  C   UNL     1      64.007  25.628  23.911  1.00  0.00     0.041 C 
ATOM      8  O   UNL     1      62.956  24.943  23.789  1.00  0.00    -0.550 OA
ATOM      9  O   UNL     1      64.862  25.777  22.826  1.00  0.00    -0.550 OA
ENDBRANCH   6   7
ENDBRANCH   5   6
ENDBRANCH   4   5
ENDBRANCH   3   4
ENDBRANCH   2   3
ENDBRANCH   1   2
BRANCH   1  10
ATOM     10  C   UNL     1      62.272  30.485  28.761  1.00  0.00     0.000 C 
BRANCH  10  11
ATOM     11  C   UNL     1      61.425  29.227  28.986  1.00  0.00    -0.000 C 
BRANCH  11  12
ATOM     12  C   UNL     1      62.301  27.965  28.977  1.00  0.00    -0.000 C 
BRANCH  12  13
ATOM     13  C   UNL     1      61.873  26.956  27.899  1.00  0.00    -0.000 C 
BRANCH  13  14
ATOM     14  C   UNL     1      60.618  27.402  27.135  1.00  0.00    -0.000 C 
BRANCH  14  15
ATOM     15  C   UNL     1      60.619  26.843  25.707  1.00  0.00    -0.003 C 
ATOM     16  C   UNL     1      60.931  27.934  24.687  1.00  0.00     0.004 C 
ENDBRANCH  14  15
ENDBRANCH  13  14
ENDBRANCH  12  13
ENDBRANCH  11  12
ENDBRANCH  10  11
ENDBRANCH   1  10
TORSDOF 12
ENDMDL
MODEL 5
REMARK VINA RESULT:    -4.518      1.134      2.989
REMARK INTER + INTRA:          -9.436
REMARK INTER:                  -7.783
REMARK INTRA:                  -1.653
REMARK UNBOUND:                -1.749
REMARK SMILES CCCCCCCCCCCCCC(=O)[O-]
REMARK SMILES IDX 8 1 9 2 10 3 11 4 12 5 13 6 14 7 15 8 16 9 7 10 6 11 5 12
REMARK SMILES IDX 4 13 3 14 2 15 1 16
REMARK H PARENT
REMARK Flexibility Score: inf
ROOT
ATOM      1  C   UNL     1      64.058  29.868   9.629  1.00  0.00     0.000 C 
ENDROOT
BRANCH   1   2
ATOM      2  C   UNL     1      64.086  31.214  10.369  1.00  0.00     0.000 C 
BRANCH   2   3
ATOM      3  C   UNL     1      63.160  31.239  11.597  1.00  0.00     0.000 C 
BRANCH   3   4
ATOM      4  C   UNL     1      63.539  32.274  12.674  1.00  0.00     0.000 C 
BRANCH   4   5
ATOM      5  C   UNL     1      62.440  32.500  13.737  1.00  0.00     0.006 C 
BRANCH   5   6
ATOM      6  C   UNL     1      61.012  32.334  13.192  1.00  0.00     0.053 C 
BRANCH   6   7
ATOM      7  C   UNL     1      59.983  32.467  14.274  1.00  0.00     0.041 C 
ATOM      8  O   UNL     1      60.134  33.321  15.188  1.00  0.00    -0.550 OA
ATOM      9  O   UNL     1      58.870  31.636  14.283  1.00  0.00    -0.550 OA
ENDBRANCH   6   7
ENDBRANCH   5   6
ENDBRANCH   4   5
ENDBRANCH   3   4
ENDBRANCH   2   3
ENDBRANCH   1   2
BRANCH   1  10
ATOM     10  C   UNL     1      63.015  28.927  10.242  1.00  0.00     0.000 C 
BRANCH  10  11
ATOM     11  C   UNL     1      62.063  28.386   9.170  1.00  0.00    -0.000 C 
BRANCH  11  12
ATOM     12  C   UNL     1      60.661  28.145   9.751  1.00  0.00    -0.000 C 
BRANCH  12  13
ATOM     13  C   UNL     1      59.946  29.451  10.130  1.00  0.00    -0.000 C 
BRANCH  13  14
ATOM     14  C   UNL     1      59.557  29.503  11.615  1.00  0.00    -0.000 C 
BRANCH  14  15
ATOM     15  C   UNL     1      60.027  28.241  12.349  1.00  0.00    -0.003 C 
ATOM     16  C   UNL     1      60.993  28.588  13.478  1.00  0.00     0.004 C 
ENDBRANCH  14  15
ENDBRANCH  13  14
ENDBRANCH  12  13
ENDBRANCH  11  12
ENDBRANCH  10  11
ENDBRANCH   1  10
TORSDOF 12
ENDMDL
MODEL 6
REMARK VINA RESULT:    -4.444     12.078     14.227
REMARK INTER + INTRA:          -9.310
REMARK INTER:                  -7.305
REMARK INTRA:                  -2.005
REMARK UNBOUND:                -1.749
REMARK SMILES CCCCCCCCCCCCCC(=O)[O-]
REMARK SMILES IDX 8 1 9 2 10 3 11 4 12 5 13 6 14 7 15 8 16 9 7 10 6 11 5 12
REMARK SMILES IDX 4 13 3 14 2 15 1 16
REMARK H PARENT
REMARK Flexibility Score: inf
ROOT
ATOM      1  C   UNL     1      63.259  30.291  25.313  1.00  0.00     0.000 C 
ENDROOT
BRANCH   1   2
ATOM      2  C   UNL     1      64.104  29.970  26.555  1.00  0.00     0.000 C 
BRANCH   2   3
ATOM      3  C   UNL     1      65.451  29.315  26.207  1.00  0.00     0.000 C 
BRANCH   3   4
ATOM      4  C   UNL     1      65.348  28.029  25.365  1.00  0.00     0.000 C 
BRANCH   4   5
ATOM      5  C   UNL     1      65.967  28.155  23.954  1.00  0.00     0.006 C 
BRANCH   5   6
ATOM      6  C   UNL     1      64.976  27.857  22.817  1.00  0.00     0.053 C 
BRANCH   6   7
ATOM      7  C   UNL     1      64.618  26.404  22.756  1.00  0.00     0.041 C 
ATOM      8  O   UNL     1      63.420  26.054  22.582  1.00  0.00    -0.550 OA
ATOM      9  O   UNL     1      65.602  25.436  22.911  1.00  0.00    -0.550 OA
ENDBRANCH   6   7
ENDBRANCH   5   6
ENDBRANCH   4   5
ENDBRANCH   3   4
ENDBRANCH   2   3
ENDBRANCH   1   2
BRANCH   1  10
ATOM     10  C   UNL     1      61.856  29.685  25.433  1.00  0.00     0.000 C 
BRANCH  10  11
ATOM     11  C   UNL     1      61.686  28.495  24.480  1.00  0.00    -0.000 C 
BRANCH  11  12
ATOM     12  C   UNL     1      61.156  27.263  25.228  1.00  0.00    -0.000 C 
BRANCH  12  13
ATOM     13  C   UNL     1      62.088  26.815  26.365  1.00  0.00    -0.000 C 
BRANCH  13  14
ATOM     14  C   UNL     1      61.370  26.725  27.719  1.00  0.00    -0.000 C 
BRANCH  14  15
ATOM     15  C   UNL     1      61.851  27.828  28.670  1.00  0.00    -0.003 C 
ATOM     16  C   UNL     1      60.762  28.871  28.900  1.00  0.00     0.004 C 
ENDBRANCH  14  15
ENDBRANCH  13  14
ENDBRANCH  12  13
ENDBRANCH  11  12
ENDBRANCH  10  11
ENDBRANCH   1  10
TORSDOF 12
ENDMDL
MODEL 7
REMARK VINA RESULT:    -4.402      2.864      5.247
REMARK INTER + INTRA:          -9.240
REMARK INTER:                  -7.571
REMARK INTRA:                  -1.668
REMARK UNBOUND:                -1.749
REMARK SMILES CCCCCCCCCCCCCC(=O)[O-]
REMARK SMILES IDX 8 1 9 2 10 3 11 4 12 5 13 6 14 7 15 8 16 9 7 10 6 11 5 12
REMARK SMILES IDX 4 13 3 14 2 15 1 16
REMARK H PARENT
REMARK Flexibility Score: inf
ROOT
ATOM      1  C   UNL     1      60.578  28.429  13.145  1.00  0.00     0.000 C 
ENDROOT
BRANCH   1   2
ATOM      2  C   UNL     1      61.849  29.160  13.602  1.00  0.00     0.000 C 
BRANCH   2   3
ATOM      3  C   UNL     1      63.044  28.922  12.665  1.00  0.00     0.000 C 
BRANCH   3   4
ATOM      4  C   UNL     1      63.415  30.120  11.770  1.00  0.00     0.000 C 
BRANCH   4   5
ATOM      5  C   UNL     1      62.705  30.118  10.397  1.00  0.00     0.006 C 
BRANCH   5   6
ATOM      6  C   UNL     1      62.363  28.709   9.882  1.00  0.00     0.053 C 
BRANCH   6   7
ATOM      7  C   UNL     1      60.978  28.643   9.315  1.00  0.00     0.041 C 
ATOM      8  O   UNL     1      60.270  29.684   9.252  1.00  0.00    -0.550 OA
ATOM      9  O   UNL     1      60.461  27.431   8.877  1.00  0.00    -0.550 OA
ENDBRANCH   6   7
ENDBRANCH   5   6
ENDBRANCH   4   5
ENDBRANCH   3   4
ENDBRANCH   2   3
ENDBRANCH   1   2
BRANCH   1  10
ATOM     10  C   UNL     1      59.496  29.426  12.714  1.00  0.00     0.000 C 
BRANCH  10  11
ATOM     11  C   UNL     1      59.995  30.870  12.843  1.00  0.00    -0.000 C 
BRANCH  11  12
ATOM     12  C   UNL     1      59.190  31.637  13.903  1.00  0.00    -0.000 C 
BRANCH  12  13
ATOM     13  C   UNL     1      59.994  31.891  15.187  1.00  0.00    -0.000 C 
BRANCH  13  14
ATOM     14  C   UNL     1      60.419  33.359  15.340  1.00  0.00    -0.000 C 
BRANCH  14  15
ATOM     15  C   UNL     1      61.917  33.467  15.648  1.00  0.00    -0.003 C 
ATOM     16  C   UNL     1      62.750  32.736  14.599  1.00  0.00     0.004 C 
ENDBRANCH  14  15
ENDBRANCH  13  14
ENDBRANCH  12  13
ENDBRANCH  11  12
ENDBRANCH  10  11
ENDBRANCH   1  10
TORSDOF 12
ENDMDL
MODEL 8
REMARK VINA RESULT:    -4.396      1.391      2.822
REMARK INTER + INTRA:          -9.229
REMARK INTER:                  -7.542
REMARK INTRA:                  -1.687
REMARK UNBOUND:                -1.749
REMARK SMILES CCCCCCCCCCCCCC(=O)[O-]
REMARK SMILES IDX 8 1 9 2 10 3 11 4 12 5 13 6 14 7 15 8 16 9 7 10 6 11 5 12
REMARK SMILES IDX 4 13 3 14 2 15 1 16
REMARK H PARENT
REMARK Flexibility Score: inf
ROOT
ATOM      1  C   UNL     1      60.698  28.831  13.781  1.00  0.00     0.000 C 
ENDROOT
BRANCH   1   2
ATOM      2  C   UNL     1      59.756  29.623  12.861  1.00  0.00     0.000 C 
BRANCH   2   3
ATOM      3  C   UNL     1      59.458  31.037  13.387  1.00  0.00     0.000 C 
BRANCH   3   4
ATOM      4  C   UNL     1      60.454  32.121  12.931  1.00  0.00     0.000 C 
BRANCH   4   5
ATOM      5  C   UNL     1      61.464  32.540  14.023  1.00  0.00     0.006 C 
BRANCH   5   6
ATOM      6  C   UNL     1      60.884  32.502  15.446  1.00  0.00     0.053 C 
BRANCH   6   7
ATOM      7  C   UNL     1      61.461  33.581  16.312  1.00  0.00     0.041 C 
ATOM      8  O   UNL     1      60.737  34.162  17.165  1.00  0.00    -0.550 OA
ATOM      9  O   UNL     1      62.789  33.959  16.164  1.00  0.00    -0.550 OA
ENDBRANCH   6   7
ENDBRANCH   5   6
ENDBRANCH   4   5
ENDBRANCH   3   4
ENDBRANCH   2   3
ENDBRANCH   1   2
BRANCH   1  10
ATOM     10  C   UNL     1      61.899  28.287  12.999  1.00  0.00     0.000 C 
BRANCH  10  11
ATOM     11  C   UNL     1      63.032  29.319  12.941  1.00  0.00    -0.000 C 
BRANCH  11  12
ATOM     12  C   UNL     1      63.178  29.895  11.525  1.00  0.00    -0.000 C 
BRANCH  12  13
ATOM     13  C   UNL     1      62.939  28.843  10.430  1.00  0.00    -0.000 C 
BRANCH  13  14
ATOM     14  C   UNL     1      61.740  29.185   9.533  1.00  0.00    -0.000 C 
BRANCH  14  15
ATOM     15  C   UNL     1      60.794  27.985   9.402  1.00  0.00    -0.003 C 
ATOM     16  C   UNL     1      59.335  28.431   9.406  1.00  0.00     0.004 C 
ENDBRANCH  14  15
ENDBRANCH  13  14
ENDBRANCH  12  13
ENDBRANCH  11  12
ENDBRANCH  10  11
ENDBRANCH   1  10
TORSDOF 12
ENDMDL
MODEL 9
REMARK VINA RESULT:    -4.382     12.156     14.082
REMARK INTER + INTRA:          -9.205
REMARK INTER:                  -7.407
REMARK INTRA:                  -1.798
REMARK UNBOUND:                -1.749
REMARK SMILES CCCCCCCCCCCCCC(=O)[O-]
REMARK SMILES IDX 8 1 9 2 10 3 11 4 12 5 13 6 14 7 15 8 16 9 7 10 6 11 5 12
REMARK SMILES IDX 4 13 3 14 2 15 1 16
REMARK H PARENT
REMARK Flexibility Score: inf
ROOT
ATOM      1  C   UNL     1      63.855  29.165  26.667  1.00  0.00     0.000 C 
ENDROOT
BRANCH   1   2
ATOM      2  C   UNL     1      62.815  30.212  26.240  1.00  0.00     0.000 C 
BRANCH   2   3
ATOM      3  C   UNL     1      62.012  29.784  25.000  1.00  0.00     0.000 C 
BRANCH   3   4
ATOM      4  C   UNL     1      61.745  28.270  24.892  1.00  0.00     0.000 C 
BRANCH   4   5
ATOM      5  C   UNL     1      60.349  27.844  25.400  1.00  0.00     0.006 C 
BRANCH   5   6
ATOM      6  C   UNL     1      60.397  26.801  26.529  1.00  0.00     0.053 C 
BRANCH   6   7
ATOM      7  C   UNL     1      60.961  27.374  27.794  1.00  0.00     0.041 C 
ATOM      8  O   UNL     1      61.860  26.755  28.423  1.00  0.00    -0.550 OA
ATOM      9  O   UNL     1      60.480  28.579  28.288  1.00  0.00    -0.550 OA
ENDBRANCH   6   7
ENDBRANCH   5   6
ENDBRANCH   4   5
ENDBRANCH   3   4
ENDBRANCH   2   3
ENDBRANCH   1   2
BRANCH   1  10
ATOM     10  C   UNL     1      65.268  29.759  26.656  1.00  0.00     0.000 C 
BRANCH  10  11
ATOM     11  C   UNL     1      66.175  29.009  25.673  1.00  0.00    -0.000 C 
BRANCH  11  12
ATOM     12  C   UNL     1      65.714  29.227  24.225  1.00  0.00    -0.000 C 
BRANCH  12  13
ATOM     13  C   UNL     1      65.356  27.913  23.512  1.00  0.00    -0.000 C 
BRANCH  13  14
ATOM     14  C   UNL     1      65.245  26.726  24.481  1.00  0.00    -0.000 C 
BRANCH  14  15
ATOM     15  C   UNL     1      64.216  25.705  23.980  1.00  0.00    -0.003 C 
ATOM     16  C   UNL     1      63.660  26.106  22.617  1.00  0.00     0.004 C 
ENDBRANCH  14  15
ENDBRANCH  13  14
ENDBRANCH  12  13
ENDBRANCH  11  12
ENDBRANCH  10  11
ENDBRANCH   1  10
TORSDOF 12
ENDMDL
