MODEL 1
REMARK VINA RESULT:    -3.277      0.000      0.000
REMARK INTER + INTRA:          -7.129
REMARK INTER:                  -6.342
REMARK INTRA:                  -0.788
REMARK UNBOUND:                -0.788
REMARK SMILES CCCCCCCCCCCCCCCCCC(=O)[O-]
REMARK SMILES IDX 10 1 11 2 12 3 13 4 14 5 15 6 16 7 17 8 18 9 19 10 20 11
REMARK SMILES IDX 9 12 8 13 7 14 6 15 5 16 4 17 3 18 2 19 1 20
REMARK H PARENT
REMARK Flexibility Score: inf
ROOT
ATOM      1  C   UNL     1       2.560  14.079  16.105  1.00  0.00     0.000 C 
ENDROOT
BRANCH   1   2
ATOM      2  C   UNL     1       2.089  13.212  14.918  1.00  0.00     0.000 C 
BRANCH   2   3
ATOM      3  C   UNL     1       3.124  13.163  13.781  1.00  0.00     0.000 C 
BRANCH   3   4
ATOM      4  C   UNL     1       2.985  11.907  12.906  1.00  0.00     0.000 C 
BRANCH   4   5
ATOM      5  C   UNL     1       3.313  12.174  11.429  1.00  0.00     0.000 C 
BRANCH   5   6
ATOM      6  C   UNL     1       3.817  13.608  11.230  1.00  0.00     0.000 C 
BRANCH   6   7
ATOM      7  C   UNL     1       3.750  14.014   9.749  1.00  0.00     0.006 C 
BRANCH   7   8
ATOM      8  C   UNL     1       4.699  13.183   8.875  1.00  0.00     0.053 C 
BRANCH   8   9
ATOM      9  C   UNL     1       6.110  13.681   8.952  1.00  0.00     0.041 C 
ATOM     10  O   UNL     1       7.066  12.866   9.033  1.00  0.00    -0.550 OA
ATOM     11  O   UNL     1       6.365  15.046   8.961  1.00  0.00    -0.550 OA
ENDBRANCH   8   9
ENDBRANCH   7   8
ENDBRANCH   6   7
ENDBRANCH   5   6
ENDBRANCH   4   5
ENDBRANCH   3   4
ENDBRANCH   2   3
ENDBRANCH   1   2
BRANCH   1  12
ATOM     12  C   UNL     1       4.092  14.162  16.241  1.00  0.00     0.000 C 
BRANCH  12  13
ATOM     13  C   UNL     1       4.601  14.400  17.675  1.00  0.00    -0.000 C 
BRANCH  13  14
ATOM     14  C   UNL     1       5.805  13.531  18.091  1.00  0.00    -0.000 C 
BRANCH  14  15
ATOM     15  C   UNL     1       5.918  13.244  19.602  1.00  0.00    -0.000 C 
BRANCH  15  16
ATOM     16  C   UNL     1       5.798  14.481  20.511  1.00  0.00    -0.000 C 
BRANCH  16  17
ATOM     17  C   UNL     1       7.028  15.403  20.431  1.00  0.00    -0.000 C 
BRANCH  17  18
ATOM     18  C   UNL     1       7.038  16.470  21.545  1.00  0.00    -0.000 C 
BRANCH  18  19
ATOM     19  C   UNL     1       5.912  17.510  21.418  1.00  0.00    -0.003 C 
ATOM     20  C   UNL     1       4.737  17.241  22.354  1.00  0.00     0.004 C 
ENDBRANCH  18  19
ENDBRANCH  17  18
ENDBRANCH  16  17
ENDBRANCH  15  16
ENDBRANCH  14  15
ENDBRANCH  13  14
ENDBRANCH  12  13
ENDBRANCH   1  12
TORSDOF 16
ENDMDL
MODEL 2
REMARK VINA RESULT:    -3.181      0.741      1.633
REMARK INTER + INTRA:          -6.945
REMARK INTER:                  -6.233
REMARK INTRA:                  -0.712
REMARK UNBOUND:                -0.788
REMARK SMILES CCCCCCCCCCCCCCCCCC(=O)[O-]
REMARK SMILES IDX 10 1 11 2 12 3 13 4 14 5 15 6 16 7 17 8 18 9 19 10 20 11
REMARK SMILES IDX 9 12 8 13 7 14 6 15 5 16 4 17 3 18 2 19 1 20
REMARK H PARENT
REMARK Flexibility Score: inf
ROOT
ATOM      1  C   UNL     1       4.199  14.129  16.311  1.00  0.00     0.000 C 
ENDROOT
BRANCH   1   2
ATOM      2  C   UNL     1       2.685  14.052  16.016  1.00  0.00     0.000 C 
BRANCH   2   3
ATOM      3  C   UNL     1       2.390  13.565  14.587  1.00  0.00     0.000 C 
BRANCH   3   4
ATOM      4  C   UNL     1       3.082  14.422  13.515  1.00  0.00     0.000 C 
BRANCH   4   5
ATOM      5  C   UNL     1       4.065  13.614  12.654  1.00  0.00     0.000 C 
BRANCH   5   6
ATOM      6  C   UNL     1       3.447  12.278  12.224  1.00  0.00     0.000 C 
BRANCH   6   7
ATOM      7  C   UNL     1       3.725  11.996  10.739  1.00  0.00     0.006 C 
BRANCH   7   8
ATOM      8  C   UNL     1       4.053  13.274   9.956  1.00  0.00     0.053 C 
BRANCH   8   9
ATOM      9  C   UNL     1       5.488  13.311   9.525  1.00  0.00     0.041 C 
ATOM     10  O   UNL     1       6.086  12.246   9.217  1.00  0.00    -0.550 OA
ATOM     11  O   UNL     1       6.171  14.520   9.488  1.00  0.00    -0.550 OA
ENDBRANCH   8   9
ENDBRANCH   7   8
ENDBRANCH   6   7
ENDBRANCH   5   6
ENDBRANCH   4   5
ENDBRANCH   3   4
ENDBRANCH   2   3
ENDBRANCH   1   2
BRANCH   1  12
ATOM     12  C   UNL     1       4.530  14.305  17.804  1.00  0.00     0.000 C 
BRANCH  12  13
ATOM     13  C   UNL     1       5.788  13.555  18.279  1.00  0.00    -0.000 C 
BRANCH  13  14
ATOM     14  C   UNL     1       5.958  13.473  19.810  1.00  0.00    -0.000 C 
BRANCH  14  15
ATOM     15  C   UNL     1       5.936  14.828  20.547  1.00  0.00    -0.000 C 
BRANCH  15  16
ATOM     16  C   UNL     1       7.303  15.525  20.671  1.00  0.00    -0.000 C 
BRANCH  16  17
ATOM     17  C   UNL     1       7.266  16.749  21.605  1.00  0.00    -0.000 C 
BRANCH  17  18
ATOM     18  C   UNL     1       6.027  17.635  21.367  1.00  0.00    -0.000 C 
BRANCH  18  19
ATOM     19  C   UNL     1       5.028  17.634  22.537  1.00  0.00    -0.003 C 
ATOM     20  C   UNL     1       3.754  16.849  22.239  1.00  0.00     0.004 C 
ENDBRANCH  18  19
ENDBRANCH  17  18
ENDBRANCH  16  17
ENDBRANCH  15  16
ENDBRANCH  14  15
ENDBRANCH  13  14
ENDBRANCH  12  13
ENDBRANCH   1  12
TORSDOF 16
ENDMDL
MODEL 3
REMARK VINA RESULT:    -2.991      4.070      9.822
REMARK INTER + INTRA:          -6.575
REMARK INTER:                  -5.657
REMARK INTRA:                  -0.918
REMARK UNBOUND:                -0.788
REMARK SMILES CCCCCCCCCCCCCCCCCC(=O)[O-]
REMARK SMILES IDX 10 1 11 2 12 3 13 4 14 5 15 6 16 7 17 8 18 9 19 10 20 11
REMARK SMILES IDX 9 12 8 13 7 14 6 15 5 16 4 17 3 18 2 19 1 20
REMARK H PARENT
REMARK Flexibility Score: inf
ROOT
ATOM      1  C   UNL     1       2.705  13.814  16.039  1.00  0.00     0.000 C 
ENDROOT
BRANCH   1   2
ATOM      2  C   UNL     1       4.179  14.199  16.296  1.00  0.00     0.000 C 
BRANCH   2   3
ATOM      3  C   UNL     1       4.480  14.399  17.791  1.00  0.00     0.000 C 
BRANCH   3   4
ATOM      4  C   UNL     1       5.830  13.794  18.210  1.00  0.00     0.000 C 
BRANCH   4   5
ATOM      5  C   UNL     1       5.862  13.383  19.690  1.00  0.00     0.000 C 
BRANCH   5   6
ATOM      6  C   UNL     1       5.823  14.615  20.602  1.00  0.00     0.000 C 
BRANCH   6   7
ATOM      7  C   UNL     1       7.216  15.251  20.727  1.00  0.00     0.006 C 
BRANCH   7   8
ATOM      8  C   UNL     1       7.178  16.595  21.467  1.00  0.00     0.053 C 
BRANCH   8   9
ATOM      9  C   UNL     1       5.857  17.283  21.306  1.00  0.00     0.041 C 
ATOM     10  O   UNL     1       5.552  17.823  20.210  1.00  0.00    -0.550 OA
ATOM     11  O   UNL     1       4.974  17.350  22.376  1.00  0.00    -0.550 OA
ENDBRANCH   8   9
ENDBRANCH   7   8
ENDBRANCH   6   7
ENDBRANCH   5   6
ENDBRANCH   4   5
ENDBRANCH   3   4
ENDBRANCH   2   3
ENDBRANCH   1   2
BRANCH   1  12
ATOM     12  C   UNL     1       2.394  13.511  14.561  1.00  0.00     0.000 C 
BRANCH  12  13
ATOM     13  C   UNL     1       3.268  14.273  13.548  1.00  0.00    -0.000 C 
BRANCH  13  14
ATOM     14  C   UNL     1       4.231  13.393  12.727  1.00  0.00    -0.000 C 
BRANCH  14  15
ATOM     15  C   UNL     1       3.562  12.257  11.926  1.00  0.00    -0.000 C 
BRANCH  15  16
ATOM     16  C   UNL     1       2.892  12.694  10.611  1.00  0.00    -0.000 C 
BRANCH  16  17
ATOM     17  C   UNL     1       3.896  12.856   9.454  1.00  0.00    -0.000 C 
BRANCH  17  18
ATOM     18  C   UNL     1       4.327  14.323   9.251  1.00  0.00    -0.000 C 
BRANCH  18  19
ATOM     19  C   UNL     1       5.849  14.536   9.303  1.00  0.00    -0.003 C 
ATOM     20  C   UNL     1       6.641  13.233   9.221  1.00  0.00     0.004 C 
ENDBRANCH  18  19
ENDBRANCH  17  18
ENDBRANCH  16  17
ENDBRANCH  15  16
ENDBRANCH  14  15
ENDBRANCH  13  14
ENDBRANCH  12  13
ENDBRANCH   1  12
TORSDOF 16
ENDMDL
MODEL 4
REMARK VINA RESULT:    -2.972      4.577     10.163
REMARK INTER + INTRA:          -6.539
REMARK INTER:                  -5.929
REMARK INTRA:                  -0.610
REMARK UNBOUND:                -0.788
REMARK SMILES CCCCCCCCCCCCCCCCCC(=O)[O-]
REMARK SMILES IDX 10 1 11 2 12 3 13 4 14 5 15 6 16 7 17 8 18 9 19 10 20 11
REMARK SMILES IDX 9 12 8 13 7 14 6 15 5 16 4 17 3 18 2 19 1 20
REMARK H PARENT
REMARK Flexibility Score: inf
ROOT
ATOM      1  C   UNL     1       4.220  14.194  17.583  1.00  0.00     0.000 C 
ENDROOT
BRANCH   1   2
ATOM      2  C   UNL     1       5.670  13.834  17.973  1.00  0.00     0.000 C 
BRANCH   2   3
ATOM      3  C   UNL     1       5.739  12.977  19.249  1.00  0.00     0.000 C 
BRANCH   3   4
ATOM      4  C   UNL     1       5.938  13.819  20.518  1.00  0.00     0.000 C 
BRANCH   4   5
ATOM      5  C   UNL     1       6.131  15.313  20.214  1.00  0.00     0.000 C 
BRANCH   5   6
ATOM      6  C   UNL     1       7.398  15.851  20.891  1.00  0.00     0.000 C 
BRANCH   6   7
ATOM      7  C   UNL     1       7.050  16.922  21.936  1.00  0.00     0.006 C 
BRANCH   7   8
ATOM      8  C   UNL     1       5.747  17.659  21.603  1.00  0.00     0.053 C 
BRANCH   8   9
ATOM      9  C   UNL     1       4.646  17.305  22.556  1.00  0.00     0.041 C 
ATOM     10  O   UNL     1       4.776  17.532  23.788  1.00  0.00    -0.550 OA
ATOM     11  O   UNL     1       3.488  16.700  22.086  1.00  0.00    -0.550 OA
ENDBRANCH   8   9
ENDBRANCH   7   8
ENDBRANCH   6   7
ENDBRANCH   5   6
ENDBRANCH   4   5
ENDBRANCH   3   4
ENDBRANCH   2   3
ENDBRANCH   1   2
BRANCH   1  12
ATOM     12  C   UNL     1       3.969  14.191  16.064  1.00  0.00     0.000 C 
BRANCH  12  13
ATOM     13  C   UNL     1       2.503  13.964  15.652  1.00  0.00    -0.000 C 
BRANCH  13  14
ATOM     14  C   UNL     1       2.307  13.089  14.398  1.00  0.00    -0.000 C 
BRANCH  14  15
ATOM     15  C   UNL     1       3.400  13.231  13.319  1.00  0.00    -0.000 C 
BRANCH  15  16
ATOM     16  C   UNL     1       3.443  12.097  12.280  1.00  0.00    -0.000 C 
BRANCH  16  17
ATOM     17  C   UNL     1       3.447  12.615  10.830  1.00  0.00    -0.000 C 
BRANCH  17  18
ATOM     18  C   UNL     1       4.058  14.026  10.710  1.00  0.00    -0.000 C 
BRANCH  18  19
ATOM     19  C   UNL     1       4.555  14.370   9.296  1.00  0.00    -0.003 C 
ATOM     20  C   UNL     1       6.074  14.488   9.205  1.00  0.00     0.004 C 
ENDBRANCH  18  19
ENDBRANCH  17  18
ENDBRANCH  16  17
ENDBRANCH  15  16
ENDBRANCH  14  15
ENDBRANCH  13  14
ENDBRANCH  12  13
ENDBRANCH   1  12
TORSDOF 16
ENDMDL
MODEL 5
REMARK VINA RESULT:    -2.514      0.814      2.185
REMARK INTER + INTRA:          -5.652
REMARK INTER:                  -5.116
REMARK INTRA:                  -0.537
REMARK UNBOUND:                -0.788
REMARK SMILES CCCCCCCCCCCCCCCCCC(=O)[O-]
REMARK SMILES IDX 10 1 11 2 12 3 13 4 14 5 15 6 16 7 17 8 18 9 19 10 20 11
REMARK SMILES IDX 9 12 8 13 7 14 6 15 5 16 4 17 3 18 2 19 1 20
REMARK H PARENT
REMARK Flexibility Score: inf
ROOT
ATOM      1  C   UNL     1       4.090  14.045  17.271  1.00  0.00     0.000 C 
ENDROOT
BRANCH   1   2
ATOM      2  C   UNL     1       4.086  14.173  15.732  1.00  0.00     0.000 C 
BRANCH   2   3
ATOM      3  C   UNL     1       2.663  14.264  15.155  1.00  0.00     0.000 C 
BRANCH   3   4
ATOM      4  C   UNL     1       2.010  12.885  14.971  1.00  0.00     0.000 C 
BRANCH   4   5
ATOM      5  C   UNL     1       2.340  12.250  13.612  1.00  0.00     0.000 C 
BRANCH   5   6
ATOM      6  C   UNL     1       3.540  12.945  12.958  1.00  0.00     0.000 C 
BRANCH   6   7
ATOM      7  C   UNL     1       3.726  12.474  11.507  1.00  0.00     0.006 C 
BRANCH   7   8
ATOM      8  C   UNL     1       3.850  13.647  10.527  1.00  0.00     0.053 C 
BRANCH   8   9
ATOM      9  C   UNL     1       5.133  13.596   9.754  1.00  0.00     0.041 C 
ATOM     10  O   UNL     1       5.752  14.658   9.481  1.00  0.00    -0.550 OA
ATOM     11  O   UNL     1       5.631  12.376   9.315  1.00  0.00    -0.550 OA
ENDBRANCH   8   9
ENDBRANCH   7   8
ENDBRANCH   6   7
ENDBRANCH   5   6
ENDBRANCH   4   5
ENDBRANCH   3   4
ENDBRANCH   2   3
ENDBRANCH   1   2
BRANCH   1  12
ATOM     12  C   UNL     1       5.495  14.131  17.896  1.00  0.00     0.000 C 
BRANCH  12  13
ATOM     13  C   UNL     1       5.615  13.518  19.303  1.00  0.00    -0.000 C 
BRANCH  13  14
ATOM     14  C   UNL     1       5.810  14.538  20.443  1.00  0.00    -0.000 C 
BRANCH  14  15
ATOM     15  C   UNL     1       7.239  15.101  20.583  1.00  0.00    -0.000 C 
BRANCH  15  16
ATOM     16  C   UNL     1       7.335  16.467  21.286  1.00  0.00    -0.000 C 
BRANCH  16  17
ATOM     17  C   UNL     1       6.334  17.497  20.731  1.00  0.00    -0.000 C 
BRANCH  17  18
ATOM     18  C   UNL     1       5.622  18.287  21.848  1.00  0.00    -0.000 C 
BRANCH  18  19
ATOM     19  C   UNL     1       4.807  17.404  22.809  1.00  0.00    -0.003 C 
ATOM     20  C   UNL     1       3.651  16.679  22.126  1.00  0.00     0.004 C 
ENDBRANCH  18  19
ENDBRANCH  17  18
ENDBRANCH  16  17
ENDBRANCH  15  16
ENDBRANCH  14  15
ENDBRANCH  13  14
ENDBRANCH  12  13
ENDBRANCH   1  12
TORSDOF 16
ENDMDL
MODEL 6
REMARK VINA RESULT:    -1.805      4.522     10.113
REMARK INTER + INTRA:          -4.281
REMARK INTER:                  -3.324
REMARK INTRA:                  -0.957
REMARK UNBOUND:                -0.788
REMARK SMILES CCCCCCCCCCCCCCCCCC(=O)[O-]
REMARK SMILES IDX 10 1 11 2 12 3 13 4 14 5 15 6 16 7 17 8 18 9 19 10 20 11
REMARK SMILES IDX 9 12 8 13 7 14 6 15 5 16 4 17 3 18 2 19 1 20
REMARK H PARENT
REMARK Flexibility Score: inf
ROOT
ATOM      1  C   UNL     1       3.826  14.336  16.059  1.00  0.00     0.000 C 
ENDROOT
BRANCH   1   2
ATOM      2  C   UNL     1       4.043  14.034  17.558  1.00  0.00     0.000 C 
BRANCH   2   3
ATOM      3  C   UNL     1       5.530  13.856  17.911  1.00  0.00     0.000 C 
BRANCH   3   4
ATOM      4  C   UNL     1       5.739  13.137  19.252  1.00  0.00     0.000 C 
BRANCH   4   5
ATOM      5  C   UNL     1       6.000  14.109  20.412  1.00  0.00     0.000 C 
BRANCH   5   6
ATOM      6  C   UNL     1       6.185  15.541  19.896  1.00  0.00     0.000 C 
BRANCH   6   7
ATOM      7  C   UNL     1       7.051  16.367  20.861  1.00  0.00     0.006 C 
BRANCH   7   8
ATOM      8  C   UNL     1       6.414  16.493  22.251  1.00  0.00     0.053 C 
BRANCH   8   9
ATOM      9  C   UNL     1       5.397  17.592  22.301  1.00  0.00     0.041 C 
ATOM     10  O   UNL     1       5.705  18.758  21.938  1.00  0.00    -0.550 OA
ATOM     11  O   UNL     1       4.118  17.333  22.774  1.00  0.00    -0.550 OA
ENDBRANCH   8   9
ENDBRANCH   7   8
ENDBRANCH   6   7
ENDBRANCH   5   6
ENDBRANCH   4   5
ENDBRANCH   3   4
ENDBRANCH   2   3
ENDBRANCH   1   2
BRANCH   1  12
ATOM     12  C   UNL     1       2.394  14.045  15.571  1.00  0.00     0.000 C 
BRANCH  12  13
ATOM     13  C   UNL     1       2.167  12.613  15.055  1.00  0.00    -0.000 C 
BRANCH  13  14
ATOM     14  C   UNL     1       2.188  12.463  13.520  1.00  0.00    -0.000 C 
BRANCH  14  15
ATOM     15  C   UNL     1       3.580  12.577  12.868  1.00  0.00    -0.000 C 
BRANCH  15  16
ATOM     16  C   UNL     1       3.833  13.883  12.095  1.00  0.00    -0.000 C 
BRANCH  16  17
ATOM     17  C   UNL     1       4.141  13.646  10.605  1.00  0.00    -0.000 C 
BRANCH  17  18
ATOM     18  C   UNL     1       2.866  13.612   9.738  1.00  0.00    -0.000 C 
BRANCH  18  19
ATOM     19  C   UNL     1       2.332  12.193   9.477  1.00  0.00    -0.003 C 
ATOM     20  C   UNL     1       0.839  12.163   9.157  1.00  0.00     0.004 C 
ENDBRANCH  18  19
ENDBRANCH  17  18
ENDBRANCH  16  17
ENDBRANCH  15  16
ENDBRANCH  14  15
ENDBRANCH  13  14
ENDBRANCH  12  13
ENDBRANCH   1  12
TORSDOF 16
ENDMDL
MODEL 7
REMARK VINA RESULT:    -1.245      1.314      2.662
REMARK INTER + INTRA:          -3.197
REMARK INTER:                  -2.716
REMARK INTRA:                  -0.481
REMARK UNBOUND:                -0.788
REMARK SMILES CCCCCCCCCCCCCCCCCC(=O)[O-]
REMARK SMILES IDX 10 1 11 2 12 3 13 4 14 5 15 6 16 7 17 8 18 9 19 10 20 11
REMARK SMILES IDX 9 12 8 13 7 14 6 15 5 16 4 17 3 18 2 19 1 20
REMARK H PARENT
REMARK Flexibility Score: inf
ROOT
ATOM      1  C   UNL     1       5.400  13.845  16.484  1.00  0.00     0.000 C 
ENDROOT
BRANCH   1   2
ATOM      2  C   UNL     1       4.368  14.201  15.392  1.00  0.00     0.000 C 
BRANCH   2   3
ATOM      3  C   UNL     1       2.924  14.178  15.920  1.00  0.00     0.000 C 
BRANCH   3   4
ATOM      4  C   UNL     1       1.928  13.604  14.900  1.00  0.00     0.000 C 
BRANCH   4   5
ATOM      5  C   UNL     1       2.386  12.258  14.318  1.00  0.00     0.000 C 
BRANCH   5   6
ATOM      6  C   UNL     1       2.472  12.323  12.788  1.00  0.00     0.000 C 
BRANCH   6   7
ATOM      7  C   UNL     1       3.810  12.928  12.337  1.00  0.00     0.006 C 
BRANCH   7   8
ATOM      8  C   UNL     1       4.135  12.596  10.875  1.00  0.00     0.053 C 
BRANCH   8   9
ATOM      9  C   UNL     1       4.560  13.811  10.108  1.00  0.00     0.041 C 
ATOM     10  O   UNL     1       5.768  14.165  10.099  1.00  0.00    -0.550 OA
ATOM     11  O   UNL     1       3.616  14.566   9.424  1.00  0.00    -0.550 OA
ENDBRANCH   8   9
ENDBRANCH   7   8
ENDBRANCH   6   7
ENDBRANCH   5   6
ENDBRANCH   4   5
ENDBRANCH   3   4
ENDBRANCH   2   3
ENDBRANCH   1   2
BRANCH   1  12
ATOM     12  C   UNL     1       4.906  14.124  17.916  1.00  0.00     0.000 C 
BRANCH  12  13
ATOM     13  C   UNL     1       5.878  13.695  19.030  1.00  0.00    -0.000 C 
BRANCH  13  14
ATOM     14  C   UNL     1       5.826  14.557  20.307  1.00  0.00    -0.000 C 
BRANCH  14  15
ATOM     15  C   UNL     1       5.232  15.968  20.124  1.00  0.00    -0.000 C 
BRANCH  15  16
ATOM     16  C   UNL     1       4.821  16.677  21.427  1.00  0.00    -0.000 C 
BRANCH  16  17
ATOM     17  C   UNL     1       6.021  17.010  22.331  1.00  0.00    -0.000 C 
BRANCH  17  18
ATOM     18  C   UNL     1       7.254  17.470  21.528  1.00  0.00    -0.000 C 
BRANCH  18  19
ATOM     19  C   UNL     1       8.302  16.366  21.312  1.00  0.00    -0.003 C 
ATOM     20  C   UNL     1       9.408  16.768  20.339  1.00  0.00     0.004 C 
ENDBRANCH  18  19
ENDBRANCH  17  18
ENDBRANCH  16  17
ENDBRANCH  15  16
ENDBRANCH  14  15
ENDBRANCH  13  14
ENDBRANCH  12  13
ENDBRANCH   1  12
TORSDOF 16
ENDMDL
