MODEL 1
REMARK VINA RESULT:    -5.801      0.000      0.000
REMARK INTER + INTRA:          -7.035
REMARK INTER:                  -6.818
REMARK INTRA:                  -0.217
REMARK UNBOUND:                -0.217
REMARK SMILES O=c1c(O)c(-c2ccc(O)cc2)oc2cc(O)cc(O)c12
REMARK SMILES IDX 5 1 3 2 2 3 1 4 21 5 19 6 18 7 16 8 15 9 14 10 13 11 6 12
REMARK SMILES IDX 7 13 8 14 9 15 12 16 11 17 10 18 4 20 20 22 17 24
REMARK H PARENT 10 19 4 21 20 23 17 25
REMARK Flexibility Score: inf
ROOT
ATOM      1  C   UNL     1      71.348  38.472  20.167  1.00  0.00     0.180 A 
ATOM      2  C   UNL     1      71.662  37.440  19.265  1.00  0.00     0.208 A 
ATOM      3  C   UNL     1      70.621  36.669  18.724  1.00  0.00     0.238 A 
ATOM      4  O   UNL     1      70.904  35.783  17.875  1.00  0.00    -0.285 OA
ATOM      5  C   UNL     1      69.282  36.929  19.102  1.00  0.00     0.111 A 
ATOM      6  C   UNL     1      68.152  36.183  18.647  1.00  0.00     0.134 A 
ATOM      7  C   UNL     1      66.862  36.610  18.985  1.00  0.00     0.093 A 
ATOM      8  C   UNL     1      66.662  37.713  19.813  1.00  0.00     0.123 A 
ATOM      9  C   UNL     1      67.761  38.413  20.312  1.00  0.00     0.094 A 
ATOM     10  C   UNL     1      69.060  38.034  19.964  1.00  0.00     0.146 A 
ATOM     11  O   UNL     1      70.077  38.732  20.452  1.00  0.00    -0.452 OA
ENDROOT
BRANCH   1  12
ATOM     12  C   UNL     1      72.392  39.311  20.800  1.00  0.00     0.021 A 
ATOM     13  C   UNL     1      73.254  38.792  21.783  1.00  0.00     0.016 A 
ATOM     14  C   UNL     1      74.216  39.610  22.382  1.00  0.00     0.047 A 
ATOM     15  C   UNL     1      74.320  40.958  22.018  1.00  0.00     0.115 A 
ATOM     16  C   UNL     1      72.490  40.670  20.455  1.00  0.00     0.016 A 
ATOM     17  C   UNL     1      73.453  41.485  21.056  1.00  0.00     0.047 A 
BRANCH  15  18
ATOM     18  O   UNL     1      75.276  41.782  22.608  1.00  0.00    -0.508 OA
ATOM     19  H   UNL     1      76.148  41.999  22.142  1.00  0.00     0.293 HD
ENDBRANCH  15  18
ENDBRANCH   1  12
BRANCH   2  20
ATOM     20  O   UNL     1      72.988  37.217  18.888  1.00  0.00    -0.502 OA
ATOM     21  H   UNL     1      73.653  36.742  19.487  1.00  0.00     0.293 HD
ENDBRANCH   2  20
BRANCH   6  22
ATOM     22  O   UNL     1      68.244  35.011  17.890  1.00  0.00    -0.507 OA
ATOM     23  H   UNL     1      68.677  34.947  16.982  1.00  0.00     0.293 HD
ENDBRANCH   6  22
BRANCH   8  24
ATOM     24  O   UNL     1      65.364  38.100  20.141  1.00  0.00    -0.508 OA
ATOM     25  H   UNL     1      64.830  37.611  20.849  1.00  0.00     0.293 HD
ENDBRANCH   8  24
TORSDOF 5
ENDMDL
MODEL 2
REMARK VINA RESULT:    -5.776      0.085      1.058
REMARK INTER + INTRA:          -7.006
REMARK INTER:                  -6.782
REMARK INTRA:                  -0.224
REMARK UNBOUND:                -0.217
REMARK SMILES O=c1c(O)c(-c2ccc(O)cc2)oc2cc(O)cc(O)c12
REMARK SMILES IDX 5 1 3 2 2 3 1 4 21 5 19 6 18 7 16 8 15 9 14 10 13 11 6 12
REMARK SMILES IDX 7 13 8 14 9 15 12 16 11 17 10 18 4 20 20 22 17 24
REMARK H PARENT 10 19 4 21 20 23 17 25
REMARK Flexibility Score: inf
ROOT
ATOM      1  C   UNL     1      71.351  38.475  20.175  1.00  0.00     0.180 A 
ATOM      2  C   UNL     1      71.673  37.447  19.272  1.00  0.00     0.208 A 
ATOM      3  C   UNL     1      70.639  36.672  18.725  1.00  0.00     0.238 A 
ATOM      4  O   UNL     1      70.929  35.790  17.875  1.00  0.00    -0.285 OA
ATOM      5  C   UNL     1      69.297  36.924  19.098  1.00  0.00     0.111 A 
ATOM      6  C   UNL     1      68.173  36.174  18.637  1.00  0.00     0.134 A 
ATOM      7  C   UNL     1      66.879  36.594  18.971  1.00  0.00     0.093 A 
ATOM      8  C   UNL     1      66.671  37.695  19.801  1.00  0.00     0.123 A 
ATOM      9  C   UNL     1      67.764  38.398  20.306  1.00  0.00     0.094 A 
ATOM     10  C   UNL     1      69.066  38.026  19.963  1.00  0.00     0.146 A 
ATOM     11  O   UNL     1      70.078  38.728  20.456  1.00  0.00    -0.452 OA
ENDROOT
BRANCH   1  12
ATOM     12  C   UNL     1      72.388  39.317  20.814  1.00  0.00     0.021 A 
ATOM     13  C   UNL     1      72.628  40.637  20.386  1.00  0.00     0.016 A 
ATOM     14  C   UNL     1      73.628  41.404  20.989  1.00  0.00     0.047 A 
ATOM     15  C   UNL     1      74.411  40.861  22.016  1.00  0.00     0.115 A 
ATOM     16  C   UNL     1      73.191  38.773  21.831  1.00  0.00     0.016 A 
ATOM     17  C   UNL     1      74.191  39.544  22.432  1.00  0.00     0.047 A 
BRANCH  15  18
ATOM     18  O   UNL     1      75.410  41.617  22.624  1.00  0.00    -0.508 OA
ATOM     19  H   UNL     1      76.118  41.188  23.207  1.00  0.00     0.293 HD
ENDBRANCH  15  18
ENDBRANCH   1  12
BRANCH   2  20
ATOM     20  O   UNL     1      73.003  37.230  18.899  1.00  0.00    -0.502 OA
ATOM     21  H   UNL     1      73.273  36.509  18.242  1.00  0.00     0.293 HD
ENDBRANCH   2  20
BRANCH   6  22
ATOM     22  O   UNL     1      68.273  35.005  17.877  1.00  0.00    -0.507 OA
ATOM     23  H   UNL     1      67.942  34.099  18.172  1.00  0.00     0.293 HD
ENDBRANCH   6  22
BRANCH   8  24
ATOM     24  O   UNL     1      65.370  38.074  20.124  1.00  0.00    -0.508 OA
ATOM     25  H   UNL     1      64.823  37.561  20.807  1.00  0.00     0.293 HD
ENDBRANCH   8  24
TORSDOF 5
ENDMDL
MODEL 3
REMARK VINA RESULT:    -5.518      2.199      3.290
REMARK INTER + INTRA:          -6.702
REMARK INTER:                  -6.571
REMARK INTRA:                  -0.131
REMARK UNBOUND:                -0.217
REMARK SMILES O=c1c(O)c(-c2ccc(O)cc2)oc2cc(O)cc(O)c12
REMARK SMILES IDX 5 1 3 2 2 3 1 4 21 5 19 6 18 7 16 8 15 9 14 10 13 11 6 12
REMARK SMILES IDX 7 13 8 14 9 15 12 16 11 17 10 18 4 20 20 22 17 24
REMARK H PARENT 10 19 4 21 20 23 17 25
REMARK Flexibility Score: inf
ROOT
ATOM      1  C   UNL     1      71.556  38.976  19.519  1.00  0.00     0.180 A 
ATOM      2  C   UNL     1      70.950  39.562  20.644  1.00  0.00     0.208 A 
ATOM      3  C   UNL     1      69.645  39.180  20.991  1.00  0.00     0.238 A 
ATOM      4  O   UNL     1      69.129  39.667  22.031  1.00  0.00    -0.285 OA
ATOM      5  C   UNL     1      68.955  38.229  20.200  1.00  0.00     0.111 A 
ATOM      6  C   UNL     1      67.615  37.799  20.435  1.00  0.00     0.134 A 
ATOM      7  C   UNL     1      67.079  36.759  19.667  1.00  0.00     0.093 A 
ATOM      8  C   UNL     1      67.809  36.178  18.630  1.00  0.00     0.123 A 
ATOM      9  C   UNL     1      69.099  36.632  18.353  1.00  0.00     0.094 A 
ATOM     10  C   UNL     1      69.675  37.644  19.125  1.00  0.00     0.146 A 
ATOM     11  O   UNL     1      70.908  38.040  18.836  1.00  0.00    -0.452 OA
ENDROOT
BRANCH   1  12
ATOM     12  C   UNL     1      72.920  39.347  19.076  1.00  0.00     0.021 A 
ATOM     13  C   UNL     1      73.985  38.429  19.136  1.00  0.00     0.016 A 
ATOM     14  C   UNL     1      75.269  38.809  18.733  1.00  0.00     0.047 A 
ATOM     15  C   UNL     1      75.507  40.113  18.279  1.00  0.00     0.115 A 
ATOM     16  C   UNL     1      73.172  40.658  18.638  1.00  0.00     0.016 A 
ATOM     17  C   UNL     1      74.457  41.035  18.236  1.00  0.00     0.047 A 
BRANCH  15  18
ATOM     18  O   UNL     1      76.783  40.502  17.875  1.00  0.00    -0.508 OA
ATOM     19  H   UNL     1      77.346  39.919  17.269  1.00  0.00     0.293 HD
ENDBRANCH  15  18
ENDBRANCH   1  12
BRANCH   2  20
ATOM     20  O   UNL     1      71.657  40.481  21.425  1.00  0.00    -0.502 OA
ATOM     21  H   UNL     1      71.233  40.977  22.199  1.00  0.00     0.293 HD
ENDBRANCH   2  20
BRANCH   6  22
ATOM     22  O   UNL     1      66.765  38.374  21.385  1.00  0.00    -0.507 OA
ATOM     23  H   UNL     1      66.256  39.234  21.254  1.00  0.00     0.293 HD
ENDBRANCH   6  22
BRANCH   8  24
ATOM     24  O   UNL     1      67.238  35.156  17.876  1.00  0.00    -0.508 OA
ATOM     25  H   UNL     1      67.519  34.986  16.917  1.00  0.00     0.293 HD
ENDBRANCH   8  24
TORSDOF 5
ENDMDL
MODEL 4
REMARK VINA RESULT:    -5.098      1.484      3.348
REMARK INTER + INTRA:          -6.209
REMARK INTER:                  -6.011
REMARK INTRA:                  -0.198
REMARK UNBOUND:                -0.217
REMARK SMILES O=c1c(O)c(-c2ccc(O)cc2)oc2cc(O)cc(O)c12
REMARK SMILES IDX 5 1 3 2 2 3 1 4 21 5 19 6 18 7 16 8 15 9 14 10 13 11 6 12
REMARK SMILES IDX 7 13 8 14 9 15 12 16 11 17 10 18 4 20 20 22 17 24
REMARK H PARENT 10 19 4 21 20 23 17 25
REMARK Flexibility Score: inf
ROOT
ATOM      1  C   UNL     1      71.641  39.637  21.263  1.00  0.00     0.180 A 
ATOM      2  C   UNL     1      70.408  40.095  21.759  1.00  0.00     0.208 A 
ATOM      3  C   UNL     1      69.227  39.469  21.330  1.00  0.00     0.238 A 
ATOM      4  O   UNL     1      68.131  39.847  21.820  1.00  0.00    -0.285 OA
ATOM      5  C   UNL     1      69.292  38.404  20.400  1.00  0.00     0.111 A 
ATOM      6  C   UNL     1      68.156  37.724  19.866  1.00  0.00     0.134 A 
ATOM      7  C   UNL     1      68.344  36.600  19.052  1.00  0.00     0.093 A 
ATOM      8  C   UNL     1      69.623  36.171  18.700  1.00  0.00     0.123 A 
ATOM      9  C   UNL     1      70.739  36.865  19.167  1.00  0.00     0.094 A 
ATOM     10  C   UNL     1      70.586  37.969  20.010  1.00  0.00     0.146 A 
ATOM     11  O   UNL     1      71.673  38.595  20.442  1.00  0.00    -0.452 OA
ENDROOT
BRANCH   1  12
ATOM     12  C   UNL     1      72.927  40.264  21.648  1.00  0.00     0.021 A 
ATOM     13  C   UNL     1      73.264  41.564  21.229  1.00  0.00     0.016 A 
ATOM     14  C   UNL     1      74.494  42.125  21.586  1.00  0.00     0.047 A 
ATOM     15  C   UNL     1      75.407  41.390  22.352  1.00  0.00     0.115 A 
ATOM     16  C   UNL     1      73.857  39.526  22.399  1.00  0.00     0.016 A 
ATOM     17  C   UNL     1      75.087  40.090  22.755  1.00  0.00     0.047 A 
BRANCH  15  18
ATOM     18  O   UNL     1      76.636  41.939  22.714  1.00  0.00    -0.508 OA
ATOM     19  H   UNL     1      76.711  42.623  23.457  1.00  0.00     0.293 HD
ENDBRANCH  15  18
ENDBRANCH   1  12
BRANCH   2  20
ATOM     20  O   UNL     1      70.368  41.133  22.694  1.00  0.00    -0.502 OA
ATOM     21  H   UNL     1      71.204  41.516  23.118  1.00  0.00     0.293 HD
ENDBRANCH   2  20
BRANCH   6  22
ATOM     22  O   UNL     1      66.834  38.124  20.081  1.00  0.00    -0.507 OA
ATOM     23  H   UNL     1      66.368  38.862  19.575  1.00  0.00     0.293 HD
ENDBRANCH   6  22
BRANCH   8  24
ATOM     24  O   UNL     1      69.772  35.058  17.875  1.00  0.00    -0.508 OA
ATOM     25  H   UNL     1      69.404  35.047  16.931  1.00  0.00     0.293 HD
ENDBRANCH   8  24
TORSDOF 5
ENDMDL
MODEL 5
REMARK VINA RESULT:    -5.032      2.007      3.307
REMARK INTER + INTRA:          -6.131
REMARK INTER:                  -5.842
REMARK INTRA:                  -0.289
REMARK UNBOUND:                -0.217
REMARK SMILES O=c1c(O)c(-c2ccc(O)cc2)oc2cc(O)cc(O)c12
REMARK SMILES IDX 5 1 3 2 2 3 1 4 21 5 19 6 18 7 16 8 15 9 14 10 13 11 6 12
REMARK SMILES IDX 7 13 8 14 9 15 12 16 11 17 10 18 4 20 20 22 17 24
REMARK H PARENT 10 19 4 21 20 23 17 25
REMARK Flexibility Score: inf
ROOT
ATOM      1  C   UNL     1      70.776  39.640  19.308  1.00  0.00     0.180 A 
ATOM      2  C   UNL     1      69.813  40.548  19.781  1.00  0.00     0.208 A 
ATOM      3  C   UNL     1      68.460  40.175  19.765  1.00  0.00     0.238 A 
ATOM      4  O   UNL     1      67.608  40.971  20.240  1.00  0.00    -0.285 OA
ATOM      5  C   UNL     1      68.085  38.906  19.262  1.00  0.00     0.111 A 
ATOM      6  C   UNL     1      66.739  38.440  19.160  1.00  0.00     0.134 A 
ATOM      7  C   UNL     1      66.494  37.119  18.768  1.00  0.00     0.093 A 
ATOM      8  C   UNL     1      67.539  36.267  18.412  1.00  0.00     0.123 A 
ATOM      9  C   UNL     1      68.854  36.731  18.450  1.00  0.00     0.094 A 
ATOM     10  C   UNL     1      69.134  38.034  18.871  1.00  0.00     0.146 A 
ATOM     11  O   UNL     1      70.399  38.433  18.903  1.00  0.00    -0.452 OA
ENDROOT
BRANCH   1  12
ATOM     12  C   UNL     1      72.220  39.970  19.269  1.00  0.00     0.021 A 
ATOM     13  C   UNL     1      73.060  39.716  20.370  1.00  0.00     0.016 A 
ATOM     14  C   UNL     1      74.414  40.059  20.318  1.00  0.00     0.047 A 
ATOM     15  C   UNL     1      74.943  40.670  19.174  1.00  0.00     0.115 A 
ATOM     16  C   UNL     1      72.754  40.602  18.134  1.00  0.00     0.016 A 
ATOM     17  C   UNL     1      74.110  40.943  18.085  1.00  0.00     0.047 A 
BRANCH  15  18
ATOM     18  O   UNL     1      76.292  41.015  19.112  1.00  0.00    -0.508 OA
ATOM     19  H   UNL     1      76.850  40.823  18.289  1.00  0.00     0.293 HD
ENDBRANCH  15  18
ENDBRANCH   1  12
BRANCH   2  20
ATOM     20  O   UNL     1      70.208  41.786  20.295  1.00  0.00    -0.502 OA
ATOM     21  H   UNL     1      69.551  42.539  20.467  1.00  0.00     0.293 HD
ENDBRANCH   2  20
BRANCH   6  22
ATOM     22  O   UNL     1      65.617  39.237  19.405  1.00  0.00    -0.507 OA
ATOM     23  H   UNL     1      64.847  39.357  18.764  1.00  0.00     0.293 HD
ENDBRANCH   6  22
BRANCH   8  24
ATOM     24  O   UNL     1      67.257  34.963  18.012  1.00  0.00    -0.508 OA
ATOM     25  H   UNL     1      66.736  34.328  18.606  1.00  0.00     0.293 HD
ENDBRANCH   8  24
TORSDOF 5
ENDMDL
MODEL 6
REMARK VINA RESULT:    -4.973      2.335      7.673
REMARK INTER + INTRA:          -6.062
REMARK INTER:                  -5.766
REMARK INTRA:                  -0.296
REMARK UNBOUND:                -0.217
REMARK SMILES O=c1c(O)c(-c2ccc(O)cc2)oc2cc(O)cc(O)c12
REMARK SMILES IDX 5 1 3 2 2 3 1 4 21 5 19 6 18 7 16 8 15 9 14 10 13 11 6 12
REMARK SMILES IDX 7 13 8 14 9 15 12 16 11 17 10 18 4 20 20 22 17 24
REMARK H PARENT 10 19 4 21 20 23 17 25
REMARK Flexibility Score: inf
ROOT
ATOM      1  C   UNL     1      73.115  39.298  20.348  1.00  0.00     0.180 A 
ATOM      2  C   UNL     1      73.236  39.742  21.677  1.00  0.00     0.208 A 
ATOM      3  C   UNL     1      74.317  40.567  22.023  1.00  0.00     0.238 A 
ATOM      4  O   UNL     1      74.390  41.006  23.201  1.00  0.00    -0.285 OA
ATOM      5  C   UNL     1      75.273  40.927  21.041  1.00  0.00     0.111 A 
ATOM      6  C   UNL     1      76.430  41.725  21.290  1.00  0.00     0.134 A 
ATOM      7  C   UNL     1      77.236  42.125  20.217  1.00  0.00     0.093 A 
ATOM      8  C   UNL     1      76.965  41.703  18.916  1.00  0.00     0.123 A 
ATOM      9  C   UNL     1      75.871  40.873  18.670  1.00  0.00     0.094 A 
ATOM     10  C   UNL     1      75.027  40.486  19.714  1.00  0.00     0.146 A 
ATOM     11  O   UNL     1      73.991  39.705  19.437  1.00  0.00    -0.452 OA
ENDROOT
BRANCH   1  12
ATOM     12  C   UNL     1      72.017  38.405  19.913  1.00  0.00     0.021 A 
ATOM     13  C   UNL     1      72.155  37.004  19.945  1.00  0.00     0.016 A 
ATOM     14  C   UNL     1      71.113  36.182  19.507  1.00  0.00     0.047 A 
ATOM     15  C   UNL     1      69.927  36.747  19.018  1.00  0.00     0.115 A 
ATOM     16  C   UNL     1      70.833  38.963  19.402  1.00  0.00     0.016 A 
ATOM     17  C   UNL     1      69.792  38.137  18.964  1.00  0.00     0.047 A 
BRANCH  15  18
ATOM     18  O   UNL     1      68.882  35.936  18.579  1.00  0.00    -0.508 OA
ATOM     19  H   UNL     1      68.051  35.796  19.139  1.00  0.00     0.293 HD
ENDBRANCH  15  18
ENDBRANCH   1  12
BRANCH   2  20
ATOM     20  O   UNL     1      72.270  39.395  22.625  1.00  0.00    -0.502 OA
ATOM     21  H   UNL     1      72.243  38.483  23.066  1.00  0.00     0.293 HD
ENDBRANCH   2  20
BRANCH   6  22
ATOM     22  O   UNL     1      76.843  42.125  22.564  1.00  0.00    -0.507 OA
ATOM     23  H   UNL     1      77.480  42.885  22.749  1.00  0.00     0.293 HD
ENDBRANCH   6  22
BRANCH   8  24
ATOM     24  O   UNL     1      77.798  42.108  17.875  1.00  0.00    -0.508 OA
ATOM     25  H   UNL     1      77.513  42.025  16.906  1.00  0.00     0.293 HD
ENDBRANCH   8  24
TORSDOF 5
ENDMDL
MODEL 7
REMARK VINA RESULT:    -4.967      2.141      2.426
REMARK INTER + INTRA:          -6.055
REMARK INTER:                  -5.779
REMARK INTRA:                  -0.276
REMARK UNBOUND:                -0.217
REMARK SMILES O=c1c(O)c(-c2ccc(O)cc2)oc2cc(O)cc(O)c12
REMARK SMILES IDX 5 1 3 2 2 3 1 4 21 5 19 6 18 7 16 8 15 9 14 10 13 11 6 12
REMARK SMILES IDX 7 13 8 14 9 15 12 16 11 17 10 18 4 20 20 22 17 24
REMARK H PARENT 10 19 4 21 20 23 17 25
REMARK Flexibility Score: inf
ROOT
ATOM      1  C   UNL     1      72.258  39.474  19.734  1.00  0.00     0.180 A 
ATOM      2  C   UNL     1      72.138  38.082  19.881  1.00  0.00     0.208 A 
ATOM      3  C   UNL     1      70.857  37.513  19.957  1.00  0.00     0.238 A 
ATOM      4  O   UNL     1      70.755  36.261  20.033  1.00  0.00    -0.285 OA
ATOM      5  C   UNL     1      69.713  38.345  19.902  1.00  0.00     0.111 A 
ATOM      6  C   UNL     1      68.367  37.881  20.011  1.00  0.00     0.134 A 
ATOM      7  C   UNL     1      67.309  38.776  19.813  1.00  0.00     0.093 A 
ATOM      8  C   UNL     1      67.547  40.130  19.575  1.00  0.00     0.123 A 
ATOM      9  C   UNL     1      68.857  40.605  19.526  1.00  0.00     0.094 A 
ATOM     10  C   UNL     1      69.935  39.730  19.684  1.00  0.00     0.146 A 
ATOM     11  O   UNL     1      71.166  40.221  19.621  1.00  0.00    -0.452 OA
ENDROOT
BRANCH   1  12
ATOM     12  C   UNL     1      73.575  40.150  19.673  1.00  0.00     0.021 A 
ATOM     13  C   UNL     1      74.149  40.744  20.812  1.00  0.00     0.016 A 
ATOM     14  C   UNL     1      75.382  41.396  20.724  1.00  0.00     0.047 A 
ATOM     15  C   UNL     1      76.051  41.475  19.495  1.00  0.00     0.115 A 
ATOM     16  C   UNL     1      74.243  40.252  18.441  1.00  0.00     0.016 A 
ATOM     17  C   UNL     1      75.477  40.905  18.355  1.00  0.00     0.047 A 
BRANCH  15  18
ATOM     18  O   UNL     1      77.281  42.122  19.396  1.00  0.00    -0.508 OA
ATOM     19  H   UNL     1      77.388  42.975  18.861  1.00  0.00     0.293 HD
ENDBRANCH  15  18
ENDBRANCH   1  12
BRANCH   2  20
ATOM     20  O   UNL     1      73.280  37.277  19.910  1.00  0.00    -0.502 OA
ATOM     21  H   UNL     1      73.419  36.553  20.606  1.00  0.00     0.293 HD
ENDBRANCH   2  20
BRANCH   6  22
ATOM     22  O   UNL     1      68.019  36.566  20.336  1.00  0.00    -0.507 OA
ATOM     23  H   UNL     1      67.434  35.971  19.770  1.00  0.00     0.293 HD
ENDBRANCH   6  22
BRANCH   8  24
ATOM     24  O   UNL     1      66.469  40.995  19.397  1.00  0.00    -0.508 OA
ATOM     25  H   UNL     1      66.215  41.343  18.480  1.00  0.00     0.293 HD
ENDBRANCH   8  24
TORSDOF 5
ENDMDL
MODEL 8
REMARK VINA RESULT:    -4.884      1.491      6.509
REMARK INTER + INTRA:          -5.958
REMARK INTER:                  -5.794
REMARK INTRA:                  -0.164
REMARK UNBOUND:                -0.217
REMARK SMILES O=c1c(O)c(-c2ccc(O)cc2)oc2cc(O)cc(O)c12
REMARK SMILES IDX 5 1 3 2 2 3 1 4 21 5 19 6 18 7 16 8 15 9 14 10 13 11 6 12
REMARK SMILES IDX 7 13 8 14 9 15 12 16 11 17 10 18 4 20 20 22 17 24
REMARK H PARENT 10 19 4 21 20 23 17 25
REMARK Flexibility Score: inf
ROOT
ATOM      1  C   UNL     1      70.862  38.715  19.776  1.00  0.00     0.180 A 
ATOM      2  C   UNL     1      71.761  38.215  18.818  1.00  0.00     0.208 A 
ATOM      3  C   UNL     1      73.097  38.643  18.850  1.00  0.00     0.238 A 
ATOM      4  O   UNL     1      73.910  38.151  18.024  1.00  0.00    -0.285 OA
ATOM      5  C   UNL     1      73.514  39.578  19.828  1.00  0.00     0.111 A 
ATOM      6  C   UNL     1      74.834  40.112  19.928  1.00  0.00     0.134 A 
ATOM      7  C   UNL     1      75.168  40.930  21.014  1.00  0.00     0.093 A 
ATOM      8  C   UNL     1      74.214  41.286  21.967  1.00  0.00     0.123 A 
ATOM      9  C   UNL     1      72.906  40.818  21.846  1.00  0.00     0.094 A 
ATOM     10  C   UNL     1      72.551  39.971  20.793  1.00  0.00     0.146 A 
ATOM     11  O   UNL     1      71.298  39.539  20.720  1.00  0.00    -0.452 OA
ENDROOT
BRANCH   1  12
ATOM     12  C   UNL     1      69.431  38.329  19.791  1.00  0.00     0.021 A 
ATOM     13  C   UNL     1      69.028  37.021  20.114  1.00  0.00     0.016 A 
ATOM     14  C   UNL     1      67.673  36.675  20.099  1.00  0.00     0.047 A 
ATOM     15  C   UNL     1      66.707  37.627  19.747  1.00  0.00     0.115 A 
ATOM     16  C   UNL     1      68.458  39.272  19.419  1.00  0.00     0.016 A 
ATOM     17  C   UNL     1      67.104  38.923  19.405  1.00  0.00     0.047 A 
BRANCH  15  18
ATOM     18  O   UNL     1      65.355  37.293  19.729  1.00  0.00    -0.508 OA
ATOM     19  H   UNL     1      65.045  36.349  19.535  1.00  0.00     0.293 HD
ENDBRANCH  15  18
ENDBRANCH   1  12
BRANCH   2  20
ATOM     20  O   UNL     1      71.334  37.276  17.875  1.00  0.00    -0.502 OA
ATOM     21  H   UNL     1      71.425  37.426  16.877  1.00  0.00     0.293 HD
ENDBRANCH   2  20
BRANCH   6  22
ATOM     22  O   UNL     1      75.839  39.893  18.981  1.00  0.00    -0.507 OA
ATOM     23  H   UNL     1      76.167  40.583  18.322  1.00  0.00     0.293 HD
ENDBRANCH   6  22
BRANCH   8  24
ATOM     24  O   UNL     1      74.578  42.115  23.027  1.00  0.00    -0.508 OA
ATOM     25  H   UNL     1      74.984  43.030  22.867  1.00  0.00     0.293 HD
ENDBRANCH   8  24
TORSDOF 5
ENDMDL
MODEL 9
REMARK VINA RESULT:    -4.759      2.005      7.161
REMARK INTER + INTRA:          -5.810
REMARK INTER:                  -5.575
REMARK INTRA:                  -0.236
REMARK UNBOUND:                -0.217
REMARK SMILES O=c1c(O)c(-c2ccc(O)cc2)oc2cc(O)cc(O)c12
REMARK SMILES IDX 5 1 3 2 2 3 1 4 21 5 19 6 18 7 16 8 15 9 14 10 13 11 6 12
REMARK SMILES IDX 7 13 8 14 9 15 12 16 11 17 10 18 4 20 20 22 17 24
REMARK H PARENT 10 19 4 21 20 23 17 25
REMARK Flexibility Score: inf
ROOT
ATOM      1  C   UNL     1      70.722  39.769  20.269  1.00  0.00     0.180 A 
ATOM      2  C   UNL     1      70.890  40.652  21.350  1.00  0.00     0.208 A 
ATOM      3  C   UNL     1      72.152  41.223  21.573  1.00  0.00     0.238 A 
ATOM      4  O   UNL     1      72.282  42.056  22.509  1.00  0.00    -0.285 OA
ATOM      5  C   UNL     1      73.236  40.891  20.724  1.00  0.00     0.111 A 
ATOM      6  C   UNL     1      74.568  41.379  20.883  1.00  0.00     0.134 A 
ATOM      7  C   UNL     1      75.530  41.087  19.908  1.00  0.00     0.093 A 
ATOM      8  C   UNL     1      75.227  40.274  18.817  1.00  0.00     0.123 A 
ATOM      9  C   UNL     1      73.944  39.743  18.684  1.00  0.00     0.094 A 
ATOM     10  C   UNL     1      72.952  40.045  19.621  1.00  0.00     0.146 A 
ATOM     11  O   UNL     1      71.741  39.528  19.453  1.00  0.00    -0.452 OA
ENDROOT
BRANCH   1  12
ATOM     12  C   UNL     1      69.428  39.108  19.985  1.00  0.00     0.021 A 
ATOM     13  C   UNL     1      69.217  37.749  20.284  1.00  0.00     0.016 A 
ATOM     14  C   UNL     1      67.994  37.141  19.985  1.00  0.00     0.047 A 
ATOM     15  C   UNL     1      66.973  37.878  19.371  1.00  0.00     0.115 A 
ATOM     16  C   UNL     1      68.406  39.834  19.351  1.00  0.00     0.016 A 
ATOM     17  C   UNL     1      67.183  39.223  19.052  1.00  0.00     0.047 A 
BRANCH  15  18
ATOM     18  O   UNL     1      65.750  37.282  19.069  1.00  0.00    -0.508 OA
ATOM     19  H   UNL     1      65.068  37.079  19.789  1.00  0.00     0.293 HD
ENDBRANCH  15  18
ENDBRANCH   1  12
BRANCH   2  20
ATOM     20  O   UNL     1      69.802  40.984  22.161  1.00  0.00    -0.502 OA
ATOM     21  H   UNL     1      69.476  41.937  22.274  1.00  0.00     0.293 HD
ENDBRANCH   2  20
BRANCH   6  22
ATOM     22  O   UNL     1      75.001  42.124  21.984  1.00  0.00    -0.507 OA
ATOM     23  H   UNL     1      74.412  42.413  22.749  1.00  0.00     0.293 HD
ENDBRANCH   6  22
BRANCH   8  24
ATOM     24  O   UNL     1      76.214  39.992  17.875  1.00  0.00    -0.508 OA
ATOM     25  H   UNL     1      76.869  39.230  18.007  1.00  0.00     0.293 HD
ENDBRANCH   8  24
TORSDOF 5
ENDMDL
