MODEL 1
REMARK VINA RESULT:    -1.623      0.000      0.000
REMARK INTER + INTRA:          -1.491
REMARK INTER:                  -1.956
REMARK INTRA:                   0.465
REMARK UNBOUND:                 0.465
REMARK SMILES O=c1c(O)c(-c2ccc(O)c(O)c2)oc2cc(O)cc(O)c12
REMARK SMILES IDX 5 1 3 2 2 3 1 4 22 5 20 6 19 7 17 8 16 9 15 10 14 11 6 12
REMARK SMILES IDX 7 13 8 14 9 15 13 16 11 17 10 18 12 20 4 22 21 24 18 26
REMARK H PARENT 10 19 12 21 4 23 21 25 18 27
REMARK Flexibility Score: inf
ROOT
ATOM      1  C   UNL     1       3.113 -15.067  11.259  1.00  0.00     0.180 A 
ATOM      2  C   UNL     1       1.912 -15.049  11.987  1.00  0.00     0.208 A 
ATOM      3  C   UNL     1       1.967 -14.997  13.389  1.00  0.00     0.238 A 
ATOM      4  O   UNL     1       0.889 -15.037  14.039  1.00  0.00    -0.285 OA
ATOM      5  C   UNL     1       3.220 -14.947  14.044  1.00  0.00     0.111 A 
ATOM      6  C   UNL     1       3.393 -14.851  15.457  1.00  0.00     0.134 A 
ATOM      7  C   UNL     1       4.680 -14.939  16.004  1.00  0.00     0.093 A 
ATOM      8  C   UNL     1       5.803 -15.054  15.186  1.00  0.00     0.123 A 
ATOM      9  C   UNL     1       5.650 -15.089  13.799  1.00  0.00     0.094 A 
ATOM     10  C   UNL     1       4.377 -15.038  13.226  1.00  0.00     0.146 A 
ATOM     11  O   UNL     1       4.274 -15.085  11.904  1.00  0.00    -0.452 OA
ENDROOT
BRANCH   1  12
ATOM     12  C   UNL     1       3.136 -15.096   9.778  1.00  0.00     0.025 A 
ATOM     13  C   UNL     1       4.370 -15.116   9.107  1.00  0.00     0.016 A 
ATOM     14  C   UNL     1       4.416 -15.123   7.710  1.00  0.00     0.051 A 
ATOM     15  C   UNL     1       3.229 -15.093   6.965  1.00  0.00     0.157 A 
ATOM     16  C   UNL     1       1.949 -15.045   9.025  1.00  0.00     0.062 A 
ATOM     17  C   UNL     1       1.994 -15.050   7.624  1.00  0.00     0.158 A 
BRANCH  15  18
ATOM     18  O   UNL     1       3.270 -15.101   5.572  1.00  0.00    -0.504 OA
ATOM     19  H   UNL     1       3.440 -14.255   5.041  1.00  0.00     0.293 HD
ENDBRANCH  15  18
BRANCH  17  20
ATOM     20  O   UNL     1       0.817 -15.006   6.880  1.00  0.00    -0.504 OA
ATOM     21  H   UNL     1       0.525 -14.163   6.398  1.00  0.00     0.293 HD
ENDBRANCH  17  20
ENDBRANCH   1  12
BRANCH   2  22
ATOM     22  O   UNL     1       0.685 -15.123  11.322  1.00  0.00    -0.502 OA
ATOM     23  H   UNL     1      -0.022 -14.402  11.403  1.00  0.00     0.293 HD
ENDBRANCH   2  22
BRANCH   6  24
ATOM     24  O   UNL     1       2.346 -14.643  16.360  1.00  0.00    -0.507 OA
ATOM     25  H   UNL     1       1.494 -15.184  16.386  1.00  0.00     0.293 HD
ENDBRANCH   6  24
BRANCH   8  26
ATOM     26  O   UNL     1       7.069 -15.124  15.762  1.00  0.00    -0.508 OA
ATOM     27  H   UNL     1       7.193 -15.319  16.748  1.00  0.00     0.293 HD
ENDBRANCH   8  26
TORSDOF 6
ENDMDL
MODEL 2
REMARK VINA RESULT:    -0.736      2.214      8.418
REMARK INTER + INTRA:          -0.422
REMARK INTER:                  -0.887
REMARK INTRA:                   0.465
REMARK UNBOUND:                 0.465
REMARK SMILES O=c1c(O)c(-c2ccc(O)c(O)c2)oc2cc(O)cc(O)c12
REMARK SMILES IDX 5 1 3 2 2 3 1 4 22 5 20 6 19 7 17 8 16 9 15 10 14 11 6 12
REMARK SMILES IDX 7 13 8 14 9 15 13 16 11 17 10 18 12 20 4 22 21 24 18 26
REMARK H PARENT 10 19 12 21 4 23 21 25 18 27
REMARK Flexibility Score: inf
ROOT
ATOM      1  C   UNL     1       2.841 -15.072   7.987  1.00  0.00     0.180 A 
ATOM      2  C   UNL     1       4.092 -15.051   7.346  1.00  0.00     0.208 A 
ATOM      3  C   UNL     1       4.136 -14.997   5.944  1.00  0.00     0.238 A 
ATOM      4  O   UNL     1       5.258 -15.035   5.373  1.00  0.00    -0.285 OA
ATOM      5  C   UNL     1       2.932 -14.947   5.202  1.00  0.00     0.111 A 
ATOM      6  C   UNL     1       2.861 -14.849   3.780  1.00  0.00     0.134 A 
ATOM      7  C   UNL     1       1.615 -14.937   3.143  1.00  0.00     0.093 A 
ATOM      8  C   UNL     1       0.437 -15.055   3.879  1.00  0.00     0.123 A 
ATOM      9  C   UNL     1       0.492 -15.092   5.274  1.00  0.00     0.094 A 
ATOM     10  C   UNL     1       1.721 -15.041   5.935  1.00  0.00     0.146 A 
ATOM     11  O   UNL     1       1.730 -15.090   7.262  1.00  0.00    -0.452 OA
ENDROOT
BRANCH   1  12
ATOM     12  C   UNL     1       2.713 -15.103   9.463  1.00  0.00     0.025 A 
ATOM     13  C   UNL     1       1.435 -15.115  10.045  1.00  0.00     0.016 A 
ATOM     14  C   UNL     1       1.290 -15.124  11.435  1.00  0.00     0.051 A 
ATOM     15  C   UNL     1       2.421 -15.105  12.262  1.00  0.00     0.157 A 
ATOM     16  C   UNL     1       3.845 -15.063  10.298  1.00  0.00     0.062 A 
ATOM     17  C   UNL     1       3.700 -15.070  11.692  1.00  0.00     0.158 A 
BRANCH  15  18
ATOM     18  O   UNL     1       2.281 -15.116  13.649  1.00  0.00    -0.504 OA
ATOM     19  H   UNL     1       2.510 -14.305  14.211  1.00  0.00     0.293 HD
ENDBRANCH  15  18
BRANCH  17  20
ATOM     20  O   UNL     1       4.822 -15.037  12.519  1.00  0.00    -0.504 OA
ATOM     21  H   UNL     1       4.739 -15.093  13.527  1.00  0.00     0.293 HD
ENDBRANCH  17  20
ENDBRANCH   1  12
BRANCH   2  22
ATOM     22  O   UNL     1       5.268 -15.125   8.097  1.00  0.00    -0.502 OA
ATOM     23  H   UNL     1       6.008 -14.438   8.017  1.00  0.00     0.293 HD
ENDBRANCH   2  22
BRANCH   6  24
ATOM     24  O   UNL     1       3.969 -14.638   2.954  1.00  0.00    -0.507 OA
ATOM     25  H   UNL     1       4.216 -13.751   2.540  1.00  0.00     0.293 HD
ENDBRANCH   6  24
BRANCH   8  26
ATOM     26  O   UNL     1      -0.784 -15.125   3.214  1.00  0.00    -0.508 OA
ATOM     27  H   UNL     1      -0.925 -14.681   2.315  1.00  0.00     0.293 HD
ENDBRANCH   8  26
TORSDOF 6
ENDMDL
MODEL 3
REMARK VINA RESULT:     0.668      1.517      7.653
REMARK INTER + INTRA:           1.269
REMARK INTER:                   0.804
REMARK INTRA:                   0.465
REMARK UNBOUND:                 0.465
REMARK SMILES O=c1c(O)c(-c2ccc(O)c(O)c2)oc2cc(O)cc(O)c12
REMARK SMILES IDX 5 1 3 2 2 3 1 4 22 5 20 6 19 7 17 8 16 9 15 10 14 11 6 12
REMARK SMILES IDX 7 13 8 14 9 15 13 16 11 17 10 18 12 20 4 22 21 24 18 26
REMARK H PARENT 10 19 12 21 4 23 21 25 18 27
REMARK Flexibility Score: inf
ROOT
ATOM      1  C   UNL     1       2.771 -15.052  10.019  1.00  0.00     0.180 A 
ATOM      2  C   UNL     1       4.002 -15.049   9.341  1.00  0.00     0.208 A 
ATOM      3  C   UNL     1       4.006 -15.009   7.937  1.00  0.00     0.238 A 
ATOM      4  O   UNL     1       5.110 -15.063   7.334  1.00  0.00    -0.285 OA
ATOM      5  C   UNL     1       2.781 -14.957   7.231  1.00  0.00     0.111 A 
ATOM      6  C   UNL     1       2.669 -14.873   5.810  1.00  0.00     0.134 A 
ATOM      7  C   UNL     1       1.405 -14.958   5.211  1.00  0.00     0.093 A 
ATOM      8  C   UNL     1       0.248 -15.058   5.982  1.00  0.00     0.123 A 
ATOM      9  C   UNL     1       0.343 -15.081   7.375  1.00  0.00     0.094 A 
ATOM     10  C   UNL     1       1.591 -15.034   8.000  1.00  0.00     0.146 A 
ATOM     11  O   UNL     1       1.639 -15.068   9.326  1.00  0.00    -0.452 OA
ENDROOT
BRANCH   1  12
ATOM     12  C   UNL     1       2.686 -15.067  11.497  1.00  0.00     0.025 A 
ATOM     13  C   UNL     1       1.426 -15.119  12.116  1.00  0.00     0.016 A 
ATOM     14  C   UNL     1       1.321 -15.114  13.510  1.00  0.00     0.051 A 
ATOM     15  C   UNL     1       2.473 -15.040  14.304  1.00  0.00     0.157 A 
ATOM     16  C   UNL     1       3.838 -14.973  12.299  1.00  0.00     0.062 A 
ATOM     17  C   UNL     1       3.733 -14.965  13.697  1.00  0.00     0.158 A 
BRANCH  15  18
ATOM     18  O   UNL     1       2.373 -15.036  15.694  1.00  0.00    -0.504 OA
ATOM     19  H   UNL     1       1.787 -14.369  16.181  1.00  0.00     0.293 HD
ENDBRANCH  15  18
BRANCH  17  20
ATOM     20  O   UNL     1       4.876 -14.878  14.490  1.00  0.00    -0.504 OA
ATOM     21  H   UNL     1       5.041 -14.083  15.096  1.00  0.00     0.293 HD
ENDBRANCH  17  20
ENDBRANCH   1  12
BRANCH   2  22
ATOM     22  O   UNL     1       5.200 -15.125  10.058  1.00  0.00    -0.502 OA
ATOM     23  H   UNL     1       5.701 -15.994  10.189  1.00  0.00     0.293 HD
ENDBRANCH   2  22
BRANCH   6  24
ATOM     24  O   UNL     1       3.754 -14.680   4.950  1.00  0.00    -0.507 OA
ATOM     25  H   UNL     1       4.003 -15.300   4.193  1.00  0.00     0.293 HD
ENDBRANCH   6  24
BRANCH   8  26
ATOM     26  O   UNL     1      -0.993 -15.125   5.354  1.00  0.00    -0.508 OA
ATOM     27  H   UNL     1      -1.743 -15.699   5.721  1.00  0.00     0.293 HD
ENDBRANCH   8  26
TORSDOF 6
ENDMDL
MODEL 4
REMARK VINA RESULT:     1.278      1.892      7.476
REMARK INTER + INTRA:           2.004
REMARK INTER:                   1.462
REMARK INTRA:                   0.542
REMARK UNBOUND:                 0.465
REMARK SMILES O=c1c(O)c(-c2ccc(O)c(O)c2)oc2cc(O)cc(O)c12
REMARK SMILES IDX 5 1 3 2 2 3 1 4 22 5 20 6 19 7 17 8 16 9 15 10 14 11 6 12
REMARK SMILES IDX 7 13 8 14 9 15 13 16 11 17 10 18 12 20 4 22 21 24 18 26
REMARK H PARENT 10 19 12 21 4 23 21 25 18 27
REMARK Flexibility Score: inf
ROOT
ATOM      1  C   UNL     1       2.393 -14.955   8.955  1.00  0.00     0.180 A 
ATOM      2  C   UNL     1       1.115 -15.036   8.375  1.00  0.00     0.208 A 
ATOM      3  C   UNL     1       0.999 -14.995   6.976  1.00  0.00     0.238 A 
ATOM      4  O   UNL     1      -0.152 -15.011   6.465  1.00  0.00    -0.285 OA
ATOM      5  C   UNL     1       2.161 -14.889   6.175  1.00  0.00     0.111 A 
ATOM      6  C   UNL     1       2.163 -14.880   4.748  1.00  0.00     0.134 A 
ATOM      7  C   UNL     1       3.360 -14.641   4.060  1.00  0.00     0.093 A 
ATOM      8  C   UNL     1       4.563 -14.476   4.745  1.00  0.00     0.123 A 
ATOM      9  C   UNL     1       4.582 -14.543   6.139  1.00  0.00     0.094 A 
ATOM     10  C   UNL     1       3.398 -14.745   6.854  1.00  0.00     0.146 A 
ATOM     11  O   UNL     1       3.458 -14.791   8.179  1.00  0.00    -0.452 OA
ENDROOT
BRANCH   1  12
ATOM     12  C   UNL     1       2.598 -15.017  10.420  1.00  0.00     0.025 A 
ATOM     13  C   UNL     1       1.485 -14.985  11.276  1.00  0.00     0.016 A 
ATOM     14  C   UNL     1       1.656 -15.022  12.662  1.00  0.00     0.051 A 
ATOM     15  C   UNL     1       2.943 -15.076  13.213  1.00  0.00     0.157 A 
ATOM     16  C   UNL     1       3.889 -15.050  10.979  1.00  0.00     0.062 A 
ATOM     17  C   UNL     1       4.061 -15.086  12.370  1.00  0.00     0.158 A 
BRANCH  15  18
ATOM     18  O   UNL     1       3.118 -15.115  14.595  1.00  0.00    -0.504 OA
ATOM     19  H   UNL     1       3.578 -15.896  15.050  1.00  0.00     0.293 HD
ENDBRANCH  15  18
BRANCH  17  20
ATOM     20  O   UNL     1       5.341 -15.125  12.922  1.00  0.00    -0.504 OA
ATOM     21  H   UNL     1       5.645 -14.439  13.602  1.00  0.00     0.293 HD
ENDBRANCH  17  20
ENDBRANCH   1  12
BRANCH   2  22
ATOM     22  O   UNL     1      -0.021 -15.116   9.185  1.00  0.00    -0.502 OA
ATOM     23  H   UNL     1      -0.323 -15.982   9.614  1.00  0.00     0.293 HD
ENDBRANCH   2  22
BRANCH   6  24
ATOM     24  O   UNL     1       1.032 -15.125   3.963  1.00  0.00    -0.507 OA
ATOM     25  H   UNL     1       0.613 -14.455   3.334  1.00  0.00     0.293 HD
ENDBRANCH   6  24
BRANCH   8  26
ATOM     26  O   UNL     1       5.737 -14.256   4.029  1.00  0.00    -0.508 OA
ATOM     27  H   UNL     1       5.745 -13.702   3.181  1.00  0.00     0.293 HD
ENDBRANCH   8  26
TORSDOF 6
ENDMDL
