MODEL 1
REMARK VINA RESULT:    -7.163      0.000      0.000
REMARK INTER + INTRA:          -8.514
REMARK INTER:                  -8.629
REMARK INTRA:                   0.115
REMARK UNBOUND:                 0.115
REMARK SMILES O=c1c(O)c(-c2ccc(O)c(O)c2)oc2cc(O)cc(O)c12
REMARK SMILES IDX 5 1 3 2 2 3 1 4 22 5 20 6 19 7 17 8 16 9 15 10 14 11 6 12
REMARK SMILES IDX 7 13 8 14 9 15 13 16 11 17 10 18 12 20 4 22 21 24 18 26
REMARK H PARENT 10 19 12 21 4 23 21 25 18 27
REMARK Flexibility Score: inf
ROOT
ATOM      1  C   UNL     1       2.347   4.534 -22.181  1.00  0.00     0.180 A 
ATOM      2  C   UNL     1       2.731   5.084 -20.946  1.00  0.00     0.208 A 
ATOM      3  C   UNL     1       2.250   4.502 -19.762  1.00  0.00     0.238 A 
ATOM      4  O   UNL     1       2.554   5.031 -18.661  1.00  0.00    -0.285 OA
ATOM      5  C   UNL     1       1.404   3.368 -19.827  1.00  0.00     0.111 A 
ATOM      6  C   UNL     1       0.891   2.673 -18.691  1.00  0.00     0.134 A 
ATOM      7  C   UNL     1      -0.042   1.644 -18.874  1.00  0.00     0.093 A 
ATOM      8  C   UNL     1      -0.428   1.242 -20.155  1.00  0.00     0.123 A 
ATOM      9  C   UNL     1       0.113   1.875 -21.272  1.00  0.00     0.094 A 
ATOM     10  C   UNL     1       1.017   2.929 -21.120  1.00  0.00     0.146 A 
ATOM     11  O   UNL     1       1.500   3.511 -22.211  1.00  0.00    -0.452 OA
ENDROOT
BRANCH   1  12
ATOM     12  C   UNL     1       2.833   5.077 -23.469  1.00  0.00     0.025 A 
ATOM     13  C   UNL     1       2.820   6.462 -23.685  1.00  0.00     0.016 A 
ATOM     14  C   UNL     1       3.255   6.994 -24.900  1.00  0.00     0.051 A 
ATOM     15  C   UNL     1       3.696   6.155 -25.929  1.00  0.00     0.157 A 
ATOM     16  C   UNL     1       3.254   4.230 -24.509  1.00  0.00     0.062 A 
ATOM     17  C   UNL     1       3.690   4.754 -25.733  1.00  0.00     0.158 A 
BRANCH  15  18
ATOM     18  O   UNL     1       4.125   6.750 -27.117  1.00  0.00    -0.504 OA
ATOM     19  H   UNL     1       3.722   7.591 -27.504  1.00  0.00     0.293 HD
ENDBRANCH  15  18
BRANCH  17  20
ATOM     20  O   UNL     1       4.096   3.853 -26.720  1.00  0.00    -0.504 OA
ATOM     21  H   UNL     1       4.682   3.049 -26.545  1.00  0.00     0.293 HD
ENDBRANCH  17  20
ENDBRANCH   1  12
BRANCH   2  22
ATOM     22  O   UNL     1       3.549   6.216 -20.904  1.00  0.00    -0.502 OA
ATOM     23  H   UNL     1       4.140   6.489 -21.679  1.00  0.00     0.293 HD
ENDBRANCH   2  22
BRANCH   6  24
ATOM     24  O   UNL     1       1.282   2.934 -17.375  1.00  0.00    -0.507 OA
ATOM     25  H   UNL     1       1.474   2.228 -16.681  1.00  0.00     0.293 HD
ENDBRANCH   6  24
BRANCH   8  26
ATOM     26  O   UNL     1      -1.345   0.207 -20.329  1.00  0.00    -0.508 OA
ATOM     27  H   UNL     1      -1.369  -0.589 -19.702  1.00  0.00     0.293 HD
ENDBRANCH   8  26
TORSDOF 6
ENDMDL
MODEL 2
REMARK VINA RESULT:    -7.005      0.613      1.432
REMARK INTER + INTRA:          -8.323
REMARK INTER:                  -8.568
REMARK INTRA:                   0.245
REMARK UNBOUND:                 0.115
REMARK SMILES O=c1c(O)c(-c2ccc(O)c(O)c2)oc2cc(O)cc(O)c12
REMARK SMILES IDX 5 1 3 2 2 3 1 4 22 5 20 6 19 7 17 8 16 9 15 10 14 11 6 12
REMARK SMILES IDX 7 13 8 14 9 15 13 16 11 17 10 18 12 20 4 22 21 24 18 26
REMARK H PARENT 10 19 12 21 4 23 21 25 18 27
REMARK Flexibility Score: inf
ROOT
ATOM      1  C   UNL     1       2.251   4.237 -22.281  1.00  0.00     0.180 A 
ATOM      2  C   UNL     1       2.617   4.883 -21.087  1.00  0.00     0.208 A 
ATOM      3  C   UNL     1       2.156   4.368 -19.865  1.00  0.00     0.238 A 
ATOM      4  O   UNL     1       2.442   4.980 -18.804  1.00  0.00    -0.285 OA
ATOM      5  C   UNL     1       1.348   3.205 -19.851  1.00  0.00     0.111 A 
ATOM      6  C   UNL     1       0.858   2.573 -18.668  1.00  0.00     0.134 A 
ATOM      7  C   UNL     1      -0.041   1.504 -18.778  1.00  0.00     0.093 A 
ATOM      8  C   UNL     1      -0.414   1.003 -20.028  1.00  0.00     0.123 A 
ATOM      9  C   UNL     1       0.106   1.575 -21.187  1.00  0.00     0.094 A 
ATOM     10  C   UNL     1       0.975   2.666 -21.110  1.00  0.00     0.146 A 
ATOM     11  O   UNL     1       1.439   3.187 -22.239  1.00  0.00    -0.452 OA
ENDROOT
BRANCH   1  12
ATOM     12  C   UNL     1       2.719   4.706 -23.605  1.00  0.00     0.025 A 
ATOM     13  C   UNL     1       3.019   3.769 -24.604  1.00  0.00     0.016 A 
ATOM     14  C   UNL     1       3.480   4.188 -25.852  1.00  0.00     0.051 A 
ATOM     15  C   UNL     1       3.668   5.548 -26.124  1.00  0.00     0.157 A 
ATOM     16  C   UNL     1       2.928   6.071 -23.866  1.00  0.00     0.062 A 
ATOM     17  C   UNL     1       3.394   6.501 -25.115  1.00  0.00     0.158 A 
BRANCH  15  18
ATOM     18  O   UNL     1       4.125   5.902 -27.395  1.00  0.00    -0.504 OA
ATOM     19  H   UNL     1       3.542   5.921 -28.219  1.00  0.00     0.293 HD
ENDBRANCH  15  18
BRANCH  17  20
ATOM     20  O   UNL     1       3.577   7.873 -25.306  1.00  0.00    -0.504 OA
ATOM     21  H   UNL     1       4.457   8.350 -25.169  1.00  0.00     0.293 HD
ENDBRANCH  17  20
ENDBRANCH   1  12
BRANCH   2  22
ATOM     22  O   UNL     1       3.398   6.042 -21.125  1.00  0.00    -0.502 OA
ATOM     23  H   UNL     1       4.402   6.016 -21.244  1.00  0.00     0.293 HD
ENDBRANCH   2  22
BRANCH   6  24
ATOM     24  O   UNL     1       1.240   2.936 -17.374  1.00  0.00    -0.507 OA
ATOM     25  H   UNL     1       1.484   2.286 -16.643  1.00  0.00     0.293 HD
ENDBRANCH   6  24
BRANCH   8  26
ATOM     26  O   UNL     1      -1.296  -0.071 -20.129  1.00  0.00    -0.508 OA
ATOM     27  H   UNL     1      -1.195  -0.774 -20.852  1.00  0.00     0.293 HD
ENDBRANCH   8  26
TORSDOF 6
ENDMDL
MODEL 3
REMARK VINA RESULT:    -6.933      1.444      3.257
REMARK INTER + INTRA:          -8.237
REMARK INTER:                  -8.097
REMARK INTRA:                  -0.141
REMARK UNBOUND:                 0.115
REMARK SMILES O=c1c(O)c(-c2ccc(O)c(O)c2)oc2cc(O)cc(O)c12
REMARK SMILES IDX 5 1 3 2 2 3 1 4 22 5 20 6 19 7 17 8 16 9 15 10 14 11 6 12
REMARK SMILES IDX 7 13 8 14 9 15 13 16 11 17 10 18 12 20 4 22 21 24 18 26
REMARK H PARENT 10 19 12 21 4 23 21 25 18 27
REMARK Flexibility Score: inf
ROOT
ATOM      1  C   UNL     1       1.939   3.870 -22.651  1.00  0.00     0.180 A 
ATOM      2  C   UNL     1       1.311   2.614 -22.586  1.00  0.00     0.208 A 
ATOM      3  C   UNL     1       0.918   2.114 -21.334  1.00  0.00     0.238 A 
ATOM      4  O   UNL     1       0.404   0.967 -21.276  1.00  0.00    -0.285 OA
ATOM      5  C   UNL     1       1.143   2.881 -20.166  1.00  0.00     0.111 A 
ATOM      6  C   UNL     1       0.750   2.490 -18.851  1.00  0.00     0.134 A 
ATOM      7  C   UNL     1       1.141   3.268 -17.753  1.00  0.00     0.093 A 
ATOM      8  C   UNL     1       1.854   4.457 -17.930  1.00  0.00     0.123 A 
ATOM      9  C   UNL     1       2.190   4.877 -19.215  1.00  0.00     0.094 A 
ATOM     10  C   UNL     1       1.847   4.104 -20.326  1.00  0.00     0.146 A 
ATOM     11  O   UNL     1       2.196   4.537 -21.532  1.00  0.00    -0.452 OA
ENDROOT
BRANCH   1  12
ATOM     12  C   UNL     1       2.359   4.475 -23.936  1.00  0.00     0.025 A 
ATOM     13  C   UNL     1       3.364   3.858 -24.694  1.00  0.00     0.016 A 
ATOM     14  C   UNL     1       3.789   4.421 -25.898  1.00  0.00     0.051 A 
ATOM     15  C   UNL     1       3.232   5.618 -26.362  1.00  0.00     0.157 A 
ATOM     16  C   UNL     1       1.813   5.688 -24.388  1.00  0.00     0.062 A 
ATOM     17  C   UNL     1       2.235   6.263 -25.593  1.00  0.00     0.158 A 
BRANCH  15  18
ATOM     18  O   UNL     1       3.695   6.125 -27.577  1.00  0.00    -0.504 OA
ATOM     19  H   UNL     1       4.414   5.686 -28.135  1.00  0.00     0.293 HD
ENDBRANCH  15  18
BRANCH  17  20
ATOM     20  O   UNL     1       1.647   7.469 -25.981  1.00  0.00    -0.504 OA
ATOM     21  H   UNL     1       1.506   8.254 -25.362  1.00  0.00     0.293 HD
ENDBRANCH  17  20
ENDBRANCH   1  12
BRANCH   2  22
ATOM     22  O   UNL     1       1.117   1.864 -23.749  1.00  0.00    -0.502 OA
ATOM     23  H   UNL     1       1.341   2.220 -24.669  1.00  0.00     0.293 HD
ENDBRANCH   2  22
BRANCH   6  24
ATOM     24  O   UNL     1      -0.041   1.372 -18.573  1.00  0.00    -0.507 OA
ATOM     25  H   UNL     1      -1.007   1.408 -18.286  1.00  0.00     0.293 HD
ENDBRANCH   6  24
BRANCH   8  26
ATOM     26  O   UNL     1       2.226   5.232 -16.834  1.00  0.00    -0.508 OA
ATOM     27  H   UNL     1       2.370   4.821 -15.919  1.00  0.00     0.293 HD
ENDBRANCH   8  26
TORSDOF 6
ENDMDL
MODEL 4
REMARK VINA RESULT:    -6.872      1.507      3.432
REMARK INTER + INTRA:          -8.164
REMARK INTER:                  -7.910
REMARK INTRA:                  -0.254
REMARK UNBOUND:                 0.115
REMARK SMILES O=c1c(O)c(-c2ccc(O)c(O)c2)oc2cc(O)cc(O)c12
REMARK SMILES IDX 5 1 3 2 2 3 1 4 22 5 20 6 19 7 17 8 16 9 15 10 14 11 6 12
REMARK SMILES IDX 7 13 8 14 9 15 13 16 11 17 10 18 12 20 4 22 21 24 18 26
REMARK H PARENT 10 19 12 21 4 23 21 25 18 27
REMARK Flexibility Score: inf
ROOT
ATOM      1  C   UNL     1       1.489   3.284 -23.316  1.00  0.00     0.180 A 
ATOM      2  C   UNL     1       0.808   2.111 -23.683  1.00  0.00     0.208 A 
ATOM      3  C   UNL     1       0.222   1.321 -22.680  1.00  0.00     0.238 A 
ATOM      4  O   UNL     1      -0.340   0.245 -23.010  1.00  0.00    -0.285 OA
ATOM      5  C   UNL     1       0.311   1.723 -21.325  1.00  0.00     0.111 A 
ATOM      6  C   UNL     1      -0.280   1.021 -20.232  1.00  0.00     0.134 A 
ATOM      7  C   UNL     1      -0.017   1.438 -18.921  1.00  0.00     0.093 A 
ATOM      8  C   UNL     1       0.761   2.571 -18.668  1.00  0.00     0.123 A 
ATOM      9  C   UNL     1       1.292   3.298 -19.731  1.00  0.00     0.094 A 
ATOM     10  C   UNL     1       1.078   2.884 -21.048  1.00  0.00     0.146 A 
ATOM     11  O   UNL     1       1.612   3.600 -22.031  1.00  0.00    -0.452 OA
ENDROOT
BRANCH   1  12
ATOM     12  C   UNL     1       2.110   4.180 -24.317  1.00  0.00     0.025 A 
ATOM     13  C   UNL     1       3.321   3.810 -24.919  1.00  0.00     0.016 A 
ATOM     14  C   UNL     1       3.934   4.649 -25.851  1.00  0.00     0.051 A 
ATOM     15  C   UNL     1       3.361   5.880 -26.189  1.00  0.00     0.157 A 
ATOM     16  C   UNL     1       1.542   5.426 -24.638  1.00  0.00     0.062 A 
ATOM     17  C   UNL     1       2.152   6.276 -25.570  1.00  0.00     0.158 A 
BRANCH  15  18
ATOM     18  O   UNL     1       4.019   6.669 -27.134  1.00  0.00    -0.504 OA
ATOM     19  H   UNL     1       4.933   7.075 -26.991  1.00  0.00     0.293 HD
ENDBRANCH  15  18
BRANCH  17  20
ATOM     20  O   UNL     1       1.531   7.497 -25.841  1.00  0.00    -0.504 OA
ATOM     21  H   UNL     1       0.679   7.809 -25.396  1.00  0.00     0.293 HD
ENDBRANCH  17  20
ENDBRANCH   1  12
BRANCH   2  22
ATOM     22  O   UNL     1       0.750   1.722 -25.024  1.00  0.00    -0.502 OA
ATOM     23  H   UNL     1       1.572   1.446 -25.546  1.00  0.00     0.293 HD
ENDBRANCH   2  22
BRANCH   6  24
ATOM     24  O   UNL     1      -1.146  -0.066 -20.379  1.00  0.00    -0.507 OA
ATOM     25  H   UNL     1      -2.133  -0.047 -20.171  1.00  0.00     0.293 HD
ENDBRANCH   6  24
BRANCH   8  26
ATOM     26  O   UNL     1       1.005   2.989 -17.361  1.00  0.00    -0.508 OA
ATOM     27  H   UNL     1       0.257   3.063 -16.680  1.00  0.00     0.293 HD
ENDBRANCH   8  26
TORSDOF 6
ENDMDL
MODEL 5
REMARK VINA RESULT:    -6.766      2.007      7.161
REMARK INTER + INTRA:          -8.035
REMARK INTER:                  -8.022
REMARK INTRA:                  -0.014
REMARK UNBOUND:                 0.115
REMARK SMILES O=c1c(O)c(-c2ccc(O)c(O)c2)oc2cc(O)cc(O)c12
REMARK SMILES IDX 5 1 3 2 2 3 1 4 22 5 20 6 19 7 17 8 16 9 15 10 14 11 6 12
REMARK SMILES IDX 7 13 8 14 9 15 13 16 11 17 10 18 12 20 4 22 21 24 18 26
REMARK H PARENT 10 19 12 21 4 23 21 25 18 27
REMARK Flexibility Score: inf
ROOT
ATOM      1  C   UNL     1       1.112   3.372 -22.243  1.00  0.00     0.180 A 
ATOM      2  C   UNL     1       0.209   2.975 -23.245  1.00  0.00     0.208 A 
ATOM      3  C   UNL     1       0.260   3.609 -24.497  1.00  0.00     0.238 A 
ATOM      4  O   UNL     1      -0.585   3.287 -25.372  1.00  0.00    -0.285 OA
ATOM      5  C   UNL     1       1.222   4.619 -24.736  1.00  0.00     0.111 A 
ATOM      6  C   UNL     1       1.390   5.300 -25.980  1.00  0.00     0.134 A 
ATOM      7  C   UNL     1       2.287   6.373 -26.064  1.00  0.00     0.093 A 
ATOM      8  C   UNL     1       3.068   6.747 -24.967  1.00  0.00     0.123 A 
ATOM      9  C   UNL     1       2.954   6.050 -23.767  1.00  0.00     0.094 A 
ATOM     10  C   UNL     1       2.042   4.999 -23.641  1.00  0.00     0.146 A 
ATOM     11  O   UNL     1       1.958   4.368 -22.476  1.00  0.00    -0.452 OA
ENDROOT
BRANCH   1  12
ATOM     12  C   UNL     1       1.135   2.733 -20.907  1.00  0.00     0.025 A 
ATOM     13  C   UNL     1       1.183   3.536 -19.759  1.00  0.00     0.016 A 
ATOM     14  C   UNL     1       1.227   2.955 -18.490  1.00  0.00     0.051 A 
ATOM     15  C   UNL     1       1.239   1.563 -18.342  1.00  0.00     0.157 A 
ATOM     16  C   UNL     1       1.170   1.336 -20.764  1.00  0.00     0.062 A 
ATOM     17  C   UNL     1       1.217   0.743 -19.495  1.00  0.00     0.158 A 
BRANCH  15  18
ATOM     18  O   UNL     1       1.275   1.045 -17.047  1.00  0.00    -0.504 OA
ATOM     19  H   UNL     1       0.577   0.421 -16.670  1.00  0.00     0.293 HD
ENDBRANCH  15  18
BRANCH  17  20
ATOM     20  O   UNL     1       1.247  -0.652 -19.428  1.00  0.00    -0.504 OA
ATOM     21  H   UNL     1       2.053  -1.186 -19.136  1.00  0.00     0.293 HD
ENDBRANCH  17  20
ENDBRANCH   1  12
BRANCH   2  22
ATOM     22  O   UNL     1      -0.747   1.990 -22.981  1.00  0.00    -0.502 OA
ATOM     23  H   UNL     1      -1.720   2.094 -23.239  1.00  0.00     0.293 HD
ENDBRANCH   2  22
BRANCH   6  24
ATOM     24  O   UNL     1       0.727   4.947 -27.158  1.00  0.00    -0.507 OA
ATOM     25  H   UNL     1       1.081   5.112 -28.088  1.00  0.00     0.293 HD
ENDBRANCH   6  24
BRANCH   8  26
ATOM     26  O   UNL     1       3.969   7.806 -25.064  1.00  0.00    -0.508 OA
ATOM     27  H   UNL     1       4.327   8.116 -25.960  1.00  0.00     0.293 HD
ENDBRANCH   8  26
TORSDOF 6
ENDMDL
MODEL 6
REMARK VINA RESULT:    -6.678      2.276      3.852
REMARK INTER + INTRA:          -7.929
REMARK INTER:                  -7.601
REMARK INTRA:                  -0.328
REMARK UNBOUND:                 0.115
REMARK SMILES O=c1c(O)c(-c2ccc(O)c(O)c2)oc2cc(O)cc(O)c12
REMARK SMILES IDX 5 1 3 2 2 3 1 4 22 5 20 6 19 7 17 8 16 9 15 10 14 11 6 12
REMARK SMILES IDX 7 13 8 14 9 15 13 16 11 17 10 18 12 20 4 22 21 24 18 26
REMARK H PARENT 10 19 12 21 4 23 21 25 18 27
REMARK Flexibility Score: inf
ROOT
ATOM      1  C   UNL     1       1.180   2.800 -22.533  1.00  0.00     0.180 A 
ATOM      2  C   UNL     1       0.915   1.491 -22.097  1.00  0.00     0.208 A 
ATOM      3  C   UNL     1       0.936   1.215 -20.720  1.00  0.00     0.238 A 
ATOM      4  O   UNL     1       0.751   0.030 -20.338  1.00  0.00    -0.285 OA
ATOM      5  C   UNL     1       1.206   2.254 -19.797  1.00  0.00     0.111 A 
ATOM      6  C   UNL     1       1.212   2.096 -18.378  1.00  0.00     0.134 A 
ATOM      7  C   UNL     1       1.620   3.163 -17.567  1.00  0.00     0.093 A 
ATOM      8  C   UNL     1       1.958   4.401 -18.120  1.00  0.00     0.123 A 
ATOM      9  C   UNL     1       1.897   4.582 -19.500  1.00  0.00     0.094 A 
ATOM     10  C   UNL     1       1.530   3.526 -20.338  1.00  0.00     0.146 A 
ATOM     11  O   UNL     1       1.495   3.739 -21.648  1.00  0.00    -0.452 OA
ENDROOT
BRANCH   1  12
ATOM     12  C   UNL     1       1.152   3.173 -23.966  1.00  0.00     0.025 A 
ATOM     13  C   UNL     1       2.328   3.092 -24.724  1.00  0.00     0.016 A 
ATOM     14  C   UNL     1       2.328   3.458 -26.071  1.00  0.00     0.051 A 
ATOM     15  C   UNL     1       1.160   3.927 -26.684  1.00  0.00     0.157 A 
ATOM     16  C   UNL     1      -0.018   3.665 -24.571  1.00  0.00     0.062 A 
ATOM     17  C   UNL     1      -0.026   4.037 -25.922  1.00  0.00     0.158 A 
BRANCH  15  18
ATOM     18  O   UNL     1       1.225   4.269 -28.035  1.00  0.00    -0.504 OA
ATOM     19  H   UNL     1       0.449   4.648 -28.559  1.00  0.00     0.293 HD
ENDBRANCH  15  18
BRANCH  17  20
ATOM     20  O   UNL     1      -1.225   4.515 -26.458  1.00  0.00    -0.504 OA
ATOM     21  H   UNL     1      -2.043   3.943 -26.610  1.00  0.00     0.293 HD
ENDBRANCH  17  20
ENDBRANCH   1  12
BRANCH   2  22
ATOM     22  O   UNL     1       0.673   0.475 -23.025  1.00  0.00    -0.502 OA
ATOM     23  H   UNL     1      -0.175   0.434 -23.576  1.00  0.00     0.293 HD
ENDBRANCH   2  22
BRANCH   6  24
ATOM     24  O   UNL     1       0.805   0.933 -17.720  1.00  0.00    -0.507 OA
ATOM     25  H   UNL     1       0.025   0.357 -18.000  1.00  0.00     0.293 HD
ENDBRANCH   6  24
BRANCH   8  26
ATOM     26  O   UNL     1       2.348   5.461 -17.305  1.00  0.00    -0.508 OA
ATOM     27  H   UNL     1       2.159   6.424 -17.561  1.00  0.00     0.293 HD
ENDBRANCH   8  26
TORSDOF 6
ENDMDL
MODEL 7
REMARK VINA RESULT:    -6.632      1.828      6.812
REMARK INTER + INTRA:          -7.874
REMARK INTER:                  -7.607
REMARK INTRA:                  -0.267
REMARK UNBOUND:                 0.115
REMARK SMILES O=c1c(O)c(-c2ccc(O)c(O)c2)oc2cc(O)cc(O)c12
REMARK SMILES IDX 5 1 3 2 2 3 1 4 22 5 20 6 19 7 17 8 16 9 15 10 14 11 6 12
REMARK SMILES IDX 7 13 8 14 9 15 13 16 11 17 10 18 12 20 4 22 21 24 18 26
REMARK H PARENT 10 19 12 21 4 23 21 25 18 27
REMARK Flexibility Score: inf
ROOT
ATOM      1  C   UNL     1       1.326   2.830 -22.597  1.00  0.00     0.180 A 
ATOM      2  C   UNL     1       1.848   3.951 -21.928  1.00  0.00     0.208 A 
ATOM      3  C   UNL     1       2.553   4.916 -22.665  1.00  0.00     0.238 A 
ATOM      4  O   UNL     1       3.064   5.890 -22.053  1.00  0.00    -0.285 OA
ATOM      5  C   UNL     1       2.713   4.757 -24.063  1.00  0.00     0.111 A 
ATOM      6  C   UNL     1       3.374   5.692 -24.915  1.00  0.00     0.134 A 
ATOM      7  C   UNL     1       3.588   5.369 -26.261  1.00  0.00     0.093 A 
ATOM      8  C   UNL     1       3.106   4.173 -26.800  1.00  0.00     0.123 A 
ATOM      9  C   UNL     1       2.408   3.281 -25.990  1.00  0.00     0.094 A 
ATOM     10  C   UNL     1       2.211   3.558 -24.635  1.00  0.00     0.146 A 
ATOM     11  O   UNL     1       1.549   2.675 -23.897  1.00  0.00    -0.452 OA
ENDROOT
BRANCH   1  12
ATOM     12  C   UNL     1       0.550   1.784 -21.892  1.00  0.00     0.025 A 
ATOM     13  C   UNL     1      -0.848   1.776 -21.991  1.00  0.00     0.016 A 
ATOM     14  C   UNL     1      -1.600   0.812 -21.318  1.00  0.00     0.051 A 
ATOM     15  C   UNL     1      -0.974  -0.154 -20.522  1.00  0.00     0.157 A 
ATOM     16  C   UNL     1       1.181   0.830 -21.075  1.00  0.00     0.062 A 
ATOM     17  C   UNL     1       0.435  -0.141 -20.394  1.00  0.00     0.158 A 
BRANCH  15  18
ATOM     18  O   UNL     1      -1.782  -1.096 -19.882  1.00  0.00    -0.504 OA
ATOM     19  H   UNL     1      -1.646  -1.402 -18.929  1.00  0.00     0.293 HD
ENDBRANCH  15  18
BRANCH  17  20
ATOM     20  O   UNL     1       1.128  -1.059 -19.602  1.00  0.00    -0.504 OA
ATOM     21  H   UNL     1       2.027  -0.874 -19.179  1.00  0.00     0.293 HD
ENDBRANCH  17  20
ENDBRANCH   1  12
BRANCH   2  22
ATOM     22  O   UNL     1       1.697   4.078 -20.545  1.00  0.00    -0.502 OA
ATOM     23  H   UNL     1       2.219   4.754 -20.001  1.00  0.00     0.293 HD
ENDBRANCH   2  22
BRANCH   6  24
ATOM     24  O   UNL     1       3.811   6.952 -24.498  1.00  0.00    -0.507 OA
ATOM     25  H   UNL     1       3.391   7.491 -23.756  1.00  0.00     0.293 HD
ENDBRANCH   6  24
BRANCH   8  26
ATOM     26  O   UNL     1       3.310   3.866 -28.144  1.00  0.00    -0.508 OA
ATOM     27  H   UNL     1       4.241   3.831 -28.543  1.00  0.00     0.293 HD
ENDBRANCH   8  26
TORSDOF 6
ENDMDL
MODEL 8
REMARK VINA RESULT:    -6.627      2.427      7.265
REMARK INTER + INTRA:          -7.868
REMARK INTER:                  -7.549
REMARK INTRA:                  -0.319
REMARK UNBOUND:                 0.115
REMARK SMILES O=c1c(O)c(-c2ccc(O)c(O)c2)oc2cc(O)cc(O)c12
REMARK SMILES IDX 5 1 3 2 2 3 1 4 22 5 20 6 19 7 17 8 16 9 15 10 14 11 6 12
REMARK SMILES IDX 7 13 8 14 9 15 13 16 11 17 10 18 12 20 4 22 21 24 18 26
REMARK H PARENT 10 19 12 21 4 23 21 25 18 27
REMARK Flexibility Score: inf
ROOT
ATOM      1  C   UNL     1       0.701   2.456 -22.607  1.00  0.00     0.180 A 
ATOM      2  C   UNL     1      -0.570   2.524 -23.204  1.00  0.00     0.208 A 
ATOM      3  C   UNL     1      -0.669   2.900 -24.553  1.00  0.00     0.238 A 
ATOM      4  O   UNL     1      -1.813   3.011 -25.067  1.00  0.00    -0.285 OA
ATOM      5  C   UNL     1       0.503   3.189 -25.293  1.00  0.00     0.111 A 
ATOM      6  C   UNL     1       0.522   3.542 -26.676  1.00  0.00     0.134 A 
ATOM      7  C   UNL     1       1.728   3.934 -27.272  1.00  0.00     0.093 A 
ATOM      8  C   UNL     1       2.925   3.923 -26.550  1.00  0.00     0.123 A 
ATOM      9  C   UNL     1       2.925   3.523 -25.216  1.00  0.00     0.094 A 
ATOM     10  C   UNL     1       1.733   3.162 -24.584  1.00  0.00     0.146 A 
ATOM     11  O   UNL     1       1.777   2.797 -23.308  1.00  0.00    -0.452 OA
ENDROOT
BRANCH   1  12
ATOM     12  C   UNL     1       0.888   2.043 -21.198  1.00  0.00     0.025 A 
ATOM     13  C   UNL     1       1.103   3.019 -20.215  1.00  0.00     0.016 A 
ATOM     14  C   UNL     1       1.301   2.651 -18.883  1.00  0.00     0.051 A 
ATOM     15  C   UNL     1       1.306   1.302 -18.508  1.00  0.00     0.157 A 
ATOM     16  C   UNL     1       0.915   0.687 -20.830  1.00  0.00     0.062 A 
ATOM     17  C   UNL     1       1.116   0.307 -19.496  1.00  0.00     0.158 A 
BRANCH  15  18
ATOM     18  O   UNL     1       1.502   1.001 -17.160  1.00  0.00    -0.504 OA
ATOM     19  H   UNL     1       0.834   1.209 -16.432  1.00  0.00     0.293 HD
ENDBRANCH  15  18
BRANCH  17  20
ATOM     20  O   UNL     1       1.128  -1.058 -19.202  1.00  0.00    -0.504 OA
ATOM     21  H   UNL     1       0.836  -1.448 -18.317  1.00  0.00     0.293 HD
ENDBRANCH  17  20
ENDBRANCH   1  12
BRANCH   2  22
ATOM     22  O   UNL     1      -1.716   2.255 -22.451  1.00  0.00    -0.502 OA
ATOM     23  H   UNL     1      -1.822   2.566 -21.493  1.00  0.00     0.293 HD
ENDBRANCH   2  22
BRANCH   6  24
ATOM     24  O   UNL     1      -0.599   3.497 -27.508  1.00  0.00    -0.507 OA
ATOM     25  H   UNL     1      -1.544   3.689 -27.211  1.00  0.00     0.293 HD
ENDBRANCH   6  24
BRANCH   8  26
ATOM     26  O   UNL     1       4.123   4.300 -27.155  1.00  0.00    -0.508 OA
ATOM     27  H   UNL     1       4.504   5.231 -27.037  1.00  0.00     0.293 HD
ENDBRANCH   8  26
TORSDOF 6
ENDMDL
MODEL 9
REMARK VINA RESULT:    -6.529      2.504      3.434
REMARK INTER + INTRA:          -7.751
REMARK INTER:                  -7.436
REMARK INTRA:                  -0.314
REMARK UNBOUND:                 0.115
REMARK SMILES O=c1c(O)c(-c2ccc(O)c(O)c2)oc2cc(O)cc(O)c12
REMARK SMILES IDX 5 1 3 2 2 3 1 4 22 5 20 6 19 7 17 8 16 9 15 10 14 11 6 12
REMARK SMILES IDX 7 13 8 14 9 15 13 16 11 17 10 18 12 20 4 22 21 24 18 26
REMARK H PARENT 10 19 12 21 4 23 21 25 18 27
REMARK Flexibility Score: inf
ROOT
ATOM      1  C   UNL     1       0.722   3.059 -23.423  1.00  0.00     0.180 A 
ATOM      2  C   UNL     1      -0.667   3.045 -23.637  1.00  0.00     0.208 A 
ATOM      3  C   UNL     1      -1.468   2.202 -22.850  1.00  0.00     0.238 A 
ATOM      4  O   UNL     1      -2.704   2.154 -23.081  1.00  0.00    -0.285 OA
ATOM      5  C   UNL     1      -0.873   1.395 -21.850  1.00  0.00     0.111 A 
ATOM      6  C   UNL     1      -1.593   0.534 -20.969  1.00  0.00     0.134 A 
ATOM      7  C   UNL     1      -0.889  -0.316 -20.106  1.00  0.00     0.093 A 
ATOM      8  C   UNL     1       0.507  -0.287 -20.047  1.00  0.00     0.123 A 
ATOM      9  C   UNL     1       1.216   0.593 -20.861  1.00  0.00     0.094 A 
ATOM     10  C   UNL     1       0.543   1.426 -21.758  1.00  0.00     0.146 A 
ATOM     11  O   UNL     1       1.258   2.242 -22.523  1.00  0.00    -0.452 OA
ENDROOT
BRANCH   1  12
ATOM     12  C   UNL     1       1.628   3.939 -24.195  1.00  0.00     0.025 A 
ATOM     13  C   UNL     1       1.802   5.272 -23.797  1.00  0.00     0.016 A 
ATOM     14  C   UNL     1       2.636   6.125 -24.522  1.00  0.00     0.051 A 
ATOM     15  C   UNL     1       3.300   5.670 -25.667  1.00  0.00     0.157 A 
ATOM     16  C   UNL     1       2.276   3.485 -25.358  1.00  0.00     0.062 A 
ATOM     17  C   UNL     1       3.112   4.335 -26.094  1.00  0.00     0.158 A 
BRANCH  15  18
ATOM     18  O   UNL     1       4.125   6.571 -26.343  1.00  0.00    -0.504 OA
ATOM     19  H   UNL     1       5.030   6.868 -26.007  1.00  0.00     0.293 HD
ENDBRANCH  15  18
BRANCH  17  20
ATOM     20  O   UNL     1       3.724   3.816 -27.237  1.00  0.00    -0.504 OA
ATOM     21  H   UNL     1       3.807   4.317 -28.110  1.00  0.00     0.293 HD
ENDBRANCH  17  20
ENDBRANCH   1  12
BRANCH   2  22
ATOM     22  O   UNL     1      -1.232   3.833 -24.643  1.00  0.00    -0.502 OA
ATOM     23  H   UNL     1      -0.942   4.788 -24.813  1.00  0.00     0.293 HD
ENDBRANCH   2  22
BRANCH   6  24
ATOM     24  O   UNL     1      -2.987   0.495 -20.882  1.00  0.00    -0.507 OA
ATOM     25  H   UNL     1      -3.591   0.019 -21.536  1.00  0.00     0.293 HD
ENDBRANCH   6  24
BRANCH   8  26
ATOM     26  O   UNL     1       1.199  -1.125 -19.174  1.00  0.00    -0.508 OA
ATOM     27  H   UNL     1       2.068  -1.571 -19.446  1.00  0.00     0.293 HD
ENDBRANCH   8  26
TORSDOF 6
ENDMDL
