MODEL 1
REMARK VINA RESULT:    -6.384      0.000      0.000
REMARK INTER + INTRA:          -7.800
REMARK INTER:                  -7.690
REMARK INTRA:                  -0.110
REMARK UNBOUND:                -0.110
REMARK SMILES O=c1c(O)c(-c2ccc(O)c(O)c2)oc2cc(O)cc(O)c12
REMARK SMILES IDX 5 1 3 2 2 3 1 4 22 5 20 6 19 7 17 8 16 9 15 10 14 11 6 12
REMARK SMILES IDX 7 13 8 14 9 15 13 16 11 17 10 18 12 20 4 22 21 24 18 26
REMARK H PARENT 10 19 12 21 4 23 21 25 18 27
REMARK Flexibility Score: inf
ROOT
ATOM      1  C   UNL     1     -20.347  16.964  -2.001  1.00  0.00     0.180 A 
ATOM      2  C   UNL     1     -18.967  16.700  -1.953  1.00  0.00     0.208 A 
ATOM      3  C   UNL     1     -18.486  15.495  -2.490  1.00  0.00     0.238 A 
ATOM      4  O   UNL     1     -17.257  15.240  -2.395  1.00  0.00    -0.285 OA
ATOM      5  C   UNL     1     -19.387  14.577  -3.080  1.00  0.00     0.111 A 
ATOM      6  C   UNL     1     -19.004  13.345  -3.690  1.00  0.00     0.134 A 
ATOM      7  C   UNL     1     -19.993  12.454  -4.126  1.00  0.00     0.093 A 
ATOM      8  C   UNL     1     -21.346  12.778  -4.036  1.00  0.00     0.123 A 
ATOM      9  C   UNL     1     -21.729  14.006  -3.496  1.00  0.00     0.094 A 
ATOM     10  C   UNL     1     -20.768  14.901  -3.018  1.00  0.00     0.146 A 
ATOM     11  O   UNL     1     -21.174  16.054  -2.502  1.00  0.00    -0.452 OA
ENDROOT
BRANCH   1  12
ATOM     12  C   UNL     1     -20.927  18.223  -1.480  1.00  0.00     0.025 A 
ATOM     13  C   UNL     1     -21.846  18.220  -0.415  1.00  0.00     0.016 A 
ATOM     14  C   UNL     1     -22.363  19.421   0.076  1.00  0.00     0.051 A 
ATOM     15  C   UNL     1     -21.960  20.643  -0.479  1.00  0.00     0.157 A 
ATOM     16  C   UNL     1     -20.512  19.452  -2.018  1.00  0.00     0.062 A 
ATOM     17  C   UNL     1     -21.030  20.658  -1.526  1.00  0.00     0.158 A 
BRANCH  15  18
ATOM     18  O   UNL     1     -22.474  21.843   0.007  1.00  0.00    -0.504 OA
ATOM     19  H   UNL     1     -21.941  22.703  -0.031  1.00  0.00     0.293 HD
ENDBRANCH  15  18
BRANCH  17  20
ATOM     20  O   UNL     1     -20.625  21.875  -2.072  1.00  0.00    -0.504 OA
ATOM     21  H   UNL     1     -21.183  22.356  -2.768  1.00  0.00     0.293 HD
ENDBRANCH  17  20
ENDBRANCH   1  12
BRANCH   2  22
ATOM     22  O   UNL     1     -18.098  17.610  -1.346  1.00  0.00    -0.502 OA
ATOM     23  H   UNL     1     -17.942  17.628  -0.345  1.00  0.00     0.293 HD
ENDBRANCH   2  22
BRANCH   6  24
ATOM     24  O   UNL     1     -17.678  12.963  -3.914  1.00  0.00    -0.507 OA
ATOM     25  H   UNL     1     -17.338  12.537  -4.762  1.00  0.00     0.293 HD
ENDBRANCH   6  24
BRANCH   8  26
ATOM     26  O   UNL     1     -22.302  11.875  -4.495  1.00  0.00    -0.508 OA
ATOM     27  H   UNL     1     -22.353  10.929  -4.137  1.00  0.00     0.293 HD
ENDBRANCH   8  26
TORSDOF 6
ENDMDL
MODEL 2
REMARK VINA RESULT:    -6.207      1.712      2.578
REMARK INTER + INTRA:          -7.587
REMARK INTER:                  -8.020
REMARK INTRA:                   0.434
REMARK UNBOUND:                -0.110
REMARK SMILES O=c1c(O)c(-c2ccc(O)c(O)c2)oc2cc(O)cc(O)c12
REMARK SMILES IDX 5 1 3 2 2 3 1 4 22 5 20 6 19 7 17 8 16 9 15 10 14 11 6 12
REMARK SMILES IDX 7 13 8 14 9 15 13 16 11 17 10 18 12 20 4 22 21 24 18 26
REMARK H PARENT 10 19 12 21 4 23 21 25 18 27
REMARK Flexibility Score: inf
ROOT
ATOM      1  C   UNL     1     -20.552  18.096  -1.790  1.00  0.00     0.180 A 
ATOM      2  C   UNL     1     -19.251  18.602  -1.958  1.00  0.00     0.208 A 
ATOM      3  C   UNL     1     -18.281  17.794  -2.573  1.00  0.00     0.238 A 
ATOM      4  O   UNL     1     -17.105  18.231  -2.671  1.00  0.00    -0.285 OA
ATOM      5  C   UNL     1     -18.627  16.498  -3.024  1.00  0.00     0.111 A 
ATOM      6  C   UNL     1     -17.735  15.609  -3.697  1.00  0.00     0.134 A 
ATOM      7  C   UNL     1     -18.148  14.302  -3.982  1.00  0.00     0.093 A 
ATOM      8  C   UNL     1     -19.440  13.872  -3.680  1.00  0.00     0.123 A 
ATOM      9  C   UNL     1     -20.340  14.751  -3.078  1.00  0.00     0.094 A 
ATOM     10  C   UNL     1     -19.946  16.050  -2.747  1.00  0.00     0.146 A 
ATOM     11  O   UNL     1     -20.828  16.853  -2.165  1.00  0.00    -0.452 OA
ENDROOT
BRANCH   1  12
ATOM     12  C   UNL     1     -21.635  18.897  -1.174  1.00  0.00     0.025 A 
ATOM     13  C   UNL     1     -21.482  20.275  -0.934  1.00  0.00     0.016 A 
ATOM     14  C   UNL     1     -22.526  21.014  -0.374  1.00  0.00     0.051 A 
ATOM     15  C   UNL     1     -23.742  20.394  -0.059  1.00  0.00     0.157 A 
ATOM     16  C   UNL     1     -22.863  18.285  -0.875  1.00  0.00     0.062 A 
ATOM     17  C   UNL     1     -23.912  19.027  -0.312  1.00  0.00     0.158 A 
BRANCH  15  18
ATOM     18  O   UNL     1     -24.785  21.128   0.501  1.00  0.00    -0.504 OA
ATOM     19  H   UNL     1     -24.648  21.698   1.327  1.00  0.00     0.293 HD
ENDBRANCH  15  18
BRANCH  17  20
ATOM     20  O   UNL     1     -25.125  18.413  -0.004  1.00  0.00    -0.504 OA
ATOM     21  H   UNL     1     -26.010  18.881  -0.157  1.00  0.00     0.293 HD
ENDBRANCH  17  20
ENDBRANCH   1  12
BRANCH   2  22
ATOM     22  O   UNL     1     -18.925  19.875  -1.485  1.00  0.00    -0.502 OA
ATOM     23  H   UNL     1     -18.650  20.630  -2.101  1.00  0.00     0.293 HD
ENDBRANCH   2  22
BRANCH   6  24
ATOM     24  O   UNL     1     -16.454  15.966  -4.126  1.00  0.00    -0.507 OA
ATOM     25  H   UNL     1     -16.253  16.698  -4.790  1.00  0.00     0.293 HD
ENDBRANCH   6  24
BRANCH   8  26
ATOM     26  O   UNL     1     -19.822  12.570  -3.994  1.00  0.00    -0.508 OA
ATOM     27  H   UNL     1     -20.040  11.892  -3.273  1.00  0.00     0.293 HD
ENDBRANCH   8  26
TORSDOF 6
ENDMDL
MODEL 3
REMARK VINA RESULT:    -6.127      2.647      3.277
REMARK INTER + INTRA:          -7.491
REMARK INTER:                  -7.174
REMARK INTRA:                  -0.316
REMARK UNBOUND:                -0.110
REMARK SMILES O=c1c(O)c(-c2ccc(O)c(O)c2)oc2cc(O)cc(O)c12
REMARK SMILES IDX 5 1 3 2 2 3 1 4 22 5 20 6 19 7 17 8 16 9 15 10 14 11 6 12
REMARK SMILES IDX 7 13 8 14 9 15 13 16 11 17 10 18 12 20 4 22 21 24 18 26
REMARK H PARENT 10 19 12 21 4 23 21 25 18 27
REMARK Flexibility Score: inf
ROOT
ATOM      1  C   UNL     1     -18.717  16.342  -1.817  1.00  0.00     0.180 A 
ATOM      2  C   UNL     1     -18.753  15.498  -0.694  1.00  0.00     0.208 A 
ATOM      3  C   UNL     1     -18.037  14.291  -0.726  1.00  0.00     0.238 A 
ATOM      4  O   UNL     1     -18.118  13.514   0.261  1.00  0.00    -0.285 OA
ATOM      5  C   UNL     1     -17.281  13.951  -1.873  1.00  0.00     0.111 A 
ATOM      6  C   UNL     1     -16.485  12.773  -1.999  1.00  0.00     0.134 A 
ATOM      7  C   UNL     1     -15.884  12.474  -3.228  1.00  0.00     0.093 A 
ATOM      8  C   UNL     1     -15.994  13.341  -4.314  1.00  0.00     0.123 A 
ATOM      9  C   UNL     1     -16.719  14.525  -4.184  1.00  0.00     0.094 A 
ATOM     10  C   UNL     1     -17.362  14.834  -2.982  1.00  0.00     0.146 A 
ATOM     11  O   UNL     1     -18.051  15.965  -2.903  1.00  0.00    -0.452 OA
ENDROOT
BRANCH   1  12
ATOM     12  C   UNL     1     -19.425  17.643  -1.849  1.00  0.00     0.025 A 
ATOM     13  C   UNL     1     -20.782  17.729  -2.209  1.00  0.00     0.016 A 
ATOM     14  C   UNL     1     -21.435  18.964  -2.210  1.00  0.00     0.051 A 
ATOM     15  C   UNL     1     -20.748  20.127  -1.839  1.00  0.00     0.157 A 
ATOM     16  C   UNL     1     -18.747  18.810  -1.459  1.00  0.00     0.062 A 
ATOM     17  C   UNL     1     -19.403  20.049  -1.460  1.00  0.00     0.158 A 
BRANCH  15  18
ATOM     18  O   UNL     1     -21.397  21.360  -1.840  1.00  0.00    -0.504 OA
ATOM     19  H   UNL     1     -21.885  21.704  -1.022  1.00  0.00     0.293 HD
ENDBRANCH  15  18
BRANCH  17  20
ATOM     20  O   UNL     1     -18.723  21.207  -1.084  1.00  0.00    -0.504 OA
ATOM     21  H   UNL     1     -19.090  21.831  -0.375  1.00  0.00     0.293 HD
ENDBRANCH  17  20
ENDBRANCH   1  12
BRANCH   2  22
ATOM     22  O   UNL     1     -19.524  15.843   0.419  1.00  0.00    -0.502 OA
ATOM     23  H   UNL     1     -19.680  16.805   0.696  1.00  0.00     0.293 HD
ENDBRANCH   2  22
BRANCH   6  24
ATOM     24  O   UNL     1     -16.234  11.885  -0.949  1.00  0.00    -0.507 OA
ATOM     25  H   UNL     1     -15.533  11.159  -0.965  1.00  0.00     0.293 HD
ENDBRANCH   6  24
BRANCH   8  26
ATOM     26  O   UNL     1     -15.368  13.020  -5.517  1.00  0.00    -0.508 OA
ATOM     27  H   UNL     1     -15.169  13.725  -6.216  1.00  0.00     0.293 HD
ENDBRANCH   8  26
TORSDOF 6
ENDMDL
MODEL 4
REMARK VINA RESULT:    -6.120      2.521      6.815
REMARK INTER + INTRA:          -7.483
REMARK INTER:                  -7.255
REMARK INTRA:                  -0.227
REMARK UNBOUND:                -0.110
REMARK SMILES O=c1c(O)c(-c2ccc(O)c(O)c2)oc2cc(O)cc(O)c12
REMARK SMILES IDX 5 1 3 2 2 3 1 4 22 5 20 6 19 7 17 8 16 9 15 10 14 11 6 12
REMARK SMILES IDX 7 13 8 14 9 15 13 16 11 17 10 18 12 20 4 22 21 24 18 26
REMARK H PARENT 10 19 12 21 4 23 21 25 18 27
REMARK Flexibility Score: inf
ROOT
ATOM      1  C   UNL     1     -18.578  16.948  -2.402  1.00  0.00     0.180 A 
ATOM      2  C   UNL     1     -17.884  18.141  -2.136  1.00  0.00     0.208 A 
ATOM      3  C   UNL     1     -18.594  19.243  -1.631  1.00  0.00     0.238 A 
ATOM      4  O   UNL     1     -17.978  20.325  -1.447  1.00  0.00    -0.285 OA
ATOM      5  C   UNL     1     -19.983  19.134  -1.385  1.00  0.00     0.111 A 
ATOM      6  C   UNL     1     -20.793  20.173  -0.837  1.00  0.00     0.134 A 
ATOM      7  C   UNL     1     -22.181  19.998  -0.758  1.00  0.00     0.093 A 
ATOM      8  C   UNL     1     -22.779  18.800  -1.144  1.00  0.00     0.123 A 
ATOM      9  C   UNL     1     -21.990  17.755  -1.624  1.00  0.00     0.094 A 
ATOM     10  C   UNL     1     -20.607  17.912  -1.750  1.00  0.00     0.146 A 
ATOM     11  O   UNL     1     -19.893  16.897  -2.222  1.00  0.00    -0.452 OA
ENDROOT
BRANCH   1  12
ATOM     12  C   UNL     1     -17.896  15.736  -2.910  1.00  0.00     0.025 A 
ATOM     13  C   UNL     1     -17.403  15.671  -4.226  1.00  0.00     0.016 A 
ATOM     14  C   UNL     1     -16.742  14.525  -4.676  1.00  0.00     0.051 A 
ATOM     15  C   UNL     1     -16.551  13.435  -3.817  1.00  0.00     0.157 A 
ATOM     16  C   UNL     1     -17.683  14.648  -2.047  1.00  0.00     0.062 A 
ATOM     17  C   UNL     1     -17.020  13.499  -2.499  1.00  0.00     0.158 A 
BRANCH  15  18
ATOM     18  O   UNL     1     -15.893  12.291  -4.264  1.00  0.00    -0.504 OA
ATOM     19  H   UNL     1     -16.368  11.591  -4.821  1.00  0.00     0.293 HD
ENDBRANCH  15  18
BRANCH  17  20
ATOM     20  O   UNL     1     -16.822  12.416  -1.643  1.00  0.00    -0.504 OA
ATOM     21  H   UNL     1     -15.981  11.853  -1.685  1.00  0.00     0.293 HD
ENDBRANCH  17  20
ENDBRANCH   1  12
BRANCH   2  22
ATOM     22  O   UNL     1     -16.517  18.235  -2.407  1.00  0.00    -0.502 OA
ATOM     23  H   UNL     1     -16.144  18.170  -3.346  1.00  0.00     0.293 HD
ENDBRANCH   2  22
BRANCH   6  24
ATOM     24  O   UNL     1     -20.286  21.376  -0.336  1.00  0.00    -0.507 OA
ATOM     25  H   UNL     1     -19.987  21.521   0.617  1.00  0.00     0.293 HD
ENDBRANCH   6  24
BRANCH   8  26
ATOM     26  O   UNL     1     -24.160  18.655  -1.036  1.00  0.00    -0.508 OA
ATOM     27  H   UNL     1     -24.618  17.772  -1.230  1.00  0.00     0.293 HD
ENDBRANCH   8  26
TORSDOF 6
ENDMDL
MODEL 5
REMARK VINA RESULT:    -6.067      1.126      2.863
REMARK INTER + INTRA:          -7.418
REMARK INTER:                  -7.381
REMARK INTRA:                  -0.036
REMARK UNBOUND:                -0.110
REMARK SMILES O=c1c(O)c(-c2ccc(O)c(O)c2)oc2cc(O)cc(O)c12
REMARK SMILES IDX 5 1 3 2 2 3 1 4 22 5 20 6 19 7 17 8 16 9 15 10 14 11 6 12
REMARK SMILES IDX 7 13 8 14 9 15 13 16 11 17 10 18 12 20 4 22 21 24 18 26
REMARK H PARENT 10 19 12 21 4 23 21 25 18 27
REMARK Flexibility Score: inf
ROOT
ATOM      1  C   UNL     1     -21.245  16.784  -2.248  1.00  0.00     0.180 A 
ATOM      2  C   UNL     1     -22.262  15.898  -2.642  1.00  0.00     0.208 A 
ATOM      3  C   UNL     1     -21.909  14.623  -3.112  1.00  0.00     0.238 A 
ATOM      4  O   UNL     1     -22.821  13.854  -3.515  1.00  0.00    -0.285 OA
ATOM      5  C   UNL     1     -20.547  14.244  -3.167  1.00  0.00     0.111 A 
ATOM      6  C   UNL     1     -20.078  12.963  -3.588  1.00  0.00     0.134 A 
ATOM      7  C   UNL     1     -18.702  12.743  -3.727  1.00  0.00     0.093 A 
ATOM      8  C   UNL     1     -17.777  13.733  -3.398  1.00  0.00     0.123 A 
ATOM      9  C   UNL     1     -18.222  14.969  -2.928  1.00  0.00     0.094 A 
ATOM     10  C   UNL     1     -19.590  15.232  -2.814  1.00  0.00     0.146 A 
ATOM     11  O   UNL     1     -19.972  16.424  -2.373  1.00  0.00    -0.452 OA
ENDROOT
BRANCH   1  12
ATOM     12  C   UNL     1     -21.538  18.136  -1.718  1.00  0.00     0.025 A 
ATOM     13  C   UNL     1     -22.455  18.328  -0.669  1.00  0.00     0.016 A 
ATOM     14  C   UNL     1     -22.698  19.609  -0.169  1.00  0.00     0.051 A 
ATOM     15  C   UNL     1     -22.020  20.715  -0.699  1.00  0.00     0.157 A 
ATOM     16  C   UNL     1     -20.847  19.246  -2.232  1.00  0.00     0.062 A 
ATOM     17  C   UNL     1     -21.091  20.532  -1.730  1.00  0.00     0.158 A 
BRANCH  15  18
ATOM     18  O   UNL     1     -22.262  21.995  -0.204  1.00  0.00    -0.504 OA
ATOM     19  H   UNL     1     -23.072  22.531  -0.493  1.00  0.00     0.293 HD
ENDBRANCH  15  18
BRANCH  17  20
ATOM     20  O   UNL     1     -20.413  21.633  -2.252  1.00  0.00    -0.504 OA
ATOM     21  H   UNL     1     -20.396  22.523  -1.768  1.00  0.00     0.293 HD
ENDBRANCH  17  20
ENDBRANCH   1  12
BRANCH   2  22
ATOM     22  O   UNL     1     -23.599  16.300  -2.601  1.00  0.00    -0.502 OA
ATOM     23  H   UNL     1     -24.366  15.653  -2.735  1.00  0.00     0.293 HD
ENDBRANCH   2  22
BRANCH   6  24
ATOM     24  O   UNL     1     -20.914  11.875  -3.854  1.00  0.00    -0.507 OA
ATOM     25  H   UNL     1     -21.907  11.856  -3.677  1.00  0.00     0.293 HD
ENDBRANCH   6  24
BRANCH   8  26
ATOM     26  O   UNL     1     -16.415  13.474  -3.532  1.00  0.00    -0.508 OA
ATOM     27  H   UNL     1     -16.064  12.827  -4.229  1.00  0.00     0.293 HD
ENDBRANCH   8  26
TORSDOF 6
ENDMDL
MODEL 6
REMARK VINA RESULT:    -5.908      2.129      7.369
REMARK INTER + INTRA:          -7.227
REMARK INTER:                  -6.981
REMARK INTRA:                  -0.246
REMARK UNBOUND:                -0.110
REMARK SMILES O=c1c(O)c(-c2ccc(O)c(O)c2)oc2cc(O)cc(O)c12
REMARK SMILES IDX 5 1 3 2 2 3 1 4 22 5 20 6 19 7 17 8 16 9 15 10 14 11 6 12
REMARK SMILES IDX 7 13 8 14 9 15 13 16 11 17 10 18 12 20 4 22 21 24 18 26
REMARK H PARENT 10 19 12 21 4 23 21 25 18 27
REMARK Flexibility Score: inf
ROOT
ATOM      1  C   UNL     1     -19.292  16.808  -2.328  1.00  0.00     0.180 A 
ATOM      2  C   UNL     1     -20.686  16.657  -2.239  1.00  0.00     0.208 A 
ATOM      3  C   UNL     1     -21.461  17.741  -1.796  1.00  0.00     0.238 A 
ATOM      4  O   UNL     1     -22.703  17.583  -1.666  1.00  0.00    -0.285 OA
ATOM      5  C   UNL     1     -20.834  18.966  -1.462  1.00  0.00     0.111 A 
ATOM      6  C   UNL     1     -21.525  20.141  -1.041  1.00  0.00     0.134 A 
ATOM      7  C   UNL     1     -20.794  21.255  -0.611  1.00  0.00     0.093 A 
ATOM      8  C   UNL     1     -19.400  21.261  -0.650  1.00  0.00     0.123 A 
ATOM      9  C   UNL     1     -18.715  20.139  -1.117  1.00  0.00     0.094 A 
ATOM     10  C   UNL     1     -19.416  18.998  -1.517  1.00  0.00     0.146 A 
ATOM     11  O   UNL     1     -18.727  17.947  -1.945  1.00  0.00    -0.452 OA
ENDROOT
BRANCH   1  12
ATOM     12  C   UNL     1     -18.411  15.720  -2.810  1.00  0.00     0.025 A 
ATOM     13  C   UNL     1     -17.795  15.782  -4.074  1.00  0.00     0.016 A 
ATOM     14  C   UNL     1     -16.949  14.754  -4.498  1.00  0.00     0.051 A 
ATOM     15  C   UNL     1     -16.694  13.658  -3.663  1.00  0.00     0.157 A 
ATOM     16  C   UNL     1     -18.135  14.628  -1.970  1.00  0.00     0.062 A 
ATOM     17  C   UNL     1     -17.286  13.597  -2.396  1.00  0.00     0.158 A 
BRANCH  15  18
ATOM     18  O   UNL     1     -15.852  12.631  -4.085  1.00  0.00    -0.504 OA
ATOM     19  H   UNL     1     -15.559  11.894  -3.456  1.00  0.00     0.293 HD
ENDBRANCH  15  18
BRANCH  17  20
ATOM     20  O   UNL     1     -17.026  12.508  -1.565  1.00  0.00    -0.504 OA
ATOM     21  H   UNL     1     -16.297  12.540  -0.862  1.00  0.00     0.293 HD
ENDBRANCH  17  20
ENDBRANCH   1  12
BRANCH   2  22
ATOM     22  O   UNL     1     -21.282  15.433  -2.552  1.00  0.00    -0.502 OA
ATOM     23  H   UNL     1     -20.802  14.713  -3.077  1.00  0.00     0.293 HD
ENDBRANCH   2  22
BRANCH   6  24
ATOM     24  O   UNL     1     -22.917  20.275  -1.051  1.00  0.00    -0.507 OA
ATOM     25  H   UNL     1     -23.515  20.113  -0.255  1.00  0.00     0.293 HD
ENDBRANCH   6  24
BRANCH   8  26
ATOM     26  O   UNL     1     -18.704  22.393  -0.231  1.00  0.00    -0.508 OA
ATOM     27  H   UNL     1     -18.883  22.822   0.669  1.00  0.00     0.293 HD
ENDBRANCH   8  26
TORSDOF 6
ENDMDL
MODEL 7
REMARK VINA RESULT:    -5.827      2.135      3.571
REMARK INTER + INTRA:          -7.129
REMARK INTER:                  -6.799
REMARK INTRA:                  -0.330
REMARK UNBOUND:                -0.110
REMARK SMILES O=c1c(O)c(-c2ccc(O)c(O)c2)oc2cc(O)cc(O)c12
REMARK SMILES IDX 5 1 3 2 2 3 1 4 22 5 20 6 19 7 17 8 16 9 15 10 14 11 6 12
REMARK SMILES IDX 7 13 8 14 9 15 13 16 11 17 10 18 12 20 4 22 21 24 18 26
REMARK H PARENT 10 19 12 21 4 23 21 25 18 27
REMARK Flexibility Score: inf
ROOT
ATOM      1  C   UNL     1     -21.972  16.878  -1.589  1.00  0.00     0.180 A 
ATOM      2  C   UNL     1     -23.288  16.596  -1.185  1.00  0.00     0.208 A 
ATOM      3  C   UNL     1     -23.898  15.412  -1.628  1.00  0.00     0.238 A 
ATOM      4  O   UNL     1     -25.095  15.192  -1.308  1.00  0.00    -0.285 OA
ATOM      5  C   UNL     1     -23.180  14.518  -2.458  1.00  0.00     0.111 A 
ATOM      6  C   UNL     1     -23.686  13.270  -2.933  1.00  0.00     0.134 A 
ATOM      7  C   UNL     1     -22.936  12.528  -3.854  1.00  0.00     0.093 A 
ATOM      8  C   UNL     1     -21.674  12.953  -4.266  1.00  0.00     0.123 A 
ATOM      9  C   UNL     1     -21.144  14.140  -3.761  1.00  0.00     0.094 A 
ATOM     10  C   UNL     1     -21.883  14.923  -2.869  1.00  0.00     0.146 A 
ATOM     11  O   UNL     1     -21.348  16.051  -2.421  1.00  0.00    -0.452 OA
ENDROOT
BRANCH   1  12
ATOM     12  C   UNL     1     -21.253  18.092  -1.142  1.00  0.00     0.025 A 
ATOM     13  C   UNL     1     -20.468  18.091   0.026  1.00  0.00     0.016 A 
ATOM     14  C   UNL     1     -19.780  19.242   0.415  1.00  0.00     0.051 A 
ATOM     15  C   UNL     1     -19.852  20.406  -0.362  1.00  0.00     0.157 A 
ATOM     16  C   UNL     1     -21.305  19.256  -1.927  1.00  0.00     0.062 A 
ATOM     17  C   UNL     1     -20.614  20.412  -1.536  1.00  0.00     0.158 A 
BRANCH  15  18
ATOM     18  O   UNL     1     -19.168  21.557   0.025  1.00  0.00    -0.504 OA
ATOM     19  H   UNL     1     -18.217  21.516   0.373  1.00  0.00     0.293 HD
ENDBRANCH  15  18
BRANCH  17  20
ATOM     20  O   UNL     1     -20.680  21.570  -2.311  1.00  0.00    -0.504 OA
ATOM     21  H   UNL     1     -21.429  21.721  -2.976  1.00  0.00     0.293 HD
ENDBRANCH  17  20
ENDBRANCH   1  12
BRANCH   2  22
ATOM     22  O   UNL     1     -23.986  17.503  -0.384  1.00  0.00    -0.502 OA
ATOM     23  H   UNL     1     -24.829  17.250   0.117  1.00  0.00     0.293 HD
ENDBRANCH   2  22
BRANCH   6  24
ATOM     24  O   UNL     1     -24.896  12.708  -2.516  1.00  0.00    -0.507 OA
ATOM     25  H   UNL     1     -25.806  12.998  -2.839  1.00  0.00     0.293 HD
ENDBRANCH   6  24
BRANCH   8  26
ATOM     26  O   UNL     1     -20.949  12.180  -5.170  1.00  0.00    -0.508 OA
ATOM     27  H   UNL     1     -20.482  11.327  -4.885  1.00  0.00     0.293 HD
ENDBRANCH   8  26
TORSDOF 6
ENDMDL
MODEL 8
REMARK VINA RESULT:    -5.611      2.469      2.679
REMARK INTER + INTRA:          -6.868
REMARK INTER:                  -6.578
REMARK INTRA:                  -0.291
REMARK UNBOUND:                -0.110
REMARK SMILES O=c1c(O)c(-c2ccc(O)c(O)c2)oc2cc(O)cc(O)c12
REMARK SMILES IDX 5 1 3 2 2 3 1 4 22 5 20 6 19 7 17 8 16 9 15 10 14 11 6 12
REMARK SMILES IDX 7 13 8 14 9 15 13 16 11 17 10 18 12 20 4 22 21 24 18 26
REMARK H PARENT 10 19 12 21 4 23 21 25 18 27
REMARK Flexibility Score: inf
ROOT
ATOM      1  C   UNL     1     -18.862  17.370  -1.986  1.00  0.00     0.180 A 
ATOM      2  C   UNL     1     -17.931  17.202  -3.026  1.00  0.00     0.208 A 
ATOM      3  C   UNL     1     -17.356  15.937  -3.225  1.00  0.00     0.238 A 
ATOM      4  O   UNL     1     -16.482  15.805  -4.122  1.00  0.00    -0.285 OA
ATOM      5  C   UNL     1     -17.729  14.854  -2.394  1.00  0.00     0.111 A 
ATOM      6  C   UNL     1     -17.239  13.520  -2.533  1.00  0.00     0.134 A 
ATOM      7  C   UNL     1     -17.577  12.558  -1.573  1.00  0.00     0.093 A 
ATOM      8  C   UNL     1     -18.438  12.862  -0.519  1.00  0.00     0.123 A 
ATOM      9  C   UNL     1     -18.971  14.147  -0.409  1.00  0.00     0.094 A 
ATOM     10  C   UNL     1     -18.623  15.139  -1.329  1.00  0.00     0.146 A 
ATOM     11  O   UNL     1     -19.143  16.351  -1.182  1.00  0.00    -0.452 OA
ENDROOT
BRANCH   1  12
ATOM     12  C   UNL     1     -19.531  18.666  -1.729  1.00  0.00     0.025 A 
ATOM     13  C   UNL     1     -20.854  18.903  -2.144  1.00  0.00     0.016 A 
ATOM     14  C   UNL     1     -21.473  20.125  -1.870  1.00  0.00     0.051 A 
ATOM     15  C   UNL     1     -20.786  21.123  -1.166  1.00  0.00     0.157 A 
ATOM     16  C   UNL     1     -18.855  19.663  -1.007  1.00  0.00     0.062 A 
ATOM     17  C   UNL     1     -19.475  20.890  -0.732  1.00  0.00     0.158 A 
BRANCH  15  18
ATOM     18  O   UNL     1     -21.400  22.343  -0.893  1.00  0.00    -0.504 OA
ATOM     19  H   UNL     1     -21.524  23.046  -1.611  1.00  0.00     0.293 HD
ENDBRANCH  15  18
BRANCH  17  20
ATOM     20  O   UNL     1     -18.796  21.882  -0.026  1.00  0.00    -0.504 OA
ATOM     21  H   UNL     1     -18.725  21.860   0.985  1.00  0.00     0.293 HD
ENDBRANCH  17  20
ENDBRANCH   1  12
BRANCH   2  22
ATOM     22  O   UNL     1     -17.561  18.290  -3.820  1.00  0.00    -0.502 OA
ATOM     23  H   UNL     1     -18.170  18.677  -4.531  1.00  0.00     0.293 HD
ENDBRANCH   2  22
BRANCH   6  24
ATOM     24  O   UNL     1     -16.447  13.086  -3.599  1.00  0.00    -0.507 OA
ATOM     25  H   UNL     1     -15.738  12.372  -3.535  1.00  0.00     0.293 HD
ENDBRANCH   6  24
BRANCH   8  26
ATOM     26  O   UNL     1     -18.767  11.875   0.407  1.00  0.00    -0.508 OA
ATOM     27  H   UNL     1     -19.155  10.985   0.119  1.00  0.00     0.293 HD
ENDBRANCH   8  26
TORSDOF 6
ENDMDL
