MODEL 1
REMARK VINA RESULT:    -3.620      0.000      0.000
REMARK INTER + INTRA:         -14.353
REMARK INTER:                  -9.122
REMARK INTRA:                  -5.231
REMARK UNBOUND:                -5.231
REMARK SMILES CCCCCCCCCCCCCCCCCCCCCCCCCCCC(=O)[O-]
REMARK SMILES IDX 15 1 16 2 17 3 18 4 19 5 20 6 21 7 22 8 23 9 24 10 25 11
REMARK SMILES IDX 26 12 27 13 28 14 29 15 30 16 14 17 13 18 12 19 11 20 10 21
REMARK SMILES IDX 9 22 8 23 7 24 6 25 5 26 4 27 3 28 2 29 1 30
REMARK H PARENT
REMARK Flexibility Score: inf
ROOT
ATOM      1  C   UNL     1      33.060   6.594  41.266  1.00  0.00     0.000 C 
ENDROOT
BRANCH   1   2
ATOM      2  C   UNL     1      32.854   7.178  42.673  1.00  0.00     0.000 C 
BRANCH   2   3
ATOM      3  C   UNL     1      32.332   6.136  43.677  1.00  0.00     0.000 C 
BRANCH   3   4
ATOM      4  C   UNL     1      33.064   6.206  45.028  1.00  0.00     0.000 C 
BRANCH   4   5
ATOM      5  C   UNL     1      33.746   7.564  45.255  1.00  0.00     0.000 C 
BRANCH   5   6
ATOM      6  C   UNL     1      33.105   8.319  46.431  1.00  0.00     0.000 C 
BRANCH   6   7
ATOM      7  C   UNL     1      32.327   9.571  45.984  1.00  0.00     0.000 C 
BRANCH   7   8
ATOM      8  C   UNL     1      30.809   9.369  45.793  1.00  0.00     0.000 C 
BRANCH   8   9
ATOM      9  C   UNL     1      30.170   8.338  46.741  1.00  0.00     0.000 C 
BRANCH   9  10
ATOM     10  C   UNL     1      29.652   7.095  45.998  1.00  0.00     0.000 C 
BRANCH  10  11
ATOM     11  C   UNL     1      29.899   5.797  46.789  1.00  0.00     0.000 C 
BRANCH  11  12
ATOM     12  C   UNL     1      30.451   6.039  48.207  1.00  0.00     0.006 C 
BRANCH  12  13
ATOM     13  C   UNL     1      31.822   5.384  48.452  1.00  0.00     0.053 C 
BRANCH  13  14
ATOM     14  C   UNL     1      31.696   4.087  49.192  1.00  0.00     0.041 C 
ATOM     15  O   UNL     1      32.552   3.181  49.027  1.00  0.00    -0.550 OA
ATOM     16  O   UNL     1      30.623   3.876  50.051  1.00  0.00    -0.550 OA
ENDBRANCH  13  14
ENDBRANCH  12  13
ENDBRANCH  11  12
ENDBRANCH  10  11
ENDBRANCH   9  10
ENDBRANCH   8   9
ENDBRANCH   7   8
ENDBRANCH   6   7
ENDBRANCH   5   6
ENDBRANCH   4   5
ENDBRANCH   3   4
ENDBRANCH   2   3
ENDBRANCH   1   2
BRANCH   1  17
ATOM     17  C   UNL     1      32.217   5.331  41.028  1.00  0.00     0.000 C 
BRANCH  17  18
ATOM     18  C   UNL     1      31.606   5.327  39.617  1.00  0.00     0.000 C 
BRANCH  18  19
ATOM     19  C   UNL     1      31.709   6.699  38.922  1.00  0.00     0.000 C 
BRANCH  19  20
ATOM     20  C   UNL     1      30.370   7.264  38.407  1.00  0.00     0.000 C 
BRANCH  20  21
ATOM     21  C   UNL     1      30.410   8.745  37.985  1.00  0.00     0.000 C 
BRANCH  21  22
ATOM     22  C   UNL     1      29.574   9.668  38.899  1.00  0.00    -0.000 C 
BRANCH  22  23
ATOM     23  C   UNL     1      28.928   8.912  40.068  1.00  0.00    -0.000 C 
BRANCH  23  24
ATOM     24  C   UNL     1      29.564   9.329  41.401  1.00  0.00    -0.000 C 
BRANCH  24  25
ATOM     25  C   UNL     1      29.326   8.274  42.486  1.00  0.00    -0.000 C 
BRANCH  25  26
ATOM     26  C   UNL     1      29.161   6.881  41.858  1.00  0.00    -0.000 C 
BRANCH  26  27
ATOM     27  C   UNL     1      28.557   5.855  42.831  1.00  0.00    -0.000 C 
BRANCH  27  28
ATOM     28  C   UNL     1      28.563   4.400  42.325  1.00  0.00    -0.000 C 
BRANCH  28  29
ATOM     29  C   UNL     1      27.664   4.164  41.093  1.00  0.00    -0.003 C 
ATOM     30  C   UNL     1      26.239   4.671  41.308  1.00  0.00     0.004 C 
ENDBRANCH  28  29
ENDBRANCH  27  28
ENDBRANCH  26  27
ENDBRANCH  25  26
ENDBRANCH  24  25
ENDBRANCH  23  24
ENDBRANCH  22  23
ENDBRANCH  21  22
ENDBRANCH  20  21
ENDBRANCH  19  20
ENDBRANCH  18  19
ENDBRANCH  17  18
ENDBRANCH   1  17
TORSDOF 26
ENDMDL
MODEL 2
REMARK VINA RESULT:    -3.580      4.253      7.248
REMARK INTER + INTRA:         -14.254
REMARK INTER:                  -9.990
REMARK INTRA:                  -4.264
REMARK UNBOUND:                -5.231
REMARK SMILES CCCCCCCCCCCCCCCCCCCCCCCCCCCC(=O)[O-]
REMARK SMILES IDX 15 1 16 2 17 3 18 4 19 5 20 6 21 7 22 8 23 9 24 10 25 11
REMARK SMILES IDX 26 12 27 13 28 14 29 15 30 16 14 17 13 18 12 19 11 20 10 21
REMARK SMILES IDX 9 22 8 23 7 24 6 25 5 26 4 27 3 28 2 29 1 30
REMARK H PARENT
REMARK Flexibility Score: inf
ROOT
ATOM      1  C   UNL     1      34.825   4.645  41.191  1.00  0.00     0.000 C 
ENDROOT
BRANCH   1   2
ATOM      2  C   UNL     1      33.390   5.119  41.473  1.00  0.00     0.000 C 
BRANCH   2   3
ATOM      3  C   UNL     1      32.576   5.344  40.187  1.00  0.00     0.000 C 
BRANCH   3   4
ATOM      4  C   UNL     1      31.806   6.675  40.207  1.00  0.00     0.000 C 
BRANCH   4   5
ATOM      5  C   UNL     1      30.363   6.525  39.700  1.00  0.00     0.000 C 
BRANCH   5   6
ATOM      6  C   UNL     1      29.360   7.149  40.684  1.00  0.00     0.000 C 
BRANCH   6   7
ATOM      7  C   UNL     1      29.004   6.208  41.851  1.00  0.00     0.000 C 
BRANCH   7   8
ATOM      8  C   UNL     1      29.023   4.703  41.512  1.00  0.00     0.000 C 
BRANCH   8   9
ATOM      9  C   UNL     1      27.732   4.170  40.864  1.00  0.00     0.000 C 
BRANCH   9  10
ATOM     10  C   UNL     1      26.464   4.762  41.502  1.00  0.00     0.000 C 
BRANCH  10  11
ATOM     11  C   UNL     1      25.220   4.574  40.614  1.00  0.00     0.000 C 
BRANCH  11  12
ATOM     12  C   UNL     1      25.341   3.391  39.633  1.00  0.00     0.006 C 
BRANCH  12  13
ATOM     13  C   UNL     1      24.498   2.169  40.037  1.00  0.00     0.053 C 
BRANCH  13  14
ATOM     14  C   UNL     1      23.117   2.229  39.458  1.00  0.00     0.041 C 
ATOM     15  O   UNL     1      22.928   1.939  38.249  1.00  0.00    -0.550 OA
ATOM     16  O   UNL     1      22.045   2.620  40.251  1.00  0.00    -0.550 OA
ENDBRANCH  13  14
ENDBRANCH  12  13
ENDBRANCH  11  12
ENDBRANCH  10  11
ENDBRANCH   9  10
ENDBRANCH   8   9
ENDBRANCH   7   8
ENDBRANCH   6   7
ENDBRANCH   5   6
ENDBRANCH   4   5
ENDBRANCH   3   4
ENDBRANCH   2   3
ENDBRANCH   1   2
BRANCH   1  17
ATOM     17  C   UNL     1      35.000   4.133  39.752  1.00  0.00     0.000 C 
BRANCH  17  18
ATOM     18  C   UNL     1      36.443   4.332  39.262  1.00  0.00     0.000 C 
BRANCH  18  19
ATOM     19  C   UNL     1      36.812   5.819  39.093  1.00  0.00     0.000 C 
BRANCH  19  20
ATOM     20  C   UNL     1      35.786   6.655  38.303  1.00  0.00     0.000 C 
BRANCH  20  21
ATOM     21  C   UNL     1      35.284   7.920  39.025  1.00  0.00     0.000 C 
BRANCH  21  22
ATOM     22  C   UNL     1      35.815   8.057  40.468  1.00  0.00    -0.000 C 
BRANCH  22  23
ATOM     23  C   UNL     1      34.739   8.547  41.448  1.00  0.00    -0.000 C 
BRANCH  23  24
ATOM     24  C   UNL     1      35.332   8.747  42.848  1.00  0.00    -0.000 C 
BRANCH  24  25
ATOM     25  C   UNL     1      34.242   8.717  43.925  1.00  0.00    -0.000 C 
BRANCH  25  26
ATOM     26  C   UNL     1      32.850   8.623  43.280  1.00  0.00    -0.000 C 
BRANCH  26  27
ATOM     27  C   UNL     1      31.977   7.520  43.903  1.00  0.00    -0.000 C 
BRANCH  27  28
ATOM     28  C   UNL     1      32.731   6.530  44.810  1.00  0.00    -0.000 C 
BRANCH  28  29
ATOM     29  C   UNL     1      31.872   5.338  45.283  1.00  0.00    -0.003 C 
ATOM     30  C   UNL     1      30.593   5.788  45.987  1.00  0.00     0.004 C 
ENDBRANCH  28  29
ENDBRANCH  27  28
ENDBRANCH  26  27
ENDBRANCH  25  26
ENDBRANCH  24  25
ENDBRANCH  23  24
ENDBRANCH  22  23
ENDBRANCH  21  22
ENDBRANCH  20  21
ENDBRANCH  19  20
ENDBRANCH  18  19
ENDBRANCH  17  18
ENDBRANCH   1  17
TORSDOF 26
ENDMDL
MODEL 3
REMARK VINA RESULT:    -3.567      2.718      6.562
REMARK INTER + INTRA:         -14.220
REMARK INTER:                  -8.856
REMARK INTRA:                  -5.364
REMARK UNBOUND:                -5.231
REMARK SMILES CCCCCCCCCCCCCCCCCCCCCCCCCCCC(=O)[O-]
REMARK SMILES IDX 15 1 16 2 17 3 18 4 19 5 20 6 21 7 22 8 23 9 24 10 25 11
REMARK SMILES IDX 26 12 27 13 28 14 29 15 30 16 14 17 13 18 12 19 11 20 10 21
REMARK SMILES IDX 9 22 8 23 7 24 6 25 5 26 4 27 3 28 2 29 1 30
REMARK H PARENT
REMARK Flexibility Score: inf
ROOT
ATOM      1  C   UNL     1      31.939   5.068  42.203  1.00  0.00     0.000 C 
ENDROOT
BRANCH   1   2
ATOM      2  C   UNL     1      32.165   5.437  40.727  1.00  0.00     0.000 C 
BRANCH   2   3
ATOM      3  C   UNL     1      31.024   4.954  39.814  1.00  0.00     0.000 C 
BRANCH   3   4
ATOM      4  C   UNL     1      30.670   5.981  38.726  1.00  0.00     0.000 C 
BRANCH   4   5
ATOM      5  C   UNL     1      31.214   7.383  39.042  1.00  0.00     0.000 C 
BRANCH   5   6
ATOM      6  C   UNL     1      30.137   8.459  38.828  1.00  0.00     0.000 C 
BRANCH   6   7
ATOM      7  C   UNL     1      29.275   8.699  40.082  1.00  0.00     0.000 C 
BRANCH   7   8
ATOM      8  C   UNL     1      30.009   8.520  41.428  1.00  0.00     0.000 C 
BRANCH   8   9
ATOM      9  C   UNL     1      29.385   7.473  42.370  1.00  0.00     0.000 C 
BRANCH   9  10
ATOM     10  C   UNL     1      28.266   6.664  41.694  1.00  0.00     0.000 C 
BRANCH  10  11
ATOM     11  C   UNL     1      28.031   5.306  42.381  1.00  0.00     0.000 C 
BRANCH  11  12
ATOM     12  C   UNL     1      27.800   4.150  41.388  1.00  0.00     0.006 C 
BRANCH  12  13
ATOM     13  C   UNL     1      26.390   4.142  40.772  1.00  0.00     0.053 C 
BRANCH  13  14
ATOM     14  C   UNL     1      25.324   4.264  41.818  1.00  0.00     0.041 C 
ATOM     15  O   UNL     1      24.863   5.394  42.120  1.00  0.00    -0.550 OA
ATOM     16  O   UNL     1      24.853   3.129  42.468  1.00  0.00    -0.550 OA
ENDBRANCH  13  14
ENDBRANCH  12  13
ENDBRANCH  11  12
ENDBRANCH  10  11
ENDBRANCH   9  10
ENDBRANCH   8   9
ENDBRANCH   7   8
ENDBRANCH   6   7
ENDBRANCH   5   6
ENDBRANCH   4   5
ENDBRANCH   3   4
ENDBRANCH   2   3
ENDBRANCH   1   2
BRANCH   1  17
ATOM     17  C   UNL     1      32.974   5.720  43.134  1.00  0.00     0.000 C 
BRANCH  17  18
ATOM     18  C   UNL     1      33.406   7.098  42.609  1.00  0.00     0.000 C 
BRANCH  18  19
ATOM     19  C   UNL     1      33.103   8.234  43.606  1.00  0.00     0.000 C 
BRANCH  19  20
ATOM     20  C   UNL     1      34.007   8.256  44.855  1.00  0.00     0.000 C 
BRANCH  20  21
ATOM     21  C   UNL     1      33.435   9.029  46.058  1.00  0.00     0.000 C 
BRANCH  21  22
ATOM     22  C   UNL     1      32.747  10.355  45.666  1.00  0.00    -0.000 C 
BRANCH  22  23
ATOM     23  C   UNL     1      31.302  10.444  46.180  1.00  0.00    -0.000 C 
BRANCH  23  24
ATOM     24  C   UNL     1      30.330   9.818  45.173  1.00  0.00    -0.000 C 
BRANCH  24  25
ATOM     25  C   UNL     1      29.276   8.956  45.877  1.00  0.00    -0.000 C 
BRANCH  25  26
ATOM     26  C   UNL     1      29.950   7.847  46.702  1.00  0.00    -0.000 C 
BRANCH  26  27
ATOM     27  C   UNL     1      30.537   6.727  45.827  1.00  0.00    -0.000 C 
BRANCH  27  28
ATOM     28  C   UNL     1      31.443   5.729  46.573  1.00  0.00    -0.000 C 
BRANCH  28  29
ATOM     29  C   UNL     1      31.893   6.216  47.967  1.00  0.00    -0.003 C 
ATOM     30  C   UNL     1      31.498   5.243  49.077  1.00  0.00     0.004 C 
ENDBRANCH  28  29
ENDBRANCH  27  28
ENDBRANCH  26  27
ENDBRANCH  25  26
ENDBRANCH  24  25
ENDBRANCH  23  24
ENDBRANCH  22  23
ENDBRANCH  21  22
ENDBRANCH  20  21
ENDBRANCH  19  20
ENDBRANCH  18  19
ENDBRANCH  17  18
ENDBRANCH   1  17
TORSDOF 26
ENDMDL
MODEL 4
REMARK VINA RESULT:    -3.522      1.375      3.113
REMARK INTER + INTRA:         -14.107
REMARK INTER:                  -8.868
REMARK INTRA:                  -5.238
REMARK UNBOUND:                -5.231
REMARK SMILES CCCCCCCCCCCCCCCCCCCCCCCCCCCC(=O)[O-]
REMARK SMILES IDX 15 1 16 2 17 3 18 4 19 5 20 6 21 7 22 8 23 9 24 10 25 11
REMARK SMILES IDX 26 12 27 13 28 14 29 15 30 16 14 17 13 18 12 19 11 20 10 21
REMARK SMILES IDX 9 22 8 23 7 24 6 25 5 26 4 27 3 28 2 29 1 30
REMARK H PARENT
REMARK Flexibility Score: inf
ROOT
ATOM      1  C   UNL     1      30.408   5.516  43.621  1.00  0.00     0.000 C 
ENDROOT
BRANCH   1   2
ATOM      2  C   UNL     1      31.138   6.650  42.883  1.00  0.00     0.000 C 
BRANCH   2   3
ATOM      3  C   UNL     1      32.648   6.672  43.176  1.00  0.00     0.000 C 
BRANCH   3   4
ATOM      4  C   UNL     1      33.329   7.947  42.650  1.00  0.00     0.000 C 
BRANCH   4   5
ATOM      5  C   UNL     1      34.051   8.726  43.760  1.00  0.00     0.000 C 
BRANCH   5   6
ATOM      6  C   UNL     1      34.190   7.878  45.035  1.00  0.00     0.000 C 
BRANCH   6   7
ATOM      7  C   UNL     1      33.528   8.532  46.263  1.00  0.00     0.000 C 
BRANCH   7   8
ATOM      8  C   UNL     1      31.985   8.546  46.249  1.00  0.00     0.000 C 
BRANCH   8   9
ATOM      9  C   UNL     1      31.324   7.193  46.575  1.00  0.00     0.000 C 
BRANCH   9  10
ATOM     10  C   UNL     1      29.978   7.355  47.301  1.00  0.00     0.000 C 
BRANCH  10  11
ATOM     11  C   UNL     1      29.688   6.186  48.261  1.00  0.00     0.000 C 
BRANCH  11  12
ATOM     12  C   UNL     1      30.829   5.152  48.330  1.00  0.00     0.006 C 
BRANCH  12  13
ATOM     13  C   UNL     1      31.710   5.293  49.583  1.00  0.00     0.053 C 
BRANCH  13  14
ATOM     14  C   UNL     1      32.302   3.980  49.998  1.00  0.00     0.041 C 
ATOM     15  O   UNL     1      32.684   3.807  51.184  1.00  0.00    -0.550 OA
ATOM     16  O   UNL     1      32.445   2.956  49.070  1.00  0.00    -0.550 OA
ENDBRANCH  13  14
ENDBRANCH  12  13
ENDBRANCH  11  12
ENDBRANCH  10  11
ENDBRANCH   9  10
ENDBRANCH   8   9
ENDBRANCH   7   8
ENDBRANCH   6   7
ENDBRANCH   5   6
ENDBRANCH   4   5
ENDBRANCH   3   4
ENDBRANCH   2   3
ENDBRANCH   1   2
BRANCH   1  17
ATOM     17  C   UNL     1      29.084   5.132  42.941  1.00  0.00     0.000 C 
BRANCH  17  18
ATOM     18  C   UNL     1      28.992   5.725  41.526  1.00  0.00     0.000 C 
BRANCH  18  19
ATOM     19  C   UNL     1      29.013   4.644  40.427  1.00  0.00     0.000 C 
BRANCH  19  20
ATOM     20  C   UNL     1      29.991   4.920  39.268  1.00  0.00     0.000 C 
BRANCH  20  21
ATOM     21  C   UNL     1      31.470   5.039  39.680  1.00  0.00     0.000 C 
BRANCH  21  22
ATOM     22  C   UNL     1      32.101   6.402  39.324  1.00  0.00    -0.000 C 
BRANCH  22  23
ATOM     23  C   UNL     1      31.072   7.403  38.776  1.00  0.00    -0.000 C 
BRANCH  23  24
ATOM     24  C   UNL     1      30.782   8.500  39.807  1.00  0.00    -0.000 C 
BRANCH  24  25
ATOM     25  C   UNL     1      29.302   8.900  39.795  1.00  0.00    -0.000 C 
BRANCH  25  26
ATOM     26  C   UNL     1      28.911   9.560  41.127  1.00  0.00    -0.000 C 
BRANCH  26  27
ATOM     27  C   UNL     1      30.130   9.934  41.988  1.00  0.00    -0.000 C 
BRANCH  27  28
ATOM     28  C   UNL     1      29.883   9.907  43.508  1.00  0.00    -0.000 C 
BRANCH  28  29
ATOM     29  C   UNL     1      28.811   8.887  43.948  1.00  0.00    -0.003 C 
ATOM     30  C   UNL     1      27.843   9.470  44.976  1.00  0.00     0.004 C 
ENDBRANCH  28  29
ENDBRANCH  27  28
ENDBRANCH  26  27
ENDBRANCH  25  26
ENDBRANCH  24  25
ENDBRANCH  23  24
ENDBRANCH  22  23
ENDBRANCH  21  22
ENDBRANCH  20  21
ENDBRANCH  19  20
ENDBRANCH  18  19
ENDBRANCH  17  18
ENDBRANCH   1  17
TORSDOF 26
ENDMDL
MODEL 5
REMARK VINA RESULT:    -3.479     13.073     17.755
REMARK INTER + INTRA:         -13.997
REMARK INTER:                  -9.139
REMARK INTRA:                  -4.858
REMARK UNBOUND:                -5.231
REMARK SMILES CCCCCCCCCCCCCCCCCCCCCCCCCCCC(=O)[O-]
REMARK SMILES IDX 15 1 16 2 17 3 18 4 19 5 20 6 21 7 22 8 23 9 24 10 25 11
REMARK SMILES IDX 26 12 27 13 28 14 29 15 30 16 14 17 13 18 12 19 11 20 10 21
REMARK SMILES IDX 9 22 8 23 7 24 6 25 5 26 4 27 3 28 2 29 1 30
REMARK H PARENT
REMARK Flexibility Score: inf
ROOT
ATOM      1  C   UNL     1      22.682  -2.980  51.161  1.00  0.00     0.000 C 
ENDROOT
BRANCH   1   2
ATOM      2  C   UNL     1      22.442  -4.088  50.121  1.00  0.00     0.000 C 
BRANCH   2   3
ATOM      3  C   UNL     1      20.987  -4.587  50.112  1.00  0.00     0.000 C 
BRANCH   3   4
ATOM      4  C   UNL     1      20.892  -6.118  50.222  1.00  0.00     0.000 C 
BRANCH   4   5
ATOM      5  C   UNL     1      19.457  -6.632  50.026  1.00  0.00     0.000 C 
BRANCH   5   6
ATOM      6  C   UNL     1      19.396  -7.706  48.928  1.00  0.00     0.000 C 
BRANCH   6   7
ATOM      7  C   UNL     1      18.737  -7.197  47.631  1.00  0.00     0.000 C 
BRANCH   7   8
ATOM      8  C   UNL     1      18.389  -5.694  47.617  1.00  0.00     0.000 C 
BRANCH   8   9
ATOM      9  C   UNL     1      19.334  -4.819  46.772  1.00  0.00     0.000 C 
BRANCH   9  10
ATOM     10  C   UNL     1      20.557  -5.598  46.259  1.00  0.00     0.000 C 
BRANCH  10  11
ATOM     11  C   UNL     1      21.845  -4.753  46.295  1.00  0.00     0.000 C 
BRANCH  11  12
ATOM     12  C   UNL     1      21.616  -3.272  45.936  1.00  0.00     0.006 C 
BRANCH  12  13
ATOM     13  C   UNL     1      22.065  -2.296  47.038  1.00  0.00     0.053 C 
BRANCH  13  14
ATOM     14  C   UNL     1      23.469  -1.818  46.820  1.00  0.00     0.041 C 
ATOM     15  O   UNL     1      23.679  -0.736  46.214  1.00  0.00    -0.550 OA
ATOM     16  O   UNL     1      24.542  -2.576  47.273  1.00  0.00    -0.550 OA
ENDBRANCH  13  14
ENDBRANCH  12  13
ENDBRANCH  11  12
ENDBRANCH  10  11
ENDBRANCH   9  10
ENDBRANCH   8   9
ENDBRANCH   7   8
ENDBRANCH   6   7
ENDBRANCH   5   6
ENDBRANCH   4   5
ENDBRANCH   3   4
ENDBRANCH   2   3
ENDBRANCH   1   2
BRANCH   1  17
ATOM     17  C   UNL     1      23.655  -3.416  52.267  1.00  0.00     0.000 C 
BRANCH  17  18
ATOM     18  C   UNL     1      24.112  -4.870  52.066  1.00  0.00     0.000 C 
BRANCH  18  19
ATOM     19  C   UNL     1      23.705  -5.787  53.235  1.00  0.00     0.000 C 
BRANCH  19  20
ATOM     20  C   UNL     1      22.583  -5.229  54.134  1.00  0.00     0.000 C 
BRANCH  20  21
ATOM     21  C   UNL     1      21.184  -5.815  53.866  1.00  0.00     0.000 C 
BRANCH  21  22
ATOM     22  C   UNL     1      20.056  -4.762  53.909  1.00  0.00    -0.000 C 
BRANCH  22  23
ATOM     23  C   UNL     1      20.588  -3.337  54.124  1.00  0.00    -0.000 C 
BRANCH  23  24
ATOM     24  C   UNL     1      19.674  -2.555  55.075  1.00  0.00    -0.000 C 
BRANCH  24  25
ATOM     25  C   UNL     1      20.342  -1.260  55.550  1.00  0.00    -0.000 C 
BRANCH  25  26
ATOM     26  C   UNL     1      21.773  -1.158  55.001  1.00  0.00    -0.000 C 
BRANCH  26  27
ATOM     27  C   UNL     1      22.845  -1.358  56.085  1.00  0.00    -0.000 C 
BRANCH  27  28
ATOM     28  C   UNL     1      24.038  -2.237  55.665  1.00  0.00    -0.000 C 
BRANCH  28  29
ATOM     29  C   UNL     1      24.494  -3.232  56.753  1.00  0.00    -0.003 C 
ATOM     30  C   UNL     1      23.565  -3.232  57.966  1.00  0.00     0.004 C 
ENDBRANCH  28  29
ENDBRANCH  27  28
ENDBRANCH  26  27
ENDBRANCH  25  26
ENDBRANCH  24  25
ENDBRANCH  23  24
ENDBRANCH  22  23
ENDBRANCH  21  22
ENDBRANCH  20  21
ENDBRANCH  19  20
ENDBRANCH  18  19
ENDBRANCH  17  18
ENDBRANCH   1  17
TORSDOF 26
ENDMDL
MODEL 6
REMARK VINA RESULT:    -3.462      2.050      4.544
REMARK INTER + INTRA:         -13.956
REMARK INTER:                  -9.962
REMARK INTRA:                  -3.994
REMARK UNBOUND:                -5.231
REMARK SMILES CCCCCCCCCCCCCCCCCCCCCCCCCCCC(=O)[O-]
REMARK SMILES IDX 15 1 16 2 17 3 18 4 19 5 20 6 21 7 22 8 23 9 24 10 25 11
REMARK SMILES IDX 26 12 27 13 28 14 29 15 30 16 14 17 13 18 12 19 11 20 10 21
REMARK SMILES IDX 9 22 8 23 7 24 6 25 5 26 4 27 3 28 2 29 1 30
REMARK H PARENT
REMARK Flexibility Score: inf
ROOT
ATOM      1  C   UNL     1      30.927   8.575  40.568  1.00  0.00     0.000 C 
ENDROOT
BRANCH   1   2
ATOM      2  C   UNL     1      30.706   7.358  39.655  1.00  0.00     0.000 C 
BRANCH   2   3
ATOM      3  C   UNL     1      31.981   6.516  39.470  1.00  0.00     0.000 C 
BRANCH   3   4
ATOM      4  C   UNL     1      31.819   5.082  40.001  1.00  0.00     0.000 C 
BRANCH   4   5
ATOM      5  C   UNL     1      31.904   5.011  41.534  1.00  0.00     0.000 C 
BRANCH   5   6
ATOM      6  C   UNL     1      33.091   5.832  42.063  1.00  0.00     0.000 C 
BRANCH   6   7
ATOM      7  C   UNL     1      32.983   6.137  43.569  1.00  0.00     0.000 C 
BRANCH   7   8
ATOM      8  C   UNL     1      32.823   7.629  43.928  1.00  0.00     0.000 C 
BRANCH   8   9
ATOM      9  C   UNL     1      31.957   7.906  45.172  1.00  0.00     0.000 C 
BRANCH   9  10
ATOM     10  C   UNL     1      31.744   6.650  46.033  1.00  0.00     0.000 C 
BRANCH  10  11
ATOM     11  C   UNL     1      30.501   6.764  46.935  1.00  0.00     0.000 C 
BRANCH  11  12
ATOM     12  C   UNL     1      30.467   5.718  48.067  1.00  0.00     0.006 C 
BRANCH  12  13
ATOM     13  C   UNL     1      31.851   5.136  48.406  1.00  0.00     0.053 C 
BRANCH  13  14
ATOM     14  C   UNL     1      31.744   3.901  49.248  1.00  0.00     0.041 C 
ATOM     15  O   UNL     1      32.627   3.008  49.172  1.00  0.00    -0.550 OA
ATOM     16  O   UNL     1      30.662   3.731  50.103  1.00  0.00    -0.550 OA
ENDBRANCH  13  14
ENDBRANCH  12  13
ENDBRANCH  11  12
ENDBRANCH  10  11
ENDBRANCH   9  10
ENDBRANCH   8   9
ENDBRANCH   7   8
ENDBRANCH   6   7
ENDBRANCH   5   6
ENDBRANCH   4   5
ENDBRANCH   3   4
ENDBRANCH   2   3
ENDBRANCH   1   2
BRANCH   1  17
ATOM     17  C   UNL     1      29.935   8.614  41.742  1.00  0.00     0.000 C 
BRANCH  17  18
ATOM     18  C   UNL     1      28.957   7.430  41.684  1.00  0.00     0.000 C 
BRANCH  18  19
ATOM     19  C   UNL     1      28.987   6.573  42.965  1.00  0.00     0.000 C 
BRANCH  19  20
ATOM     20  C   UNL     1      28.575   5.101  42.767  1.00  0.00     0.000 C 
BRANCH  20  21
ATOM     21  C   UNL     1      28.153   4.731  41.332  1.00  0.00     0.000 C 
BRANCH  21  22
ATOM     22  C   UNL     1      26.802   3.986  41.260  1.00  0.00    -0.000 C 
BRANCH  22  23
ATOM     23  C   UNL     1      25.606   4.942  41.145  1.00  0.00    -0.000 C 
BRANCH  23  24
ATOM     24  C   UNL     1      24.965   5.177  42.518  1.00  0.00    -0.000 C 
BRANCH  24  25
ATOM     25  C   UNL     1      23.916   4.105  42.834  1.00  0.00    -0.000 C 
BRANCH  25  26
ATOM     26  C   UNL     1      22.627   4.362  42.038  1.00  0.00    -0.000 C 
BRANCH  26  27
ATOM     27  C   UNL     1      22.195   3.151  41.194  1.00  0.00    -0.000 C 
BRANCH  27  28
ATOM     28  C   UNL     1      23.277   2.070  41.010  1.00  0.00    -0.000 C 
BRANCH  28  29
ATOM     29  C   UNL     1      23.802   1.953  39.563  1.00  0.00    -0.003 C 
ATOM     30  C   UNL     1      22.680   1.715  38.555  1.00  0.00     0.004 C 
ENDBRANCH  28  29
ENDBRANCH  27  28
ENDBRANCH  26  27
ENDBRANCH  25  26
ENDBRANCH  24  25
ENDBRANCH  23  24
ENDBRANCH  22  23
ENDBRANCH  21  22
ENDBRANCH  20  21
ENDBRANCH  19  20
ENDBRANCH  18  19
ENDBRANCH  17  18
ENDBRANCH   1  17
TORSDOF 26
ENDMDL
MODEL 7
REMARK VINA RESULT:    -3.439     11.751     15.238
REMARK INTER + INTRA:         -13.898
REMARK INTER:                  -8.715
REMARK INTRA:                  -5.183
REMARK UNBOUND:                -5.231
REMARK SMILES CCCCCCCCCCCCCCCCCCCCCCCCCCCC(=O)[O-]
REMARK SMILES IDX 15 1 16 2 17 3 18 4 19 5 20 6 21 7 22 8 23 9 24 10 25 11
REMARK SMILES IDX 26 12 27 13 28 14 29 15 30 16 14 17 13 18 12 19 11 20 10 21
REMARK SMILES IDX 9 22 8 23 7 24 6 25 5 26 4 27 3 28 2 29 1 30
REMARK H PARENT
REMARK Flexibility Score: inf
ROOT
ATOM      1  C   UNL     1      20.703  -4.571  45.817  1.00  0.00     0.000 C 
ENDROOT
BRANCH   1   2
ATOM      2  C   UNL     1      21.373  -5.694  45.008  1.00  0.00     0.000 C 
BRANCH   2   3
ATOM      3  C   UNL     1      21.202  -7.077  45.660  1.00  0.00     0.000 C 
BRANCH   3   4
ATOM      4  C   UNL     1      22.494  -7.911  45.612  1.00  0.00     0.000 C 
BRANCH   4   5
ATOM      5  C   UNL     1      23.754  -7.036  45.525  1.00  0.00     0.000 C 
BRANCH   5   6
ATOM      6  C   UNL     1      24.305  -6.715  46.924  1.00  0.00     0.000 C 
BRANCH   6   7
ATOM      7  C   UNL     1      24.242  -5.212  47.260  1.00  0.00     0.000 C 
BRANCH   7   8
ATOM      8  C   UNL     1      23.438  -4.856  48.528  1.00  0.00     0.000 C 
BRANCH   8   9
ATOM      9  C   UNL     1      22.309  -5.844  48.877  1.00  0.00     0.000 C 
BRANCH   9  10
ATOM     10  C   UNL     1      22.289  -6.214  50.370  1.00  0.00     0.000 C 
BRANCH  10  11
ATOM     11  C   UNL     1      23.378  -5.474  51.170  1.00  0.00     0.000 C 
BRANCH  11  12
ATOM     12  C   UNL     1      22.810  -4.483  52.205  1.00  0.00     0.006 C 
BRANCH  12  13
ATOM     13  C   UNL     1      23.733  -4.265  53.417  1.00  0.00     0.053 C 
BRANCH  13  14
ATOM     14  C   UNL     1      23.198  -3.215  54.342  1.00  0.00     0.041 C 
ATOM     15  O   UNL     1      23.726  -2.074  54.374  1.00  0.00    -0.550 OA
ATOM     16  O   UNL     1      22.127  -3.504  55.180  1.00  0.00    -0.550 OA
ENDBRANCH  13  14
ENDBRANCH  12  13
ENDBRANCH  11  12
ENDBRANCH  10  11
ENDBRANCH   9  10
ENDBRANCH   8   9
ENDBRANCH   7   8
ENDBRANCH   6   7
ENDBRANCH   5   6
ENDBRANCH   4   5
ENDBRANCH   3   4
ENDBRANCH   2   3
ENDBRANCH   1   2
BRANCH   1  17
ATOM     17  C   UNL     1      21.130  -3.173  45.342  1.00  0.00     0.000 C 
BRANCH  17  18
ATOM     18  C   UNL     1      19.922  -2.229  45.232  1.00  0.00     0.000 C 
BRANCH  18  19
ATOM     19  C   UNL     1      18.615  -2.878  45.730  1.00  0.00     0.000 C 
BRANCH  19  20
ATOM     20  C   UNL     1      18.088  -2.324  47.069  1.00  0.00     0.000 C 
BRANCH  20  21
ATOM     21  C   UNL     1      17.948  -3.368  48.193  1.00  0.00     0.000 C 
BRANCH  21  22
ATOM     22  C   UNL     1      19.290  -3.740  48.860  1.00  0.00    -0.000 C 
BRANCH  22  23
ATOM     23  C   UNL     1      19.846  -2.608  49.736  1.00  0.00    -0.000 C 
BRANCH  23  24
ATOM     24  C   UNL     1      21.163  -2.072  49.159  1.00  0.00    -0.000 C 
BRANCH  24  25
ATOM     25  C   UNL     1      20.968  -0.699  48.508  1.00  0.00    -0.000 C 
BRANCH  25  26
ATOM     26  C   UNL     1      22.134  -0.382  47.559  1.00  0.00    -0.000 C 
BRANCH  26  27
ATOM     27  C   UNL     1      23.379  -1.242  47.835  1.00  0.00    -0.000 C 
BRANCH  27  28
ATOM     28  C   UNL     1      24.448  -1.211  46.726  1.00  0.00    -0.000 C 
BRANCH  28  29
ATOM     29  C   UNL     1      25.886  -1.017  47.252  1.00  0.00    -0.003 C 
ATOM     30  C   UNL     1      26.681  -2.322  47.264  1.00  0.00     0.004 C 
ENDBRANCH  28  29
ENDBRANCH  27  28
ENDBRANCH  26  27
ENDBRANCH  25  26
ENDBRANCH  24  25
ENDBRANCH  23  24
ENDBRANCH  22  23
ENDBRANCH  21  22
ENDBRANCH  20  21
ENDBRANCH  19  20
ENDBRANCH  18  19
ENDBRANCH  17  18
ENDBRANCH   1  17
TORSDOF 26
ENDMDL
MODEL 8
REMARK VINA RESULT:    -3.434     12.771     16.369
REMARK INTER + INTRA:         -13.884
REMARK INTER:                  -9.206
REMARK INTRA:                  -4.678
REMARK UNBOUND:                -5.231
REMARK SMILES CCCCCCCCCCCCCCCCCCCCCCCCCCCC(=O)[O-]
REMARK SMILES IDX 15 1 16 2 17 3 18 4 19 5 20 6 21 7 22 8 23 9 24 10 25 11
REMARK SMILES IDX 26 12 27 13 28 14 29 15 30 16 14 17 13 18 12 19 11 20 10 21
REMARK SMILES IDX 9 22 8 23 7 24 6 25 5 26 4 27 3 28 2 29 1 30
REMARK H PARENT
REMARK Flexibility Score: inf
ROOT
ATOM      1  C   UNL     1      22.210  -3.299  51.855  1.00  0.00     0.000 C 
ENDROOT
BRANCH   1   2
ATOM      2  C   UNL     1      23.560  -3.512  52.560  1.00  0.00     0.000 C 
BRANCH   2   3
ATOM      3  C   UNL     1      24.252  -4.818  52.132  1.00  0.00     0.000 C 
BRANCH   3   4
ATOM      4  C   UNL     1      24.103  -5.932  53.183  1.00  0.00     0.000 C 
BRANCH   4   5
ATOM      5  C   UNL     1      22.893  -6.839  52.907  1.00  0.00     0.000 C 
BRANCH   5   6
ATOM      6  C   UNL     1      22.509  -7.648  54.157  1.00  0.00     0.000 C 
BRANCH   6   7
ATOM      7  C   UNL     1      21.217  -7.139  54.825  1.00  0.00     0.000 C 
BRANCH   7   8
ATOM      8  C   UNL     1      20.666  -5.811  54.263  1.00  0.00     0.000 C 
BRANCH   8   9
ATOM      9  C   UNL     1      20.916  -4.579  55.152  1.00  0.00     0.000 C 
BRANCH   9  10
ATOM     10  C   UNL     1      21.461  -4.955  56.540  1.00  0.00     0.000 C 
BRANCH  10  11
ATOM     11  C   UNL     1      22.443  -3.902  57.087  1.00  0.00     0.000 C 
BRANCH  11  12
ATOM     12  C   UNL     1      23.606  -3.591  56.124  1.00  0.00     0.006 C 
BRANCH  12  13
ATOM     13  C   UNL     1      23.897  -2.087  55.979  1.00  0.00     0.053 C 
BRANCH  13  14
ATOM     14  C   UNL     1      22.637  -1.285  55.861  1.00  0.00     0.041 C 
ATOM     15  O   UNL     1      22.029  -1.224  54.762  1.00  0.00    -0.550 OA
ATOM     16  O   UNL     1      22.146  -0.593  56.962  1.00  0.00    -0.550 OA
ENDBRANCH  13  14
ENDBRANCH  12  13
ENDBRANCH  11  12
ENDBRANCH  10  11
ENDBRANCH   9  10
ENDBRANCH   8   9
ENDBRANCH   7   8
ENDBRANCH   6   7
ENDBRANCH   5   6
ENDBRANCH   4   5
ENDBRANCH   3   4
ENDBRANCH   2   3
ENDBRANCH   1   2
BRANCH   1  17
ATOM     17  C   UNL     1      22.118  -4.061  50.524  1.00  0.00     0.000 C 
BRANCH  17  18
ATOM     18  C   UNL     1      20.866  -4.953  50.479  1.00  0.00     0.000 C 
BRANCH  18  19
ATOM     19  C   UNL     1      21.084  -6.239  49.657  1.00  0.00     0.000 C 
BRANCH  19  20
ATOM     20  C   UNL     1      22.384  -6.264  48.829  1.00  0.00     0.000 C 
BRANCH  20  21
ATOM     21  C   UNL     1      22.191  -6.533  47.324  1.00  0.00     0.000 C 
BRANCH  21  22
ATOM     22  C   UNL     1      20.843  -6.020  46.775  1.00  0.00    -0.000 C 
BRANCH  22  23
ATOM     23  C   UNL     1      21.017  -5.014  45.628  1.00  0.00    -0.000 C 
BRANCH  23  24
ATOM     24  C   UNL     1      20.768  -3.583  46.119  1.00  0.00    -0.000 C 
BRANCH  24  25
ATOM     25  C   UNL     1      21.596  -2.568  45.322  1.00  0.00    -0.000 C 
BRANCH  25  26
ATOM     26  C   UNL     1      22.641  -1.897  46.227  1.00  0.00    -0.000 C 
BRANCH  26  27
ATOM     27  C   UNL     1      22.884  -2.670  47.534  1.00  0.00    -0.000 C 
BRANCH  27  28
ATOM     28  C   UNL     1      24.277  -3.315  47.657  1.00  0.00    -0.000 C 
BRANCH  28  29
ATOM     29  C   UNL     1      25.435  -2.387  47.230  1.00  0.00    -0.003 C 
ATOM     30  C   UNL     1      25.868  -1.446  48.352  1.00  0.00     0.004 C 
ENDBRANCH  28  29
ENDBRANCH  27  28
ENDBRANCH  26  27
ENDBRANCH  25  26
ENDBRANCH  24  25
ENDBRANCH  23  24
ENDBRANCH  22  23
ENDBRANCH  21  22
ENDBRANCH  20  21
ENDBRANCH  19  20
ENDBRANCH  18  19
ENDBRANCH  17  18
ENDBRANCH   1  17
TORSDOF 26
ENDMDL
MODEL 9
REMARK VINA RESULT:    -3.431      2.565      6.551
REMARK INTER + INTRA:         -13.878
REMARK INTER:                  -7.728
REMARK INTRA:                  -6.150
REMARK UNBOUND:                -5.231
REMARK SMILES CCCCCCCCCCCCCCCCCCCCCCCCCCCC(=O)[O-]
REMARK SMILES IDX 15 1 16 2 17 3 18 4 19 5 20 6 21 7 22 8 23 9 24 10 25 11
REMARK SMILES IDX 26 12 27 13 28 14 29 15 30 16 14 17 13 18 12 19 11 20 10 21
REMARK SMILES IDX 9 22 8 23 7 24 6 25 5 26 4 27 3 28 2 29 1 30
REMARK H PARENT
REMARK Flexibility Score: inf
ROOT
ATOM      1  C   UNL     1      33.331   7.147  42.408  1.00  0.00     0.000 C 
ENDROOT
BRANCH   1   2
ATOM      2  C   UNL     1      32.804   5.740  42.735  1.00  0.00     0.000 C 
BRANCH   2   3
ATOM      3  C   UNL     1      31.623   5.327  41.841  1.00  0.00     0.000 C 
BRANCH   3   4
ATOM      4  C   UNL     1      32.012   5.252  40.354  1.00  0.00     0.000 C 
BRANCH   4   5
ATOM      5  C   UNL     1      30.799   5.008  39.443  1.00  0.00     0.000 C 
BRANCH   5   6
ATOM      6  C   UNL     1      30.636   6.142  38.419  1.00  0.00     0.000 C 
BRANCH   6   7
ATOM      7  C   UNL     1      31.654   7.281  38.621  1.00  0.00     0.000 C 
BRANCH   7   8
ATOM      8  C   UNL     1      31.124   8.507  39.394  1.00  0.00     0.000 C 
BRANCH   8   9
ATOM      9  C   UNL     1      29.606   8.502  39.652  1.00  0.00     0.000 C 
BRANCH   9  10
ATOM     10  C   UNL     1      29.256   8.169  41.111  1.00  0.00     0.000 C 
BRANCH  10  11
ATOM     11  C   UNL     1      27.766   8.402  41.423  1.00  0.00     0.000 C 
BRANCH  11  12
ATOM     12  C   UNL     1      26.976   7.098  41.646  1.00  0.00     0.006 C 
BRANCH  12  13
ATOM     13  C   UNL     1      27.848   5.832  41.576  1.00  0.00     0.053 C 
BRANCH  13  14
ATOM     14  C   UNL     1      27.282   4.719  42.406  1.00  0.00     0.041 C 
ATOM     15  O   UNL     1      27.924   3.647  42.544  1.00  0.00    -0.550 OA
ATOM     16  O   UNL     1      26.040   4.864  43.012  1.00  0.00    -0.550 OA
ENDBRANCH  13  14
ENDBRANCH  12  13
ENDBRANCH  11  12
ENDBRANCH  10  11
ENDBRANCH   9  10
ENDBRANCH   8   9
ENDBRANCH   7   8
ENDBRANCH   6   7
ENDBRANCH   5   6
ENDBRANCH   4   5
ENDBRANCH   3   4
ENDBRANCH   2   3
ENDBRANCH   1   2
BRANCH   1  17
ATOM     17  C   UNL     1      32.391   8.255  42.907  1.00  0.00     0.000 C 
BRANCH  17  18
ATOM     18  C   UNL     1      33.101   9.178  43.910  1.00  0.00     0.000 C 
BRANCH  18  19
ATOM     19  C   UNL     1      34.335   8.516  44.555  1.00  0.00     0.000 C 
BRANCH  19  20
ATOM     20  C   UNL     1      34.123   8.022  46.000  1.00  0.00     0.000 C 
BRANCH  20  21
ATOM     21  C   UNL     1      32.664   8.066  46.493  1.00  0.00     0.000 C 
BRANCH  21  22
ATOM     22  C   UNL     1      32.298   6.900  47.437  1.00  0.00    -0.000 C 
BRANCH  22  23
ATOM     23  C   UNL     1      30.904   6.325  47.150  1.00  0.00    -0.000 C 
BRANCH  23  24
ATOM     24  C   UNL     1      30.965   5.296  46.014  1.00  0.00    -0.000 C 
BRANCH  24  25
ATOM     25  C   UNL     1      29.800   5.476  45.035  1.00  0.00    -0.000 C 
BRANCH  25  26
ATOM     26  C   UNL     1      29.648   6.955  44.645  1.00  0.00    -0.000 C 
BRANCH  26  27
ATOM     27  C   UNL     1      28.267   7.528  45.004  1.00  0.00    -0.000 C 
BRANCH  27  28
ATOM     28  C   UNL     1      28.243   9.046  45.265  1.00  0.00    -0.000 C 
BRANCH  28  29
ATOM     29  C   UNL     1      29.608   9.737  45.061  1.00  0.00    -0.003 C 
ATOM     30  C   UNL     1      29.609  10.678  43.858  1.00  0.00     0.004 C 
ENDBRANCH  28  29
ENDBRANCH  27  28
ENDBRANCH  26  27
ENDBRANCH  25  26
ENDBRANCH  24  25
ENDBRANCH  23  24
ENDBRANCH  22  23
ENDBRANCH  21  22
ENDBRANCH  20  21
ENDBRANCH  19  20
ENDBRANCH  18  19
ENDBRANCH  17  18
ENDBRANCH   1  17
TORSDOF 26
ENDMDL
