MODEL 1
REMARK VINA RESULT:    -3.662      0.000      0.000
REMARK INTER + INTRA:          -4.595
REMARK INTER:                  -4.304
REMARK INTRA:                  -0.291
REMARK UNBOUND:                -0.291
REMARK SMILES O=c1c(O)c(-c2ccc(O)cc2)oc2cc(O)cc(O)c12
REMARK SMILES IDX 5 1 3 2 2 3 1 4 21 5 19 6 18 7 16 8 15 9 14 10 13 11 6 12
REMARK SMILES IDX 7 13 8 14 9 15 12 16 11 17 10 18 4 20 20 22 17 24
REMARK H PARENT 10 19 4 21 20 23 17 25
REMARK Flexibility Score: inf
ROOT
ATOM      1  C   UNL     1       9.760  37.061  22.606  1.00  0.00     0.180 A 
ATOM      2  C   UNL     1      10.041  36.271  23.734  1.00  0.00     0.208 A 
ATOM      3  C   UNL     1      10.441  36.898  24.924  1.00  0.00     0.238 A 
ATOM      4  O   UNL     1      10.744  36.182  25.913  1.00  0.00    -0.285 OA
ATOM      5  C   UNL     1      10.539  38.310  24.977  1.00  0.00     0.111 A 
ATOM      6  C   UNL     1      10.895  39.054  26.142  1.00  0.00     0.134 A 
ATOM      7  C   UNL     1      11.088  40.438  26.045  1.00  0.00     0.093 A 
ATOM      8  C   UNL     1      10.874  41.113  24.844  1.00  0.00     0.123 A 
ATOM      9  C   UNL     1      10.468  40.402  23.713  1.00  0.00     0.094 A 
ATOM     10  C   UNL     1      10.302  39.017  23.770  1.00  0.00     0.146 A 
ATOM     11  O   UNL     1       9.924  38.378  22.669  1.00  0.00    -0.452 OA
ENDROOT
BRANCH   1  12
ATOM     12  C   UNL     1       9.309  36.474  21.324  1.00  0.00     0.021 A 
ATOM     13  C   UNL     1       7.957  36.160  21.097  1.00  0.00     0.016 A 
ATOM     14  C   UNL     1       7.551  35.628  19.869  1.00  0.00     0.047 A 
ATOM     15  C   UNL     1       8.487  35.416  18.849  1.00  0.00     0.115 A 
ATOM     16  C   UNL     1      10.239  36.277  20.289  1.00  0.00     0.016 A 
ATOM     17  C   UNL     1       9.830  35.744  19.061  1.00  0.00     0.047 A 
BRANCH  15  18
ATOM     18  O   UNL     1       8.095  34.885  17.622  1.00  0.00    -0.508 OA
ATOM     19  H   UNL     1       8.140  35.431  16.771  1.00  0.00     0.293 HD
ENDBRANCH  15  18
ENDBRANCH   1  12
BRANCH   2  20
ATOM     20  O   UNL     1       9.959  34.878  23.653  1.00  0.00    -0.502 OA
ATOM     21  H   UNL     1      10.515  34.265  24.238  1.00  0.00     0.293 HD
ENDBRANCH   2  20
BRANCH   6  22
ATOM     22  O   UNL     1      11.043  38.491  27.412  1.00  0.00    -0.507 OA
ATOM     23  H   UNL     1      11.143  37.505  27.596  1.00  0.00     0.293 HD
ENDBRANCH   6  22
BRANCH   8  24
ATOM     24  O   UNL     1      11.060  42.491  24.787  1.00  0.00    -0.508 OA
ATOM     25  H   UNL     1      11.324  43.025  25.607  1.00  0.00     0.293 HD
ENDBRANCH   8  24
TORSDOF 5
ENDMDL
MODEL 2
REMARK VINA RESULT:    -2.209      1.764      6.965
REMARK INTER + INTRA:          -2.888
REMARK INTER:                  -2.619
REMARK INTRA:                  -0.269
REMARK UNBOUND:                -0.291
REMARK SMILES O=c1c(O)c(-c2ccc(O)cc2)oc2cc(O)cc(O)c12
REMARK SMILES IDX 5 1 3 2 2 3 1 4 21 5 19 6 18 7 16 8 15 9 14 10 13 11 6 12
REMARK SMILES IDX 7 13 8 14 9 15 12 16 11 17 10 18 4 20 20 22 17 24
REMARK H PARENT 10 19 4 21 20 23 17 25
REMARK Flexibility Score: inf
ROOT
ATOM      1  C   UNL     1       9.107  38.244  22.887  1.00  0.00     0.180 A 
ATOM      2  C   UNL     1       7.751  38.346  22.531  1.00  0.00     0.208 A 
ATOM      3  C   UNL     1       7.292  37.669  21.390  1.00  0.00     0.238 A 
ATOM      4  O   UNL     1       6.090  37.810  21.046  1.00  0.00    -0.285 OA
ATOM      5  C   UNL     1       8.192  36.886  20.627  1.00  0.00     0.111 A 
ATOM      6  C   UNL     1       7.828  36.125  19.475  1.00  0.00     0.134 A 
ATOM      7  C   UNL     1       8.825  35.491  18.723  1.00  0.00     0.093 A 
ATOM      8  C   UNL     1      10.162  35.536  19.116  1.00  0.00     0.123 A 
ATOM      9  C   UNL     1      10.521  36.228  20.274  1.00  0.00     0.094 A 
ATOM     10  C   UNL     1       9.553  36.899  21.025  1.00  0.00     0.146 A 
ATOM     11  O   UNL     1       9.938  37.554  22.114  1.00  0.00    -0.452 OA
ENDROOT
BRANCH   1  12
ATOM     12  C   UNL     1       9.658  38.907  24.090  1.00  0.00     0.021 A 
ATOM     13  C   UNL     1      10.301  40.156  24.008  1.00  0.00     0.016 A 
ATOM     14  C   UNL     1      10.793  40.774  25.162  1.00  0.00     0.047 A 
ATOM     15  C   UNL     1      10.637  40.160  26.412  1.00  0.00     0.115 A 
ATOM     16  C   UNL     1       9.488  38.308  25.350  1.00  0.00     0.016 A 
ATOM     17  C   UNL     1       9.981  38.929  26.502  1.00  0.00     0.047 A 
BRANCH  15  18
ATOM     18  O   UNL     1      11.125  40.766  27.568  1.00  0.00    -0.508 OA
ATOM     19  H   UNL     1      12.114  40.773  27.784  1.00  0.00     0.293 HD
ENDBRANCH  15  18
ENDBRANCH   1  12
BRANCH   2  20
ATOM     20  O   UNL     1       6.885  39.143  23.285  1.00  0.00    -0.502 OA
ATOM     21  H   UNL     1       6.716  38.982  24.271  1.00  0.00     0.293 HD
ENDBRANCH   2  20
BRANCH   6  22
ATOM     22  O   UNL     1       6.510  35.939  19.048  1.00  0.00    -0.507 OA
ATOM     23  H   UNL     1       6.214  35.932  18.084  1.00  0.00     0.293 HD
ENDBRANCH   6  22
BRANCH   8  24
ATOM     24  O   UNL     1      11.125  34.881  18.353  1.00  0.00    -0.508 OA
ATOM     25  H   UNL     1      11.542  35.316  17.538  1.00  0.00     0.293 HD
ENDBRANCH   8  24
TORSDOF 5
ENDMDL
MODEL 3
REMARK VINA RESULT:    -2.199     17.133     21.371
REMARK INTER + INTRA:          -2.875
REMARK INTER:                  -2.662
REMARK INTRA:                  -0.213
REMARK UNBOUND:                -0.291
REMARK SMILES O=c1c(O)c(-c2ccc(O)cc2)oc2cc(O)cc(O)c12
REMARK SMILES IDX 5 1 3 2 2 3 1 4 21 5 19 6 18 7 16 8 15 9 14 10 13 11 6 12
REMARK SMILES IDX 7 13 8 14 9 15 12 16 11 17 10 18 4 20 20 22 17 24
REMARK H PARENT 10 19 4 21 20 23 17 25
REMARK Flexibility Score: inf
ROOT
ATOM      1  C   UNL     1      -7.394  37.093  13.358  1.00  0.00     0.180 A 
ATOM      2  C   UNL     1      -7.458  38.478  13.128  1.00  0.00     0.208 A 
ATOM      3  C   UNL     1      -7.907  38.941  11.881  1.00  0.00     0.238 A 
ATOM      4  O   UNL     1      -7.910  40.180  11.663  1.00  0.00    -0.285 OA
ATOM      5  C   UNL     1      -8.299  38.015  10.885  1.00  0.00     0.111 A 
ATOM      6  C   UNL     1      -8.808  38.373   9.600  1.00  0.00     0.134 A 
ATOM      7  C   UNL     1      -9.042  37.374   8.648  1.00  0.00     0.093 A 
ATOM      8  C   UNL     1      -8.850  36.027   8.953  1.00  0.00     0.123 A 
ATOM      9  C   UNL     1      -8.410  35.662  10.227  1.00  0.00     0.094 A 
ATOM     10  C   UNL     1      -8.134  36.638  11.187  1.00  0.00     0.146 A 
ATOM     11  O   UNL     1      -7.707  36.249  12.382  1.00  0.00    -0.452 OA
ENDROOT
BRANCH   1  12
ATOM     12  C   UNL     1      -6.956  36.529  14.656  1.00  0.00     0.021 A 
ATOM     13  C   UNL     1      -7.871  35.928  15.540  1.00  0.00     0.016 A 
ATOM     14  C   UNL     1      -7.430  35.381  16.749  1.00  0.00     0.047 A 
ATOM     15  C   UNL     1      -6.070  35.415  17.084  1.00  0.00     0.115 A 
ATOM     16  C   UNL     1      -5.591  36.541  14.989  1.00  0.00     0.016 A 
ATOM     17  C   UNL     1      -5.153  35.993  16.200  1.00  0.00     0.047 A 
BRANCH  15  18
ATOM     18  O   UNL     1      -5.619  34.875  18.286  1.00  0.00    -0.508 OA
ATOM     19  H   UNL     1      -4.769  34.327  18.334  1.00  0.00     0.293 HD
ENDBRANCH  15  18
ENDBRANCH   1  12
BRANCH   2  20
ATOM     20  O   UNL     1      -7.045  39.374  14.117  1.00  0.00    -0.502 OA
ATOM     21  H   UNL     1      -7.065  39.144  15.104  1.00  0.00     0.293 HD
ENDBRANCH   2  20
BRANCH   6  22
ATOM     22  O   UNL     1      -9.122  39.681   9.223  1.00  0.00    -0.507 OA
ATOM     23  H   UNL     1      -9.675  39.931   8.417  1.00  0.00     0.293 HD
ENDBRANCH   6  22
BRANCH   8  24
ATOM     24  O   UNL     1      -9.109  35.059   7.987  1.00  0.00    -0.508 OA
ATOM     25  H   UNL     1      -8.464  34.296   7.814  1.00  0.00     0.293 HD
ENDBRANCH   8  24
TORSDOF 5
ENDMDL
