MODEL 1
REMARK VINA RESULT:    -3.825      0.000      0.000
REMARK INTER + INTRA:          -7.203
REMARK INTER:                  -6.061
REMARK INTRA:                  -1.143
REMARK UNBOUND:                -1.143
REMARK SMILES CCCCCCCCCCCC(=O)[O-]
REMARK SMILES IDX 7 1 8 2 9 3 10 4 11 5 12 6 13 7 14 8 6 9 5 10 4 11 3 12 2 13
REMARK SMILES IDX 1 14
REMARK H PARENT
REMARK Flexibility Score: inf
ROOT
ATOM      1  C   UNL     1      -3.129  26.141  58.966  1.00  0.00     0.000 C 
ENDROOT
BRANCH   1   2
ATOM      2  C   UNL     1      -4.632  26.455  59.003  1.00  0.00     0.000 C 
BRANCH   2   3
ATOM      3  C   UNL     1      -5.102  27.252  57.776  1.00  0.00     0.000 C 
BRANCH   3   4
ATOM      4  C   UNL     1      -6.205  26.500  57.023  1.00  0.00     0.006 C 
BRANCH   4   5
ATOM      5  C   UNL     1      -7.079  25.694  57.989  1.00  0.00     0.053 C 
BRANCH   5   6
ATOM      6  C   UNL     1      -7.083  24.247  57.610  1.00  0.00     0.041 C 
ATOM      7  O   UNL     1      -6.380  23.423  58.252  1.00  0.00    -0.550 OA
ATOM      8  O   UNL     1      -7.899  23.800  56.578  1.00  0.00    -0.550 OA
ENDBRANCH   5   6
ENDBRANCH   4   5
ENDBRANCH   3   4
ENDBRANCH   2   3
ENDBRANCH   1   2
BRANCH   1   9
ATOM      9  C   UNL     1      -2.599  25.945  57.537  1.00  0.00     0.000 C 
BRANCH   9  10
ATOM     10  C   UNL     1      -1.426  26.895  57.253  1.00  0.00    -0.000 C 
BRANCH  10  11
ATOM     11  C   UNL     1      -1.862  28.171  56.514  1.00  0.00    -0.000 C 
BRANCH  11  12
ATOM     12  C   UNL     1      -1.237  29.442  57.107  1.00  0.00    -0.000 C 
BRANCH  12  13
ATOM     13  C   UNL     1      -1.244  29.392  58.640  1.00  0.00    -0.003 C 
ATOM     14  C   UNL     1      -2.545  29.955  59.204  1.00  0.00     0.004 C 
ENDBRANCH  12  13
ENDBRANCH  11  12
ENDBRANCH  10  11
ENDBRANCH   9  10
ENDBRANCH   1   9
TORSDOF 10
ENDMDL
MODEL 2
REMARK VINA RESULT:    -3.797      1.616      2.611
REMARK INTER + INTRA:          -7.159
REMARK INTER:                  -5.839
REMARK INTRA:                  -1.321
REMARK UNBOUND:                -1.143
REMARK SMILES CCCCCCCCCCCC(=O)[O-]
REMARK SMILES IDX 7 1 8 2 9 3 10 4 11 5 12 6 13 7 14 8 6 9 5 10 4 11 3 12 2 13
REMARK SMILES IDX 1 14
REMARK H PARENT
REMARK Flexibility Score: inf
ROOT
ATOM      1  C   UNL     1      -1.991  27.551  58.376  1.00  0.00     0.000 C 
ENDROOT
BRANCH   1   2
ATOM      2  C   UNL     1      -2.967  26.370  58.271  1.00  0.00     0.000 C 
BRANCH   2   3
ATOM      3  C   UNL     1      -3.978  26.331  59.427  1.00  0.00     0.000 C 
BRANCH   3   4
ATOM      4  C   UNL     1      -5.357  25.879  58.934  1.00  0.00     0.006 C 
BRANCH   4   5
ATOM      5  C   UNL     1      -5.230  24.948  57.724  1.00  0.00     0.053 C 
BRANCH   5   6
ATOM      6  C   UNL     1      -6.556  24.780  57.051  1.00  0.00     0.041 C 
ATOM      7  O   UNL     1      -7.169  23.682  57.127  1.00  0.00    -0.550 OA
ATOM      8  O   UNL     1      -7.136  25.849  56.380  1.00  0.00    -0.550 OA
ENDBRANCH   5   6
ENDBRANCH   4   5
ENDBRANCH   3   4
ENDBRANCH   2   3
ENDBRANCH   1   2
BRANCH   1   9
ATOM      9  C   UNL     1      -2.224  28.404  59.633  1.00  0.00     0.000 C 
BRANCH   9  10
ATOM     10  C   UNL     1      -2.606  29.843  59.256  1.00  0.00    -0.000 C 
BRANCH  10  11
ATOM     11  C   UNL     1      -2.322  30.165  57.780  1.00  0.00    -0.000 C 
BRANCH  11  12
ATOM     12  C   UNL     1      -3.566  30.672  57.035  1.00  0.00    -0.000 C 
BRANCH  12  13
ATOM     13  C   UNL     1      -4.107  29.600  56.081  1.00  0.00    -0.003 C 
ATOM     14  C   UNL     1      -5.286  28.856  56.700  1.00  0.00     0.004 C 
ENDBRANCH  12  13
ENDBRANCH  11  12
ENDBRANCH  10  11
ENDBRANCH   9  10
ENDBRANCH   1   9
TORSDOF 10
ENDMDL
MODEL 3
REMARK VINA RESULT:    -3.782      2.366      4.195
REMARK INTER + INTRA:          -7.135
REMARK INTER:                  -6.208
REMARK INTRA:                  -0.928
REMARK UNBOUND:                -1.143
REMARK SMILES CCCCCCCCCCCC(=O)[O-]
REMARK SMILES IDX 7 1 8 2 9 3 10 4 11 5 12 6 13 7 14 8 6 9 5 10 4 11 3 12 2 13
REMARK SMILES IDX 1 14
REMARK H PARENT
REMARK Flexibility Score: inf
ROOT
ATOM      1  C   UNL     1      -2.866  26.987  57.652  1.00  0.00     0.000 C 
ENDROOT
BRANCH   1   2
ATOM      2  C   UNL     1      -3.105  26.302  59.006  1.00  0.00     0.000 C 
BRANCH   2   3
ATOM      3  C   UNL     1      -4.593  26.032  59.279  1.00  0.00     0.000 C 
BRANCH   3   4
ATOM      4  C   UNL     1      -5.348  25.754  57.973  1.00  0.00     0.006 C 
BRANCH   4   5
ATOM      5  C   UNL     1      -6.105  24.424  58.049  1.00  0.00     0.053 C 
BRANCH   5   6
ATOM      6  C   UNL     1      -7.471  24.564  57.456  1.00  0.00     0.041 C 
ATOM      7  O   UNL     1      -8.255  25.455  57.877  1.00  0.00    -0.550 OA
ATOM      8  O   UNL     1      -7.862  23.743  56.406  1.00  0.00    -0.550 OA
ENDBRANCH   5   6
ENDBRANCH   4   5
ENDBRANCH   3   4
ENDBRANCH   2   3
ENDBRANCH   1   2
BRANCH   1   9
ATOM      9  C   UNL     1      -1.575  26.514  56.967  1.00  0.00     0.000 C 
BRANCH   9  10
ATOM     10  C   UNL     1      -1.619  25.002  56.700  1.00  0.00    -0.000 C 
BRANCH  10  11
ATOM     11  C   UNL     1      -2.693  24.611  55.672  1.00  0.00    -0.000 C 
BRANCH  11  12
ATOM     12  C   UNL     1      -2.517  23.179  55.148  1.00  0.00    -0.000 C 
BRANCH  12  13
ATOM     13  C   UNL     1      -3.367  22.191  55.956  1.00  0.00    -0.003 C 
ATOM     14  C   UNL     1      -2.890  20.757  55.751  1.00  0.00     0.004 C 
ENDBRANCH  12  13
ENDBRANCH  11  12
ENDBRANCH  10  11
ENDBRANCH   9  10
ENDBRANCH   1   9
TORSDOF 10
ENDMDL
MODEL 4
REMARK VINA RESULT:    -3.767      1.739      2.313
REMARK INTER + INTRA:          -7.112
REMARK INTER:                  -5.698
REMARK INTRA:                  -1.414
REMARK UNBOUND:                -1.143
REMARK SMILES CCCCCCCCCCCC(=O)[O-]
REMARK SMILES IDX 7 1 8 2 9 3 10 4 11 5 12 6 13 7 14 8 6 9 5 10 4 11 3 12 2 13
REMARK SMILES IDX 1 14
REMARK H PARENT
REMARK Flexibility Score: inf
ROOT
ATOM      1  C   UNL     1      -2.699  25.718  57.647  1.00  0.00     0.000 C 
ENDROOT
BRANCH   1   2
ATOM      2  C   UNL     1      -2.983  26.481  58.950  1.00  0.00     0.000 C 
BRANCH   2   3
ATOM      3  C   UNL     1      -4.411  26.256  59.469  1.00  0.00     0.000 C 
BRANCH   3   4
ATOM      4  C   UNL     1      -5.192  25.321  58.538  1.00  0.00     0.006 C 
BRANCH   4   5
ATOM      5  C   UNL     1      -6.676  25.701  58.496  1.00  0.00     0.053 C 
BRANCH   5   6
ATOM      6  C   UNL     1      -7.437  24.743  57.635  1.00  0.00     0.041 C 
ATOM      7  O   UNL     1      -6.943  23.621  57.346  1.00  0.00    -0.550 OA
ATOM      8  O   UNL     1      -8.713  25.069  57.192  1.00  0.00    -0.550 OA
ENDBRANCH   5   6
ENDBRANCH   4   5
ENDBRANCH   3   4
ENDBRANCH   2   3
ENDBRANCH   1   2
BRANCH   1   9
ATOM      9  C   UNL     1      -1.621  26.393  56.786  1.00  0.00     0.000 C 
BRANCH   9  10
ATOM     10  C   UNL     1      -2.240  27.035  55.535  1.00  0.00    -0.000 C 
BRANCH  10  11
ATOM     11  C   UNL     1      -3.742  26.738  55.398  1.00  0.00    -0.000 C 
BRANCH  11  12
ATOM     12  C   UNL     1      -4.585  28.011  55.238  1.00  0.00    -0.000 C 
BRANCH  12  13
ATOM     13  C   UNL     1      -5.015  28.559  56.604  1.00  0.00    -0.003 C 
ATOM     14  C   UNL     1      -4.324  29.884  56.909  1.00  0.00     0.004 C 
ENDBRANCH  12  13
ENDBRANCH  11  12
ENDBRANCH  10  11
ENDBRANCH   9  10
ENDBRANCH   1   9
TORSDOF 10
ENDMDL
MODEL 5
REMARK VINA RESULT:    -3.684      2.004      3.209
REMARK INTER + INTRA:          -6.981
REMARK INTER:                  -5.299
REMARK INTRA:                  -1.682
REMARK UNBOUND:                -1.143
REMARK SMILES CCCCCCCCCCCC(=O)[O-]
REMARK SMILES IDX 7 1 8 2 9 3 10 4 11 5 12 6 13 7 14 8 6 9 5 10 4 11 3 12 2 13
REMARK SMILES IDX 1 14
REMARK H PARENT
REMARK Flexibility Score: inf
ROOT
ATOM      1  C   UNL     1      -5.488  25.608  54.940  1.00  0.00     0.000 C 
ENDROOT
BRANCH   1   2
ATOM      2  C   UNL     1      -4.499  24.482  55.276  1.00  0.00     0.000 C 
BRANCH   2   3
ATOM      3  C   UNL     1      -4.624  23.997  56.728  1.00  0.00     0.000 C 
BRANCH   3   4
ATOM      4  C   UNL     1      -6.094  23.941  57.162  1.00  0.00     0.006 C 
BRANCH   4   5
ATOM      5  C   UNL     1      -6.346  24.855  58.366  1.00  0.00     0.053 C 
BRANCH   5   6
ATOM      6  C   UNL     1      -7.550  25.711  58.130  1.00  0.00     0.041 C 
ATOM      7  O   UNL     1      -7.567  26.904  58.533  1.00  0.00    -0.550 OA
ATOM      8  O   UNL     1      -8.635  25.207  57.424  1.00  0.00    -0.550 OA
ENDBRANCH   5   6
ENDBRANCH   4   5
ENDBRANCH   3   4
ENDBRANCH   2   3
ENDBRANCH   1   2
BRANCH   1   9
ATOM      9  C   UNL     1      -4.819  26.990  54.886  1.00  0.00     0.000 C 
BRANCH   9  10
ATOM     10  C   UNL     1      -5.284  27.870  56.057  1.00  0.00    -0.000 C 
BRANCH  10  11
ATOM     11  C   UNL     1      -4.279  27.889  57.220  1.00  0.00    -0.000 C 
BRANCH  11  12
ATOM     12  C   UNL     1      -2.856  27.519  56.779  1.00  0.00    -0.000 C 
BRANCH  12  13
ATOM     13  C   UNL     1      -2.136  26.716  57.868  1.00  0.00    -0.003 C 
ATOM     14  C   UNL     1      -3.082  26.367  59.013  1.00  0.00     0.004 C 
ENDBRANCH  12  13
ENDBRANCH  11  12
ENDBRANCH  10  11
ENDBRANCH   9  10
ENDBRANCH   1   9
TORSDOF 10
ENDMDL
MODEL 6
REMARK VINA RESULT:    -3.681      1.841      2.603
REMARK INTER + INTRA:          -6.976
REMARK INTER:                  -5.989
REMARK INTRA:                  -0.987
REMARK UNBOUND:                -1.143
REMARK SMILES CCCCCCCCCCCC(=O)[O-]
REMARK SMILES IDX 7 1 8 2 9 3 10 4 11 5 12 6 13 7 14 8 6 9 5 10 4 11 3 12 2 13
REMARK SMILES IDX 1 14
REMARK H PARENT
REMARK Flexibility Score: inf
ROOT
ATOM      1  C   UNL     1      -2.645  24.777  55.577  1.00  0.00     0.000 C 
ENDROOT
BRANCH   1   2
ATOM      2  C   UNL     1      -3.159  23.365  55.897  1.00  0.00     0.000 C 
BRANCH   2   3
ATOM      3  C   UNL     1      -4.650  23.347  56.269  1.00  0.00     0.000 C 
BRANCH   3   4
ATOM      4  C   UNL     1      -4.931  24.287  57.448  1.00  0.00     0.006 C 
BRANCH   4   5
ATOM      5  C   UNL     1      -6.397  24.198  57.884  1.00  0.00     0.053 C 
BRANCH   5   6
ATOM      6  C   UNL     1      -7.304  24.531  56.741  1.00  0.00     0.041 C 
ATOM      7  O   UNL     1      -8.192  23.715  56.380  1.00  0.00    -0.550 OA
ATOM      8  O   UNL     1      -7.199  25.762  56.106  1.00  0.00    -0.550 OA
ENDBRANCH   5   6
ENDBRANCH   4   5
ENDBRANCH   3   4
ENDBRANCH   2   3
ENDBRANCH   1   2
BRANCH   1   9
ATOM      9  C   UNL     1      -1.357  25.126  56.338  1.00  0.00     0.000 C 
BRANCH   9  10
ATOM     10  C   UNL     1      -1.488  26.484  57.043  1.00  0.00    -0.000 C 
BRANCH  10  11
ATOM     11  C   UNL     1      -2.810  27.197  56.716  1.00  0.00    -0.000 C 
BRANCH  11  12
ATOM     12  C   UNL     1      -3.421  27.900  57.937  1.00  0.00    -0.000 C 
BRANCH  12  13
ATOM     13  C   UNL     1      -2.589  27.633  59.196  1.00  0.00    -0.003 C 
ATOM     14  C   UNL     1      -2.287  28.928  59.943  1.00  0.00     0.004 C 
ENDBRANCH  12  13
ENDBRANCH  11  12
ENDBRANCH  10  11
ENDBRANCH   9  10
ENDBRANCH   1   9
TORSDOF 10
ENDMDL
MODEL 7
REMARK VINA RESULT:    -3.680      3.851      5.196
REMARK INTER + INTRA:          -6.974
REMARK INTER:                  -5.970
REMARK INTRA:                  -1.003
REMARK UNBOUND:                -1.143
REMARK SMILES CCCCCCCCCCCC(=O)[O-]
REMARK SMILES IDX 7 1 8 2 9 3 10 4 11 5 12 6 13 7 14 8 6 9 5 10 4 11 3 12 2 13
REMARK SMILES IDX 1 14
REMARK H PARENT
REMARK Flexibility Score: inf
ROOT
ATOM      1  C   UNL     1      -2.953  29.980  58.805  1.00  0.00     0.000 C 
ENDROOT
BRANCH   1   2
ATOM      2  C   UNL     1      -3.297  30.009  57.309  1.00  0.00     0.000 C 
BRANCH   2   3
ATOM      3  C   UNL     1      -4.675  29.400  57.006  1.00  0.00     0.000 C 
BRANCH   3   4
ATOM      4  C   UNL     1      -5.211  29.899  55.659  1.00  0.00     0.006 C 
BRANCH   4   5
ATOM      5  C   UNL     1      -5.577  31.385  55.729  1.00  0.00     0.053 C 
BRANCH   5   6
ATOM      6  C   UNL     1      -7.058  31.565  55.618  1.00  0.00     0.041 C 
ATOM      7  O   UNL     1      -7.777  31.555  56.652  1.00  0.00    -0.550 OA
ATOM      8  O   UNL     1      -7.640  31.793  54.377  1.00  0.00    -0.550 OA
ENDBRANCH   5   6
ENDBRANCH   4   5
ENDBRANCH   3   4
ENDBRANCH   2   3
ENDBRANCH   1   2
BRANCH   1   9
ATOM      9  C   UNL     1      -2.406  28.618  59.262  1.00  0.00     0.000 C 
BRANCH   9  10
ATOM     10  C   UNL     1      -1.693  27.899  58.107  1.00  0.00    -0.000 C 
BRANCH  10  11
ATOM     11  C   UNL     1      -2.238  26.483  57.863  1.00  0.00    -0.000 C 
BRANCH  11  12
ATOM     12  C   UNL     1      -3.159  26.000  58.993  1.00  0.00    -0.000 C 
BRANCH  12  13
ATOM     13  C   UNL     1      -4.566  25.701  58.462  1.00  0.00    -0.003 C 
ATOM     14  C   UNL     1      -4.559  25.525  56.947  1.00  0.00     0.004 C 
ENDBRANCH  12  13
ENDBRANCH  11  12
ENDBRANCH  10  11
ENDBRANCH   9  10
ENDBRANCH   1   9
TORSDOF 10
ENDMDL
MODEL 8
REMARK VINA RESULT:    -3.658      4.109      5.291
REMARK INTER + INTRA:          -6.939
REMARK INTER:                  -5.779
REMARK INTRA:                  -1.160
REMARK UNBOUND:                -1.143
REMARK SMILES CCCCCCCCCCCC(=O)[O-]
REMARK SMILES IDX 7 1 8 2 9 3 10 4 11 5 12 6 13 7 14 8 6 9 5 10 4 11 3 12 2 13
REMARK SMILES IDX 1 14
REMARK H PARENT
REMARK Flexibility Score: inf
ROOT
ATOM      1  C   UNL     1      -5.523  27.056  55.750  1.00  0.00     0.000 C 
ENDROOT
BRANCH   1   2
ATOM      2  C   UNL     1      -4.630  28.184  55.210  1.00  0.00     0.000 C 
BRANCH   2   3
ATOM      3  C   UNL     1      -4.434  29.322  56.224  1.00  0.00     0.000 C 
BRANCH   3   4
ATOM      4  C   UNL     1      -5.652  30.253  56.244  1.00  0.00     0.006 C 
BRANCH   4   5
ATOM      5  C   UNL     1      -6.021  30.707  54.829  1.00  0.00     0.053 C 
BRANCH   5   6
ATOM      6  C   UNL     1      -7.223  31.596  54.860  1.00  0.00     0.041 C 
ATOM      7  O   UNL     1      -7.980  31.603  55.867  1.00  0.00    -0.550 OA
ATOM      8  O   UNL     1      -7.483  32.453  53.798  1.00  0.00    -0.550 OA
ENDBRANCH   5   6
ENDBRANCH   4   5
ENDBRANCH   3   4
ENDBRANCH   2   3
ENDBRANCH   1   2
BRANCH   1   9
ATOM      9  C   UNL     1      -4.791  25.708  55.834  1.00  0.00     0.000 C 
BRANCH   9  10
ATOM     10  C   UNL     1      -4.964  25.076  57.223  1.00  0.00    -0.000 C 
BRANCH  10  11
ATOM     11  C   UNL     1      -4.862  26.105  58.360  1.00  0.00    -0.000 C 
BRANCH  11  12
ATOM     12  C   UNL     1      -3.531  26.018  59.120  1.00  0.00    -0.000 C 
BRANCH  12  13
ATOM     13  C   UNL     1      -2.652  27.240  58.827  1.00  0.00    -0.003 C 
ATOM     14  C   UNL     1      -1.782  27.010  57.595  1.00  0.00     0.004 C 
ENDBRANCH  12  13
ENDBRANCH  11  12
ENDBRANCH  10  11
ENDBRANCH   9  10
ENDBRANCH   1   9
TORSDOF 10
ENDMDL
MODEL 9
REMARK VINA RESULT:    -3.642      4.125      6.034
REMARK INTER + INTRA:          -6.914
REMARK INTER:                  -6.050
REMARK INTRA:                  -0.864
REMARK UNBOUND:                -1.143
REMARK SMILES CCCCCCCCCCCC(=O)[O-]
REMARK SMILES IDX 7 1 8 2 9 3 10 4 11 5 12 6 13 7 14 8 6 9 5 10 4 11 3 12 2 13
REMARK SMILES IDX 1 14
REMARK H PARENT
REMARK Flexibility Score: inf
ROOT
ATOM      1  C   UNL     1      -4.794  27.243  55.186  1.00  0.00     0.000 C 
ENDROOT
BRANCH   1   2
ATOM      2  C   UNL     1      -5.451  27.876  56.421  1.00  0.00     0.000 C 
BRANCH   2   3
ATOM      3  C   UNL     1      -5.097  29.362  56.585  1.00  0.00     0.000 C 
BRANCH   3   4
ATOM      4  C   UNL     1      -5.343  30.130  55.280  1.00  0.00     0.006 C 
BRANCH   4   5
ATOM      5  C   UNL     1      -5.811  31.561  55.565  1.00  0.00     0.053 C 
BRANCH   5   6
ATOM      6  C   UNL     1      -7.246  31.729  55.178  1.00  0.00     0.041 C 
ATOM      7  O   UNL     1      -8.159  31.473  56.006  1.00  0.00    -0.550 OA
ATOM      8  O   UNL     1      -7.574  32.215  53.918  1.00  0.00    -0.550 OA
ENDBRANCH   5   6
ENDBRANCH   4   5
ENDBRANCH   3   4
ENDBRANCH   2   3
ENDBRANCH   1   2
BRANCH   1   9
ATOM      9  C   UNL     1      -4.259  25.828  55.456  1.00  0.00     0.000 C 
BRANCH   9  10
ATOM     10  C   UNL     1      -4.528  25.410  56.910  1.00  0.00    -0.000 C 
BRANCH  10  11
ATOM     11  C   UNL     1      -5.334  24.105  57.012  1.00  0.00    -0.000 C 
BRANCH  11  12
ATOM     12  C   UNL     1      -6.389  24.147  58.127  1.00  0.00    -0.000 C 
BRANCH  12  13
ATOM     13  C   UNL     1      -7.547  25.078  57.751  1.00  0.00    -0.003 C 
ATOM     14  C   UNL     1      -7.764  26.148  58.816  1.00  0.00     0.004 C 
ENDBRANCH  12  13
ENDBRANCH  11  12
ENDBRANCH  10  11
ENDBRANCH   9  10
ENDBRANCH   1   9
TORSDOF 10
ENDMDL
