MODEL 1
REMARK VINA RESULT:    -5.157      0.000      0.000
REMARK INTER + INTRA:         -11.486
REMARK INTER:                  -9.378
REMARK INTRA:                  -2.108
REMARK UNBOUND:                -2.108
REMARK SMILES CCCCCCCCCCCCCCCC(=O)[O-]
REMARK SMILES IDX 9 1 10 2 11 3 12 4 13 5 14 6 15 7 16 8 17 9 18 10 8 11 7 12
REMARK SMILES IDX 6 13 5 14 4 15 3 16 2 17 1 18
REMARK H PARENT
REMARK Flexibility Score: inf
ROOT
ATOM      1  C   UNL     1      12.989  16.714  71.017  1.00  0.00     0.000 C 
ENDROOT
BRANCH   1   2
ATOM      2  C   UNL     1      12.154  15.865  71.986  1.00  0.00     0.000 C 
BRANCH   2   3
ATOM      3  C   UNL     1      10.700  16.347  72.099  1.00  0.00     0.000 C 
BRANCH   3   4
ATOM      4  C   UNL     1      10.312  17.320  70.972  1.00  0.00     0.000 C 
BRANCH   4   5
ATOM      5  C   UNL     1       9.434  16.664  69.890  1.00  0.00     0.000 C 
BRANCH   5   6
ATOM      6  C   UNL     1      10.044  16.644  68.474  1.00  0.00     0.006 C 
BRANCH   6   7
ATOM      7  C   UNL     1      10.951  17.841  68.151  1.00  0.00     0.053 C 
BRANCH   7   8
ATOM      8  C   UNL     1      11.785  17.600  66.930  1.00  0.00     0.041 C 
ATOM      9  O   UNL     1      12.306  16.470  66.733  1.00  0.00    -0.550 OA
ATOM     10  O   UNL     1      11.959  18.611  65.994  1.00  0.00    -0.550 OA
ENDBRANCH   7   8
ENDBRANCH   6   7
ENDBRANCH   5   6
ENDBRANCH   4   5
ENDBRANCH   3   4
ENDBRANCH   2   3
ENDBRANCH   1   2
BRANCH   1  11
ATOM     11  C   UNL     1      14.025  15.854  70.282  1.00  0.00     0.000 C 
BRANCH  11  12
ATOM     12  C   UNL     1      13.963  14.394  70.756  1.00  0.00    -0.000 C 
BRANCH  12  13
ATOM     13  C   UNL     1      13.539  13.425  69.640  1.00  0.00    -0.000 C 
BRANCH  13  14
ATOM     14  C   UNL     1      12.206  13.827  68.985  1.00  0.00    -0.000 C 
BRANCH  14  15
ATOM     15  C   UNL     1      10.981  13.220  69.695  1.00  0.00    -0.000 C 
BRANCH  15  16
ATOM     16  C   UNL     1       9.755  12.983  68.793  1.00  0.00    -0.000 C 
BRANCH  16  17
ATOM     17  C   UNL     1       9.902  11.747  67.895  1.00  0.00    -0.003 C 
ATOM     18  C   UNL     1       9.417  10.488  68.610  1.00  0.00     0.004 C 
ENDBRANCH  16  17
ENDBRANCH  15  16
ENDBRANCH  14  15
ENDBRANCH  13  14
ENDBRANCH  12  13
ENDBRANCH  11  12
ENDBRANCH   1  11
TORSDOF 14
ENDMDL
MODEL 2
REMARK VINA RESULT:    -5.061      1.379      3.547
REMARK INTER + INTRA:         -11.311
REMARK INTER:                  -9.421
REMARK INTRA:                  -1.890
REMARK UNBOUND:                -2.108
REMARK SMILES CCCCCCCCCCCCCCCC(=O)[O-]
REMARK SMILES IDX 9 1 10 2 11 3 12 4 13 5 14 6 15 7 16 8 17 9 18 10 8 11 7 12
REMARK SMILES IDX 6 13 5 14 4 15 3 16 2 17 1 18
REMARK H PARENT
REMARK Flexibility Score: inf
ROOT
ATOM      1  C   UNL     1      10.955  14.443  72.164  1.00  0.00     0.000 C 
ENDROOT
BRANCH   1   2
ATOM      2  C   UNL     1      12.090  15.478  72.158  1.00  0.00     0.000 C 
BRANCH   2   3
ATOM      3  C   UNL     1      11.724  16.757  71.387  1.00  0.00     0.000 C 
BRANCH   3   4
ATOM      4  C   UNL     1      10.204  16.941  71.237  1.00  0.00     0.000 C 
BRANCH   4   5
ATOM      5  C   UNL     1       9.831  18.102  70.297  1.00  0.00     0.000 C 
BRANCH   5   6
ATOM      6  C   UNL     1      10.767  18.292  69.086  1.00  0.00     0.006 C 
BRANCH   6   7
ATOM      7  C   UNL     1      10.680  17.180  68.029  1.00  0.00     0.053 C 
BRANCH   7   8
ATOM      8  C   UNL     1      11.639  17.403  66.900  1.00  0.00     0.041 C 
ATOM      9  O   UNL     1      12.399  16.473  66.522  1.00  0.00    -0.550 OA
ATOM     10  O   UNL     1      11.670  18.627  66.244  1.00  0.00    -0.550 OA
ENDBRANCH   7   8
ENDBRANCH   6   7
ENDBRANCH   5   6
ENDBRANCH   4   5
ENDBRANCH   3   4
ENDBRANCH   2   3
ENDBRANCH   1   2
BRANCH   1  11
ATOM     11  C   UNL     1      11.269  13.277  71.218  1.00  0.00     0.000 C 
BRANCH  11  12
ATOM     12  C   UNL     1      10.696  13.537  69.816  1.00  0.00    -0.000 C 
BRANCH  12  13
ATOM     13  C   UNL     1      11.774  13.500  68.720  1.00  0.00    -0.000 C 
BRANCH  13  14
ATOM     14  C   UNL     1      13.198  13.626  69.288  1.00  0.00    -0.000 C 
BRANCH  14  15
ATOM     15  C   UNL     1      13.867  14.967  68.938  1.00  0.00    -0.000 C 
BRANCH  15  16
ATOM     16  C   UNL     1      14.957  15.430  69.924  1.00  0.00    -0.000 C 
BRANCH  16  17
ATOM     17  C   UNL     1      15.965  14.324  70.265  1.00  0.00    -0.003 C 
ATOM     18  C   UNL     1      17.287  14.540  69.532  1.00  0.00     0.004 C 
ENDBRANCH  16  17
ENDBRANCH  15  16
ENDBRANCH  14  15
ENDBRANCH  13  14
ENDBRANCH  12  13
ENDBRANCH  11  12
ENDBRANCH   1  11
TORSDOF 14
ENDMDL
MODEL 3
REMARK VINA RESULT:    -5.046      2.274      3.927
REMARK INTER + INTRA:         -11.284
REMARK INTER:                  -9.086
REMARK INTRA:                  -2.199
REMARK UNBOUND:                -2.108
REMARK SMILES CCCCCCCCCCCCCCCC(=O)[O-]
REMARK SMILES IDX 9 1 10 2 11 3 12 4 13 5 14 6 15 7 16 8 17 9 18 10 8 11 7 12
REMARK SMILES IDX 6 13 5 14 4 15 3 16 2 17 1 18
REMARK H PARENT
REMARK Flexibility Score: inf
ROOT
ATOM      1  C   UNL     1      10.170  17.144  69.861  1.00  0.00     0.000 C 
ENDROOT
BRANCH   1   2
ATOM      2  C   UNL     1      10.847  18.298  69.107  1.00  0.00     0.000 C 
BRANCH   2   3
ATOM      3  C   UNL     1      11.291  17.902  67.690  1.00  0.00     0.000 C 
BRANCH   3   4
ATOM      4  C   UNL     1      11.319  16.378  67.484  1.00  0.00     0.000 C 
BRANCH   4   5
ATOM      5  C   UNL     1      12.680  15.867  66.975  1.00  0.00     0.000 C 
BRANCH   5   6
ATOM      6  C   UNL     1      13.445  14.953  67.955  1.00  0.00     0.006 C 
BRANCH   6   7
ATOM      7  C   UNL     1      13.901  15.643  69.250  1.00  0.00     0.053 C 
BRANCH   7   8
ATOM      8  C   UNL     1      14.980  14.871  69.946  1.00  0.00     0.041 C 
ATOM      9  O   UNL     1      14.704  14.163  70.951  1.00  0.00    -0.550 OA
ATOM     10  O   UNL     1      16.283  14.907  69.466  1.00  0.00    -0.550 OA
ENDBRANCH   7   8
ENDBRANCH   6   7
ENDBRANCH   5   6
ENDBRANCH   4   5
ENDBRANCH   3   4
ENDBRANCH   2   3
ENDBRANCH   1   2
BRANCH   1  11
ATOM     11  C   UNL     1       9.897  17.527  71.321  1.00  0.00     0.000 C 
BRANCH  11  12
ATOM     12  C   UNL     1      10.338  16.406  72.275  1.00  0.00    -0.000 C 
BRANCH  12  13
ATOM     13  C   UNL     1      11.485  15.558  71.703  1.00  0.00    -0.000 C 
BRANCH  13  14
ATOM     14  C   UNL     1      11.237  14.047  71.861  1.00  0.00    -0.000 C 
BRANCH  14  15
ATOM     15  C   UNL     1      11.385  13.274  70.538  1.00  0.00    -0.000 C 
BRANCH  15  16
ATOM     16  C   UNL     1      10.282  13.543  69.497  1.00  0.00    -0.000 C 
BRANCH  16  17
ATOM     17  C   UNL     1      10.406  12.657  68.250  1.00  0.00    -0.003 C 
ATOM     18  C   UNL     1       9.656  11.340  68.435  1.00  0.00     0.004 C 
ENDBRANCH  16  17
ENDBRANCH  15  16
ENDBRANCH  14  15
ENDBRANCH  13  14
ENDBRANCH  12  13
ENDBRANCH  11  12
ENDBRANCH   1  11
TORSDOF 14
ENDMDL
MODEL 4
REMARK VINA RESULT:    -4.971      2.200      4.697
REMARK INTER + INTRA:         -11.148
REMARK INTER:                  -9.062
REMARK INTRA:                  -2.086
REMARK UNBOUND:                -2.108
REMARK SMILES CCCCCCCCCCCCCCCC(=O)[O-]
REMARK SMILES IDX 9 1 10 2 11 3 12 4 13 5 14 6 15 7 16 8 17 9 18 10 8 11 7 12
REMARK SMILES IDX 6 13 5 14 4 15 3 16 2 17 1 18
REMARK H PARENT
REMARK Flexibility Score: inf
ROOT
ATOM      1  C   UNL     1      10.690  16.850  70.085  1.00  0.00     0.000 C 
ENDROOT
BRANCH   1   2
ATOM      2  C   UNL     1      10.246  17.165  71.521  1.00  0.00     0.000 C 
BRANCH   2   3
ATOM      3  C   UNL     1      10.795  16.162  72.547  1.00  0.00     0.000 C 
BRANCH   3   4
ATOM      4  C   UNL     1      11.780  15.159  71.922  1.00  0.00     0.000 C 
BRANCH   4   5
ATOM      5  C   UNL     1      11.195  13.739  71.804  1.00  0.00     0.000 C 
BRANCH   5   6
ATOM      6  C   UNL     1      11.325  13.091  70.410  1.00  0.00     0.006 C 
BRANCH   6   7
ATOM      7  C   UNL     1      10.121  13.322  69.483  1.00  0.00     0.053 C 
BRANCH   7   8
ATOM      8  C   UNL     1      10.019  12.268  68.423  1.00  0.00     0.041 C 
ATOM      9  O   UNL     1       9.430  11.181  68.665  1.00  0.00    -0.550 OA
ATOM     10  O   UNL     1      10.547  12.498  67.159  1.00  0.00    -0.550 OA
ENDBRANCH   7   8
ENDBRANCH   6   7
ENDBRANCH   5   6
ENDBRANCH   4   5
ENDBRANCH   3   4
ENDBRANCH   2   3
ENDBRANCH   1   2
BRANCH   1  11
ATOM     11  C   UNL     1      11.148  18.121  69.358  1.00  0.00     0.000 C 
BRANCH  11  12
ATOM     12  C   UNL     1      11.138  17.919  67.836  1.00  0.00    -0.000 C 
BRANCH  12  13
ATOM     13  C   UNL     1      11.192  16.436  67.434  1.00  0.00    -0.000 C 
BRANCH  13  14
ATOM     14  C   UNL     1      12.616  15.972  67.080  1.00  0.00    -0.000 C 
BRANCH  14  15
ATOM     15  C   UNL     1      13.152  14.895  68.042  1.00  0.00    -0.000 C 
BRANCH  15  16
ATOM     16  C   UNL     1      14.049  15.423  69.177  1.00  0.00    -0.000 C 
BRANCH  16  17
ATOM     17  C   UNL     1      14.811  14.307  69.906  1.00  0.00    -0.003 C 
ATOM     18  C   UNL     1      16.309  14.599  69.947  1.00  0.00     0.004 C 
ENDBRANCH  16  17
ENDBRANCH  15  16
ENDBRANCH  14  15
ENDBRANCH  13  14
ENDBRANCH  12  13
ENDBRANCH  11  12
ENDBRANCH   1  11
TORSDOF 14
ENDMDL
MODEL 5
REMARK VINA RESULT:    -4.930      1.140      4.080
REMARK INTER + INTRA:         -11.074
REMARK INTER:                  -8.889
REMARK INTRA:                  -2.185
REMARK UNBOUND:                -2.108
REMARK SMILES CCCCCCCCCCCCCCCC(=O)[O-]
REMARK SMILES IDX 9 1 10 2 11 3 12 4 13 5 14 6 15 7 16 8 17 9 18 10 8 11 7 12
REMARK SMILES IDX 6 13 5 14 4 15 3 16 2 17 1 18
REMARK H PARENT
REMARK Flexibility Score: inf
ROOT
ATOM      1  C   UNL     1      13.822  13.610  69.698  1.00  0.00     0.000 C 
ENDROOT
BRANCH   1   2
ATOM      2  C   UNL     1      12.617  13.745  68.756  1.00  0.00     0.000 C 
BRANCH   2   3
ATOM      3  C   UNL     1      11.335  13.128  69.338  1.00  0.00     0.000 C 
BRANCH   3   4
ATOM      4  C   UNL     1      10.063  13.658  68.655  1.00  0.00     0.000 C 
BRANCH   4   5
ATOM      5  C   UNL     1       9.729  15.108  69.050  1.00  0.00     0.000 C 
BRANCH   5   6
ATOM      6  C   UNL     1       9.749  16.125  67.891  1.00  0.00     0.006 C 
BRANCH   6   7
ATOM      7  C   UNL     1      10.716  17.303  68.088  1.00  0.00     0.053 C 
BRANCH   7   8
ATOM      8  C   UNL     1      11.647  17.464  66.925  1.00  0.00     0.041 C 
ATOM      9  O   UNL     1      11.656  18.536  66.265  1.00  0.00    -0.550 OA
ATOM     10  O   UNL     1      12.528  16.443  66.591  1.00  0.00    -0.550 OA
ENDBRANCH   7   8
ENDBRANCH   6   7
ENDBRANCH   5   6
ENDBRANCH   4   5
ENDBRANCH   3   4
ENDBRANCH   2   3
ENDBRANCH   1   2
BRANCH   1  11
ATOM     11  C   UNL     1      13.723  14.603  70.864  1.00  0.00     0.000 C 
BRANCH  11  12
ATOM     12  C   UNL     1      13.497  16.033  70.350  1.00  0.00    -0.000 C 
BRANCH  12  13
ATOM     13  C   UNL     1      12.418  16.785  71.146  1.00  0.00    -0.000 C 
BRANCH  13  14
ATOM     14  C   UNL     1      11.744  15.900  72.209  1.00  0.00    -0.000 C 
BRANCH  14  15
ATOM     15  C   UNL     1      10.325  16.374  72.573  1.00  0.00    -0.000 C 
BRANCH  15  16
ATOM     16  C   UNL     1       9.751  17.476  71.663  1.00  0.00    -0.000 C 
BRANCH  16  17
ATOM     17  C   UNL     1       8.571  18.223  72.298  1.00  0.00    -0.003 C 
ATOM     18  C   UNL     1       8.090  17.517  73.563  1.00  0.00     0.004 C 
ENDBRANCH  16  17
ENDBRANCH  15  16
ENDBRANCH  14  15
ENDBRANCH  13  14
ENDBRANCH  12  13
ENDBRANCH  11  12
ENDBRANCH   1  11
TORSDOF 14
ENDMDL
MODEL 6
REMARK VINA RESULT:    -4.904      2.433      3.682
REMARK INTER + INTRA:         -11.026
REMARK INTER:                  -9.034
REMARK INTRA:                  -1.993
REMARK UNBOUND:                -2.108
REMARK SMILES CCCCCCCCCCCCCCCC(=O)[O-]
REMARK SMILES IDX 9 1 10 2 11 3 12 4 13 5 14 6 15 7 16 8 17 9 18 10 8 11 7 12
REMARK SMILES IDX 6 13 5 14 4 15 3 16 2 17 1 18
REMARK H PARENT
REMARK Flexibility Score: inf
ROOT
ATOM      1  C   UNL     1      13.165  15.012  67.584  1.00  0.00     0.000 C 
ENDROOT
BRANCH   1   2
ATOM      2  C   UNL     1      12.544  16.249  66.916  1.00  0.00     0.000 C 
BRANCH   2   3
ATOM      3  C   UNL     1      11.182  16.627  67.517  1.00  0.00     0.000 C 
BRANCH   3   4
ATOM      4  C   UNL     1      11.090  18.120  67.879  1.00  0.00     0.000 C 
BRANCH   4   5
ATOM      5  C   UNL     1      10.828  18.359  69.377  1.00  0.00     0.000 C 
BRANCH   5   6
ATOM      6  C   UNL     1      11.184  17.176  70.302  1.00  0.00     0.006 C 
BRANCH   6   7
ATOM      7  C   UNL     1      10.111  16.835  71.347  1.00  0.00     0.053 C 
BRANCH   7   8
ATOM      8  C   UNL     1      10.705  16.237  72.586  1.00  0.00     0.041 C 
ATOM      9  O   UNL     1       9.988  16.045  73.603  1.00  0.00    -0.550 OA
ATOM     10  O   UNL     1      12.042  15.862  72.605  1.00  0.00    -0.550 OA
ENDBRANCH   7   8
ENDBRANCH   6   7
ENDBRANCH   5   6
ENDBRANCH   4   5
ENDBRANCH   3   4
ENDBRANCH   2   3
ENDBRANCH   1   2
BRANCH   1  11
ATOM     11  C   UNL     1      13.893  15.393  68.879  1.00  0.00     0.000 C 
BRANCH  11  12
ATOM     12  C   UNL     1      13.757  14.283  69.933  1.00  0.00    -0.000 C 
BRANCH  12  13
ATOM     13  C   UNL     1      12.761  13.189  69.516  1.00  0.00    -0.000 C 
BRANCH  13  14
ATOM     14  C   UNL     1      11.382  13.365  70.176  1.00  0.00    -0.000 C 
BRANCH  14  15
ATOM     15  C   UNL     1      10.231  13.418  69.154  1.00  0.00    -0.000 C 
BRANCH  15  16
ATOM     16  C   UNL     1      10.142  12.207  68.207  1.00  0.00    -0.000 C 
BRANCH  16  17
ATOM     17  C   UNL     1       9.156  11.137  68.695  1.00  0.00    -0.003 C 
ATOM     18  C   UNL     1       9.506   9.765  68.124  1.00  0.00     0.004 C 
ENDBRANCH  16  17
ENDBRANCH  15  16
ENDBRANCH  14  15
ENDBRANCH  13  14
ENDBRANCH  12  13
ENDBRANCH  11  12
ENDBRANCH   1  11
TORSDOF 14
ENDMDL
MODEL 7
REMARK VINA RESULT:    -4.856      3.761      5.119
REMARK INTER + INTRA:         -10.938
REMARK INTER:                  -8.864
REMARK INTRA:                  -2.074
REMARK UNBOUND:                -2.108
REMARK SMILES CCCCCCCCCCCCCCCC(=O)[O-]
REMARK SMILES IDX 9 1 10 2 11 3 12 4 13 5 14 6 15 7 16 8 17 9 18 10 8 11 7 12
REMARK SMILES IDX 6 13 5 14 4 15 3 16 2 17 1 18
REMARK H PARENT
REMARK Flexibility Score: inf
ROOT
ATOM      1  C   UNL     1      10.019  16.436  68.054  1.00  0.00     0.000 C 
ENDROOT
BRANCH   1   2
ATOM      2  C   UNL     1       9.347  16.405  69.435  1.00  0.00     0.000 C 
BRANCH   2   3
ATOM      3  C   UNL     1      10.356  16.505  70.590  1.00  0.00     0.000 C 
BRANCH   3   4
ATOM      4  C   UNL     1       9.799  17.283  71.795  1.00  0.00     0.000 C 
BRANCH   4   5
ATOM      5  C   UNL     1       8.432  17.931  71.510  1.00  0.00     0.000 C 
BRANCH   5   6
ATOM      6  C   UNL     1       7.580  18.242  72.758  1.00  0.00     0.006 C 
BRANCH   6   7
ATOM      7  C   UNL     1       8.103  17.616  74.061  1.00  0.00     0.053 C 
BRANCH   7   8
ATOM      8  C   UNL     1       7.195  16.539  74.569  1.00  0.00     0.041 C 
ATOM      9  O   UNL     1       6.062  16.368  74.047  1.00  0.00    -0.550 OA
ATOM     10  O   UNL     1       7.613  15.703  75.596  1.00  0.00    -0.550 OA
ENDBRANCH   7   8
ENDBRANCH   6   7
ENDBRANCH   5   6
ENDBRANCH   4   5
ENDBRANCH   3   4
ENDBRANCH   2   3
ENDBRANCH   1   2
BRANCH   1  11
ATOM     11  C   UNL     1      11.479  16.893  68.163  1.00  0.00     0.000 C 
BRANCH  11  12
ATOM     12  C   UNL     1      12.334  16.273  67.047  1.00  0.00    -0.000 C 
BRANCH  12  13
ATOM     13  C   UNL     1      13.346  15.244  67.577  1.00  0.00    -0.000 C 
BRANCH  13  14
ATOM     14  C   UNL     1      13.624  15.411  69.081  1.00  0.00    -0.000 C 
BRANCH  14  15
ATOM     15  C   UNL     1      13.206  14.181  69.908  1.00  0.00    -0.000 C 
BRANCH  15  16
ATOM     16  C   UNL     1      12.455  13.090  69.121  1.00  0.00    -0.000 C 
BRANCH  16  17
ATOM     17  C   UNL     1      10.960  13.029  69.461  1.00  0.00    -0.003 C 
ATOM     18  C   UNL     1      10.129  12.686  68.227  1.00  0.00     0.004 C 
ENDBRANCH  16  17
ENDBRANCH  15  16
ENDBRANCH  14  15
ENDBRANCH  13  14
ENDBRANCH  12  13
ENDBRANCH  11  12
ENDBRANCH   1  11
TORSDOF 14
ENDMDL
MODEL 8
REMARK VINA RESULT:    -4.845      3.648      5.011
REMARK INTER + INTRA:         -10.919
REMARK INTER:                  -8.668
REMARK INTRA:                  -2.251
REMARK UNBOUND:                -2.108
REMARK SMILES CCCCCCCCCCCCCCCC(=O)[O-]
REMARK SMILES IDX 9 1 10 2 11 3 12 4 13 5 14 6 15 7 16 8 17 9 18 10 8 11 7 12
REMARK SMILES IDX 6 13 5 14 4 15 3 16 2 17 1 18
REMARK H PARENT
REMARK Flexibility Score: inf
ROOT
ATOM      1  C   UNL     1      13.564  16.308  70.330  1.00  0.00     0.000 C 
ENDROOT
BRANCH   1   2
ATOM      2  C   UNL     1      12.456  16.804  71.271  1.00  0.00     0.000 C 
BRANCH   2   3
ATOM      3  C   UNL     1      11.886  15.687  72.160  1.00  0.00     0.000 C 
BRANCH   3   4
ATOM      4  C   UNL     1      10.510  16.044  72.748  1.00  0.00     0.000 C 
BRANCH   4   5
ATOM      5  C   UNL     1       9.806  17.178  71.979  1.00  0.00     0.000 C 
BRANCH   5   6
ATOM      6  C   UNL     1       8.395  17.537  72.489  1.00  0.00     0.006 C 
BRANCH   6   7
ATOM      7  C   UNL     1       8.266  17.611  74.018  1.00  0.00     0.053 C 
BRANCH   7   8
ATOM      8  C   UNL     1       7.254  16.639  74.543  1.00  0.00     0.041 C 
ATOM      9  O   UNL     1       7.586  15.785  75.407  1.00  0.00    -0.550 OA
ATOM     10  O   UNL     1       5.938  16.699  74.104  1.00  0.00    -0.550 OA
ENDBRANCH   7   8
ENDBRANCH   6   7
ENDBRANCH   5   6
ENDBRANCH   4   5
ENDBRANCH   3   4
ENDBRANCH   2   3
ENDBRANCH   1   2
BRANCH   1  11
ATOM     11  C   UNL     1      13.555  14.777  70.228  1.00  0.00     0.000 C 
BRANCH  11  12
ATOM     12  C   UNL     1      13.111  14.322  68.830  1.00  0.00    -0.000 C 
BRANCH  12  13
ATOM     13  C   UNL     1      12.169  13.108  68.873  1.00  0.00    -0.000 C 
BRANCH  13  14
ATOM     14  C   UNL     1      10.763  13.432  68.337  1.00  0.00    -0.000 C 
BRANCH  14  15
ATOM     15  C   UNL     1       9.999  14.432  69.224  1.00  0.00    -0.000 C 
BRANCH  15  16
ATOM     16  C   UNL     1       9.314  15.586  68.467  1.00  0.00    -0.000 C 
BRANCH  16  17
ATOM     17  C   UNL     1      10.151  16.872  68.452  1.00  0.00    -0.003 C 
ATOM     18  C   UNL     1      11.030  16.941  67.206  1.00  0.00     0.004 C 
ENDBRANCH  16  17
ENDBRANCH  15  16
ENDBRANCH  14  15
ENDBRANCH  13  14
ENDBRANCH  12  13
ENDBRANCH  11  12
ENDBRANCH   1  11
TORSDOF 14
ENDMDL
MODEL 9
REMARK VINA RESULT:    -4.841      3.273      4.494
REMARK INTER + INTRA:         -10.911
REMARK INTER:                  -8.625
REMARK INTRA:                  -2.286
REMARK UNBOUND:                -2.108
REMARK SMILES CCCCCCCCCCCCCCCC(=O)[O-]
REMARK SMILES IDX 9 1 10 2 11 3 12 4 13 5 14 6 15 7 16 8 17 9 18 10 8 11 7 12
REMARK SMILES IDX 6 13 5 14 4 15 3 16 2 17 1 18
REMARK H PARENT
REMARK Flexibility Score: inf
ROOT
ATOM      1  C   UNL     1      11.406  16.240  67.368  1.00  0.00     0.000 C 
ENDROOT
BRANCH   1   2
ATOM      2  C   UNL     1      11.151  17.755  67.380  1.00  0.00     0.000 C 
BRANCH   2   3
ATOM      3  C   UNL     1      10.889  18.302  68.792  1.00  0.00     0.000 C 
BRANCH   3   4
ATOM      4  C   UNL     1      10.076  17.327  69.661  1.00  0.00     0.000 C 
BRANCH   4   5
ATOM      5  C   UNL     1      10.737  17.044  71.023  1.00  0.00     0.000 C 
BRANCH   5   6
ATOM      6  C   UNL     1       9.774  17.025  72.228  1.00  0.00     0.006 C 
BRANCH   6   7
ATOM      7  C   UNL     1       8.665  18.089  72.177  1.00  0.00     0.053 C 
BRANCH   7   8
ATOM      8  C   UNL     1       7.633  17.873  73.241  1.00  0.00     0.041 C 
ATOM      9  O   UNL     1       6.531  17.335  72.954  1.00  0.00    -0.550 OA
ATOM     10  O   UNL     1       7.900  18.235  74.555  1.00  0.00    -0.550 OA
ENDBRANCH   7   8
ENDBRANCH   6   7
ENDBRANCH   5   6
ENDBRANCH   4   5
ENDBRANCH   3   4
ENDBRANCH   2   3
ENDBRANCH   1   2
BRANCH   1  11
ATOM     11  C   UNL     1      12.828  15.925  66.887  1.00  0.00     0.000 C 
BRANCH  11  12
ATOM     12  C   UNL     1      13.541  14.974  67.860  1.00  0.00    -0.000 C 
BRANCH  12  13
ATOM     13  C   UNL     1      13.640  15.548  69.283  1.00  0.00    -0.000 C 
BRANCH  13  14
ATOM     14  C   UNL     1      13.321  14.501  70.365  1.00  0.00    -0.000 C 
BRANCH  14  15
ATOM     15  C   UNL     1      12.388  13.384  69.862  1.00  0.00    -0.000 C 
BRANCH  15  16
ATOM     16  C   UNL     1      10.906  13.549  70.248  1.00  0.00    -0.000 C 
BRANCH  16  17
ATOM     17  C   UNL     1       9.953  13.358  69.061  1.00  0.00    -0.003 C 
ATOM     18  C   UNL     1      10.638  12.610  67.920  1.00  0.00     0.004 C 
ENDBRANCH  16  17
ENDBRANCH  15  16
ENDBRANCH  14  15
ENDBRANCH  13  14
ENDBRANCH  12  13
ENDBRANCH  11  12
ENDBRANCH   1  11
TORSDOF 14
ENDMDL
