MODEL 1
REMARK VINA RESULT:    18.713      0.000      0.000
REMARK INTER + INTRA:          22.216
REMARK INTER:                  22.542
REMARK INTRA:                  -0.326
REMARK UNBOUND:                -0.326
REMARK SMILES O=c1c(O)c(-c2ccc(O)c(O)c2)oc2cc(O)cc(O)c12
REMARK SMILES IDX 5 1 3 2 2 3 1 4 22 5 20 6 19 7 17 8 16 9 15 10 14 11 6 12
REMARK SMILES IDX 7 13 8 14 9 15 13 16 11 17 10 18 12 20 4 22 21 24 18 26
REMARK H PARENT 10 19 12 21 4 23 21 25 18 27
REMARK Flexibility Score: inf
ROOT
ATOM      1  C   UNL     1      12.560  -2.006  10.955  1.00  0.00     0.180 A 
ATOM      2  C   UNL     1      12.862  -0.636  11.037  1.00  0.00     0.208 A 
ATOM      3  C   UNL     1      13.836  -0.207  11.954  1.00  0.00     0.238 A 
ATOM      4  O   UNL     1      14.064   1.026  12.060  1.00  0.00    -0.285 OA
ATOM      5  C   UNL     1      14.504  -1.155  12.766  1.00  0.00     0.111 A 
ATOM      6  C   UNL     1      15.536  -0.836  13.700  1.00  0.00     0.134 A 
ATOM      7  C   UNL     1      16.036  -1.835  14.543  1.00  0.00     0.093 A 
ATOM      8  C   UNL     1      15.591  -3.152  14.443  1.00  0.00     0.123 A 
ATOM      9  C   UNL     1      14.625  -3.487  13.492  1.00  0.00     0.094 A 
ATOM     10  C   UNL     1      14.081  -2.504  12.661  1.00  0.00     0.146 A 
ATOM     11  O   UNL     1      13.157  -2.862  11.777  1.00  0.00    -0.452 OA
ENDROOT
BRANCH   1  12
ATOM     12  C   UNL     1      11.563  -2.537   9.997  1.00  0.00     0.025 A 
ATOM     13  C   UNL     1      10.259  -2.811  10.438  1.00  0.00     0.016 A 
ATOM     14  C   UNL     1       9.308  -3.333   9.555  1.00  0.00     0.051 A 
ATOM     15  C   UNL     1       9.655  -3.603   8.225  1.00  0.00     0.157 A 
ATOM     16  C   UNL     1      11.912  -2.829   8.665  1.00  0.00     0.062 A 
ATOM     17  C   UNL     1      10.959  -3.354   7.781  1.00  0.00     0.158 A 
BRANCH  15  18
ATOM     18  O   UNL     1       8.710  -4.121   7.341  1.00  0.00    -0.504 OA
ATOM     19  H   UNL     1       7.840  -4.524   7.671  1.00  0.00     0.293 HD
ENDBRANCH  15  18
BRANCH  17  20
ATOM     20  O   UNL     1      11.304  -3.637   6.460  1.00  0.00    -0.504 OA
ATOM     21  H   UNL     1      12.175  -3.312   6.058  1.00  0.00     0.293 HD
ENDBRANCH  17  20
ENDBRANCH   1  12
BRANCH   2  22
ATOM     22  O   UNL     1      12.174   0.284  10.241  1.00  0.00    -0.502 OA
ATOM     23  H   UNL     1      11.162   0.326  10.210  1.00  0.00     0.293 HD
ENDBRANCH   2  22
BRANCH   6  24
ATOM     24  O   UNL     1      16.118   0.430  13.818  1.00  0.00    -0.507 OA
ATOM     25  H   UNL     1      17.070   0.601  14.101  1.00  0.00     0.293 HD
ENDBRANCH   6  24
BRANCH   8  26
ATOM     26  O   UNL     1      16.121  -4.125  15.287  1.00  0.00    -0.508 OA
ATOM     27  H   UNL     1      15.914  -4.137  16.279  1.00  0.00     0.293 HD
ENDBRANCH   8  26
TORSDOF 6
ENDMDL
