MODEL 1
REMARK VINA RESULT:     5.399      0.000      0.000
REMARK INTER + INTRA:           6.968
REMARK INTER:                   5.872
REMARK INTRA:                   1.096
REMARK UNBOUND:                 1.096
REMARK SMILES C[C@H]1[C@H](C)CC[C@]2(C(=O)[O-])CC[C@@]3(C)C(=CC[C@H]4[C@@]5(C)CC[C@H](O)C(C)(C)[C@H]5CC[C@@]43C)[C@H]12
REMARK SMILES IDX 7 1 6 2 11 3 33 4 5 5 12 6 15 7 2 8 3 9 13 10 16 11 1 12
REMARK SMILES IDX 4 13 14 14 31 15 17 16 18 17 30 18 32 19 19 20 29 21 28 22
REMARK SMILES IDX 21 23 20 24 25 25 22 26 23 27 26 28 27 29 8 30 9 31 10 32
REMARK SMILES IDX 24 33
REMARK H PARENT 24 34
REMARK Flexibility Score: inf
ROOT
ATOM      1  C   UNL     1      11.927  21.856   1.808  1.00  0.00     0.017 C 
ATOM      2  C   UNL     1      11.439  21.022   3.023  1.00  0.00     0.014 C 
ATOM      3  C   UNL     1      10.929  23.036   1.520  1.00  0.00     0.014 C 
ATOM      4  C   UNL     1      12.102  20.934   0.551  1.00  0.00     0.030 C 
ATOM      5  C   UNL     1      10.208  20.165   2.733  1.00  0.00     0.004 C 
ATOM      6  C   UNL     1      10.773  23.463   0.038  1.00  0.00     0.013 C 
ATOM      7  C   UNL     1      12.520  21.771  -0.674  1.00  0.00    -0.063 C 
ATOM      8  C   UNL     1      10.845  20.027   0.276  1.00  0.00    -0.003 C 
ATOM      9  C   UNL     1      10.455  19.220   1.552  1.00  0.00    -0.011 C 
ATOM     10  C   UNL     1      12.031  23.228  -0.855  1.00  0.00    -0.006 C 
ATOM     11  C   UNL     1      13.310  21.192  -1.617  1.00  0.00    -0.027 C 
ATOM     12  C   UNL     1      11.092  19.051  -0.900  1.00  0.00     0.008 C 
ATOM     13  C   UNL     1       9.199  18.348   1.350  1.00  0.00     0.008 C 
ATOM     14  C   UNL     1      13.157  24.195  -0.338  1.00  0.00     0.017 C 
ATOM     15  C   UNL     1      11.706  23.442  -2.417  1.00  0.00    -0.020 C 
ATOM     16  C   UNL     1      13.518  21.724  -3.025  1.00  0.00     0.032 C 
ATOM     17  C   UNL     1      13.041  23.188  -3.215  1.00  0.00     0.006 C 
ATOM     18  C   UNL     1      11.198  24.875  -2.751  1.00  0.00     0.008 C 
ATOM     19  C   UNL     1      10.593  22.428  -2.842  1.00  0.00     0.012 C 
ATOM     20  C   UNL     1      13.182  23.872  -4.672  1.00  0.00    -0.025 C 
ATOM     21  C   UNL     1      10.840  25.076  -4.238  1.00  0.00     0.005 C 
ATOM     22  C   UNL     1      11.810  24.430  -5.286  1.00  0.00     0.003 C 
ATOM     23  C   UNL     1      13.970  22.994  -5.710  1.00  0.00     0.010 C 
ATOM     24  C   UNL     1      14.124  25.120  -4.476  1.00  0.00     0.012 C 
ATOM     25  C   UNL     1      11.078  23.653  -6.486  1.00  0.00    -0.006 C 
ATOM     26  C   UNL     1      13.107  22.113  -6.599  1.00  0.00     0.033 C 
ATOM     27  C   UNL     1      12.123  22.965  -7.413  1.00  0.00     0.120 C 
ATOM     28  C   UNL     1      10.029  22.572  -6.086  1.00  0.00     0.014 C 
ATOM     29  C   UNL     1      10.281  24.690  -7.338  1.00  0.00     0.014 C 
ENDROOT
BRANCH   1  30
ATOM     30  C   UNL     1      13.277  22.425   2.248  1.00  0.00     0.048 C 
ATOM     31  O   UNL     1      14.092  21.738   2.922  1.00  0.00    -0.550 OA
ATOM     32  O   UNL     1      13.595  23.752   1.975  1.00  0.00    -0.550 OA
ENDBRANCH   1  30
BRANCH  27  33
ATOM     33  O   UNL     1      12.827  23.925  -8.167  1.00  0.00    -0.393 OA
ATOM     34  H   UNL     1      13.108  24.638  -7.537  1.00  0.00     0.210 HD
ENDBRANCH  27  33
TORSDOF 2
ENDMDL
MODEL 2
REMARK VINA RESULT:     6.797     14.139     18.355
REMARK INTER + INTRA:           8.489
REMARK INTER:                   8.656
REMARK INTRA:                  -0.167
REMARK UNBOUND:                 1.096
REMARK SMILES C[C@H]1[C@H](C)CC[C@]2(C(=O)[O-])CC[C@@]3(C)C(=CC[C@H]4[C@@]5(C)CC[C@H](O)C(C)(C)[C@H]5CC[C@@]43C)[C@H]12
REMARK SMILES IDX 7 1 6 2 11 3 33 4 5 5 12 6 15 7 2 8 3 9 13 10 16 11 1 12
REMARK SMILES IDX 4 13 14 14 31 15 17 16 18 17 30 18 32 19 19 20 29 21 28 22
REMARK SMILES IDX 21 23 20 24 25 25 22 26 23 27 26 28 27 29 8 30 9 31 10 32
REMARK SMILES IDX 24 33
REMARK H PARENT 24 34
REMARK Flexibility Score: inf
ROOT
ATOM      1  C   UNL     1      -4.485  23.140 -14.063  1.00  0.00     0.017 C 
ATOM      2  C   UNL     1      -5.818  23.058 -13.271  1.00  0.00     0.014 C 
ATOM      3  C   UNL     1      -3.960  21.696 -14.399  1.00  0.00     0.014 C 
ATOM      4  C   UNL     1      -3.422  23.962 -13.254  1.00  0.00     0.030 C 
ATOM      5  C   UNL     1      -5.655  22.574 -11.831  1.00  0.00     0.004 C 
ATOM      6  C   UNL     1      -2.422  21.516 -14.455  1.00  0.00     0.013 C 
ATOM      7  C   UNL     1      -2.077  23.986 -14.007  1.00  0.00    -0.063 C 
ATOM      8  C   UNL     1      -3.282  23.483 -11.761  1.00  0.00    -0.003 C 
ATOM      9  C   UNL     1      -4.672  23.458 -11.055  1.00  0.00    -0.011 C 
ATOM     10  C   UNL     1      -1.621  22.788 -14.873  1.00  0.00    -0.006 C 
ATOM     11  C   UNL     1      -1.277  25.077 -13.870  1.00  0.00    -0.027 C 
ATOM     12  C   UNL     1      -2.311  24.384 -10.960  1.00  0.00     0.008 C 
ATOM     13  C   UNL     1      -4.599  22.951  -9.601  1.00  0.00     0.008 C 
ATOM     14  C   UNL     1      -1.984  23.096 -16.371  1.00  0.00     0.017 C 
ATOM     15  C   UNL     1      -0.038  22.600 -14.651  1.00  0.00    -0.020 C 
ATOM     16  C   UNL     1       0.198  25.125 -14.232  1.00  0.00     0.032 C 
ATOM     17  C   UNL     1       0.664  23.934 -15.110  1.00  0.00     0.006 C 
ATOM     18  C   UNL     1       0.565  21.420 -15.467  1.00  0.00     0.008 C 
ATOM     19  C   UNL     1       0.226  22.318 -13.134  1.00  0.00     0.012 C 
ATOM     20  C   UNL     1       2.217  23.848 -15.549  1.00  0.00    -0.025 C 
ATOM     21  C   UNL     1       2.072  21.203 -15.224  1.00  0.00     0.005 C 
ATOM     22  C   UNL     1       2.959  22.491 -15.125  1.00  0.00     0.003 C 
ATOM     23  C   UNL     1       3.057  25.117 -15.159  1.00  0.00     0.010 C 
ATOM     24  C   UNL     1       2.225  23.888 -17.125  1.00  0.00     0.012 C 
ATOM     25  C   UNL     1       4.018  22.484 -13.916  1.00  0.00    -0.006 C 
ATOM     26  C   UNL     1       3.794  25.023 -13.832  1.00  0.00     0.033 C 
ATOM     27  C   UNL     1       4.775  23.843 -13.842  1.00  0.00     0.120 C 
ATOM     28  C   UNL     1       3.456  22.187 -12.493  1.00  0.00     0.014 C 
ATOM     29  C   UNL     1       5.064  21.357 -14.178  1.00  0.00     0.014 C 
ENDROOT
BRANCH   1  30
ATOM     30  C   UNL     1      -4.850  23.865 -15.359  1.00  0.00     0.048 C 
ATOM     31  O   UNL     1      -4.838  25.124 -15.435  1.00  0.00    -0.550 OA
ATOM     32  O   UNL     1      -5.285  23.139 -16.463  1.00  0.00    -0.550 OA
ENDBRANCH   1  30
BRANCH  27  33
ATOM     33  O   UNL     1       5.671  23.971 -14.922  1.00  0.00    -0.393 OA
ATOM     34  H   UNL     1       6.584  23.827 -14.560  1.00  0.00     0.210 HD
ENDBRANCH  27  33
TORSDOF 2
ENDMDL
