MODEL 1
REMARK VINA RESULT:    -4.396      0.000      0.000
REMARK INTER + INTRA:          -9.314
REMARK INTER:                  -7.994
REMARK INTRA:                  -1.320
REMARK UNBOUND:                -1.320
REMARK SMILES CCCCCCCCCCCCCCCC(=O)[O-]
REMARK SMILES IDX 9 1 10 2 11 3 12 4 13 5 14 6 15 7 16 8 17 9 18 10 8 11 7 12
REMARK SMILES IDX 6 13 5 14 4 15 3 16 2 17 1 18
REMARK H PARENT
REMARK Flexibility Score: inf
ROOT
ATOM      1  C   UNL     1      47.609  -8.066 -57.283  1.00  0.00     0.000 C 
ENDROOT
BRANCH   1   2
ATOM      2  C   UNL     1      47.669  -9.498 -56.721  1.00  0.00     0.000 C 
BRANCH   2   3
ATOM      3  C   UNL     1      47.266 -10.557 -57.759  1.00  0.00     0.000 C 
BRANCH   3   4
ATOM      4  C   UNL     1      47.241 -11.979 -57.179  1.00  0.00     0.000 C 
BRANCH   4   5
ATOM      5  C   UNL     1      48.382 -12.182 -56.175  1.00  0.00     0.000 C 
BRANCH   5   6
ATOM      6  C   UNL     1      48.793 -13.660 -56.100  1.00  0.00     0.006 C 
BRANCH   6   7
ATOM      7  C   UNL     1      47.692 -14.540 -55.493  1.00  0.00     0.053 C 
BRANCH   7   8
ATOM      8  C   UNL     1      47.320 -15.670 -56.403  1.00  0.00     0.041 C 
ATOM      9  O   UNL     1      47.723 -16.837 -56.162  1.00  0.00    -0.550 OA
ATOM     10  O   UNL     1      46.500 -15.437 -57.499  1.00  0.00    -0.550 OA
ENDBRANCH   7   8
ENDBRANCH   6   7
ENDBRANCH   5   6
ENDBRANCH   4   5
ENDBRANCH   3   4
ENDBRANCH   2   3
ENDBRANCH   1   2
BRANCH   1  11
ATOM     11  C   UNL     1      47.767  -6.996 -56.192  1.00  0.00     0.000 C 
BRANCH  11  12
ATOM     12  C   UNL     1      47.720  -7.586 -54.771  1.00  0.00    -0.000 C 
BRANCH  12  13
ATOM     13  C   UNL     1      48.879  -7.091 -53.889  1.00  0.00    -0.000 C 
BRANCH  13  14
ATOM     14  C   UNL     1      50.258  -7.411 -54.491  1.00  0.00    -0.000 C 
BRANCH  14  15
ATOM     15  C   UNL     1      51.096  -6.149 -54.768  1.00  0.00    -0.000 C 
BRANCH  15  16
ATOM     16  C   UNL     1      51.762  -6.096 -56.158  1.00  0.00    -0.000 C 
BRANCH  16  17
ATOM     17  C   UNL     1      50.857  -5.586 -57.293  1.00  0.00    -0.003 C 
ATOM     18  C   UNL     1      50.921  -6.462 -58.544  1.00  0.00     0.004 C 
ENDBRANCH  16  17
ENDBRANCH  15  16
ENDBRANCH  14  15
ENDBRANCH  13  14
ENDBRANCH  12  13
ENDBRANCH  11  12
ENDBRANCH   1  11
TORSDOF 14
ENDMDL
MODEL 2
REMARK VINA RESULT:    -4.351      1.580      3.525
REMARK INTER + INTRA:          -9.232
REMARK INTER:                  -7.268
REMARK INTRA:                  -1.964
REMARK UNBOUND:                -1.320
REMARK SMILES CCCCCCCCCCCCCCCC(=O)[O-]
REMARK SMILES IDX 9 1 10 2 11 3 12 4 13 5 14 6 15 7 16 8 17 9 18 10 8 11 7 12
REMARK SMILES IDX 6 13 5 14 4 15 3 16 2 17 1 18
REMARK H PARENT
REMARK Flexibility Score: inf
ROOT
ATOM      1  C   UNL     1      50.167  -7.000 -58.926  1.00  0.00     0.000 C 
ENDROOT
BRANCH   1   2
ATOM      2  C   UNL     1      48.836  -7.093 -58.157  1.00  0.00     0.000 C 
BRANCH   2   3
ATOM      3  C   UNL     1      48.073  -8.394 -58.453  1.00  0.00     0.000 C 
BRANCH   3   4
ATOM      4  C   UNL     1      46.684  -8.430 -57.799  1.00  0.00     0.000 C 
BRANCH   4   5
ATOM      5  C   UNL     1      46.384  -9.819 -57.222  1.00  0.00     0.000 C 
BRANCH   5   6
ATOM      6  C   UNL     1      47.680 -10.554 -56.851  1.00  0.00     0.006 C 
BRANCH   6   7
ATOM      7  C   UNL     1      47.604 -12.056 -57.157  1.00  0.00     0.053 C 
BRANCH   7   8
ATOM      8  C   UNL     1      48.334 -12.868 -56.132  1.00  0.00     0.041 C 
ATOM      9  O   UNL     1      49.425 -12.459 -55.657  1.00  0.00    -0.550 OA
ATOM     10  O   UNL     1      47.790 -14.062 -55.676  1.00  0.00    -0.550 OA
ENDBRANCH   7   8
ENDBRANCH   6   7
ENDBRANCH   5   6
ENDBRANCH   4   5
ENDBRANCH   3   4
ENDBRANCH   2   3
ENDBRANCH   1   2
BRANCH   1  11
ATOM     11  C   UNL     1      51.274  -6.313 -58.111  1.00  0.00     0.000 C 
BRANCH  11  12
ATOM     12  C   UNL     1      50.739  -5.644 -56.833  1.00  0.00    -0.000 C 
BRANCH  12  13
ATOM     13  C   UNL     1      51.468  -6.126 -55.567  1.00  0.00    -0.000 C 
BRANCH  13  14
ATOM     14  C   UNL     1      50.518  -6.309 -54.371  1.00  0.00    -0.000 C 
BRANCH  14  15
ATOM     15  C   UNL     1      49.933  -7.731 -54.286  1.00  0.00    -0.000 C 
BRANCH  15  16
ATOM     16  C   UNL     1      48.420  -7.837 -54.571  1.00  0.00    -0.000 C 
BRANCH  16  17
ATOM     17  C   UNL     1      47.576  -6.661 -54.047  1.00  0.00    -0.003 C 
ATOM     18  C   UNL     1      47.006  -5.792 -55.167  1.00  0.00     0.004 C 
ENDBRANCH  16  17
ENDBRANCH  15  16
ENDBRANCH  14  15
ENDBRANCH  13  14
ENDBRANCH  12  13
ENDBRANCH  11  12
ENDBRANCH   1  11
TORSDOF 14
ENDMDL
MODEL 3
REMARK VINA RESULT:    -4.335      1.343      2.569
REMARK INTER + INTRA:          -9.202
REMARK INTER:                  -7.643
REMARK INTRA:                  -1.559
REMARK UNBOUND:                -1.320
REMARK SMILES CCCCCCCCCCCCCCCC(=O)[O-]
REMARK SMILES IDX 9 1 10 2 11 3 12 4 13 5 14 6 15 7 16 8 17 9 18 10 8 11 7 12
REMARK SMILES IDX 6 13 5 14 4 15 3 16 2 17 1 18
REMARK H PARENT
REMARK Flexibility Score: inf
ROOT
ATOM      1  C   UNL     1      46.927  -7.274 -57.142  1.00  0.00     0.000 C 
ENDROOT
BRANCH   1   2
ATOM      2  C   UNL     1      47.910  -8.445 -57.320  1.00  0.00     0.000 C 
BRANCH   2   3
ATOM      3  C   UNL     1      47.494  -9.691 -56.522  1.00  0.00     0.000 C 
BRANCH   3   4
ATOM      4  C   UNL     1      46.672 -10.684 -57.357  1.00  0.00     0.000 C 
BRANCH   4   5
ATOM      5  C   UNL     1      47.354 -12.057 -57.405  1.00  0.00     0.000 C 
BRANCH   5   6
ATOM      6  C   UNL     1      48.328 -12.231 -56.230  1.00  0.00     0.006 C 
BRANCH   6   7
ATOM      7  C   UNL     1      49.001 -13.611 -56.233  1.00  0.00     0.053 C 
BRANCH   7   8
ATOM      8  C   UNL     1      48.061 -14.687 -55.785  1.00  0.00     0.041 C 
ATOM      9  O   UNL     1      47.270 -14.481 -54.829  1.00  0.00    -0.550 OA
ATOM     10  O   UNL     1      48.038 -15.908 -56.447  1.00  0.00    -0.550 OA
ENDBRANCH   7   8
ENDBRANCH   6   7
ENDBRANCH   5   6
ENDBRANCH   4   5
ENDBRANCH   3   4
ENDBRANCH   2   3
ENDBRANCH   1   2
BRANCH   1  11
ATOM     11  C   UNL     1      47.248  -6.087 -58.064  1.00  0.00     0.000 C 
BRANCH  11  12
ATOM     12  C   UNL     1      48.648  -5.500 -57.809  1.00  0.00    -0.000 C 
BRANCH  12  13
ATOM     13  C   UNL     1      48.696  -4.617 -56.550  1.00  0.00    -0.000 C 
BRANCH  13  14
ATOM     14  C   UNL     1      50.125  -4.435 -56.010  1.00  0.00    -0.000 C 
BRANCH  14  15
ATOM     15  C   UNL     1      50.355  -5.160 -54.671  1.00  0.00    -0.000 C 
BRANCH  15  16
ATOM     16  C   UNL     1      50.885  -6.603 -54.789  1.00  0.00    -0.000 C 
BRANCH  16  17
ATOM     17  C   UNL     1      49.898  -7.697 -54.344  1.00  0.00    -0.003 C 
ATOM     18  C   UNL     1      48.603  -7.130 -53.764  1.00  0.00     0.004 C 
ENDBRANCH  16  17
ENDBRANCH  15  16
ENDBRANCH  14  15
ENDBRANCH  13  14
ENDBRANCH  12  13
ENDBRANCH  11  12
ENDBRANCH   1  11
TORSDOF 14
ENDMDL
MODEL 4
REMARK VINA RESULT:    -4.322      1.348      2.509
REMARK INTER + INTRA:          -9.179
REMARK INTER:                  -7.821
REMARK INTRA:                  -1.359
REMARK UNBOUND:                -1.320
REMARK SMILES CCCCCCCCCCCCCCCC(=O)[O-]
REMARK SMILES IDX 9 1 10 2 11 3 12 4 13 5 14 6 15 7 16 8 17 9 18 10 8 11 7 12
REMARK SMILES IDX 6 13 5 14 4 15 3 16 2 17 1 18
REMARK H PARENT
REMARK Flexibility Score: inf
ROOT
ATOM      1  C   UNL     1      48.248  -7.689 -54.756  1.00  0.00     0.000 C 
ENDROOT
BRANCH   1   2
ATOM      2  C   UNL     1      48.286  -8.230 -56.197  1.00  0.00     0.000 C 
BRANCH   2   3
ATOM      3  C   UNL     1      46.915  -8.734 -56.675  1.00  0.00     0.000 C 
BRANCH   3   4
ATOM      4  C   UNL     1      46.973 -10.156 -57.253  1.00  0.00     0.000 C 
BRANCH   4   5
ATOM      5  C   UNL     1      47.950 -11.032 -56.459  1.00  0.00     0.000 C 
BRANCH   5   6
ATOM      6  C   UNL     1      47.977 -12.466 -57.009  1.00  0.00     0.006 C 
BRANCH   6   7
ATOM      7  C   UNL     1      48.791 -13.414 -56.118  1.00  0.00     0.053 C 
BRANCH   7   8
ATOM      8  C   UNL     1      47.996 -14.620 -55.719  1.00  0.00     0.041 C 
ATOM      9  O   UNL     1      46.975 -14.495 -54.993  1.00  0.00    -0.550 OA
ATOM     10  O   UNL     1      48.364 -15.877 -56.179  1.00  0.00    -0.550 OA
ENDBRANCH   7   8
ENDBRANCH   6   7
ENDBRANCH   5   6
ENDBRANCH   4   5
ENDBRANCH   3   4
ENDBRANCH   2   3
ENDBRANCH   1   2
BRANCH   1  11
ATOM     11  C   UNL     1      49.651  -7.443 -54.180  1.00  0.00     0.000 C 
BRANCH  11  12
ATOM     12  C   UNL     1      50.260  -6.111 -54.651  1.00  0.00    -0.000 C 
BRANCH  12  13
ATOM     13  C   UNL     1      51.701  -6.270 -55.165  1.00  0.00    -0.000 C 
BRANCH  13  14
ATOM     14  C   UNL     1      51.906  -5.643 -56.554  1.00  0.00    -0.000 C 
BRANCH  14  15
ATOM     15  C   UNL     1      50.984  -6.252 -57.626  1.00  0.00    -0.000 C 
BRANCH  15  16
ATOM     16  C   UNL     1      49.894  -5.305 -58.169  1.00  0.00    -0.000 C 
BRANCH  16  17
ATOM     17  C   UNL     1      49.903  -3.889 -57.566  1.00  0.00    -0.003 C 
ATOM     18  C   UNL     1      48.602  -3.541 -56.843  1.00  0.00     0.004 C 
ENDBRANCH  16  17
ENDBRANCH  15  16
ENDBRANCH  14  15
ENDBRANCH  13  14
ENDBRANCH  12  13
ENDBRANCH  11  12
ENDBRANCH   1  11
TORSDOF 14
ENDMDL
MODEL 5
REMARK VINA RESULT:    -4.313      2.272      4.129
REMARK INTER + INTRA:          -9.162
REMARK INTER:                  -7.417
REMARK INTRA:                  -1.745
REMARK UNBOUND:                -1.320
REMARK SMILES CCCCCCCCCCCCCCCC(=O)[O-]
REMARK SMILES IDX 9 1 10 2 11 3 12 4 13 5 14 6 15 7 16 8 17 9 18 10 8 11 7 12
REMARK SMILES IDX 6 13 5 14 4 15 3 16 2 17 1 18
REMARK H PARENT
REMARK Flexibility Score: inf
ROOT
ATOM      1  C   UNL     1      49.931  -7.745 -54.300  1.00  0.00     0.000 C 
ENDROOT
BRANCH   1   2
ATOM      2  C   UNL     1      48.505  -7.253 -53.995  1.00  0.00     0.000 C 
BRANCH   2   3
ATOM      3  C   UNL     1      47.473  -7.767 -55.011  1.00  0.00     0.000 C 
BRANCH   3   4
ATOM      4  C   UNL     1      48.105  -8.625 -56.117  1.00  0.00     0.000 C 
BRANCH   4   5
ATOM      5  C   UNL     1      47.071  -9.576 -56.733  1.00  0.00     0.000 C 
BRANCH   5   6
ATOM      6  C   UNL     1      47.756 -10.687 -57.542  1.00  0.00     0.006 C 
BRANCH   6   7
ATOM      7  C   UNL     1      47.244 -12.083 -57.162  1.00  0.00     0.053 C 
BRANCH   7   8
ATOM      8  C   UNL     1      48.186 -12.785 -56.233  1.00  0.00     0.041 C 
ATOM      9  O   UNL     1      49.102 -12.144 -55.654  1.00  0.00    -0.550 OA
ATOM     10  O   UNL     1      48.030 -14.142 -55.981  1.00  0.00    -0.550 OA
ENDBRANCH   7   8
ENDBRANCH   6   7
ENDBRANCH   5   6
ENDBRANCH   4   5
ENDBRANCH   3   4
ENDBRANCH   2   3
ENDBRANCH   1   2
BRANCH   1  11
ATOM     11  C   UNL     1      50.903  -6.593 -54.600  1.00  0.00     0.000 C 
BRANCH  11  12
ATOM     12  C   UNL     1      50.779  -6.075 -56.043  1.00  0.00    -0.000 C 
BRANCH  12  13
ATOM     13  C   UNL     1      50.363  -4.595 -56.104  1.00  0.00    -0.000 C 
BRANCH  13  14
ATOM     14  C   UNL     1      49.056  -4.380 -56.886  1.00  0.00    -0.000 C 
BRANCH  14  15
ATOM     15  C   UNL     1      47.839  -4.164 -55.968  1.00  0.00    -0.000 C 
BRANCH  15  16
ATOM     16  C   UNL     1      48.167  -3.632 -54.557  1.00  0.00    -0.000 C 
BRANCH  16  17
ATOM     17  C   UNL     1      46.943  -3.264 -53.700  1.00  0.00    -0.003 C 
ATOM     18  C   UNL     1      46.133  -4.484 -53.264  1.00  0.00     0.004 C 
ENDBRANCH  16  17
ENDBRANCH  15  16
ENDBRANCH  14  15
ENDBRANCH  13  14
ENDBRANCH  12  13
ENDBRANCH  11  12
ENDBRANCH   1  11
TORSDOF 14
ENDMDL
MODEL 6
REMARK VINA RESULT:    -4.311      4.423      7.887
REMARK INTER + INTRA:          -9.158
REMARK INTER:                  -7.407
REMARK INTRA:                  -1.751
REMARK UNBOUND:                -1.320
REMARK SMILES CCCCCCCCCCCCCCCC(=O)[O-]
REMARK SMILES IDX 9 1 10 2 11 3 12 4 13 5 14 6 15 7 16 8 17 9 18 10 8 11 7 12
REMARK SMILES IDX 6 13 5 14 4 15 3 16 2 17 1 18
REMARK H PARENT
REMARK Flexibility Score: inf
ROOT
ATOM      1  C   UNL     1      47.547  -7.969 -55.249  1.00  0.00     0.000 C 
ENDROOT
BRANCH   1   2
ATOM      2  C   UNL     1      48.980  -8.505 -55.083  1.00  0.00     0.000 C 
BRANCH   2   3
ATOM      3  C   UNL     1      49.816  -7.664 -54.106  1.00  0.00     0.000 C 
BRANCH   3   4
ATOM      4  C   UNL     1      50.739  -6.666 -54.821  1.00  0.00     0.000 C 
BRANCH   4   5
ATOM      5  C   UNL     1      50.293  -5.222 -54.562  1.00  0.00     0.000 C 
BRANCH   5   6
ATOM      6  C   UNL     1      50.066  -4.470 -55.882  1.00  0.00     0.006 C 
BRANCH   6   7
ATOM      7  C   UNL     1      50.728  -5.175 -57.074  1.00  0.00     0.053 C 
BRANCH   7   8
ATOM      8  C   UNL     1      51.926  -4.424 -57.567  1.00  0.00     0.041 C 
ATOM      9  O   UNL     1      53.030  -5.013 -57.708  1.00  0.00    -0.550 OA
ATOM     10  O   UNL     1      51.814  -3.082 -57.904  1.00  0.00    -0.550 OA
ENDBRANCH   7   8
ENDBRANCH   6   7
ENDBRANCH   5   6
ENDBRANCH   4   5
ENDBRANCH   3   4
ENDBRANCH   2   3
ENDBRANCH   1   2
BRANCH   1  11
ATOM     11  C   UNL     1      47.053  -8.038 -56.703  1.00  0.00     0.000 C 
BRANCH  11  12
ATOM     12  C   UNL     1      48.149  -7.667 -57.718  1.00  0.00    -0.000 C 
BRANCH  12  13
ATOM     13  C   UNL     1      48.382  -8.772 -58.763  1.00  0.00    -0.000 C 
BRANCH  13  14
ATOM     14  C   UNL     1      47.330  -9.892 -58.683  1.00  0.00    -0.000 C 
BRANCH  14  15
ATOM     15  C   UNL     1      47.934 -11.250 -58.281  1.00  0.00    -0.000 C 
BRANCH  15  16
ATOM     16  C   UNL     1      47.491 -11.784 -56.903  1.00  0.00    -0.000 C 
BRANCH  16  17
ATOM     17  C   UNL     1      48.577 -12.543 -56.120  1.00  0.00    -0.003 C 
ATOM     18  C   UNL     1      48.277 -14.035 -55.982  1.00  0.00     0.004 C 
ENDBRANCH  16  17
ENDBRANCH  15  16
ENDBRANCH  14  15
ENDBRANCH  13  14
ENDBRANCH  12  13
ENDBRANCH  11  12
ENDBRANCH   1  11
TORSDOF 14
ENDMDL
MODEL 7
REMARK VINA RESULT:    -4.303      1.578      2.888
REMARK INTER + INTRA:          -9.145
REMARK INTER:                  -7.209
REMARK INTRA:                  -1.936
REMARK UNBOUND:                -1.320
REMARK SMILES CCCCCCCCCCCCCCCC(=O)[O-]
REMARK SMILES IDX 9 1 10 2 11 3 12 4 13 5 14 6 15 7 16 8 17 9 18 10 8 11 7 12
REMARK SMILES IDX 6 13 5 14 4 15 3 16 2 17 1 18
REMARK H PARENT
REMARK Flexibility Score: inf
ROOT
ATOM      1  C   UNL     1      47.394  -7.295 -54.629  1.00  0.00     0.000 C 
ENDROOT
BRANCH   1   2
ATOM      2  C   UNL     1      46.873  -6.864 -56.012  1.00  0.00     0.000 C 
BRANCH   2   3
ATOM      3  C   UNL     1      47.865  -7.182 -57.142  1.00  0.00     0.000 C 
BRANCH   3   4
ATOM      4  C   UNL     1      47.238  -8.023 -58.264  1.00  0.00     0.000 C 
BRANCH   4   5
ATOM      5  C   UNL     1      47.847  -9.430 -58.300  1.00  0.00     0.000 C 
BRANCH   5   6
ATOM      6  C   UNL     1      47.121 -10.372 -57.328  1.00  0.00     0.006 C 
BRANCH   6   7
ATOM      7  C   UNL     1      48.097 -11.216 -56.498  1.00  0.00     0.053 C 
BRANCH   7   8
ATOM      8  C   UNL     1      47.771 -12.676 -56.573  1.00  0.00     0.041 C 
ATOM      9  O   UNL     1      46.830 -13.079 -57.305  1.00  0.00    -0.550 OA
ATOM     10  O   UNL     1      48.529 -13.594 -55.859  1.00  0.00    -0.550 OA
ENDBRANCH   7   8
ENDBRANCH   6   7
ENDBRANCH   5   6
ENDBRANCH   4   5
ENDBRANCH   3   4
ENDBRANCH   2   3
ENDBRANCH   1   2
BRANCH   1  11
ATOM     11  C   UNL     1      48.699  -8.103 -54.714  1.00  0.00     0.000 C 
BRANCH  11  12
ATOM     12  C   UNL     1      49.839  -7.474 -53.895  1.00  0.00    -0.000 C 
BRANCH  12  13
ATOM     13  C   UNL     1      50.783  -6.619 -54.759  1.00  0.00    -0.000 C 
BRANCH  13  14
ATOM     14  C   UNL     1      50.424  -5.123 -54.722  1.00  0.00    -0.000 C 
BRANCH  14  15
ATOM     15  C   UNL     1      50.243  -4.518 -56.126  1.00  0.00    -0.000 C 
BRANCH  15  16
ATOM     16  C   UNL     1      51.389  -4.804 -57.118  1.00  0.00    -0.000 C 
BRANCH  16  17
ATOM     17  C   UNL     1      50.996  -5.658 -58.336  1.00  0.00    -0.003 C 
ATOM     18  C   UNL     1      52.117  -6.590 -58.797  1.00  0.00     0.004 C 
ENDBRANCH  16  17
ENDBRANCH  15  16
ENDBRANCH  14  15
ENDBRANCH  13  14
ENDBRANCH  12  13
ENDBRANCH  11  12
ENDBRANCH   1  11
TORSDOF 14
ENDMDL
MODEL 8
REMARK VINA RESULT:    -4.303      4.778      7.306
REMARK INTER + INTRA:          -9.145
REMARK INTER:                  -6.824
REMARK INTRA:                  -2.320
REMARK UNBOUND:                -1.320
REMARK SMILES CCCCCCCCCCCCCCCC(=O)[O-]
REMARK SMILES IDX 9 1 10 2 11 3 12 4 13 5 14 6 15 7 16 8 17 9 18 10 8 11 7 12
REMARK SMILES IDX 6 13 5 14 4 15 3 16 2 17 1 18
REMARK H PARENT
REMARK Flexibility Score: inf
ROOT
ATOM      1  C   UNL     1      48.824  -7.124 -53.791  1.00  0.00     0.000 C 
ENDROOT
BRANCH   1   2
ATOM      2  C   UNL     1      50.231  -7.527 -54.268  1.00  0.00     0.000 C 
BRANCH   2   3
ATOM      3  C   UNL     1      50.947  -6.393 -55.018  1.00  0.00     0.000 C 
BRANCH   3   4
ATOM      4  C   UNL     1      50.363  -5.008 -54.700  1.00  0.00     0.000 C 
BRANCH   4   5
ATOM      5  C   UNL     1      49.845  -4.325 -55.972  1.00  0.00     0.000 C 
BRANCH   5   6
ATOM      6  C   UNL     1      48.438  -3.749 -55.755  1.00  0.00     0.006 C 
BRANCH   6   7
ATOM      7  C   UNL     1      48.114  -3.551 -54.268  1.00  0.00     0.053 C 
BRANCH   7   8
ATOM      8  C   UNL     1      46.715  -3.974 -53.944  1.00  0.00     0.041 C 
ATOM      9  O   UNL     1      46.029  -4.602 -54.792  1.00  0.00    -0.550 OA
ATOM     10  O   UNL     1      46.180  -3.704 -52.691  1.00  0.00    -0.550 OA
ENDBRANCH   7   8
ENDBRANCH   6   7
ENDBRANCH   5   6
ENDBRANCH   4   5
ENDBRANCH   3   4
ENDBRANCH   2   3
ENDBRANCH   1   2
BRANCH   1  11
ATOM     11  C   UNL     1      47.709  -7.743 -54.648  1.00  0.00     0.000 C 
BRANCH  11  12
ATOM     12  C   UNL     1      48.232  -8.825 -55.610  1.00  0.00    -0.000 C 
BRANCH  12  13
ATOM     13  C   UNL     1      47.268  -9.090 -56.779  1.00  0.00    -0.000 C 
BRANCH  13  14
ATOM     14  C   UNL     1      47.754  -8.468 -58.099  1.00  0.00    -0.000 C 
BRANCH  14  15
ATOM     15  C   UNL     1      47.751  -6.928 -58.069  1.00  0.00    -0.000 C 
BRANCH  15  16
ATOM     16  C   UNL     1      48.975  -6.256 -58.725  1.00  0.00    -0.000 C 
BRANCH  16  17
ATOM     17  C   UNL     1      50.231  -7.141 -58.817  1.00  0.00    -0.003 C 
ATOM     18  C   UNL     1      51.530  -6.338 -58.763  1.00  0.00     0.004 C 
ENDBRANCH  16  17
ENDBRANCH  15  16
ENDBRANCH  14  15
ENDBRANCH  13  14
ENDBRANCH  12  13
ENDBRANCH  11  12
ENDBRANCH   1  11
TORSDOF 14
ENDMDL
MODEL 9
REMARK VINA RESULT:    -4.283      4.446      7.676
REMARK INTER + INTRA:          -9.108
REMARK INTER:                  -7.045
REMARK INTRA:                  -2.063
REMARK UNBOUND:                -1.320
REMARK SMILES CCCCCCCCCCCCCCCC(=O)[O-]
REMARK SMILES IDX 9 1 10 2 11 3 12 4 13 5 14 6 15 7 16 8 17 9 18 10 8 11 7 12
REMARK SMILES IDX 6 13 5 14 4 15 3 16 2 17 1 18
REMARK H PARENT
REMARK Flexibility Score: inf
ROOT
ATOM      1  C   UNL     1      48.440  -7.180 -54.099  1.00  0.00     0.000 C 
ENDROOT
BRANCH   1   2
ATOM      2  C   UNL     1      49.875  -7.722 -54.235  1.00  0.00     0.000 C 
BRANCH   2   3
ATOM      3  C   UNL     1      50.884  -6.631 -54.624  1.00  0.00     0.000 C 
BRANCH   3   4
ATOM      4  C   UNL     1      50.263  -5.227 -54.644  1.00  0.00     0.000 C 
BRANCH   4   5
ATOM      5  C   UNL     1      50.538  -4.523 -55.979  1.00  0.00     0.000 C 
BRANCH   5   6
ATOM      6  C   UNL     1      51.418  -5.392 -56.889  1.00  0.00     0.006 C 
BRANCH   6   7
ATOM      7  C   UNL     1      51.884  -4.635 -58.141  1.00  0.00     0.053 C 
BRANCH   7   8
ATOM      8  C   UNL     1      53.305  -4.957 -58.487  1.00  0.00     0.041 C 
ATOM      9  O   UNL     1      54.220  -4.126 -58.250  1.00  0.00    -0.550 OA
ATOM     10  O   UNL     1      53.622  -6.191 -59.040  1.00  0.00    -0.550 OA
ENDBRANCH   7   8
ENDBRANCH   6   7
ENDBRANCH   5   6
ENDBRANCH   4   5
ENDBRANCH   3   4
ENDBRANCH   2   3
ENDBRANCH   1   2
BRANCH   1  11
ATOM     11  C   UNL     1      47.536  -7.599 -55.268  1.00  0.00     0.000 C 
BRANCH  11  12
ATOM     12  C   UNL     1      47.182  -6.422 -56.194  1.00  0.00    -0.000 C 
BRANCH  12  13
ATOM     13  C   UNL     1      47.785  -6.576 -57.601  1.00  0.00    -0.000 C 
BRANCH  13  14
ATOM     14  C   UNL     1      48.738  -7.779 -57.706  1.00  0.00    -0.000 C 
BRANCH  14  15
ATOM     15  C   UNL     1      48.686  -8.463 -59.085  1.00  0.00    -0.000 C 
BRANCH  15  16
ATOM     16  C   UNL     1      47.995  -9.842 -59.108  1.00  0.00    -0.000 C 
BRANCH  16  17
ATOM     17  C   UNL     1      47.197 -10.191 -57.839  1.00  0.00    -0.003 C 
ATOM     18  C   UNL     1      47.715 -11.446 -57.136  1.00  0.00     0.004 C 
ENDBRANCH  16  17
ENDBRANCH  15  16
ENDBRANCH  14  15
ENDBRANCH  13  14
ENDBRANCH  12  13
ENDBRANCH  11  12
ENDBRANCH   1  11
TORSDOF 14
ENDMDL
