MODEL 1
REMARK VINA RESULT:    -4.962      0.000      0.000
REMARK INTER + INTRA:          -9.791
REMARK INTER:                  -9.024
REMARK INTRA:                  -0.767
REMARK UNBOUND:                -0.767
REMARK SMILES CCCCCCCCCCCCCCCC(=O)[O-]
REMARK SMILES IDX 9 1 10 2 11 3 12 4 13 5 14 6 15 7 16 8 17 9 18 10 8 11 7 12
REMARK SMILES IDX 6 13 5 14 4 15 3 16 2 17 1 18
REMARK H PARENT
REMARK Flexibility Score: inf
ROOT
ATOM      1  C   UNL     1      19.101  10.305  49.716  1.00  0.00     0.000 C 
ENDROOT
BRANCH   1   2
ATOM      2  C   UNL     1      20.625  10.185  49.528  1.00  0.00     0.000 C 
BRANCH   2   3
ATOM      3  C   UNL     1      21.267  11.472  48.985  1.00  0.00     0.000 C 
BRANCH   3   4
ATOM      4  C   UNL     1      22.066  12.288  50.018  1.00  0.00     0.000 C 
BRANCH   4   5
ATOM      5  C   UNL     1      23.447  12.722  49.499  1.00  0.00     0.000 C 
BRANCH   5   6
ATOM      6  C   UNL     1      23.513  12.767  47.964  1.00  0.00     0.006 C 
BRANCH   6   7
ATOM      7  C   UNL     1      24.765  13.485  47.445  1.00  0.00     0.053 C 
BRANCH   7   8
ATOM      8  C   UNL     1      25.964  12.597  47.564  1.00  0.00     0.041 C 
ATOM      9  O   UNL     1      27.090  13.085  47.846  1.00  0.00    -0.550 OA
ATOM     10  O   UNL     1      25.843  11.234  47.331  1.00  0.00    -0.550 OA
ENDBRANCH   7   8
ENDBRANCH   6   7
ENDBRANCH   5   6
ENDBRANCH   4   5
ENDBRANCH   3   4
ENDBRANCH   2   3
ENDBRANCH   1   2
BRANCH   1  11
ATOM     11  C   UNL     1      18.669  10.033  51.172  1.00  0.00     0.000 C 
BRANCH  11  12
ATOM     12  C   UNL     1      17.921   8.701  51.350  1.00  0.00    -0.000 C 
BRANCH  12  13
ATOM     13  C   UNL     1      17.631   8.000  50.013  1.00  0.00    -0.000 C 
BRANCH  13  14
ATOM     14  C   UNL     1      16.178   7.511  49.905  1.00  0.00    -0.000 C 
BRANCH  14  15
ATOM     15  C   UNL     1      15.914   6.726  48.610  1.00  0.00    -0.000 C 
BRANCH  15  16
ATOM     16  C   UNL     1      14.528   7.056  48.043  1.00  0.00    -0.000 C 
BRANCH  16  17
ATOM     17  C   UNL     1      14.621   8.115  46.938  1.00  0.00    -0.003 C 
ATOM     18  C   UNL     1      15.944   8.008  46.183  1.00  0.00     0.004 C 
ENDBRANCH  16  17
ENDBRANCH  15  16
ENDBRANCH  14  15
ENDBRANCH  13  14
ENDBRANCH  12  13
ENDBRANCH  11  12
ENDBRANCH   1  11
TORSDOF 14
ENDMDL
MODEL 2
REMARK VINA RESULT:    -4.903      2.861      3.427
REMARK INTER + INTRA:          -9.682
REMARK INTER:                  -9.059
REMARK INTRA:                  -0.623
REMARK UNBOUND:                -0.767
REMARK SMILES CCCCCCCCCCCCCCCC(=O)[O-]
REMARK SMILES IDX 9 1 10 2 11 3 12 4 13 5 14 6 15 7 16 8 17 9 18 10 8 11 7 12
REMARK SMILES IDX 6 13 5 14 4 15 3 16 2 17 1 18
REMARK H PARENT
REMARK Flexibility Score: inf
ROOT
ATOM      1  C   UNL     1      20.624  10.435  49.354  1.00  0.00     0.000 C 
ENDROOT
BRANCH   1   2
ATOM      2  C   UNL     1      21.294  11.746  49.806  1.00  0.00     0.000 C 
BRANCH   2   3
ATOM      3  C   UNL     1      22.366  12.243  48.822  1.00  0.00     0.000 C 
BRANCH   3   4
ATOM      4  C   UNL     1      23.779  12.390  49.417  1.00  0.00     0.000 C 
BRANCH   4   5
ATOM      5  C   UNL     1      23.990  13.736  50.131  1.00  0.00     0.000 C 
BRANCH   5   6
ATOM      6  C   UNL     1      23.819  13.630  51.654  1.00  0.00     0.006 C 
BRANCH   6   7
ATOM      7  C   UNL     1      25.073  14.064  52.424  1.00  0.00     0.053 C 
BRANCH   7   8
ATOM      8  C   UNL     1      25.043  13.525  53.820  1.00  0.00     0.041 C 
ATOM      9  O   UNL     1      25.808  12.582  54.153  1.00  0.00    -0.550 OA
ATOM     10  O   UNL     1      24.146  14.043  54.743  1.00  0.00    -0.550 OA
ENDBRANCH   7   8
ENDBRANCH   6   7
ENDBRANCH   5   6
ENDBRANCH   4   5
ENDBRANCH   3   4
ENDBRANCH   2   3
ENDBRANCH   1   2
BRANCH   1  11
ATOM     11  C   UNL     1      19.195  10.284  49.919  1.00  0.00     0.000 C 
BRANCH  11  12
ATOM     12  C   UNL     1      19.134   9.462  51.218  1.00  0.00    -0.000 C 
BRANCH  12  13
ATOM     13  C   UNL     1      17.999   8.426  51.211  1.00  0.00    -0.000 C 
BRANCH  13  14
ATOM     14  C   UNL     1      17.037   8.609  50.026  1.00  0.00    -0.000 C 
BRANCH  14  15
ATOM     15  C   UNL     1      16.746   7.291  49.292  1.00  0.00    -0.000 C 
BRANCH  15  16
ATOM     16  C   UNL     1      15.316   7.275  48.741  1.00  0.00    -0.000 C 
BRANCH  16  17
ATOM     17  C   UNL     1      15.195   8.155  47.492  1.00  0.00    -0.003 C 
ATOM     18  C   UNL     1      16.215   7.747  46.430  1.00  0.00     0.004 C 
ENDBRANCH  16  17
ENDBRANCH  15  16
ENDBRANCH  14  15
ENDBRANCH  13  14
ENDBRANCH  12  13
ENDBRANCH  11  12
ENDBRANCH   1  11
TORSDOF 14
ENDMDL
MODEL 3
REMARK VINA RESULT:    -4.882     10.754     13.765
REMARK INTER + INTRA:          -9.644
REMARK INTER:                  -8.832
REMARK INTRA:                  -0.812
REMARK UNBOUND:                -0.767
REMARK SMILES CCCCCCCCCCCCCCCC(=O)[O-]
REMARK SMILES IDX 9 1 10 2 11 3 12 4 13 5 14 6 15 7 16 8 17 9 18 10 8 11 7 12
REMARK SMILES IDX 6 13 5 14 4 15 3 16 2 17 1 18
REMARK H PARENT
REMARK Flexibility Score: inf
ROOT
ATOM      1  C   UNL     1      17.711  -0.246  46.929  1.00  0.00     0.000 C 
ENDROOT
BRANCH   1   2
ATOM      2  C   UNL     1      16.679  -1.125  47.659  1.00  0.00     0.000 C 
BRANCH   2   3
ATOM      3  C   UNL     1      15.377  -0.376  47.988  1.00  0.00     0.000 C 
BRANCH   3   4
ATOM      4  C   UNL     1      15.536   1.138  48.220  1.00  0.00     0.000 C 
BRANCH   4   5
ATOM      5  C   UNL     1      14.198   1.894  48.172  1.00  0.00     0.000 C 
BRANCH   5   6
ATOM      6  C   UNL     1      13.079   1.071  47.513  1.00  0.00     0.006 C 
BRANCH   6   7
ATOM      7  C   UNL     1      12.775   1.524  46.079  1.00  0.00     0.053 C 
BRANCH   7   8
ATOM      8  C   UNL     1      12.428   0.347  45.222  1.00  0.00     0.041 C 
ATOM      9  O   UNL     1      13.093  -0.719  45.308  1.00  0.00    -0.550 OA
ATOM     10  O   UNL     1      11.391   0.439  44.304  1.00  0.00    -0.550 OA
ENDBRANCH   7   8
ENDBRANCH   6   7
ENDBRANCH   5   6
ENDBRANCH   4   5
ENDBRANCH   3   4
ENDBRANCH   2   3
ENDBRANCH   1   2
BRANCH   1  11
ATOM     11  C   UNL     1      19.162  -0.616  47.302  1.00  0.00     0.000 C 
BRANCH  11  12
ATOM     12  C   UNL     1      19.839   0.412  48.224  1.00  0.00    -0.000 C 
BRANCH  12  13
ATOM     13  C   UNL     1      21.047   1.097  47.564  1.00  0.00    -0.000 C 
BRANCH  13  14
ATOM     14  C   UNL     1      22.346   0.291  47.728  1.00  0.00    -0.000 C 
BRANCH  14  15
ATOM     15  C   UNL     1      23.480   1.120  48.350  1.00  0.00    -0.000 C 
BRANCH  15  16
ATOM     16  C   UNL     1      24.409   0.235  49.189  1.00  0.00    -0.000 C 
BRANCH  16  17
ATOM     17  C   UNL     1      24.366  -1.220  48.710  1.00  0.00    -0.003 C 
ATOM     18  C   UNL     1      25.261  -2.110  49.570  1.00  0.00     0.004 C 
ENDBRANCH  16  17
ENDBRANCH  15  16
ENDBRANCH  14  15
ENDBRANCH  13  14
ENDBRANCH  12  13
ENDBRANCH  11  12
ENDBRANCH   1  11
TORSDOF 14
ENDMDL
MODEL 4
REMARK VINA RESULT:    -4.859      2.176      2.596
REMARK INTER + INTRA:          -9.603
REMARK INTER:                  -8.914
REMARK INTRA:                  -0.689
REMARK UNBOUND:                -0.767
REMARK SMILES CCCCCCCCCCCCCCCC(=O)[O-]
REMARK SMILES IDX 9 1 10 2 11 3 12 4 13 5 14 6 15 7 16 8 17 9 18 10 8 11 7 12
REMARK SMILES IDX 6 13 5 14 4 15 3 16 2 17 1 18
REMARK H PARENT
REMARK Flexibility Score: inf
ROOT
ATOM      1  C   UNL     1      20.190   9.301  49.150  1.00  0.00     0.000 C 
ENDROOT
BRANCH   1   2
ATOM      2  C   UNL     1      20.409  10.724  49.698  1.00  0.00     0.000 C 
BRANCH   2   3
ATOM      3  C   UNL     1      21.626  11.427  49.076  1.00  0.00     0.000 C 
BRANCH   3   4
ATOM      4  C   UNL     1      22.154  12.639  49.867  1.00  0.00     0.000 C 
BRANCH   4   5
ATOM      5  C   UNL     1      23.148  13.492  49.061  1.00  0.00     0.000 C 
BRANCH   5   6
ATOM      6  C   UNL     1      24.325  13.991  49.914  1.00  0.00     0.006 C 
BRANCH   6   7
ATOM      7  C   UNL     1      23.955  14.162  51.393  1.00  0.00     0.053 C 
BRANCH   7   8
ATOM      8  C   UNL     1      25.163  13.982  52.258  1.00  0.00     0.041 C 
ATOM      9  O   UNL     1      26.279  14.435  51.892  1.00  0.00    -0.550 OA
ATOM     10  O   UNL     1      25.061  13.285  53.454  1.00  0.00    -0.550 OA
ENDBRANCH   7   8
ENDBRANCH   6   7
ENDBRANCH   5   6
ENDBRANCH   4   5
ENDBRANCH   3   4
ENDBRANCH   2   3
ENDBRANCH   1   2
BRANCH   1  11
ATOM     11  C   UNL     1      19.623   8.344  50.219  1.00  0.00     0.000 C 
BRANCH  11  12
ATOM     12  C   UNL     1      18.426   8.927  50.990  1.00  0.00    -0.000 C 
BRANCH  12  13
ATOM     13  C   UNL     1      17.122   8.890  50.179  1.00  0.00    -0.000 C 
BRANCH  13  14
ATOM     14  C   UNL     1      16.703   7.461  49.797  1.00  0.00    -0.000 C 
BRANCH  14  15
ATOM     15  C   UNL     1      15.184   7.318  49.619  1.00  0.00    -0.000 C 
BRANCH  15  16
ATOM     16  C   UNL     1      14.846   6.735  48.242  1.00  0.00    -0.000 C 
BRANCH  16  17
ATOM     17  C   UNL     1      14.589   7.847  47.219  1.00  0.00    -0.003 C 
ATOM     18  C   UNL     1      15.791   8.037  46.297  1.00  0.00     0.004 C 
ENDBRANCH  16  17
ENDBRANCH  15  16
ENDBRANCH  14  15
ENDBRANCH  13  14
ENDBRANCH  12  13
ENDBRANCH  11  12
ENDBRANCH   1  11
TORSDOF 14
ENDMDL
MODEL 5
REMARK VINA RESULT:    -4.827      3.715      8.919
REMARK INTER + INTRA:          -9.546
REMARK INTER:                  -8.895
REMARK INTRA:                  -0.651
REMARK UNBOUND:                -0.767
REMARK SMILES CCCCCCCCCCCCCCCC(=O)[O-]
REMARK SMILES IDX 9 1 10 2 11 3 12 4 13 5 14 6 15 7 16 8 17 9 18 10 8 11 7 12
REMARK SMILES IDX 6 13 5 14 4 15 3 16 2 17 1 18
REMARK H PARENT
REMARK Flexibility Score: inf
ROOT
ATOM      1  C   UNL     1      20.599  10.230  49.383  1.00  0.00     0.000 C 
ENDROOT
BRANCH   1   2
ATOM      2  C   UNL     1      19.095  10.360  49.684  1.00  0.00     0.000 C 
BRANCH   2   3
ATOM      3  C   UNL     1      18.728   9.922  51.112  1.00  0.00     0.000 C 
BRANCH   3   4
ATOM      4  C   UNL     1      18.026   8.555  51.214  1.00  0.00     0.000 C 
BRANCH   4   5
ATOM      5  C   UNL     1      17.522   8.040  49.856  1.00  0.00     0.000 C 
BRANCH   5   6
ATOM      6  C   UNL     1      16.043   7.623  49.895  1.00  0.00     0.006 C 
BRANCH   6   7
ATOM      7  C   UNL     1      15.590   6.918  48.610  1.00  0.00     0.053 C 
BRANCH   7   8
ATOM      8  C   UNL     1      15.908   7.759  47.413  1.00  0.00     0.041 C 
ATOM      9  O   UNL     1      15.306   8.849  47.225  1.00  0.00    -0.550 OA
ATOM     10  O   UNL     1      16.845   7.321  46.487  1.00  0.00    -0.550 OA
ENDBRANCH   7   8
ENDBRANCH   6   7
ENDBRANCH   5   6
ENDBRANCH   4   5
ENDBRANCH   3   4
ENDBRANCH   2   3
ENDBRANCH   1   2
BRANCH   1  11
ATOM     11  C   UNL     1      21.378  11.516  49.732  1.00  0.00     0.000 C 
BRANCH  11  12
ATOM     12  C   UNL     1      22.167  12.095  48.546  1.00  0.00    -0.000 C 
BRANCH  12  13
ATOM     13  C   UNL     1      22.848  13.432  48.882  1.00  0.00    -0.000 C 
BRANCH  13  14
ATOM     14  C   UNL     1      24.125  13.668  48.061  1.00  0.00    -0.000 C 
BRANCH  14  15
ATOM     15  C   UNL     1      24.501  12.458  47.191  1.00  0.00    -0.000 C 
BRANCH  15  16
ATOM     16  C   UNL     1      25.862  12.669  46.518  1.00  0.00    -0.000 C 
BRANCH  16  17
ATOM     17  C   UNL     1      25.765  12.470  45.001  1.00  0.00    -0.003 C 
ATOM     18  C   UNL     1      25.468  11.013  44.654  1.00  0.00     0.004 C 
ENDBRANCH  16  17
ENDBRANCH  15  16
ENDBRANCH  14  15
ENDBRANCH  13  14
ENDBRANCH  12  13
ENDBRANCH  11  12
ENDBRANCH   1  11
TORSDOF 14
ENDMDL
MODEL 6
REMARK VINA RESULT:    -4.817      4.272      9.405
REMARK INTER + INTRA:          -9.526
REMARK INTER:                  -8.856
REMARK INTRA:                  -0.670
REMARK UNBOUND:                -0.767
REMARK SMILES CCCCCCCCCCCCCCCC(=O)[O-]
REMARK SMILES IDX 9 1 10 2 11 3 12 4 13 5 14 6 15 7 16 8 17 9 18 10 8 11 7 12
REMARK SMILES IDX 6 13 5 14 4 15 3 16 2 17 1 18
REMARK H PARENT
REMARK Flexibility Score: inf
ROOT
ATOM      1  C   UNL     1      20.605  10.649  49.045  1.00  0.00     0.000 C 
ENDROOT
BRANCH   1   2
ATOM      2  C   UNL     1      19.988   9.707  50.095  1.00  0.00     0.000 C 
BRANCH   2   3
ATOM      3  C   UNL     1      18.815  10.344  50.859  1.00  0.00     0.000 C 
BRANCH   3   4
ATOM      4  C   UNL     1      17.486   9.570  50.774  1.00  0.00     0.000 C 
BRANCH   4   5
ATOM      5  C   UNL     1      17.658   8.146  50.220  1.00  0.00     0.000 C 
BRANCH   5   6
ATOM      6  C   UNL     1      16.455   7.690  49.379  1.00  0.00     0.006 C 
BRANCH   6   7
ATOM      7  C   UNL     1      16.834   7.364  47.929  1.00  0.00     0.053 C 
BRANCH   7   8
ATOM      8  C   UNL     1      15.725   7.744  47.000  1.00  0.00     0.041 C 
ATOM      9  O   UNL     1      14.534   7.769  47.410  1.00  0.00    -0.550 OA
ATOM     10  O   UNL     1      16.002   8.038  45.672  1.00  0.00    -0.550 OA
ENDBRANCH   7   8
ENDBRANCH   6   7
ENDBRANCH   5   6
ENDBRANCH   4   5
ENDBRANCH   3   4
ENDBRANCH   2   3
ENDBRANCH   1   2
BRANCH   1  11
ATOM     11  C   UNL     1      21.740  11.515  49.632  1.00  0.00     0.000 C 
BRANCH  11  12
ATOM     12  C   UNL     1      22.221  12.622  48.678  1.00  0.00    -0.000 C 
BRANCH  12  13
ATOM     13  C   UNL     1      22.900  13.787  49.416  1.00  0.00    -0.000 C 
BRANCH  13  14
ATOM     14  C   UNL     1      24.283  13.411  49.970  1.00  0.00    -0.000 C 
BRANCH  14  15
ATOM     15  C   UNL     1      24.676  14.250  51.196  1.00  0.00    -0.000 C 
BRANCH  15  16
ATOM     16  C   UNL     1      24.248  13.556  52.495  1.00  0.00    -0.000 C 
BRANCH  16  17
ATOM     17  C   UNL     1      25.138  13.982  53.668  1.00  0.00    -0.003 C 
ATOM     18  C   UNL     1      25.879  12.785  54.260  1.00  0.00     0.004 C 
ENDBRANCH  16  17
ENDBRANCH  15  16
ENDBRANCH  14  15
ENDBRANCH  13  14
ENDBRANCH  12  13
ENDBRANCH  11  12
ENDBRANCH   1  11
TORSDOF 14
ENDMDL
MODEL 7
REMARK VINA RESULT:    -4.804     10.900     13.908
REMARK INTER + INTRA:          -9.503
REMARK INTER:                  -8.291
REMARK INTRA:                  -1.212
REMARK UNBOUND:                -0.767
REMARK SMILES CCCCCCCCCCCCCCCC(=O)[O-]
REMARK SMILES IDX 9 1 10 2 11 3 12 4 13 5 14 6 15 7 16 8 17 9 18 10 8 11 7 12
REMARK SMILES IDX 6 13 5 14 4 15 3 16 2 17 1 18
REMARK H PARENT
REMARK Flexibility Score: inf
ROOT
ATOM      1  C   UNL     1      18.740  -0.762  46.564  1.00  0.00     0.000 C 
ENDROOT
BRANCH   1   2
ATOM      2  C   UNL     1      18.383  -2.237  46.825  1.00  0.00     0.000 C 
BRANCH   2   3
ATOM      3  C   UNL     1      17.337  -2.416  47.939  1.00  0.00     0.000 C 
BRANCH   3   4
ATOM      4  C   UNL     1      15.943  -2.860  47.459  1.00  0.00     0.000 C 
BRANCH   4   5
ATOM      5  C   UNL     1      15.011  -1.675  47.152  1.00  0.00     0.000 C 
BRANCH   5   6
ATOM      6  C   UNL     1      15.343  -0.431  47.991  1.00  0.00     0.006 C 
BRANCH   6   7
ATOM      7  C   UNL     1      15.221   0.873  47.193  1.00  0.00     0.053 C 
BRANCH   7   8
ATOM      8  C   UNL     1      13.816   1.385  47.238  1.00  0.00     0.041 C 
ATOM      9  O   UNL     1      13.184   1.410  48.328  1.00  0.00    -0.550 OA
ATOM     10  O   UNL     1      13.191   1.803  46.071  1.00  0.00    -0.550 OA
ENDBRANCH   7   8
ENDBRANCH   6   7
ENDBRANCH   5   6
ENDBRANCH   4   5
ENDBRANCH   3   4
ENDBRANCH   2   3
ENDBRANCH   1   2
BRANCH   1  11
ATOM     11  C   UNL     1      19.356  -0.083  47.805  1.00  0.00     0.000 C 
BRANCH  11  12
ATOM     12  C   UNL     1      20.761   0.492  47.554  1.00  0.00    -0.000 C 
BRANCH  12  13
ATOM     13  C   UNL     1      21.691  -0.503  46.843  1.00  0.00    -0.000 C 
BRANCH  13  14
ATOM     14  C   UNL     1      23.075  -0.596  47.506  1.00  0.00    -0.000 C 
BRANCH  14  15
ATOM     15  C   UNL     1      23.316   0.524  48.530  1.00  0.00    -0.000 C 
BRANCH  15  16
ATOM     16  C   UNL     1      24.663   0.338  49.238  1.00  0.00    -0.000 C 
BRANCH  16  17
ATOM     17  C   UNL     1      24.861  -1.119  49.672  1.00  0.00    -0.003 C 
ATOM     18  C   UNL     1      26.257  -1.618  49.305  1.00  0.00     0.004 C 
ENDBRANCH  16  17
ENDBRANCH  15  16
ENDBRANCH  14  15
ENDBRANCH  13  14
ENDBRANCH  12  13
ENDBRANCH  11  12
ENDBRANCH   1  11
TORSDOF 14
ENDMDL
MODEL 8
REMARK VINA RESULT:    -4.721     10.785     11.649
REMARK INTER + INTRA:          -9.352
REMARK INTER:                  -7.180
REMARK INTRA:                  -2.171
REMARK UNBOUND:                -0.767
REMARK SMILES CCCCCCCCCCCCCCCC(=O)[O-]
REMARK SMILES IDX 9 1 10 2 11 3 12 4 13 5 14 6 15 7 16 8 17 9 18 10 8 11 7 12
REMARK SMILES IDX 6 13 5 14 4 15 3 16 2 17 1 18
REMARK H PARENT
REMARK Flexibility Score: inf
ROOT
ATOM      1  C   UNL     1      27.662  -1.142  47.371  1.00  0.00     0.000 C 
ENDROOT
BRANCH   1   2
ATOM      2  C   UNL     1      27.971   0.346  47.123  1.00  0.00     0.000 C 
BRANCH   2   3
ATOM      3  C   UNL     1      27.314   1.277  48.156  1.00  0.00     0.000 C 
BRANCH   3   4
ATOM      4  C   UNL     1      26.921   2.667  47.623  1.00  0.00     0.000 C 
BRANCH   4   5
ATOM      5  C   UNL     1      25.401   2.899  47.623  1.00  0.00     0.000 C 
BRANCH   5   6
ATOM      6  C   UNL     1      24.729   2.415  46.328  1.00  0.00     0.006 C 
BRANCH   6   7
ATOM      7  C   UNL     1      23.756   3.446  45.742  1.00  0.00     0.053 C 
BRANCH   7   8
ATOM      8  C   UNL     1      24.224   3.900  44.395  1.00  0.00     0.041 C 
ATOM      9  O   UNL     1      25.409   4.294  44.235  1.00  0.00    -0.550 OA
ATOM     10  O   UNL     1      23.341   3.920  43.325  1.00  0.00    -0.550 OA
ENDBRANCH   7   8
ENDBRANCH   6   7
ENDBRANCH   5   6
ENDBRANCH   4   5
ENDBRANCH   3   4
ENDBRANCH   2   3
ENDBRANCH   1   2
BRANCH   1  11
ATOM     11  C   UNL     1      27.628  -1.489  48.875  1.00  0.00     0.000 C 
BRANCH  11  12
ATOM     12  C   UNL     1      26.771  -2.725  49.199  1.00  0.00    -0.000 C 
BRANCH  12  13
ATOM     13  C   UNL     1      25.276  -2.393  49.325  1.00  0.00    -0.000 C 
BRANCH  13  14
ATOM     14  C   UNL     1      25.027  -0.998  49.918  1.00  0.00    -0.000 C 
BRANCH  14  15
ATOM     15  C   UNL     1      24.102  -0.139  49.040  1.00  0.00    -0.000 C 
BRANCH  15  16
ATOM     16  C   UNL     1      23.747  -0.869  47.740  1.00  0.00    -0.000 C 
BRANCH  16  17
ATOM     17  C   UNL     1      22.393  -0.401  47.196  1.00  0.00    -0.003 C 
ATOM     18  C   UNL     1      21.828   0.744  48.034  1.00  0.00     0.004 C 
ENDBRANCH  16  17
ENDBRANCH  15  16
ENDBRANCH  14  15
ENDBRANCH  13  14
ENDBRANCH  12  13
ENDBRANCH  11  12
ENDBRANCH   1  11
TORSDOF 14
ENDMDL
MODEL 9
REMARK VINA RESULT:    -4.617      9.835     12.790
REMARK INTER + INTRA:          -9.164
REMARK INTER:                  -7.806
REMARK INTRA:                  -1.357
REMARK UNBOUND:                -0.767
REMARK SMILES CCCCCCCCCCCCCCCC(=O)[O-]
REMARK SMILES IDX 9 1 10 2 11 3 12 4 13 5 14 6 15 7 16 8 17 9 18 10 8 11 7 12
REMARK SMILES IDX 6 13 5 14 4 15 3 16 2 17 1 18
REMARK H PARENT
REMARK Flexibility Score: inf
ROOT
ATOM      1  C   UNL     1      21.380   1.115  48.087  1.00  0.00     0.000 C 
ENDROOT
BRANCH   1   2
ATOM      2  C   UNL     1      20.031   0.379  48.189  1.00  0.00     0.000 C 
BRANCH   2   3
ATOM      3  C   UNL     1      19.797  -0.609  47.034  1.00  0.00     0.000 C 
BRANCH   3   4
ATOM      4  C   UNL     1      18.475  -0.414  46.267  1.00  0.00     0.000 C 
BRANCH   4   5
ATOM      5  C   UNL     1      17.237  -0.757  47.114  1.00  0.00     0.000 C 
BRANCH   5   6
ATOM      6  C   UNL     1      16.504   0.495  47.620  1.00  0.00     0.006 C 
BRANCH   6   7
ATOM      7  C   UNL     1      15.043   0.216  47.996  1.00  0.00     0.053 C 
BRANCH   7   8
ATOM      8  C   UNL     1      14.178   0.226  46.775  1.00  0.00     0.041 C 
ATOM      9  O   UNL     1      13.928   1.310  46.183  1.00  0.00    -0.550 OA
ATOM     10  O   UNL     1      13.620  -0.957  46.309  1.00  0.00    -0.550 OA
ENDBRANCH   7   8
ENDBRANCH   6   7
ENDBRANCH   5   6
ENDBRANCH   4   5
ENDBRANCH   3   4
ENDBRANCH   2   3
ENDBRANCH   1   2
BRANCH   1  11
ATOM     11  C   UNL     1      22.555   0.147  47.833  1.00  0.00     0.000 C 
BRANCH  11  12
ATOM     12  C   UNL     1      23.838   0.529  48.592  1.00  0.00    -0.000 C 
BRANCH  12  13
ATOM     13  C   UNL     1      24.840   1.296  47.715  1.00  0.00    -0.000 C 
BRANCH  13  14
ATOM     14  C   UNL     1      24.714   2.820  47.867  1.00  0.00    -0.000 C 
BRANCH  14  15
ATOM     15  C   UNL     1      24.634   3.544  46.514  1.00  0.00    -0.000 C 
BRANCH  15  16
ATOM     16  C   UNL     1      23.233   3.414  45.905  1.00  0.00    -0.000 C 
BRANCH  16  17
ATOM     17  C   UNL     1      23.284   2.689  44.555  1.00  0.00    -0.003 C 
ATOM     18  C   UNL     1      22.145   1.679  44.428  1.00  0.00     0.004 C 
ENDBRANCH  16  17
ENDBRANCH  15  16
ENDBRANCH  14  15
ENDBRANCH  13  14
ENDBRANCH  12  13
ENDBRANCH  11  12
ENDBRANCH   1  11
TORSDOF 14
ENDMDL
