MODEL 1
REMARK VINA RESULT:    -4.540      0.000      0.000
REMARK INTER + INTRA:          -7.694
REMARK INTER:                  -7.195
REMARK INTRA:                  -0.499
REMARK UNBOUND:                -0.499
REMARK SMILES CCCCCCCCCCCC(=O)[O-]
REMARK SMILES IDX 7 1 8 2 9 3 10 4 11 5 12 6 13 7 14 8 6 9 5 10 4 11 3 12 2 13
REMARK SMILES IDX 1 14
REMARK H PARENT
REMARK Flexibility Score: inf
ROOT
ATOM      1  C   UNL     1       8.421  -8.282  -3.511  1.00  0.00     0.000 C 
ENDROOT
BRANCH   1   2
ATOM      2  C   UNL     1       8.921  -8.181  -2.062  1.00  0.00     0.000 C 
BRANCH   2   3
ATOM      3  C   UNL     1       8.383  -9.342  -1.213  1.00  0.00     0.000 C 
BRANCH   3   4
ATOM      4  C   UNL     1       8.548  -9.114   0.299  1.00  0.00     0.006 C 
BRANCH   4   5
ATOM      5  C   UNL     1       7.897 -10.204   1.170  1.00  0.00     0.053 C 
BRANCH   5   6
ATOM      6  C   UNL     1       6.526  -9.826   1.643  1.00  0.00     0.041 C 
ATOM      7  O   UNL     1       5.598  -9.634   0.814  1.00  0.00    -0.550 OA
ATOM      8  O   UNL     1       6.265  -9.720   3.003  1.00  0.00    -0.550 OA
ENDBRANCH   5   6
ENDBRANCH   4   5
ENDBRANCH   3   4
ENDBRANCH   2   3
ENDBRANCH   1   2
BRANCH   1   9
ATOM      9  C   UNL     1       8.255  -6.907  -4.180  1.00  0.00     0.000 C 
BRANCH   9  10
ATOM     10  C   UNL     1       8.315  -5.705  -3.217  1.00  0.00    -0.000 C 
BRANCH  10  11
ATOM     11  C   UNL     1       8.518  -4.349  -3.925  1.00  0.00    -0.000 C 
BRANCH  11  12
ATOM     12  C   UNL     1       7.344  -3.992  -4.850  1.00  0.00    -0.000 C 
BRANCH  12  13
ATOM     13  C   UNL     1       7.847  -3.486  -6.207  1.00  0.00    -0.003 C 
ATOM     14  C   UNL     1       8.504  -4.608  -7.005  1.00  0.00     0.004 C 
ENDBRANCH  12  13
ENDBRANCH  11  12
ENDBRANCH  10  11
ENDBRANCH   9  10
ENDBRANCH   1   9
TORSDOF 10
ENDMDL
MODEL 2
REMARK VINA RESULT:    -4.417      0.927      1.909
REMARK INTER + INTRA:          -7.499
REMARK INTER:                  -7.071
REMARK INTRA:                  -0.428
REMARK UNBOUND:                -0.499
REMARK SMILES CCCCCCCCCCCC(=O)[O-]
REMARK SMILES IDX 7 1 8 2 9 3 10 4 11 5 12 6 13 7 14 8 6 9 5 10 4 11 3 12 2 13
REMARK SMILES IDX 1 14
REMARK H PARENT
REMARK Flexibility Score: inf
ROOT
ATOM      1  C   UNL     1       8.556  -8.178  -1.504  1.00  0.00     0.000 C 
ENDROOT
BRANCH   1   2
ATOM      2  C   UNL     1       7.729  -9.208  -0.721  1.00  0.00     0.000 C 
BRANCH   2   3
ATOM      3  C   UNL     1       8.331  -9.452   0.670  1.00  0.00     0.000 C 
BRANCH   3   4
ATOM      4  C   UNL     1       7.714 -10.662   1.393  1.00  0.00     0.006 C 
BRANCH   4   5
ATOM      5  C   UNL     1       6.817 -10.286   2.587  1.00  0.00     0.053 C 
BRANCH   5   6
ATOM      6  C   UNL     1       5.359 -10.484   2.302  1.00  0.00     0.041 C 
ATOM      7  O   UNL     1       4.565 -10.784   3.232  1.00  0.00    -0.550 OA
ATOM      8  O   UNL     1       4.872 -10.303   1.014  1.00  0.00    -0.550 OA
ENDBRANCH   5   6
ENDBRANCH   4   5
ENDBRANCH   3   4
ENDBRANCH   2   3
ENDBRANCH   1   2
BRANCH   1   9
ATOM      9  C   UNL     1       8.012  -7.930  -2.921  1.00  0.00     0.000 C 
BRANCH   9  10
ATOM     10  C   UNL     1       8.702  -6.785  -3.690  1.00  0.00    -0.000 C 
BRANCH  10  11
ATOM     11  C   UNL     1       8.769  -5.460  -2.903  1.00  0.00    -0.000 C 
BRANCH  11  12
ATOM     12  C   UNL     1       8.819  -4.233  -3.828  1.00  0.00    -0.000 C 
BRANCH  12  13
ATOM     13  C   UNL     1       7.501  -4.068  -4.593  1.00  0.00    -0.003 C 
ATOM     14  C   UNL     1       7.752  -3.823  -6.077  1.00  0.00     0.004 C 
ENDBRANCH  12  13
ENDBRANCH  11  12
ENDBRANCH  10  11
ENDBRANCH   9  10
ENDBRANCH   1   9
TORSDOF 10
ENDMDL
MODEL 3
REMARK VINA RESULT:    -4.233      2.668      4.574
REMARK INTER + INTRA:          -7.206
REMARK INTER:                  -6.551
REMARK INTRA:                  -0.655
REMARK UNBOUND:                -0.499
REMARK SMILES CCCCCCCCCCCC(=O)[O-]
REMARK SMILES IDX 7 1 8 2 9 3 10 4 11 5 12 6 13 7 14 8 6 9 5 10 4 11 3 12 2 13
REMARK SMILES IDX 1 14
REMARK H PARENT
REMARK Flexibility Score: inf
ROOT
ATOM      1  C   UNL     1       7.714  -4.218  -4.688  1.00  0.00     0.000 C 
ENDROOT
BRANCH   1   2
ATOM      2  C   UNL     1       9.008  -4.158  -3.862  1.00  0.00     0.000 C 
BRANCH   2   3
ATOM      3  C   UNL     1       9.100  -5.351  -2.899  1.00  0.00     0.000 C 
BRANCH   3   4
ATOM      4  C   UNL     1       8.247  -6.553  -3.341  1.00  0.00     0.006 C 
BRANCH   4   5
ATOM      5  C   UNL     1       8.228  -7.711  -2.327  1.00  0.00     0.053 C 
BRANCH   5   6
ATOM      6  C   UNL     1       7.712  -8.989  -2.917  1.00  0.00     0.041 C 
ATOM      7  O   UNL     1       7.523  -9.996  -2.185  1.00  0.00    -0.550 OA
ATOM      8  O   UNL     1       7.407  -9.056  -4.270  1.00  0.00    -0.550 OA
ENDBRANCH   5   6
ENDBRANCH   4   5
ENDBRANCH   3   4
ENDBRANCH   2   3
ENDBRANCH   1   2
BRANCH   1   9
ATOM      9  C   UNL     1       7.867  -3.588  -6.083  1.00  0.00     0.000 C 
BRANCH   9  10
ATOM     10  C   UNL     1       7.890  -4.595  -7.250  1.00  0.00    -0.000 C 
BRANCH  10  11
ATOM     11  C   UNL     1       9.039  -5.621  -7.164  1.00  0.00    -0.000 C 
BRANCH  11  12
ATOM     12  C   UNL     1       9.125  -6.507  -8.417  1.00  0.00    -0.000 C 
BRANCH  12  13
ATOM     13  C   UNL     1       7.728  -6.921  -8.894  1.00  0.00    -0.003 C 
ATOM     14  C   UNL     1       7.795  -8.155  -9.789  1.00  0.00     0.004 C 
ENDBRANCH  12  13
ENDBRANCH  11  12
ENDBRANCH  10  11
ENDBRANCH   9  10
ENDBRANCH   1   9
TORSDOF 10
ENDMDL
MODEL 4
REMARK VINA RESULT:    -4.222      1.863      3.747
REMARK INTER + INTRA:          -7.190
REMARK INTER:                  -6.459
REMARK INTRA:                  -0.731
REMARK UNBOUND:                -0.499
REMARK SMILES CCCCCCCCCCCC(=O)[O-]
REMARK SMILES IDX 7 1 8 2 9 3 10 4 11 5 12 6 13 7 14 8 6 9 5 10 4 11 3 12 2 13
REMARK SMILES IDX 1 14
REMARK H PARENT
REMARK Flexibility Score: inf
ROOT
ATOM      1  C   UNL     1       7.211  -4.690  -4.245  1.00  0.00     0.000 C 
ENDROOT
BRANCH   1   2
ATOM      2  C   UNL     1       8.345  -5.538  -3.649  1.00  0.00     0.000 C 
BRANCH   2   3
ATOM      3  C   UNL     1       8.372  -6.938  -4.279  1.00  0.00     0.000 C 
BRANCH   3   4
ATOM      4  C   UNL     1       8.674  -8.053  -3.262  1.00  0.00     0.006 C 
BRANCH   4   5
ATOM      5  C   UNL     1       7.819  -7.981  -1.984  1.00  0.00     0.053 C 
BRANCH   5   6
ATOM      6  C   UNL     1       7.719  -9.299  -1.278  1.00  0.00     0.041 C 
ATOM      7  O   UNL     1       7.078  -9.396  -0.199  1.00  0.00    -0.550 OA
ATOM      8  O   UNL     1       8.305 -10.430  -1.832  1.00  0.00    -0.550 OA
ENDBRANCH   5   6
ENDBRANCH   4   5
ENDBRANCH   3   4
ENDBRANCH   2   3
ENDBRANCH   1   2
BRANCH   1   9
ATOM      9  C   UNL     1       7.683  -3.788  -5.398  1.00  0.00     0.000 C 
BRANCH   9  10
ATOM     10  C   UNL     1       7.706  -4.466  -6.782  1.00  0.00    -0.000 C 
BRANCH  10  11
ATOM     11  C   UNL     1       9.123  -4.821  -7.278  1.00  0.00    -0.000 C 
BRANCH  11  12
ATOM     12  C   UNL     1       9.125  -6.035  -8.220  1.00  0.00    -0.000 C 
BRANCH  12  13
ATOM     13  C   UNL     1       7.697  -6.423  -8.620  1.00  0.00    -0.003 C 
ATOM     14  C   UNL     1       7.574  -7.928  -8.837  1.00  0.00     0.004 C 
ENDBRANCH  12  13
ENDBRANCH  11  12
ENDBRANCH  10  11
ENDBRANCH   9  10
ENDBRANCH   1   9
TORSDOF 10
ENDMDL
MODEL 5
REMARK VINA RESULT:    -4.201      4.366      7.306
REMARK INTER + INTRA:          -7.156
REMARK INTER:                  -6.284
REMARK INTRA:                  -0.871
REMARK UNBOUND:                -0.499
REMARK SMILES CCCCCCCCCCCC(=O)[O-]
REMARK SMILES IDX 7 1 8 2 9 3 10 4 11 5 12 6 13 7 14 8 6 9 5 10 4 11 3 12 2 13
REMARK SMILES IDX 1 14
REMARK H PARENT
REMARK Flexibility Score: inf
ROOT
ATOM      1  C   UNL     1       7.490  -4.366  -5.109  1.00  0.00     0.000 C 
ENDROOT
BRANCH   1   2
ATOM      2  C   UNL     1       7.987  -3.820  -6.457  1.00  0.00     0.000 C 
BRANCH   2   3
ATOM      3  C   UNL     1       8.999  -4.781  -7.097  1.00  0.00     0.000 C 
BRANCH   3   4
ATOM      4  C   UNL     1       8.452  -6.209  -7.270  1.00  0.00     0.006 C 
BRANCH   4   5
ATOM      5  C   UNL     1       8.167  -6.595  -8.733  1.00  0.00     0.053 C 
BRANCH   5   6
ATOM      6  C   UNL     1       7.564  -7.962  -8.865  1.00  0.00     0.041 C 
ATOM      7  O   UNL     1       6.711  -8.197  -9.760  1.00  0.00    -0.550 OA
ATOM      8  O   UNL     1       7.973  -8.985  -8.019  1.00  0.00    -0.550 OA
ENDBRANCH   5   6
ENDBRANCH   4   5
ENDBRANCH   3   4
ENDBRANCH   2   3
ENDBRANCH   1   2
BRANCH   1   9
ATOM      9  C   UNL     1       8.430  -4.019  -3.942  1.00  0.00     0.000 C 
BRANCH   9  10
ATOM     10  C   UNL     1       9.034  -5.235  -3.214  1.00  0.00    -0.000 C 
BRANCH  10  11
ATOM     11  C   UNL     1       8.385  -6.580  -3.603  1.00  0.00    -0.000 C 
BRANCH  11  12
ATOM     12  C   UNL     1       8.215  -7.517  -2.397  1.00  0.00    -0.000 C 
BRANCH  12  13
ATOM     13  C   UNL     1       7.874  -8.941  -2.851  1.00  0.00    -0.003 C 
ATOM     14  C   UNL     1       7.597  -8.990  -4.350  1.00  0.00     0.004 C 
ENDBRANCH  12  13
ENDBRANCH  11  12
ENDBRANCH  10  11
ENDBRANCH   9  10
ENDBRANCH   1   9
TORSDOF 10
ENDMDL
MODEL 6
REMARK VINA RESULT:    -4.169      4.074      8.197
REMARK INTER + INTRA:          -7.105
REMARK INTER:                  -6.875
REMARK INTRA:                  -0.231
REMARK UNBOUND:                -0.499
REMARK SMILES CCCCCCCCCCCC(=O)[O-]
REMARK SMILES IDX 7 1 8 2 9 3 10 4 11 5 12 6 13 7 14 8 6 9 5 10 4 11 3 12 2 13
REMARK SMILES IDX 1 14
REMARK H PARENT
REMARK Flexibility Score: inf
ROOT
ATOM      1  C   UNL     1       7.945  -8.094  -1.726  1.00  0.00     0.000 C 
ENDROOT
BRANCH   1   2
ATOM      2  C   UNL     1       8.997  -7.298  -2.513  1.00  0.00     0.000 C 
BRANCH   2   3
ATOM      3  C   UNL     1       8.481  -5.891  -2.849  1.00  0.00     0.000 C 
BRANCH   3   4
ATOM      4  C   UNL     1       8.504  -5.583  -4.357  1.00  0.00     0.006 C 
BRANCH   4   5
ATOM      5  C   UNL     1       7.551  -4.449  -4.776  1.00  0.00     0.053 C 
BRANCH   5   6
ATOM      6  C   UNL     1       7.729  -4.043  -6.209  1.00  0.00     0.041 C 
ATOM      7  O   UNL     1       7.470  -2.866  -6.573  1.00  0.00    -0.550 OA
ATOM      8  O   UNL     1       8.215  -4.957  -7.134  1.00  0.00    -0.550 OA
ENDBRANCH   5   6
ENDBRANCH   4   5
ENDBRANCH   3   4
ENDBRANCH   2   3
ENDBRANCH   1   2
BRANCH   1   9
ATOM      9  C   UNL     1       8.519  -9.369  -1.084  1.00  0.00     0.000 C 
BRANCH   9  10
ATOM     10  C   UNL     1       8.339  -9.463   0.444  1.00  0.00    -0.000 C 
BRANCH  10  11
ATOM     11  C   UNL     1       6.864  -9.500   0.896  1.00  0.00    -0.000 C 
BRANCH  11  12
ATOM     12  C   UNL     1       6.689 -10.181   2.262  1.00  0.00    -0.000 C 
BRANCH  12  13
ATOM     13  C   UNL     1       5.247 -10.664   2.456  1.00  0.00    -0.003 C 
ATOM     14  C   UNL     1       4.902 -10.790   3.937  1.00  0.00     0.004 C 
ENDBRANCH  12  13
ENDBRANCH  11  12
ENDBRANCH  10  11
ENDBRANCH   9  10
ENDBRANCH   1   9
TORSDOF 10
ENDMDL
MODEL 7
REMARK VINA RESULT:    -4.093      2.528      5.164
REMARK INTER + INTRA:          -6.984
REMARK INTER:                  -6.533
REMARK INTRA:                  -0.451
REMARK UNBOUND:                -0.499
REMARK SMILES CCCCCCCCCCCC(=O)[O-]
REMARK SMILES IDX 7 1 8 2 9 3 10 4 11 5 12 6 13 7 14 8 6 9 5 10 4 11 3 12 2 13
REMARK SMILES IDX 1 14
REMARK H PARENT
REMARK Flexibility Score: inf
ROOT
ATOM      1  C   UNL     1       6.673  -9.566   1.255  1.00  0.00     0.000 C 
ENDROOT
BRANCH   1   2
ATOM      2  C   UNL     1       5.918 -10.480   2.233  1.00  0.00     0.000 C 
BRANCH   2   3
ATOM      3  C   UNL     1       6.398 -10.257   3.674  1.00  0.00     0.000 C 
BRANCH   3   4
ATOM      4  C   UNL     1       5.251  -9.961   4.656  1.00  0.00     0.006 C 
BRANCH   4   5
ATOM      5  C   UNL     1       3.855  -9.971   4.007  1.00  0.00     0.053 C 
BRANCH   5   6
ATOM      6  C   UNL     1       3.052  -8.750   4.341  1.00  0.00     0.041 C 
ATOM      7  O   UNL     1       2.839  -8.439   5.542  1.00  0.00    -0.550 OA
ATOM      8  O   UNL     1       2.569  -7.937   3.325  1.00  0.00    -0.550 OA
ENDBRANCH   5   6
ENDBRANCH   4   5
ENDBRANCH   3   4
ENDBRANCH   2   3
ENDBRANCH   1   2
BRANCH   1   9
ATOM      9  C   UNL     1       8.131 -10.003   1.038  1.00  0.00     0.000 C 
BRANCH   9  10
ATOM     10  C   UNL     1       8.932  -9.124   0.057  1.00  0.00    -0.000 C 
BRANCH  10  11
ATOM     11  C   UNL     1       8.537  -9.324  -1.422  1.00  0.00    -0.000 C 
BRANCH  11  12
ATOM     12  C   UNL     1       7.742  -8.134  -1.980  1.00  0.00    -0.000 C 
BRANCH  12  13
ATOM     13  C   UNL     1       8.544  -7.391  -3.055  1.00  0.00    -0.003 C 
ATOM     14  C   UNL     1       8.454  -5.880  -2.865  1.00  0.00     0.004 C 
ENDBRANCH  12  13
ENDBRANCH  11  12
ENDBRANCH  10  11
ENDBRANCH   9  10
ENDBRANCH   1   9
TORSDOF 10
ENDMDL
MODEL 8
REMARK VINA RESULT:    -3.914      3.905      7.532
REMARK INTER + INTRA:          -6.701
REMARK INTER:                  -5.914
REMARK INTRA:                  -0.787
REMARK UNBOUND:                -0.499
REMARK SMILES CCCCCCCCCCCC(=O)[O-]
REMARK SMILES IDX 7 1 8 2 9 3 10 4 11 5 12 6 13 7 14 8 6 9 5 10 4 11 3 12 2 13
REMARK SMILES IDX 1 14
REMARK H PARENT
REMARK Flexibility Score: inf
ROOT
ATOM      1  C   UNL     1       8.071  -5.307  -3.372  1.00  0.00     0.000 C 
ENDROOT
BRANCH   1   2
ATOM      2  C   UNL     1       7.339  -4.407  -4.379  1.00  0.00     0.000 C 
BRANCH   2   3
ATOM      3  C   UNL     1       8.313  -3.852  -5.429  1.00  0.00     0.000 C 
BRANCH   3   4
ATOM      4  C   UNL     1       7.946  -4.254  -6.868  1.00  0.00     0.006 C 
BRANCH   4   5
ATOM      5  C   UNL     1       9.007  -5.126  -7.563  1.00  0.00     0.053 C 
BRANCH   5   6
ATOM      6  C   UNL     1       8.491  -6.485  -7.930  1.00  0.00     0.041 C 
ATOM      7  O   UNL     1       8.929  -7.511  -7.346  1.00  0.00    -0.550 OA
ATOM      8  O   UNL     1       7.499  -6.614  -8.894  1.00  0.00    -0.550 OA
ENDBRANCH   5   6
ENDBRANCH   4   5
ENDBRANCH   3   4
ENDBRANCH   2   3
ENDBRANCH   1   2
BRANCH   1   9
ATOM      9  C   UNL     1       8.759  -6.510  -4.039  1.00  0.00     0.000 C 
BRANCH   9  10
ATOM     10  C   UNL     1       8.019  -7.852  -3.877  1.00  0.00    -0.000 C 
BRANCH  10  11
ATOM     11  C   UNL     1       8.939  -9.027  -3.483  1.00  0.00    -0.000 C 
BRANCH  11  12
ATOM     12  C   UNL     1       9.103  -9.156  -1.961  1.00  0.00    -0.000 C 
BRANCH  12  13
ATOM     13  C   UNL     1       7.770  -8.916  -1.242  1.00  0.00    -0.003 C 
ATOM     14  C   UNL     1       7.858  -9.312   0.229  1.00  0.00     0.004 C 
ENDBRANCH  12  13
ENDBRANCH  11  12
ENDBRANCH  10  11
ENDBRANCH   9  10
ENDBRANCH   1   9
TORSDOF 10
ENDMDL
MODEL 9
REMARK VINA RESULT:    -3.788     21.902     23.013
REMARK INTER + INTRA:          -6.502
REMARK INTER:                  -5.561
REMARK INTRA:                  -0.941
REMARK UNBOUND:                -0.499
REMARK SMILES CCCCCCCCCCCC(=O)[O-]
REMARK SMILES IDX 7 1 8 2 9 3 10 4 11 5 12 6 13 7 14 8 6 9 5 10 4 11 3 12 2 13
REMARK SMILES IDX 1 14
REMARK H PARENT
REMARK Flexibility Score: inf
ROOT
ATOM      1  C   UNL     1      -8.486   6.935  -7.274  1.00  0.00     0.000 C 
ENDROOT
BRANCH   1   2
ATOM      2  C   UNL     1      -9.741   6.108  -7.595  1.00  0.00     0.000 C 
BRANCH   2   3
ATOM      3  C   UNL     1     -10.473   6.675  -8.820  1.00  0.00     0.000 C 
BRANCH   3   4
ATOM      4  C   UNL     1     -10.396   5.755 -10.051  1.00  0.00     0.006 C 
BRANCH   4   5
ATOM      5  C   UNL     1     -10.153   4.274  -9.709  1.00  0.00     0.053 C 
BRANCH   5   6
ATOM      6  C   UNL     1     -10.358   3.366 -10.884  1.00  0.00     0.041 C 
ATOM      7  O   UNL     1      -9.930   3.692 -12.022  1.00  0.00    -0.550 OA
ATOM      8  O   UNL     1     -10.993   2.143 -10.714  1.00  0.00    -0.550 OA
ENDBRANCH   5   6
ENDBRANCH   4   5
ENDBRANCH   3   4
ENDBRANCH   2   3
ENDBRANCH   1   2
BRANCH   1   9
ATOM      9  C   UNL     1      -8.610   8.402  -7.720  1.00  0.00     0.000 C 
BRANCH   9  10
ATOM     10  C   UNL     1      -7.724   8.792  -8.920  1.00  0.00    -0.000 C 
BRANCH  10  11
ATOM     11  C   UNL     1      -6.766   7.671  -9.376  1.00  0.00    -0.000 C 
BRANCH  11  12
ATOM     12  C   UNL     1      -7.058   7.203 -10.810  1.00  0.00    -0.000 C 
BRANCH  12  13
ATOM     13  C   UNL     1      -5.884   6.393 -11.373  1.00  0.00    -0.003 C 
ATOM     14  C   UNL     1      -4.780   7.310 -11.891  1.00  0.00     0.004 C 
ENDBRANCH  12  13
ENDBRANCH  11  12
ENDBRANCH  10  11
ENDBRANCH   9  10
ENDBRANCH   1   9
TORSDOF 10
ENDMDL
