MODEL 1
REMARK VINA RESULT:    -1.337      0.000      0.000
REMARK INTER + INTRA:          -3.319
REMARK INTER:                  -2.509
REMARK INTRA:                  -0.810
REMARK UNBOUND:                -0.810
REMARK SMILES CCCCCCCCC=CCCCCCCCC(=O)[O-]
REMARK SMILES IDX 10 1 9 2 11 3 12 4 13 5 14 6 15 7 16 8 17 9 18 10 19 11
REMARK SMILES IDX 20 12 8 13 7 14 6 15 5 16 4 17 3 18 2 19 1 20
REMARK H PARENT
REMARK Flexibility Score: inf
ROOT
ATOM      1  C   UNL     1      38.469  39.280  65.262  1.00  0.00    -0.031 C 
ATOM      2  C   UNL     1      37.640  40.163  65.852  1.00  0.00    -0.031 C 
ENDROOT
BRANCH   1   3
ATOM      3  C   UNL     1      39.847  38.934  65.768  1.00  0.00     0.027 C 
BRANCH   3   4
ATOM      4  C   UNL     1      39.808  37.675  66.642  1.00  0.00     0.004 C 
BRANCH   4   5
ATOM      5  C   UNL     1      41.218  37.299  67.121  1.00  0.00     0.000 C 
BRANCH   5   6
ATOM      6  C   UNL     1      42.324  37.924  66.255  1.00  0.00     0.000 C 
BRANCH   6   7
ATOM      7  C   UNL     1      43.503  38.445  67.092  1.00  0.00     0.000 C 
BRANCH   7   8
ATOM      8  C   UNL     1      43.588  39.983  67.123  1.00  0.00     0.006 C 
BRANCH   8   9
ATOM      9  C   UNL     1      42.224  40.686  67.004  1.00  0.00     0.053 C 
BRANCH   9  10
ATOM     10  C   UNL     1      42.345  42.096  66.510  1.00  0.00     0.041 C 
ATOM     11  O   UNL     1      41.312  42.790  66.315  1.00  0.00    -0.550 OA
ATOM     12  O   UNL     1      43.598  42.657  66.297  1.00  0.00    -0.550 OA
ENDBRANCH   9  10
ENDBRANCH   8   9
ENDBRANCH   7   8
ENDBRANCH   6   7
ENDBRANCH   5   6
ENDBRANCH   4   5
ENDBRANCH   3   4
ENDBRANCH   1   3
BRANCH   2  13
ATOM     13  C   UNL     1      37.997  40.990  67.062  1.00  0.00     0.027 C 
BRANCH  13  14
ATOM     14  C   UNL     1      37.868  42.488  66.754  1.00  0.00     0.004 C 
BRANCH  14  15
ATOM     15  C   UNL     1      37.130  42.755  65.433  1.00  0.00     0.000 C 
BRANCH  15  16
ATOM     16  C   UNL     1      35.599  42.736  65.601  1.00  0.00     0.000 C 
BRANCH  16  17
ATOM     17  C   UNL     1      35.171  42.435  67.046  1.00  0.00    -0.000 C 
BRANCH  17  18
ATOM     18  C   UNL     1      34.003  41.435  67.119  1.00  0.00    -0.000 C 
BRANCH  18  19
ATOM     19  C   UNL     1      34.433  40.002  66.769  1.00  0.00    -0.003 C 
ATOM     20  C   UNL     1      33.348  38.970  67.078  1.00  0.00     0.004 C 
ENDBRANCH  18  19
ENDBRANCH  17  18
ENDBRANCH  16  17
ENDBRANCH  15  16
ENDBRANCH  14  15
ENDBRANCH  13  14
ENDBRANCH   2  13
TORSDOF 15
ENDMDL
MODEL 2
REMARK VINA RESULT:    -0.942      2.029      4.488
REMARK INTER + INTRA:          -2.579
REMARK INTER:                  -2.943
REMARK INTRA:                   0.364
REMARK UNBOUND:                -0.810
REMARK SMILES CCCCCCCCC=CCCCCCCCC(=O)[O-]
REMARK SMILES IDX 10 1 9 2 11 3 12 4 13 5 14 6 15 7 16 8 17 9 18 10 19 11
REMARK SMILES IDX 20 12 8 13 7 14 6 15 5 16 4 17 3 18 2 19 1 20
REMARK H PARENT
REMARK Flexibility Score: inf
ROOT
ATOM      1  C   UNL     1      41.791  38.722  67.093  1.00  0.00    -0.031 C 
ATOM      2  C   UNL     1      40.637  38.231  66.603  1.00  0.00    -0.031 C 
ENDROOT
BRANCH   1   3
ATOM      3  C   UNL     1      42.159  40.184  67.106  1.00  0.00     0.027 C 
BRANCH   3   4
ATOM      4  C   UNL     1      41.615  40.896  65.862  1.00  0.00     0.004 C 
BRANCH   4   5
ATOM      5  C   UNL     1      41.716  42.421  66.018  1.00  0.00     0.000 C 
BRANCH   5   6
ATOM      6  C   UNL     1      40.750  42.973  67.079  1.00  0.00     0.000 C 
BRANCH   6   7
ATOM      7  C   UNL     1      39.414  42.212  67.111  1.00  0.00     0.000 C 
BRANCH   7   8
ATOM      8  C   UNL     1      38.195  43.125  66.879  1.00  0.00     0.006 C 
BRANCH   8   9
ATOM      9  C   UNL     1      36.970  42.396  66.296  1.00  0.00     0.053 C 
BRANCH   9  10
ATOM     10  C   UNL     1      36.957  42.401  64.798  1.00  0.00     0.041 C 
ATOM     11  O   UNL     1      37.884  41.841  64.154  1.00  0.00    -0.550 OA
ATOM     12  O   UNL     1      35.905  42.992  64.110  1.00  0.00    -0.550 OA
ENDBRANCH   9  10
ENDBRANCH   8   9
ENDBRANCH   7   8
ENDBRANCH   6   7
ENDBRANCH   5   6
ENDBRANCH   4   5
ENDBRANCH   3   4
ENDBRANCH   1   3
BRANCH   2  13
ATOM     13  C   UNL     1      39.576  39.062  65.926  1.00  0.00     0.027 C 
BRANCH  13  14
ATOM     14  C   UNL     1      38.447  39.408  66.907  1.00  0.00     0.004 C 
BRANCH  14  15
ATOM     15  C   UNL     1      37.055  39.280  66.268  1.00  0.00     0.000 C 
BRANCH  15  16
ATOM     16  C   UNL     1      36.184  38.219  66.965  1.00  0.00     0.000 C 
BRANCH  16  17
ATOM     17  C   UNL     1      34.722  38.667  67.120  1.00  0.00    -0.000 C 
BRANCH  17  18
ATOM     18  C   UNL     1      34.572  40.198  67.124  1.00  0.00    -0.000 C 
BRANCH  18  19
ATOM     19  C   UNL     1      33.205  40.658  66.594  1.00  0.00    -0.003 C 
ATOM     20  C   UNL     1      32.930  42.134  66.875  1.00  0.00     0.004 C 
ENDBRANCH  18  19
ENDBRANCH  17  18
ENDBRANCH  16  17
ENDBRANCH  15  16
ENDBRANCH  14  15
ENDBRANCH  13  14
ENDBRANCH   2  13
TORSDOF 15
ENDMDL
MODEL 3
REMARK VINA RESULT:    -0.330     13.764     16.871
REMARK INTER + INTRA:          -1.429
REMARK INTER:                  -1.454
REMARK INTRA:                   0.025
REMARK UNBOUND:                -0.810
REMARK SMILES CCCCCCCCC=CCCCCCCCC(=O)[O-]
REMARK SMILES IDX 10 1 9 2 11 3 12 4 13 5 14 6 15 7 16 8 17 9 18 10 19 11
REMARK SMILES IDX 20 12 8 13 7 14 6 15 5 16 4 17 3 18 2 19 1 20
REMARK H PARENT
REMARK Flexibility Score: inf
ROOT
ATOM      1  C   UNL     1      35.290  26.786  64.568  1.00  0.00    -0.031 C 
ATOM      2  C   UNL     1      36.008  27.703  65.244  1.00  0.00    -0.031 C 
ENDROOT
BRANCH   1   3
ATOM      3  C   UNL     1      35.068  25.367  65.028  1.00  0.00     0.027 C 
BRANCH   3   4
ATOM      4  C   UNL     1      33.581  25.103  65.289  1.00  0.00     0.004 C 
BRANCH   4   5
ATOM      5  C   UNL     1      33.386  24.313  66.592  1.00  0.00     0.000 C 
BRANCH   5   6
ATOM      6  C   UNL     1      31.928  24.319  67.077  1.00  0.00     0.000 C 
BRANCH   6   7
ATOM      7  C   UNL     1      30.932  24.615  65.944  1.00  0.00     0.000 C 
BRANCH   7   8
ATOM      8  C   UNL     1      29.731  23.651  65.930  1.00  0.00     0.006 C 
BRANCH   8   9
ATOM      9  C   UNL     1      28.904  23.701  64.633  1.00  0.00     0.053 C 
BRANCH   9  10
ATOM     10  C   UNL     1      29.708  23.332  63.423  1.00  0.00     0.041 C 
ATOM     11  O   UNL     1      29.214  23.459  62.271  1.00  0.00    -0.550 OA
ATOM     12  O   UNL     1      31.014  22.881  63.563  1.00  0.00    -0.550 OA
ENDBRANCH   9  10
ENDBRANCH   8   9
ENDBRANCH   7   8
ENDBRANCH   6   7
ENDBRANCH   5   6
ENDBRANCH   4   5
ENDBRANCH   3   4
ENDBRANCH   1   3
BRANCH   2  13
ATOM     13  C   UNL     1      36.758  27.425  66.522  1.00  0.00     0.027 C 
BRANCH  13  14
ATOM     14  C   UNL     1      37.831  26.351  66.300  1.00  0.00     0.004 C 
BRANCH  14  15
ATOM     15  C   UNL     1      39.102  26.611  67.125  1.00  0.00     0.000 C 
BRANCH  15  16
ATOM     16  C   UNL     1      39.953  27.756  66.546  1.00  0.00     0.000 C 
BRANCH  16  17
ATOM     17  C   UNL     1      39.285  28.433  65.338  1.00  0.00    -0.000 C 
BRANCH  17  18
ATOM     18  C   UNL     1      39.184  29.960  65.498  1.00  0.00    -0.000 C 
BRANCH  18  19
ATOM     19  C   UNL     1      39.301  30.408  66.963  1.00  0.00    -0.003 C 
ATOM     20  C   UNL     1      39.610  31.898  67.100  1.00  0.00     0.004 C 
ENDBRANCH  18  19
ENDBRANCH  17  18
ENDBRANCH  16  17
ENDBRANCH  15  16
ENDBRANCH  14  15
ENDBRANCH  13  14
ENDBRANCH   2  13
TORSDOF 15
ENDMDL
MODEL 4
REMARK VINA RESULT:     0.103     13.333     15.458
REMARK INTER + INTRA:          -0.617
REMARK INTER:                   0.007
REMARK INTRA:                  -0.624
REMARK UNBOUND:                -0.810
REMARK SMILES CCCCCCCCC=CCCCCCCCC(=O)[O-]
REMARK SMILES IDX 10 1 9 2 11 3 12 4 13 5 14 6 15 7 16 8 17 9 18 10 19 11
REMARK SMILES IDX 20 12 8 13 7 14 6 15 5 16 4 17 3 18 2 19 1 20
REMARK H PARENT
REMARK Flexibility Score: inf
ROOT
ATOM      1  C   UNL     1      34.747  25.951  64.954  1.00  0.00    -0.031 C 
ATOM      2  C   UNL     1      33.842  24.975  65.158  1.00  0.00    -0.031 C 
ENDROOT
BRANCH   1   3
ATOM      3  C   UNL     1      35.570  26.593  66.043  1.00  0.00     0.027 C 
BRANCH   3   4
ATOM      4  C   UNL     1      37.067  26.375  65.797  1.00  0.00     0.004 C 
BRANCH   4   5
ATOM      5  C   UNL     1      37.817  26.185  67.125  1.00  0.00     0.000 C 
BRANCH   5   6
ATOM      6  C   UNL     1      39.344  26.211  66.952  1.00  0.00     0.000 C 
BRANCH   6   7
ATOM      7  C   UNL     1      39.931  27.622  67.122  1.00  0.00     0.000 C 
BRANCH   7   8
ATOM      8  C   UNL     1      40.501  28.199  65.812  1.00  0.00     0.006 C 
BRANCH   8   9
ATOM      9  C   UNL     1      39.672  29.354  65.224  1.00  0.00     0.053 C 
BRANCH   9  10
ATOM     10  C   UNL     1      38.558  29.783  66.131  1.00  0.00     0.041 C 
ATOM     11  O   UNL     1      38.797  30.523  67.121  1.00  0.00    -0.550 OA
ATOM     12  O   UNL     1      37.251  29.394  65.865  1.00  0.00    -0.550 OA
ENDBRANCH   9  10
ENDBRANCH   8   9
ENDBRANCH   7   8
ENDBRANCH   6   7
ENDBRANCH   5   6
ENDBRANCH   4   5
ENDBRANCH   3   4
ENDBRANCH   1   3
BRANCH   2  13
ATOM     13  C   UNL     1      33.464  24.433  66.513  1.00  0.00     0.027 C 
BRANCH  13  14
ATOM     14  C   UNL     1      32.020  24.813  66.868  1.00  0.00     0.004 C 
BRANCH  14  15
ATOM     15  C   UNL     1      31.069  23.606  66.831  1.00  0.00     0.000 C 
BRANCH  15  16
ATOM     16  C   UNL     1      29.640  23.997  66.412  1.00  0.00     0.000 C 
BRANCH  16  17
ATOM     17  C   UNL     1      28.970  22.925  65.538  1.00  0.00    -0.000 C 
BRANCH  17  18
ATOM     18  C   UNL     1      28.895  23.333  64.056  1.00  0.00    -0.000 C 
BRANCH  18  19
ATOM     19  C   UNL     1      30.248  23.812  63.508  1.00  0.00    -0.003 C 
ATOM     20  C   UNL     1      30.786  22.910  62.398  1.00  0.00     0.004 C 
ENDBRANCH  18  19
ENDBRANCH  17  18
ENDBRANCH  16  17
ENDBRANCH  15  16
ENDBRANCH  14  15
ENDBRANCH  13  14
ENDBRANCH   2  13
TORSDOF 15
ENDMDL
MODEL 5
REMARK VINA RESULT:     0.544     13.734     16.745
REMARK INTER + INTRA:           0.212
REMARK INTER:                  -0.310
REMARK INTRA:                   0.522
REMARK UNBOUND:                -0.810
REMARK SMILES CCCCCCCCC=CCCCCCCCC(=O)[O-]
REMARK SMILES IDX 10 1 9 2 11 3 12 4 13 5 14 6 15 7 16 8 17 9 18 10 19 11
REMARK SMILES IDX 20 12 8 13 7 14 6 15 5 16 4 17 3 18 2 19 1 20
REMARK H PARENT
REMARK Flexibility Score: inf
ROOT
ATOM      1  C   UNL     1      35.656  27.227  64.833  1.00  0.00    -0.031 C 
ATOM      2  C   UNL     1      36.297  27.997  65.733  1.00  0.00    -0.031 C 
ENDROOT
BRANCH   1   3
ATOM      3  C   UNL     1      35.444  25.741  64.979  1.00  0.00     0.027 C 
BRANCH   3   4
ATOM      4  C   UNL     1      34.386  25.442  66.048  1.00  0.00     0.004 C 
BRANCH   4   5
ATOM      5  C   UNL     1      33.656  24.126  65.742  1.00  0.00     0.000 C 
BRANCH   5   6
ATOM      6  C   UNL     1      33.287  23.985  64.256  1.00  0.00     0.000 C 
BRANCH   6   7
ATOM      7  C   UNL     1      32.224  22.900  64.015  1.00  0.00     0.000 C 
BRANCH   7   8
ATOM      8  C   UNL     1      30.900  23.465  63.465  1.00  0.00     0.006 C 
BRANCH   8   9
ATOM      9  C   UNL     1      29.656  23.026  64.257  1.00  0.00     0.053 C 
BRANCH   9  10
ATOM     10  C   UNL     1      29.610  23.619  65.633  1.00  0.00     0.041 C 
ATOM     11  O   UNL     1      29.681  22.875  66.646  1.00  0.00    -0.550 OA
ATOM     12  O   UNL     1      29.525  24.996  65.797  1.00  0.00    -0.550 OA
ENDBRANCH   9  10
ENDBRANCH   8   9
ENDBRANCH   7   8
ENDBRANCH   6   7
ENDBRANCH   5   6
ENDBRANCH   4   5
ENDBRANCH   3   4
ENDBRANCH   1   3
BRANCH   2  13
ATOM     13  C   UNL     1      36.962  27.475  66.982  1.00  0.00     0.027 C 
BRANCH  13  14
ATOM     14  C   UNL     1      37.828  26.249  66.665  1.00  0.00     0.004 C 
BRANCH  14  15
ATOM     15  C   UNL     1      39.284  26.424  67.125  1.00  0.00     0.000 C 
BRANCH  15  16
ATOM     16  C   UNL     1      40.016  27.534  66.348  1.00  0.00     0.000 C 
BRANCH  16  17
ATOM     17  C   UNL     1      39.393  28.921  66.578  1.00  0.00    -0.000 C 
BRANCH  17  18
ATOM     18  C   UNL     1      39.142  29.680  65.263  1.00  0.00    -0.000 C 
BRANCH  18  19
ATOM     19  C   UNL     1      39.738  31.097  65.279  1.00  0.00    -0.003 C 
ATOM     20  C   UNL     1      40.536  31.414  64.014  1.00  0.00     0.004 C 
ENDBRANCH  18  19
ENDBRANCH  17  18
ENDBRANCH  16  17
ENDBRANCH  15  16
ENDBRANCH  14  15
ENDBRANCH  13  14
ENDBRANCH   2  13
TORSDOF 15
ENDMDL
MODEL 6
REMARK VINA RESULT:     1.045      1.489      2.107
REMARK INTER + INTRA:           1.151
REMARK INTER:                   0.976
REMARK INTRA:                   0.175
REMARK UNBOUND:                -0.810
REMARK SMILES CCCCCCCCC=CCCCCCCCC(=O)[O-]
REMARK SMILES IDX 10 1 9 2 11 3 12 4 13 5 14 6 15 7 16 8 17 9 18 10 19 11
REMARK SMILES IDX 20 12 8 13 7 14 6 15 5 16 4 17 3 18 2 19 1 20
REMARK H PARENT
REMARK Flexibility Score: inf
ROOT
ATOM      1  C   UNL     1      38.550  39.064  64.825  1.00  0.00    -0.031 C 
ATOM      2  C   UNL     1      37.708  39.753  65.619  1.00  0.00    -0.031 C 
ENDROOT
BRANCH   1   3
ATOM      3  C   UNL     1      39.934  38.622  65.227  1.00  0.00     0.027 C 
BRANCH   3   4
ATOM      4  C   UNL     1      39.869  37.437  66.198  1.00  0.00     0.004 C 
BRANCH   4   5
ATOM      5  C   UNL     1      41.094  37.422  67.125  1.00  0.00     0.000 C 
BRANCH   5   6
ATOM      6  C   UNL     1      42.421  37.526  66.355  1.00  0.00     0.000 C 
BRANCH   6   7
ATOM      7  C   UNL     1      43.418  38.483  67.029  1.00  0.00     0.000 C 
BRANCH   7   8
ATOM      8  C   UNL     1      43.454  39.876  66.372  1.00  0.00     0.006 C 
BRANCH   8   9
ATOM      9  C   UNL     1      42.307  40.804  66.812  1.00  0.00     0.053 C 
BRANCH   9  10
ATOM     10  C   UNL     1      42.655  42.255  66.668  1.00  0.00     0.041 C 
ATOM     11  O   UNL     1      43.743  42.694  67.124  1.00  0.00    -0.550 OA
ATOM     12  O   UNL     1      41.794  43.117  66.000  1.00  0.00    -0.550 OA
ENDBRANCH   9  10
ENDBRANCH   8   9
ENDBRANCH   7   8
ENDBRANCH   6   7
ENDBRANCH   5   6
ENDBRANCH   4   5
ENDBRANCH   3   4
ENDBRANCH   1   3
BRANCH   2  13
ATOM     13  C   UNL     1      38.055  40.250  67.000  1.00  0.00     0.027 C 
BRANCH  13  14
ATOM     14  C   UNL     1      37.829  41.765  67.106  1.00  0.00     0.004 C 
BRANCH  14  15
ATOM     15  C   UNL     1      38.817  42.567  66.244  1.00  0.00     0.000 C 
BRANCH  15  16
ATOM     16  C   UNL     1      38.741  42.187  64.754  1.00  0.00     0.000 C 
BRANCH  16  17
ATOM     17  C   UNL     1      37.594  42.903  64.023  1.00  0.00    -0.000 C 
BRANCH  17  18
ATOM     18  C   UNL     1      36.344  43.070  64.905  1.00  0.00    -0.000 C 
BRANCH  18  19
ATOM     19  C   UNL     1      35.038  42.904  64.113  1.00  0.00    -0.003 C 
ATOM     20  C   UNL     1      33.871  42.452  64.990  1.00  0.00     0.004 C 
ENDBRANCH  18  19
ENDBRANCH  17  18
ENDBRANCH  16  17
ENDBRANCH  15  16
ENDBRANCH  14  15
ENDBRANCH  13  14
ENDBRANCH   2  13
TORSDOF 15
ENDMDL
MODEL 7
REMARK VINA RESULT:     1.484     19.660     21.229
REMARK INTER + INTRA:           1.976
REMARK INTER:                   2.800
REMARK INTRA:                  -0.825
REMARK UNBOUND:                -0.810
REMARK SMILES CCCCCCCCC=CCCCCCCCC(=O)[O-]
REMARK SMILES IDX 10 1 9 2 11 3 12 4 13 5 14 6 15 7 16 8 17 9 18 10 19 11
REMARK SMILES IDX 20 12 8 13 7 14 6 15 5 16 4 17 3 18 2 19 1 20
REMARK H PARENT
REMARK Flexibility Score: inf
ROOT
ATOM      1  C   UNL     1      37.842  24.317  55.649  1.00  0.00    -0.031 C 
ATOM      2  C   UNL     1      36.608  24.393  56.182  1.00  0.00    -0.031 C 
ENDROOT
BRANCH   1   3
ATOM      3  C   UNL     1      38.653  23.050  55.549  1.00  0.00     0.027 C 
BRANCH   3   4
ATOM      4  C   UNL     1      39.318  22.933  54.173  1.00  0.00     0.004 C 
BRANCH   4   5
ATOM      5  C   UNL     1      38.263  22.889  53.057  1.00  0.00     0.000 C 
BRANCH   5   6
ATOM      6  C   UNL     1      38.177  24.208  52.271  1.00  0.00     0.000 C 
BRANCH   6   7
ATOM      7  C   UNL     1      36.822  24.912  52.450  1.00  0.00     0.000 C 
BRANCH   7   8
ATOM      8  C   UNL     1      35.625  24.023  52.059  1.00  0.00     0.006 C 
BRANCH   8   9
ATOM      9  C   UNL     1      35.986  22.875  51.100  1.00  0.00     0.053 C 
BRANCH   9  10
ATOM     10  C   UNL     1      35.626  23.179  49.677  1.00  0.00     0.041 C 
ATOM     11  O   UNL     1      34.526  23.730  49.406  1.00  0.00    -0.550 OA
ATOM     12  O   UNL     1      36.518  22.888  48.653  1.00  0.00    -0.550 OA
ENDBRANCH   9  10
ENDBRANCH   8   9
ENDBRANCH   7   8
ENDBRANCH   6   7
ENDBRANCH   5   6
ENDBRANCH   4   5
ENDBRANCH   3   4
ENDBRANCH   1   3
BRANCH   2  13
ATOM     13  C   UNL     1      35.886  23.236  56.827  1.00  0.00     0.027 C 
BRANCH  13  14
ATOM     14  C   UNL     1      34.418  23.195  56.382  1.00  0.00     0.004 C 
BRANCH  14  15
ATOM     15  C   UNL     1      33.920  24.557  55.873  1.00  0.00     0.000 C 
BRANCH  15  16
ATOM     16  C   UNL     1      32.710  25.076  56.672  1.00  0.00     0.000 C 
BRANCH  16  17
ATOM     17  C   UNL     1      32.428  26.564  56.412  1.00  0.00    -0.000 C 
BRANCH  17  18
ATOM     18  C   UNL     1      31.923  26.828  54.982  1.00  0.00    -0.000 C 
BRANCH  18  19
ATOM     19  C   UNL     1      31.798  28.327  54.670  1.00  0.00    -0.003 C 
ATOM     20  C   UNL     1      31.043  28.596  53.369  1.00  0.00     0.004 C 
ENDBRANCH  18  19
ENDBRANCH  17  18
ENDBRANCH  16  17
ENDBRANCH  15  16
ENDBRANCH  14  15
ENDBRANCH  13  14
ENDBRANCH   2  13
TORSDOF 15
ENDMDL
