MODEL 1
REMARK VINA RESULT:    -2.534      0.000      0.000
REMARK INTER + INTRA:          -5.621
REMARK INTER:                  -4.607
REMARK INTRA:                  -1.014
REMARK UNBOUND:                -1.014
REMARK SMILES CCCCCCCCCCCCCCCC(=O)[O-]
REMARK SMILES IDX 9 1 10 2 11 3 12 4 13 5 14 6 15 7 16 8 17 9 18 10 8 11 7 12
REMARK SMILES IDX 6 13 5 14 4 15 3 16 2 17 1 18
REMARK H PARENT
REMARK Flexibility Score: inf
ROOT
ATOM      1  C   UNL     1       0.720 -15.717 -18.488  1.00  0.00     0.000 C 
ENDROOT
BRANCH   1   2
ATOM      2  C   UNL     1       1.546 -14.534 -17.967  1.00  0.00     0.000 C 
BRANCH   2   3
ATOM      3  C   UNL     1       1.682 -13.443 -19.036  1.00  0.00     0.000 C 
BRANCH   3   4
ATOM      4  C   UNL     1       2.948 -12.606 -18.808  1.00  0.00     0.000 C 
BRANCH   4   5
ATOM      5  C   UNL     1       2.663 -11.095 -18.782  1.00  0.00     0.000 C 
BRANCH   5   6
ATOM      6  C   UNL     1       3.945 -10.251 -18.736  1.00  0.00     0.006 C 
BRANCH   6   7
ATOM      7  C   UNL     1       4.734 -10.382 -20.042  1.00  0.00     0.053 C 
BRANCH   7   8
ATOM      8  C   UNL     1       6.111 -10.902 -19.773  1.00  0.00     0.041 C 
ATOM      9  O   UNL     1       7.010 -10.797 -20.648  1.00  0.00    -0.550 OA
ATOM     10  O   UNL     1       6.388 -11.547 -18.575  1.00  0.00    -0.550 OA
ENDBRANCH   7   8
ENDBRANCH   6   7
ENDBRANCH   5   6
ENDBRANCH   4   5
ENDBRANCH   3   4
ENDBRANCH   2   3
ENDBRANCH   1   2
BRANCH   1  11
ATOM     11  C   UNL     1      -0.750 -15.324 -18.675  1.00  0.00     0.000 C 
BRANCH  11  12
ATOM     12  C   UNL     1      -1.669 -16.546 -18.523  1.00  0.00    -0.000 C 
BRANCH  12  13
ATOM     13  C   UNL     1      -2.125 -17.119 -19.874  1.00  0.00    -0.000 C 
BRANCH  13  14
ATOM     14  C   UNL     1      -1.604 -18.547 -20.116  1.00  0.00    -0.000 C 
BRANCH  14  15
ATOM     15  C   UNL     1      -1.262 -19.277 -18.807  1.00  0.00    -0.000 C 
BRANCH  15  16
ATOM     16  C   UNL     1       0.132 -19.930 -18.836  1.00  0.00    -0.000 C 
BRANCH  16  17
ATOM     17  C   UNL     1       1.123 -19.244 -17.884  1.00  0.00    -0.003 C 
ATOM     18  C   UNL     1       1.111 -19.851 -16.481  1.00  0.00     0.004 C 
ENDBRANCH  16  17
ENDBRANCH  15  16
ENDBRANCH  14  15
ENDBRANCH  13  14
ENDBRANCH  12  13
ENDBRANCH  11  12
ENDBRANCH   1  11
TORSDOF 14
ENDMDL
MODEL 2
REMARK VINA RESULT:    -2.359      3.323      8.491
REMARK INTER + INTRA:          -5.304
REMARK INTER:                  -4.388
REMARK INTRA:                  -0.915
REMARK UNBOUND:                -1.014
REMARK SMILES CCCCCCCCCCCCCCCC(=O)[O-]
REMARK SMILES IDX 9 1 10 2 11 3 12 4 13 5 14 6 15 7 16 8 17 9 18 10 8 11 7 12
REMARK SMILES IDX 6 13 5 14 4 15 3 16 2 17 1 18
REMARK H PARENT
REMARK Flexibility Score: inf
ROOT
ATOM      1  C   UNL     1      -0.077 -16.050 -18.660  1.00  0.00     0.000 C 
ENDROOT
BRANCH   1   2
ATOM      2  C   UNL     1      -1.508 -15.756 -19.126  1.00  0.00     0.000 C 
BRANCH   2   3
ATOM      3  C   UNL     1      -2.012 -16.843 -20.083  1.00  0.00     0.000 C 
BRANCH   3   4
ATOM      4  C   UNL     1      -2.030 -18.216 -19.395  1.00  0.00     0.000 C 
BRANCH   4   5
ATOM      5  C   UNL     1      -1.337 -19.306 -20.228  1.00  0.00     0.000 C 
BRANCH   5   6
ATOM      6  C   UNL     1      -0.257 -20.058 -19.438  1.00  0.00     0.006 C 
BRANCH   6   7
ATOM      7  C   UNL     1      -0.582 -20.073 -17.942  1.00  0.00     0.053 C 
BRANCH   7   8
ATOM      8  C   UNL     1       0.631 -19.726 -17.137  1.00  0.00     0.041 C 
ATOM      9  O   UNL     1       0.734 -20.118 -15.946  1.00  0.00    -0.550 OA
ATOM     10  O   UNL     1       1.625 -18.928 -17.689  1.00  0.00    -0.550 OA
ENDBRANCH   7   8
ENDBRANCH   6   7
ENDBRANCH   5   6
ENDBRANCH   4   5
ENDBRANCH   3   4
ENDBRANCH   2   3
ENDBRANCH   1   2
BRANCH   1  11
ATOM     11  C   UNL     1       0.498 -14.873 -17.865  1.00  0.00     0.000 C 
BRANCH  11  12
ATOM     12  C   UNL     1       1.909 -14.515 -18.354  1.00  0.00    -0.000 C 
BRANCH  12  13
ATOM     13  C   UNL     1       1.960 -13.166 -19.089  1.00  0.00    -0.000 C 
BRANCH  13  14
ATOM     14  C   UNL     1       3.236 -12.367 -18.767  1.00  0.00    -0.000 C 
BRANCH  14  15
ATOM     15  C   UNL     1       2.969 -10.858 -18.641  1.00  0.00    -0.000 C 
BRANCH  15  16
ATOM     16  C   UNL     1       4.142 -10.002 -19.149  1.00  0.00    -0.000 C 
BRANCH  16  17
ATOM     17  C   UNL     1       5.022 -10.750 -20.161  1.00  0.00    -0.003 C 
ATOM     18  C   UNL     1       6.498 -10.761 -19.767  1.00  0.00     0.004 C 
ENDBRANCH  16  17
ENDBRANCH  15  16
ENDBRANCH  14  15
ENDBRANCH  13  14
ENDBRANCH  12  13
ENDBRANCH  11  12
ENDBRANCH   1  11
TORSDOF 14
ENDMDL
MODEL 3
REMARK VINA RESULT:    -1.788      3.142      4.191
REMARK INTER + INTRA:          -4.265
REMARK INTER:                  -3.594
REMARK INTRA:                  -0.671
REMARK UNBOUND:                -1.014
REMARK SMILES CCCCCCCCCCCCCCCC(=O)[O-]
REMARK SMILES IDX 9 1 10 2 11 3 12 4 13 5 14 6 15 7 16 8 17 9 18 10 8 11 7 12
REMARK SMILES IDX 6 13 5 14 4 15 3 16 2 17 1 18
REMARK H PARENT
REMARK Flexibility Score: inf
ROOT
ATOM      1  C   UNL     1       2.327 -12.659 -18.768  1.00  0.00     0.000 C 
ENDROOT
BRANCH   1   2
ATOM      2  C   UNL     1       3.745 -12.075 -18.787  1.00  0.00     0.000 C 
BRANCH   2   3
ATOM      3  C   UNL     1       3.710 -10.542 -18.803  1.00  0.00     0.000 C 
BRANCH   3   4
ATOM      4  C   UNL     1       2.460 -10.014 -18.084  1.00  0.00     0.000 C 
BRANCH   4   5
ATOM      5  C   UNL     1       2.738  -8.736 -17.276  1.00  0.00     0.000 C 
BRANCH   5   6
ATOM      6  C   UNL     1       3.191  -9.030 -15.839  1.00  0.00     0.006 C 
BRANCH   6   7
ATOM      7  C   UNL     1       3.229  -7.748 -15.002  1.00  0.00     0.053 C 
BRANCH   7   8
ATOM      8  C   UNL     1       3.682  -8.044 -13.607  1.00  0.00     0.041 C 
ATOM      9  O   UNL     1       4.322  -7.181 -12.953  1.00  0.00    -0.550 OA
ATOM     10  O   UNL     1       3.440  -9.293 -13.049  1.00  0.00    -0.550 OA
ENDBRANCH   7   8
ENDBRANCH   6   7
ENDBRANCH   5   6
ENDBRANCH   4   5
ENDBRANCH   3   4
ENDBRANCH   2   3
ENDBRANCH   1   2
BRANCH   1  11
ATOM     11  C   UNL     1       2.348 -14.147 -18.397  1.00  0.00     0.000 C 
BRANCH  11  12
ATOM     12  C   UNL     1       0.928 -14.665 -18.122  1.00  0.00    -0.000 C 
BRANCH  12  13
ATOM     13  C   UNL     1       0.797 -16.181 -18.337  1.00  0.00    -0.000 C 
BRANCH  13  14
ATOM     14  C   UNL     1      -0.589 -16.583 -18.873  1.00  0.00    -0.000 C 
BRANCH  14  15
ATOM     15  C   UNL     1      -0.830 -18.100 -18.802  1.00  0.00    -0.000 C 
BRANCH  15  16
ATOM     16  C   UNL     1       0.476 -18.904 -18.675  1.00  0.00    -0.000 C 
BRANCH  16  17
ATOM     17  C   UNL     1       0.384 -20.012 -17.615  1.00  0.00    -0.003 C 
ATOM     18  C   UNL     1       1.411 -19.846 -16.496  1.00  0.00     0.004 C 
ENDBRANCH  16  17
ENDBRANCH  15  16
ENDBRANCH  14  15
ENDBRANCH  13  14
ENDBRANCH  12  13
ENDBRANCH  11  12
ENDBRANCH   1  11
TORSDOF 14
ENDMDL
MODEL 4
REMARK VINA RESULT:    -1.769      3.548      8.513
REMARK INTER + INTRA:          -4.231
REMARK INTER:                  -3.425
REMARK INTRA:                  -0.806
REMARK UNBOUND:                -1.014
REMARK SMILES CCCCCCCCCCCCCCCC(=O)[O-]
REMARK SMILES IDX 9 1 10 2 11 3 12 4 13 5 14 6 15 7 16 8 17 9 18 10 8 11 7 12
REMARK SMILES IDX 6 13 5 14 4 15 3 16 2 17 1 18
REMARK H PARENT
REMARK Flexibility Score: inf
ROOT
ATOM      1  C   UNL     1       0.154 -16.055 -18.305  1.00  0.00     0.000 C 
ENDROOT
BRANCH   1   2
ATOM      2  C   UNL     1      -1.321 -15.725 -18.568  1.00  0.00     0.000 C 
BRANCH   2   3
ATOM      3  C   UNL     1      -2.125 -16.994 -18.874  1.00  0.00     0.000 C 
BRANCH   3   4
ATOM      4  C   UNL     1      -1.803 -17.522 -20.279  1.00  0.00     0.000 C 
BRANCH   4   5
ATOM      5  C   UNL     1      -1.512 -19.032 -20.292  1.00  0.00     0.000 C 
BRANCH   5   6
ATOM      6  C   UNL     1      -1.413 -19.628 -18.881  1.00  0.00     0.006 C 
BRANCH   6   7
ATOM      7  C   UNL     1       0.008 -20.125 -18.595  1.00  0.00     0.053 C 
BRANCH   7   8
ATOM      8  C   UNL     1       0.413 -19.779 -17.197  1.00  0.00     0.041 C 
ATOM      9  O   UNL     1       1.568 -19.337 -16.963  1.00  0.00    -0.550 OA
ATOM     10  O   UNL     1      -0.469 -19.992 -16.145  1.00  0.00    -0.550 OA
ENDBRANCH   7   8
ENDBRANCH   6   7
ENDBRANCH   5   6
ENDBRANCH   4   5
ENDBRANCH   3   4
ENDBRANCH   2   3
ENDBRANCH   1   2
BRANCH   1  11
ATOM     11  C   UNL     1       0.873 -14.878 -17.638  1.00  0.00     0.000 C 
BRANCH  11  12
ATOM     12  C   UNL     1       2.112 -14.461 -18.444  1.00  0.00    -0.000 C 
BRANCH  12  13
ATOM     13  C   UNL     1       2.279 -12.936 -18.532  1.00  0.00    -0.000 C 
BRANCH  13  14
ATOM     14  C   UNL     1       3.515 -12.523 -19.352  1.00  0.00    -0.000 C 
BRANCH  14  15
ATOM     15  C   UNL     1       4.332 -11.416 -18.667  1.00  0.00    -0.000 C 
BRANCH  15  16
ATOM     16  C   UNL     1       3.870 -10.003 -19.066  1.00  0.00    -0.000 C 
BRANCH  16  17
ATOM     17  C   UNL     1       2.577  -9.583 -18.351  1.00  0.00    -0.003 C 
ATOM     18  C   UNL     1       2.798  -9.253 -16.875  1.00  0.00     0.004 C 
ENDBRANCH  16  17
ENDBRANCH  15  16
ENDBRANCH  14  15
ENDBRANCH  13  14
ENDBRANCH  12  13
ENDBRANCH  11  12
ENDBRANCH   1  11
TORSDOF 14
ENDMDL
MODEL 5
REMARK VINA RESULT:    -1.544      3.679      9.062
REMARK INTER + INTRA:          -3.822
REMARK INTER:                  -3.167
REMARK INTRA:                  -0.655
REMARK UNBOUND:                -1.014
REMARK SMILES CCCCCCCCCCCCCCCC(=O)[O-]
REMARK SMILES IDX 9 1 10 2 11 3 12 4 13 5 14 6 15 7 16 8 17 9 18 10 8 11 7 12
REMARK SMILES IDX 6 13 5 14 4 15 3 16 2 17 1 18
REMARK H PARENT
REMARK Flexibility Score: inf
ROOT
ATOM      1  C   UNL     1       2.260 -14.228 -18.436  1.00  0.00     0.000 C 
ENDROOT
BRANCH   1   2
ATOM      2  C   UNL     1       0.913 -14.773 -17.945  1.00  0.00     0.000 C 
BRANCH   2   3
ATOM      3  C   UNL     1       0.658 -16.185 -18.485  1.00  0.00     0.000 C 
BRANCH   3   4
ATOM      4  C   UNL     1      -0.796 -16.340 -18.954  1.00  0.00     0.000 C 
BRANCH   4   5
ATOM      5  C   UNL     1      -1.301 -17.788 -18.847  1.00  0.00     0.000 C 
BRANCH   5   6
ATOM      6  C   UNL     1      -0.407 -18.784 -19.599  1.00  0.00     0.006 C 
BRANCH   6   7
ATOM      7  C   UNL     1      -0.330 -20.121 -18.855  1.00  0.00     0.053 C 
BRANCH   7   8
ATOM      8  C   UNL     1       0.075 -19.906 -17.430  1.00  0.00     0.041 C 
ATOM      9  O   UNL     1      -0.746 -20.118 -16.499  1.00  0.00    -0.550 OA
ATOM     10  O   UNL     1       1.343 -19.423 -17.134  1.00  0.00    -0.550 OA
ENDBRANCH   7   8
ENDBRANCH   6   7
ENDBRANCH   5   6
ENDBRANCH   4   5
ENDBRANCH   3   4
ENDBRANCH   2   3
ENDBRANCH   1   2
BRANCH   1  11
ATOM     11  C   UNL     1       2.118 -12.796 -18.963  1.00  0.00     0.000 C 
BRANCH  11  12
ATOM     12  C   UNL     1       3.149 -11.864 -18.308  1.00  0.00    -0.000 C 
BRANCH  12  13
ATOM     13  C   UNL     1       3.079 -10.427 -18.848  1.00  0.00    -0.000 C 
BRANCH  13  14
ATOM     14  C   UNL     1       4.281 -10.073 -19.741  1.00  0.00    -0.000 C 
BRANCH  14  15
ATOM     15  C   UNL     1       5.415 -11.106 -19.638  1.00  0.00    -0.000 C 
BRANCH  15  16
ATOM     16  C   UNL     1       6.510 -10.895 -20.698  1.00  0.00    -0.000 C 
BRANCH  16  17
ATOM     17  C   UNL     1       7.827 -10.387 -20.092  1.00  0.00    -0.003 C 
ATOM     18  C   UNL     1       8.849  -9.982 -21.153  1.00  0.00     0.004 C 
ENDBRANCH  16  17
ENDBRANCH  15  16
ENDBRANCH  14  15
ENDBRANCH  13  14
ENDBRANCH  12  13
ENDBRANCH  11  12
ENDBRANCH   1  11
TORSDOF 14
ENDMDL
MODEL 6
REMARK VINA RESULT:    -1.515      2.798      3.687
REMARK INTER + INTRA:          -3.769
REMARK INTER:                  -3.136
REMARK INTRA:                  -0.633
REMARK UNBOUND:                -1.014
REMARK SMILES CCCCCCCCCCCCCCCC(=O)[O-]
REMARK SMILES IDX 9 1 10 2 11 3 12 4 13 5 14 6 15 7 16 8 17 9 18 10 8 11 7 12
REMARK SMILES IDX 6 13 5 14 4 15 3 16 2 17 1 18
REMARK H PARENT
REMARK Flexibility Score: inf
ROOT
ATOM      1  C   UNL     1       2.348 -13.738 -18.782  1.00  0.00     0.000 C 
ENDROOT
BRANCH   1   2
ATOM      2  C   UNL     1       2.304 -12.205 -18.776  1.00  0.00     0.000 C 
BRANCH   2   3
ATOM      3  C   UNL     1       3.704 -11.612 -18.976  1.00  0.00     0.000 C 
BRANCH   3   4
ATOM      4  C   UNL     1       3.669 -10.080 -18.886  1.00  0.00     0.000 C 
BRANCH   4   5
ATOM      5  C   UNL     1       2.638  -9.570 -17.865  1.00  0.00     0.000 C 
BRANCH   5   6
ATOM      6  C   UNL     1       3.232  -9.399 -16.459  1.00  0.00     0.006 C 
BRANCH   6   7
ATOM      7  C   UNL     1       2.979  -7.985 -15.926  1.00  0.00     0.053 C 
BRANCH   7   8
ATOM      8  C   UNL     1       3.433  -7.872 -14.505  1.00  0.00     0.041 C 
ATOM      9  O   UNL     1       3.320  -6.780 -13.889  1.00  0.00    -0.550 OA
ATOM     10  O   UNL     1       4.028  -8.959 -13.876  1.00  0.00    -0.550 OA
ENDBRANCH   7   8
ENDBRANCH   6   7
ENDBRANCH   5   6
ENDBRANCH   4   5
ENDBRANCH   3   4
ENDBRANCH   2   3
ENDBRANCH   1   2
BRANCH   1  11
ATOM     11  C   UNL     1       1.374 -14.323 -17.752  1.00  0.00     0.000 C 
BRANCH  11  12
ATOM     12  C   UNL     1       0.804 -15.665 -18.235  1.00  0.00    -0.000 C 
BRANCH  12  13
ATOM     13  C   UNL     1      -0.675 -15.570 -18.644  1.00  0.00    -0.000 C 
BRANCH  13  14
ATOM     14  C   UNL     1      -1.390 -16.932 -18.595  1.00  0.00    -0.000 C 
BRANCH  14  15
ATOM     15  C   UNL     1      -0.800 -17.942 -19.594  1.00  0.00    -0.000 C 
BRANCH  15  16
ATOM     16  C   UNL     1      -0.317 -19.236 -18.916  1.00  0.00    -0.000 C 
BRANCH  16  17
ATOM     17  C   UNL     1       0.976 -19.032 -18.113  1.00  0.00    -0.003 C 
ATOM     18  C   UNL     1       0.992 -19.825 -16.806  1.00  0.00     0.004 C 
ENDBRANCH  16  17
ENDBRANCH  15  16
ENDBRANCH  14  15
ENDBRANCH  13  14
ENDBRANCH  12  13
ENDBRANCH  11  12
ENDBRANCH   1  11
TORSDOF 14
ENDMDL
MODEL 7
REMARK VINA RESULT:    -1.482      3.841      8.864
REMARK INTER + INTRA:          -3.709
REMARK INTER:                  -3.195
REMARK INTRA:                  -0.513
REMARK UNBOUND:                -1.014
REMARK SMILES CCCCCCCCCCCCCCCC(=O)[O-]
REMARK SMILES IDX 9 1 10 2 11 3 12 4 13 5 14 6 15 7 16 8 17 9 18 10 8 11 7 12
REMARK SMILES IDX 6 13 5 14 4 15 3 16 2 17 1 18
REMARK H PARENT
REMARK Flexibility Score: inf
ROOT
ATOM      1  C   UNL     1       2.403 -13.823 -18.828  1.00  0.00     0.000 C 
ENDROOT
BRANCH   1   2
ATOM      2  C   UNL     1       1.421 -14.359 -17.779  1.00  0.00     0.000 C 
BRANCH   2   3
ATOM      3  C   UNL     1       0.655 -15.576 -18.311  1.00  0.00     0.000 C 
BRANCH   3   4
ATOM      4  C   UNL     1      -0.763 -15.184 -18.750  1.00  0.00     0.000 C 
BRANCH   4   5
ATOM      5  C   UNL     1      -1.792 -16.296 -18.490  1.00  0.00     0.000 C 
BRANCH   5   6
ATOM      6  C   UNL     1      -1.555 -17.538 -19.361  1.00  0.00     0.006 C 
BRANCH   6   7
ATOM      7  C   UNL     1      -1.212 -18.755 -18.497  1.00  0.00     0.053 C 
BRANCH   7   8
ATOM      8  C   UNL     1       0.166 -19.249 -18.808  1.00  0.00     0.041 C 
ATOM      9  O   UNL     1       0.382 -19.903 -19.861  1.00  0.00    -0.550 OA
ATOM     10  O   UNL     1       1.202 -19.029 -17.909  1.00  0.00    -0.550 OA
ENDBRANCH   7   8
ENDBRANCH   6   7
ENDBRANCH   5   6
ENDBRANCH   4   5
ENDBRANCH   3   4
ENDBRANCH   2   3
ENDBRANCH   1   2
BRANCH   1  11
ATOM     11  C   UNL     1       2.449 -12.291 -18.809  1.00  0.00     0.000 C 
BRANCH  11  12
ATOM     12  C   UNL     1       3.899 -11.784 -18.766  1.00  0.00    -0.000 C 
BRANCH  12  13
ATOM     13  C   UNL     1       3.999 -10.257 -18.906  1.00  0.00    -0.000 C 
BRANCH  13  14
ATOM     14  C   UNL     1       2.741  -9.533 -18.395  1.00  0.00    -0.000 C 
BRANCH  14  15
ATOM     15  C   UNL     1       2.607  -9.596 -16.865  1.00  0.00    -0.000 C 
BRANCH  15  16
ATOM     16  C   UNL     1       3.032  -8.287 -16.177  1.00  0.00    -0.000 C 
BRANCH  16  17
ATOM     17  C   UNL     1       3.644  -8.524 -14.788  1.00  0.00    -0.003 C 
ATOM     18  C   UNL     1       3.501  -7.315 -13.864  1.00  0.00     0.004 C 
ENDBRANCH  16  17
ENDBRANCH  15  16
ENDBRANCH  14  15
ENDBRANCH  13  14
ENDBRANCH  12  13
ENDBRANCH  11  12
ENDBRANCH   1  11
TORSDOF 14
ENDMDL
MODEL 8
REMARK VINA RESULT:    -1.446      2.064      2.343
REMARK INTER + INTRA:          -3.644
REMARK INTER:                  -3.260
REMARK INTRA:                  -0.384
REMARK UNBOUND:                -1.014
REMARK SMILES CCCCCCCCCCCCCCCC(=O)[O-]
REMARK SMILES IDX 9 1 10 2 11 3 12 4 13 5 14 6 15 7 16 8 17 9 18 10 8 11 7 12
REMARK SMILES IDX 6 13 5 14 4 15 3 16 2 17 1 18
REMARK H PARENT
REMARK Flexibility Score: inf
ROOT
ATOM      1  C   UNL     1      -0.468 -15.698 -17.962  1.00  0.00     0.000 C 
ENDROOT
BRANCH   1   2
ATOM      2  C   UNL     1       1.025 -15.731 -18.311  1.00  0.00     0.000 C 
BRANCH   2   3
ATOM      3  C   UNL     1       1.728 -14.448 -17.852  1.00  0.00     0.000 C 
BRANCH   3   4
ATOM      4  C   UNL     1       2.398 -13.734 -19.035  1.00  0.00     0.000 C 
BRANCH   4   5
ATOM      5  C   UNL     1       2.435 -12.207 -18.862  1.00  0.00     0.000 C 
BRANCH   5   6
ATOM      6  C   UNL     1       3.858 -11.669 -18.658  1.00  0.00     0.006 C 
BRANCH   6   7
ATOM      7  C   UNL     1       3.871 -10.137 -18.669  1.00  0.00     0.053 C 
BRANCH   7   8
ATOM      8  C   UNL     1       2.740  -9.596 -17.852  1.00  0.00     0.041 C 
ATOM      9  O   UNL     1       1.564  -9.627 -18.299  1.00  0.00    -0.550 OA
ATOM     10  O   UNL     1       2.993  -9.013 -16.617  1.00  0.00    -0.550 OA
ENDBRANCH   7   8
ENDBRANCH   6   7
ENDBRANCH   5   6
ENDBRANCH   4   5
ENDBRANCH   3   4
ENDBRANCH   2   3
ENDBRANCH   1   2
BRANCH   1  11
ATOM     11  C   UNL     1      -1.311 -15.299 -19.178  1.00  0.00     0.000 C 
BRANCH  11  12
ATOM     12  C   UNL     1      -2.124 -16.493 -19.700  1.00  0.00    -0.000 C 
BRANCH  12  13
ATOM     13  C   UNL     1      -1.264 -17.749 -19.914  1.00  0.00    -0.000 C 
BRANCH  13  14
ATOM     14  C   UNL     1      -1.903 -19.012 -19.308  1.00  0.00    -0.000 C 
BRANCH  14  15
ATOM     15  C   UNL     1      -1.822 -19.034 -17.773  1.00  0.00    -0.000 C 
BRANCH  15  16
ATOM     16  C   UNL     1      -0.851 -20.105 -17.244  1.00  0.00    -0.000 C 
BRANCH  16  17
ATOM     17  C   UNL     1       0.621 -19.705 -17.424  1.00  0.00    -0.003 C 
ATOM     18  C   UNL     1       1.454 -19.934 -16.164  1.00  0.00     0.004 C 
ENDBRANCH  16  17
ENDBRANCH  15  16
ENDBRANCH  14  15
ENDBRANCH  13  14
ENDBRANCH  12  13
ENDBRANCH  11  12
ENDBRANCH   1  11
TORSDOF 14
ENDMDL
