MODEL 1
REMARK VINA RESULT:     6.866      0.000      0.000
REMARK INTER + INTRA:           7.971
REMARK INTER:                   8.071
REMARK INTRA:                  -0.100
REMARK UNBOUND:                -0.100
REMARK SMILES O=c1c(O)c(-c2ccc(O)cc2)oc2cc(O)cc(O)c12
REMARK SMILES IDX 5 1 3 2 2 3 1 4 21 5 19 6 18 7 16 8 15 9 14 10 13 11 6 12
REMARK SMILES IDX 7 13 8 14 9 15 12 16 11 17 10 18 4 20 20 22 17 24
REMARK H PARENT 10 19 4 21 20 23 17 25
REMARK Flexibility Score: inf
ROOT
ATOM      1  C   UNL     1       0.680  30.872  24.281  1.00  0.00     0.180 A 
ATOM      2  C   UNL     1      -0.604  31.161  24.774  1.00  0.00     0.208 A 
ATOM      3  C   UNL     1      -0.747  31.544  26.117  1.00  0.00     0.238 A 
ATOM      4  O   UNL     1      -1.891  31.855  26.539  1.00  0.00    -0.285 OA
ATOM      5  C   UNL     1       0.392  31.617  26.955  1.00  0.00     0.111 A 
ATOM      6  C   UNL     1       0.359  31.955  28.340  1.00  0.00     0.134 A 
ATOM      7  C   UNL     1       1.561  32.124  29.039  1.00  0.00     0.093 A 
ATOM      8  C   UNL     1       2.793  31.904  28.418  1.00  0.00     0.123 A 
ATOM      9  C   UNL     1       2.833  31.516  27.080  1.00  0.00     0.094 A 
ATOM     10  C   UNL     1       1.653  31.374  26.348  1.00  0.00     0.146 A 
ATOM     11  O   UNL     1       1.737  31.014  25.073  1.00  0.00    -0.452 OA
ENDROOT
BRANCH   1  12
ATOM     12  C   UNL     1       0.908  30.438  22.883  1.00  0.00     0.021 A 
ATOM     13  C   UNL     1       1.470  29.182  22.588  1.00  0.00     0.016 A 
ATOM     14  C   UNL     1       1.699  28.805  21.262  1.00  0.00     0.047 A 
ATOM     15  C   UNL     1       1.383  29.677  20.216  1.00  0.00     0.115 A 
ATOM     16  C   UNL     1       0.612  31.318  21.829  1.00  0.00     0.016 A 
ATOM     17  C   UNL     1       0.842  30.937  20.503  1.00  0.00     0.047 A 
BRANCH  15  18
ATOM     18  O   UNL     1       1.615  29.287  18.899  1.00  0.00    -0.508 OA
ATOM     19  H   UNL     1       2.125  28.440  18.679  1.00  0.00     0.293 HD
ENDBRANCH  15  18
ENDBRANCH   1  12
BRANCH   2  20
ATOM     20  O   UNL     1      -1.713  31.104  23.925  1.00  0.00    -0.502 OA
ATOM     21  H   UNL     1      -2.597  31.543  24.155  1.00  0.00     0.293 HD
ENDBRANCH   2  20
BRANCH   6  22
ATOM     22  O   UNL     1      -0.818  32.107  29.079  1.00  0.00    -0.507 OA
ATOM     23  H   UNL     1      -0.876  32.549  29.983  1.00  0.00     0.293 HD
ENDBRANCH   6  22
BRANCH   8  24
ATOM     24  O   UNL     1       3.983  32.059  29.124  1.00  0.00    -0.508 OA
ATOM     25  H   UNL     1       4.034  32.633  29.957  1.00  0.00     0.293 HD
ENDBRANCH   8  24
TORSDOF 5
ENDMDL
MODEL 2
REMARK VINA RESULT:     8.658      1.664      3.671
REMARK INTER + INTRA:          10.077
REMARK INTER:                  10.343
REMARK INTRA:                  -0.266
REMARK UNBOUND:                -0.100
REMARK SMILES O=c1c(O)c(-c2ccc(O)cc2)oc2cc(O)cc(O)c12
REMARK SMILES IDX 5 1 3 2 2 3 1 4 21 5 19 6 18 7 16 8 15 9 14 10 13 11 6 12
REMARK SMILES IDX 7 13 8 14 9 15 12 16 11 17 10 18 4 20 20 22 17 24
REMARK H PARENT 10 19 4 21 20 23 17 25
REMARK Flexibility Score: inf
ROOT
ATOM      1  C   UNL     1       0.118  30.643  24.307  1.00  0.00     0.180 A 
ATOM      2  C   UNL     1       0.943  31.104  25.347  1.00  0.00     0.208 A 
ATOM      3  C   UNL     1       0.370  31.380  26.599  1.00  0.00     0.238 A 
ATOM      4  O   UNL     1       1.122  31.740  27.542  1.00  0.00    -0.285 OA
ATOM      5  C   UNL     1      -1.022  31.207  26.791  1.00  0.00     0.111 A 
ATOM      6  C   UNL     1      -1.715  31.493  28.005  1.00  0.00     0.134 A 
ATOM      7  C   UNL     1      -3.070  31.161  28.122  1.00  0.00     0.093 A 
ATOM      8  C   UNL     1      -3.772  30.611  27.047  1.00  0.00     0.123 A 
ATOM      9  C   UNL     1      -3.118  30.383  25.838  1.00  0.00     0.094 A 
ATOM     10  C   UNL     1      -1.759  30.671  25.702  1.00  0.00     0.146 A 
ATOM     11  O   UNL     1      -1.172  30.428  24.537  1.00  0.00    -0.452 OA
ENDROOT
BRANCH   1  12
ATOM     12  C   UNL     1       0.644  30.355  22.953  1.00  0.00     0.021 A 
ATOM     13  C   UNL     1       0.504  31.278  21.900  1.00  0.00     0.016 A 
ATOM     14  C   UNL     1       0.986  30.973  20.624  1.00  0.00     0.047 A 
ATOM     15  C   UNL     1       1.603  29.743  20.379  1.00  0.00     0.115 A 
ATOM     16  C   UNL     1       1.247  29.112  22.695  1.00  0.00     0.016 A 
ATOM     17  C   UNL     1       1.728  28.810  21.418  1.00  0.00     0.047 A 
BRANCH  15  18
ATOM     18  O   UNL     1       2.081  29.453  19.103  1.00  0.00    -0.508 OA
ATOM     19  H   UNL     1       3.036  29.659  18.835  1.00  0.00     0.293 HD
ENDBRANCH  15  18
ENDBRANCH   1  12
BRANCH   2  20
ATOM     20  O   UNL     1       2.319  31.248  25.144  1.00  0.00    -0.502 OA
ATOM     21  H   UNL     1       3.004  30.950  25.828  1.00  0.00     0.293 HD
ENDBRANCH   2  20
BRANCH   6  22
ATOM     22  O   UNL     1      -1.130  32.125  29.107  1.00  0.00    -0.507 OA
ATOM     23  H   UNL     1      -1.248  33.099  29.340  1.00  0.00     0.293 HD
ENDBRANCH   6  22
BRANCH   8  24
ATOM     24  O   UNL     1      -5.124  30.298  27.167  1.00  0.00    -0.508 OA
ATOM     25  H   UNL     1      -5.766  30.417  26.392  1.00  0.00     0.293 HD
ENDBRANCH   8  24
TORSDOF 5
ENDMDL
MODEL 3
REMARK VINA RESULT:     8.939     14.930     17.888
REMARK INTER + INTRA:          10.407
REMARK INTER:                  10.697
REMARK INTRA:                  -0.289
REMARK UNBOUND:                -0.100
REMARK SMILES O=c1c(O)c(-c2ccc(O)cc2)oc2cc(O)cc(O)c12
REMARK SMILES IDX 5 1 3 2 2 3 1 4 21 5 19 6 18 7 16 8 15 9 14 10 13 11 6 12
REMARK SMILES IDX 7 13 8 14 9 15 12 16 11 17 10 18 4 20 20 22 17 24
REMARK H PARENT 10 19 4 21 20 23 17 25
REMARK Flexibility Score: inf
ROOT
ATOM      1  C   UNL     1       4.955  14.605  18.186  1.00  0.00     0.180 A 
ATOM      2  C   UNL     1       5.583  13.655  19.010  1.00  0.00     0.208 A 
ATOM      3  C   UNL     1       6.150  14.076  20.224  1.00  0.00     0.238 A 
ATOM      4  O   UNL     1       6.664  13.212  20.982  1.00  0.00    -0.285 OA
ATOM      5  C   UNL     1       6.095  15.441  20.592  1.00  0.00     0.111 A 
ATOM      6  C   UNL     1       6.670  15.984  21.779  1.00  0.00     0.134 A 
ATOM      7  C   UNL     1       6.441  17.327  22.106  1.00  0.00     0.093 A 
ATOM      8  C   UNL     1       5.712  18.161  21.256  1.00  0.00     0.123 A 
ATOM      9  C   UNL     1       5.196  17.654  20.065  1.00  0.00     0.094 A 
ATOM     10  C   UNL     1       5.377  16.311  19.729  1.00  0.00     0.146 A 
ATOM     11  O   UNL     1       4.861  15.867  18.590  1.00  0.00    -0.452 OA
ENDROOT
BRANCH   1  12
ATOM     12  C   UNL     1       4.357  14.243  16.881  1.00  0.00     0.021 A 
ATOM     13  C   UNL     1       5.141  14.146  15.717  1.00  0.00     0.016 A 
ATOM     14  C   UNL     1       4.550  13.827  14.491  1.00  0.00     0.047 A 
ATOM     15  C   UNL     1       3.171  13.613  14.407  1.00  0.00     0.115 A 
ATOM     16  C   UNL     1       2.969  14.047  16.786  1.00  0.00     0.016 A 
ATOM     17  C   UNL     1       2.380  13.728  15.558  1.00  0.00     0.047 A 
BRANCH  15  18
ATOM     18  O   UNL     1       2.596  13.295  13.179  1.00  0.00    -0.508 OA
ATOM     19  H   UNL     1       2.706  13.894  12.371  1.00  0.00     0.293 HD
ENDBRANCH  15  18
ENDBRANCH   1  12
BRANCH   2  20
ATOM     20  O   UNL     1       5.608  12.308  18.638  1.00  0.00    -0.502 OA
ATOM     21  H   UNL     1       4.986  11.620  19.044  1.00  0.00     0.293 HD
ENDBRANCH   2  20
BRANCH   6  22
ATOM     22  O   UNL     1       7.491  15.262  22.650  1.00  0.00    -0.507 OA
ATOM     23  H   UNL     1       7.540  14.255  22.691  1.00  0.00     0.293 HD
ENDBRANCH   6  22
BRANCH   8  24
ATOM     24  O   UNL     1       5.502  19.499  21.581  1.00  0.00    -0.508 OA
ATOM     25  H   UNL     1       5.648  20.238  20.903  1.00  0.00     0.293 HD
ENDBRANCH   8  24
TORSDOF 5
ENDMDL
