MODEL 1
REMARK VINA RESULT:    -2.981      0.000      0.000
REMARK INTER + INTRA:         -13.703
REMARK INTER:                  -7.860
REMARK INTRA:                  -5.843
REMARK UNBOUND:                -5.843
REMARK SMILES CCCCCCCCCCCCCCCCCCCCCCCCCCCCCC(=O)[O-]
REMARK SMILES IDX 16 1 17 2 18 3 19 4 20 5 21 6 22 7 23 8 24 9 25 10 26 11
REMARK SMILES IDX 27 12 28 13 29 14 30 15 31 16 32 17 15 18 14 19 13 20 12 21
REMARK SMILES IDX 11 22 10 23 9 24 8 25 7 26 6 27 5 28 4 29 3 30 2 31 1 32
REMARK H PARENT
REMARK Flexibility Score: inf
ROOT
ATOM      1  C   UNL     1      61.250  29.136  57.992  1.00  0.00     0.000 C 
ENDROOT
BRANCH   1   2
ATOM      2  C   UNL     1      62.331  28.602  57.039  1.00  0.00     0.000 C 
BRANCH   2   3
ATOM      3  C   UNL     1      63.729  29.162  57.355  1.00  0.00     0.000 C 
BRANCH   3   4
ATOM      4  C   UNL     1      63.679  30.574  57.960  1.00  0.00     0.000 C 
BRANCH   4   5
ATOM      5  C   UNL     1      64.797  30.819  58.989  1.00  0.00     0.000 C 
BRANCH   5   6
ATOM      6  C   UNL     1      64.639  29.944  60.245  1.00  0.00     0.000 C 
BRANCH   6   7
ATOM      7  C   UNL     1      63.696  30.572  61.287  1.00  0.00     0.000 C 
BRANCH   7   8
ATOM      8  C   UNL     1      62.518  29.652  61.653  1.00  0.00     0.000 C 
BRANCH   8   9
ATOM      9  C   UNL     1      61.119  30.232  61.355  1.00  0.00     0.000 C 
BRANCH   9  10
ATOM     10  C   UNL     1      61.073  31.763  61.188  1.00  0.00     0.000 C 
BRANCH  10  11
ATOM     11  C   UNL     1      60.939  32.252  59.734  1.00  0.00     0.000 C 
BRANCH  11  12
ATOM     12  C   UNL     1      61.759  33.513  59.390  1.00  0.00     0.000 C 
BRANCH  12  13
ATOM     13  C   UNL     1      62.323  34.271  60.605  1.00  0.00     0.006 C 
BRANCH  13  14
ATOM     14  C   UNL     1      63.855  34.243  60.666  1.00  0.00     0.053 C 
BRANCH  14  15
ATOM     15  C   UNL     1      64.382  35.496  61.292  1.00  0.00     0.041 C 
ATOM     16  O   UNL     1      65.581  35.561  61.673  1.00  0.00    -0.550 OA
ATOM     17  O   UNL     1      63.545  36.590  61.466  1.00  0.00    -0.550 OA
ENDBRANCH  14  15
ENDBRANCH  13  14
ENDBRANCH  12  13
ENDBRANCH  11  12
ENDBRANCH  10  11
ENDBRANCH   9  10
ENDBRANCH   8   9
ENDBRANCH   7   8
ENDBRANCH   6   7
ENDBRANCH   5   6
ENDBRANCH   4   5
ENDBRANCH   3   4
ENDBRANCH   2   3
ENDBRANCH   1   2
BRANCH   1  18
ATOM     18  C   UNL     1      59.837  28.667  57.613  1.00  0.00     0.000 C 
BRANCH  18  19
ATOM     19  C   UNL     1      58.772  29.418  58.421  1.00  0.00     0.000 C 
BRANCH  19  20
ATOM     20  C   UNL     1      57.890  28.438  59.208  1.00  0.00     0.000 C 
BRANCH  20  21
ATOM     21  C   UNL     1      58.304  28.330  60.684  1.00  0.00     0.000 C 
BRANCH  21  22
ATOM     22  C   UNL     1      58.756  26.912  61.071  1.00  0.00     0.000 C 
BRANCH  22  23
ATOM     23  C   UNL     1      60.242  26.657  60.770  1.00  0.00     0.000 C 
BRANCH  23  24
ATOM     24  C   UNL     1      60.481  25.672  59.606  1.00  0.00    -0.000 C 
BRANCH  24  25
ATOM     25  C   UNL     1      61.972  25.540  59.248  1.00  0.00    -0.000 C 
BRANCH  25  26
ATOM     26  C   UNL     1      62.856  26.540  60.013  1.00  0.00    -0.000 C 
BRANCH  26  27
ATOM     27  C   UNL     1      63.955  25.846  60.831  1.00  0.00    -0.000 C 
BRANCH  27  28
ATOM     28  C   UNL     1      63.410  24.593  61.533  1.00  0.00    -0.000 C 
BRANCH  28  29
ATOM     29  C   UNL     1      63.028  24.849  63.003  1.00  0.00    -0.000 C 
BRANCH  29  30
ATOM     30  C   UNL     1      61.605  24.400  63.396  1.00  0.00    -0.000 C 
BRANCH  30  31
ATOM     31  C   UNL     1      61.523  23.567  64.688  1.00  0.00    -0.003 C 
ATOM     32  C   UNL     1      61.033  22.140  64.445  1.00  0.00     0.004 C 
ENDBRANCH  30  31
ENDBRANCH  29  30
ENDBRANCH  28  29
ENDBRANCH  27  28
ENDBRANCH  26  27
ENDBRANCH  25  26
ENDBRANCH  24  25
ENDBRANCH  23  24
ENDBRANCH  22  23
ENDBRANCH  21  22
ENDBRANCH  20  21
ENDBRANCH  19  20
ENDBRANCH  18  19
ENDBRANCH   1  18
TORSDOF 28
ENDMDL
MODEL 2
REMARK VINA RESULT:    -2.978      8.417     11.185
REMARK INTER + INTRA:         -13.696
REMARK INTER:                  -7.662
REMARK INTRA:                  -6.034
REMARK UNBOUND:                -5.843
REMARK SMILES CCCCCCCCCCCCCCCCCCCCCCCCCCCCCC(=O)[O-]
REMARK SMILES IDX 16 1 17 2 18 3 19 4 20 5 21 6 22 7 23 8 24 9 25 10 26 11
REMARK SMILES IDX 27 12 28 13 29 14 30 15 31 16 32 17 15 18 14 19 13 20 12 21
REMARK SMILES IDX 11 22 10 23 9 24 8 25 7 26 6 27 5 28 4 29 3 30 2 31 1 32
REMARK H PARENT
REMARK Flexibility Score: inf
ROOT
ATOM      1  C   UNL     1      59.377  25.288  50.690  1.00  0.00     0.000 C 
ENDROOT
BRANCH   1   2
ATOM      2  C   UNL     1      60.690  26.020  50.372  1.00  0.00     0.000 C 
BRANCH   2   3
ATOM      3  C   UNL     1      60.467  27.318  49.576  1.00  0.00     0.000 C 
BRANCH   3   4
ATOM      4  C   UNL     1      58.979  27.681  49.439  1.00  0.00     0.000 C 
BRANCH   4   5
ATOM      5  C   UNL     1      58.715  29.184  49.636  1.00  0.00     0.000 C 
BRANCH   5   6
ATOM      6  C   UNL     1      57.637  29.455  50.700  1.00  0.00     0.000 C 
BRANCH   6   7
ATOM      7  C   UNL     1      57.578  28.354  51.775  1.00  0.00     0.000 C 
BRANCH   7   8
ATOM      8  C   UNL     1      57.823  28.895  53.195  1.00  0.00     0.000 C 
BRANCH   8   9
ATOM      9  C   UNL     1      59.087  28.350  53.892  1.00  0.00     0.000 C 
BRANCH   9  10
ATOM     10  C   UNL     1      60.379  28.441  53.059  1.00  0.00     0.000 C 
BRANCH  10  11
ATOM     11  C   UNL     1      60.806  29.872  52.679  1.00  0.00     0.000 C 
BRANCH  11  12
ATOM     12  C   UNL     1      61.971  29.961  51.671  1.00  0.00     0.000 C 
BRANCH  12  13
ATOM     13  C   UNL     1      61.807  31.041  50.585  1.00  0.00     0.006 C 
BRANCH  13  14
ATOM     14  C   UNL     1      63.043  31.174  49.687  1.00  0.00     0.053 C 
BRANCH  14  15
ATOM     15  C   UNL     1      63.350  32.615  49.421  1.00  0.00     0.041 C 
ATOM     16  O   UNL     1      62.561  33.317  48.736  1.00  0.00    -0.550 OA
ATOM     17  O   UNL     1      64.516  33.179  49.922  1.00  0.00    -0.550 OA
ENDBRANCH  14  15
ENDBRANCH  13  14
ENDBRANCH  12  13
ENDBRANCH  11  12
ENDBRANCH  10  11
ENDBRANCH   9  10
ENDBRANCH   8   9
ENDBRANCH   7   8
ENDBRANCH   6   7
ENDBRANCH   5   6
ENDBRANCH   4   5
ENDBRANCH   3   4
ENDBRANCH   2   3
ENDBRANCH   1   2
BRANCH   1  18
ATOM     18  C   UNL     1      59.197  25.012  52.190  1.00  0.00     0.000 C 
BRANCH  18  19
ATOM     19  C   UNL     1      57.870  24.294  52.463  1.00  0.00     0.000 C 
BRANCH  19  20
ATOM     20  C   UNL     1      56.971  25.135  53.381  1.00  0.00     0.000 C 
BRANCH  20  21
ATOM     21  C   UNL     1      55.595  25.417  52.758  1.00  0.00     0.000 C 
BRANCH  21  22
ATOM     22  C   UNL     1      55.626  25.400  51.220  1.00  0.00     0.000 C 
BRANCH  22  23
ATOM     23  C   UNL     1      54.257  25.077  50.599  1.00  0.00     0.000 C 
BRANCH  23  24
ATOM     24  C   UNL     1      53.580  26.289  49.924  1.00  0.00    -0.000 C 
BRANCH  24  25
ATOM     25  C   UNL     1      54.440  27.562  50.010  1.00  0.00    -0.000 C 
BRANCH  25  26
ATOM     26  C   UNL     1      53.640  28.787  50.482  1.00  0.00    -0.000 C 
BRANCH  26  27
ATOM     27  C   UNL     1      53.154  28.649  51.933  1.00  0.00    -0.000 C 
BRANCH  27  28
ATOM     28  C   UNL     1      54.150  29.291  52.909  1.00  0.00    -0.000 C 
BRANCH  28  29
ATOM     29  C   UNL     1      54.616  30.687  52.458  1.00  0.00    -0.000 C 
BRANCH  29  30
ATOM     30  C   UNL     1      54.445  31.804  53.508  1.00  0.00    -0.000 C 
BRANCH  30  31
ATOM     31  C   UNL     1      55.731  32.182  54.266  1.00  0.00    -0.003 C 
ATOM     32  C   UNL     1      56.922  32.412  53.336  1.00  0.00     0.004 C 
ENDBRANCH  30  31
ENDBRANCH  29  30
ENDBRANCH  28  29
ENDBRANCH  27  28
ENDBRANCH  26  27
ENDBRANCH  25  26
ENDBRANCH  24  25
ENDBRANCH  23  24
ENDBRANCH  22  23
ENDBRANCH  21  22
ENDBRANCH  20  21
ENDBRANCH  19  20
ENDBRANCH  18  19
ENDBRANCH   1  18
TORSDOF 28
ENDMDL
MODEL 3
REMARK VINA RESULT:    -2.975      8.656     12.736
REMARK INTER + INTRA:         -13.689
REMARK INTER:                  -8.242
REMARK INTRA:                  -5.446
REMARK UNBOUND:                -5.843
REMARK SMILES CCCCCCCCCCCCCCCCCCCCCCCCCCCCCC(=O)[O-]
REMARK SMILES IDX 16 1 17 2 18 3 19 4 20 5 21 6 22 7 23 8 24 9 25 10 26 11
REMARK SMILES IDX 27 12 28 13 29 14 30 15 31 16 32 17 15 18 14 19 13 20 12 21
REMARK SMILES IDX 11 22 10 23 9 24 8 25 7 26 6 27 5 28 4 29 3 30 2 31 1 32
REMARK H PARENT
REMARK Flexibility Score: inf
ROOT
ATOM      1  C   UNL     1      57.464  29.463  51.727  1.00  0.00     0.000 C 
ENDROOT
BRANCH   1   2
ATOM      2  C   UNL     1      55.967  29.452  52.077  1.00  0.00     0.000 C 
BRANCH   2   3
ATOM      3  C   UNL     1      55.066  29.500  50.831  1.00  0.00     0.000 C 
BRANCH   3   4
ATOM      4  C   UNL     1      53.707  28.820  51.056  1.00  0.00     0.000 C 
BRANCH   4   5
ATOM      5  C   UNL     1      53.339  27.842  49.925  1.00  0.00     0.000 C 
BRANCH   5   6
ATOM      6  C   UNL     1      53.345  26.376  50.393  1.00  0.00     0.000 C 
BRANCH   6   7
ATOM      7  C   UNL     1      54.388  25.523  49.649  1.00  0.00     0.000 C 
BRANCH   7   8
ATOM      8  C   UNL     1      55.835  25.913  50.000  1.00  0.00     0.000 C 
BRANCH   8   9
ATOM      9  C   UNL     1      56.284  25.539  51.428  1.00  0.00     0.000 C 
BRANCH   9  10
ATOM     10  C   UNL     1      57.757  25.853  51.749  1.00  0.00     0.000 C 
BRANCH  10  11
ATOM     11  C   UNL     1      58.769  24.812  51.234  1.00  0.00     0.000 C 
BRANCH  11  12
ATOM     12  C   UNL     1      59.311  23.841  52.304  1.00  0.00     0.000 C 
BRANCH  12  13
ATOM     13  C   UNL     1      60.717  23.283  52.020  1.00  0.00     0.006 C 
BRANCH  13  14
ATOM     14  C   UNL     1      60.965  23.023  50.528  1.00  0.00     0.053 C 
BRANCH  14  15
ATOM     15  C   UNL     1      60.903  21.557  50.230  1.00  0.00     0.041 C 
ATOM     16  O   UNL     1      60.516  21.154  49.102  1.00  0.00    -0.550 OA
ATOM     17  O   UNL     1      61.263  20.635  51.204  1.00  0.00    -0.550 OA
ENDBRANCH  14  15
ENDBRANCH  13  14
ENDBRANCH  12  13
ENDBRANCH  11  12
ENDBRANCH  10  11
ENDBRANCH   9  10
ENDBRANCH   8   9
ENDBRANCH   7   8
ENDBRANCH   6   7
ENDBRANCH   5   6
ENDBRANCH   4   5
ENDBRANCH   3   4
ENDBRANCH   2   3
ENDBRANCH   1   2
BRANCH   1  18
ATOM     18  C   UNL     1      57.725  29.246  50.229  1.00  0.00     0.000 C 
BRANCH  18  19
ATOM     19  C   UNL     1      59.229  29.208  49.933  1.00  0.00     0.000 C 
BRANCH  19  20
ATOM     20  C   UNL     1      59.625  27.877  49.277  1.00  0.00     0.000 C 
BRANCH  20  21
ATOM     21  C   UNL     1      61.000  27.377  49.747  1.00  0.00     0.000 C 
BRANCH  21  22
ATOM     22  C   UNL     1      61.356  27.863  51.162  1.00  0.00     0.000 C 
BRANCH  22  23
ATOM     23  C   UNL     1      61.942  26.749  52.045  1.00  0.00     0.000 C 
BRANCH  23  24
ATOM     24  C   UNL     1      61.408  26.758  53.493  1.00  0.00    -0.000 C 
BRANCH  24  25
ATOM     25  C   UNL     1      60.175  27.665  53.655  1.00  0.00    -0.000 C 
BRANCH  25  26
ATOM     26  C   UNL     1      60.418  28.828  54.631  1.00  0.00    -0.000 C 
BRANCH  26  27
ATOM     27  C   UNL     1      60.269  30.201  53.958  1.00  0.00    -0.000 C 
BRANCH  27  28
ATOM     28  C   UNL     1      61.628  30.723  53.469  1.00  0.00    -0.000 C 
BRANCH  28  29
ATOM     29  C   UNL     1      61.574  31.282  52.035  1.00  0.00    -0.000 C 
BRANCH  29  30
ATOM     30  C   UNL     1      62.144  32.706  51.866  1.00  0.00    -0.000 C 
BRANCH  30  31
ATOM     31  C   UNL     1      62.861  32.962  50.528  1.00  0.00    -0.003 C 
ATOM     32  C   UNL     1      62.933  31.717  49.645  1.00  0.00     0.004 C 
ENDBRANCH  30  31
ENDBRANCH  29  30
ENDBRANCH  28  29
ENDBRANCH  27  28
ENDBRANCH  26  27
ENDBRANCH  25  26
ENDBRANCH  24  25
ENDBRANCH  23  24
ENDBRANCH  22  23
ENDBRANCH  21  22
ENDBRANCH  20  21
ENDBRANCH  19  20
ENDBRANCH  18  19
ENDBRANCH   1  18
TORSDOF 28
ENDMDL
MODEL 4
REMARK VINA RESULT:    -2.972      2.610      4.616
REMARK INTER + INTRA:         -13.679
REMARK INTER:                  -7.831
REMARK INTRA:                  -5.848
REMARK UNBOUND:                -5.843
REMARK SMILES CCCCCCCCCCCCCCCCCCCCCCCCCCCCCC(=O)[O-]
REMARK SMILES IDX 16 1 17 2 18 3 19 4 20 5 21 6 22 7 23 8 24 9 25 10 26 11
REMARK SMILES IDX 27 12 28 13 29 14 30 15 31 16 32 17 15 18 14 19 13 20 12 21
REMARK SMILES IDX 11 22 10 23 9 24 8 25 7 26 6 27 5 28 4 29 3 30 2 31 1 32
REMARK H PARENT
REMARK Flexibility Score: inf
ROOT
ATOM      1  C   UNL     1      61.301  29.857  57.591  1.00  0.00     0.000 C 
ENDROOT
BRANCH   1   2
ATOM      2  C   UNL     1      62.178  31.100  57.812  1.00  0.00     0.000 C 
BRANCH   2   3
ATOM      3  C   UNL     1      63.639  30.743  58.138  1.00  0.00     0.000 C 
BRANCH   3   4
ATOM      4  C   UNL     1      64.473  31.970  58.541  1.00  0.00     0.000 C 
BRANCH   4   5
ATOM      5  C   UNL     1      63.717  32.913  59.494  1.00  0.00     0.000 C 
BRANCH   5   6
ATOM      6  C   UNL     1      64.428  33.070  60.850  1.00  0.00     0.000 C 
BRANCH   6   7
ATOM      7  C   UNL     1      64.524  34.539  61.300  1.00  0.00     0.000 C 
BRANCH   7   8
ATOM      8  C   UNL     1      64.728  35.510  60.123  1.00  0.00     0.000 C 
BRANCH   8   9
ATOM      9  C   UNL     1      63.745  36.698  60.079  1.00  0.00     0.000 C 
BRANCH   9  10
ATOM     10  C   UNL     1      62.705  36.724  61.214  1.00  0.00     0.000 C 
BRANCH  10  11
ATOM     11  C   UNL     1      61.251  36.477  60.767  1.00  0.00     0.000 C 
BRANCH  11  12
ATOM     12  C   UNL     1      60.923  35.019  60.383  1.00  0.00     0.000 C 
BRANCH  12  13
ATOM     13  C   UNL     1      59.920  34.864  59.226  1.00  0.00     0.006 C 
BRANCH  13  14
ATOM     14  C   UNL     1      60.581  34.396  57.923  1.00  0.00     0.053 C 
BRANCH  14  15
ATOM     15  C   UNL     1      59.552  33.886  56.962  1.00  0.00     0.041 C 
ATOM     16  O   UNL     1      59.867  33.039  56.085  1.00  0.00    -0.550 OA
ATOM     17  O   UNL     1      58.248  34.357  57.028  1.00  0.00    -0.550 OA
ENDBRANCH  14  15
ENDBRANCH  13  14
ENDBRANCH  12  13
ENDBRANCH  11  12
ENDBRANCH  10  11
ENDBRANCH   9  10
ENDBRANCH   8   9
ENDBRANCH   7   8
ENDBRANCH   6   7
ENDBRANCH   5   6
ENDBRANCH   4   5
ENDBRANCH   3   4
ENDBRANCH   2   3
ENDBRANCH   1   2
BRANCH   1  18
ATOM     18  C   UNL     1      59.933  29.964  58.281  1.00  0.00     0.000 C 
BRANCH  18  19
ATOM     19  C   UNL     1      59.960  31.015  59.397  1.00  0.00     0.000 C 
BRANCH  19  20
ATOM     20  C   UNL     1      60.089  30.350  60.775  1.00  0.00     0.000 C 
BRANCH  20  21
ATOM     21  C   UNL     1      61.239  30.938  61.606  1.00  0.00     0.000 C 
BRANCH  21  22
ATOM     22  C   UNL     1      62.484  30.035  61.618  1.00  0.00     0.000 C 
BRANCH  22  23
ATOM     23  C   UNL     1      62.138  28.540  61.516  1.00  0.00     0.000 C 
BRANCH  23  24
ATOM     24  C   UNL     1      62.757  27.841  60.287  1.00  0.00    -0.000 C 
BRANCH  24  25
ATOM     25  C   UNL     1      62.833  26.314  60.460  1.00  0.00    -0.000 C 
BRANCH  25  26
ATOM     26  C   UNL     1      61.890  25.794  61.558  1.00  0.00    -0.000 C 
BRANCH  26  27
ATOM     27  C   UNL     1      60.616  25.153  60.984  1.00  0.00    -0.000 C 
BRANCH  27  28
ATOM     28  C   UNL     1      59.387  25.527  61.825  1.00  0.00    -0.000 C 
BRANCH  28  29
ATOM     29  C   UNL     1      58.750  26.862  61.395  1.00  0.00    -0.000 C 
BRANCH  29  30
ATOM     30  C   UNL     1      58.560  27.034  59.874  1.00  0.00    -0.000 C 
BRANCH  30  31
ATOM     31  C   UNL     1      57.225  27.677  59.457  1.00  0.00    -0.003 C 
ATOM     32  C   UNL     1      56.378  28.113  60.652  1.00  0.00     0.004 C 
ENDBRANCH  30  31
ENDBRANCH  29  30
ENDBRANCH  28  29
ENDBRANCH  27  28
ENDBRANCH  26  27
ENDBRANCH  25  26
ENDBRANCH  24  25
ENDBRANCH  23  24
ENDBRANCH  22  23
ENDBRANCH  21  22
ENDBRANCH  20  21
ENDBRANCH  19  20
ENDBRANCH  18  19
ENDBRANCH   1  18
TORSDOF 28
ENDMDL
MODEL 5
REMARK VINA RESULT:    -2.964      3.153      8.176
REMARK INTER + INTRA:         -13.658
REMARK INTER:                  -8.246
REMARK INTRA:                  -5.412
REMARK UNBOUND:                -5.843
REMARK SMILES CCCCCCCCCCCCCCCCCCCCCCCCCCCCCC(=O)[O-]
REMARK SMILES IDX 16 1 17 2 18 3 19 4 20 5 21 6 22 7 23 8 24 9 25 10 26 11
REMARK SMILES IDX 27 12 28 13 29 14 30 15 31 16 32 17 15 18 14 19 13 20 12 21
REMARK SMILES IDX 11 22 10 23 9 24 8 25 7 26 6 27 5 28 4 29 3 30 2 31 1 32
REMARK H PARENT
REMARK Flexibility Score: inf
ROOT
ATOM      1  C   UNL     1      63.559  32.533  59.152  1.00  0.00     0.000 C 
ENDROOT
BRANCH   1   2
ATOM      2  C   UNL     1      64.317  32.275  60.464  1.00  0.00     0.000 C 
BRANCH   2   3
ATOM      3  C   UNL     1      64.347  30.784  60.848  1.00  0.00     0.000 C 
BRANCH   3   4
ATOM      4  C   UNL     1      62.980  30.102  60.682  1.00  0.00     0.000 C 
BRANCH   4   5
ATOM      5  C   UNL     1      62.063  30.308  61.901  1.00  0.00     0.000 C 
BRANCH   5   6
ATOM      6  C   UNL     1      60.720  30.955  61.522  1.00  0.00     0.000 C 
BRANCH   6   7
ATOM      7  C   UNL     1      60.169  30.432  60.183  1.00  0.00     0.000 C 
BRANCH   7   8
ATOM      8  C   UNL     1      59.307  29.167  60.347  1.00  0.00     0.000 C 
BRANCH   8   9
ATOM      9  C   UNL     1      60.032  27.839  60.045  1.00  0.00     0.000 C 
BRANCH   9  10
ATOM     10  C   UNL     1      59.524  26.625  60.844  1.00  0.00     0.000 C 
BRANCH  10  11
ATOM     11  C   UNL     1      60.611  25.861  61.624  1.00  0.00     0.000 C 
BRANCH  11  12
ATOM     12  C   UNL     1      61.901  26.661  61.902  1.00  0.00     0.000 C 
BRANCH  12  13
ATOM     13  C   UNL     1      63.192  26.015  61.367  1.00  0.00     0.006 C 
BRANCH  13  14
ATOM     14  C   UNL     1      63.719  26.699  60.099  1.00  0.00     0.053 C 
BRANCH  14  15
ATOM     15  C   UNL     1      65.135  26.295  59.831  1.00  0.00     0.041 C 
ATOM     16  O   UNL     1      65.857  26.983  59.062  1.00  0.00    -0.550 OA
ATOM     17  O   UNL     1      65.654  25.150  60.420  1.00  0.00    -0.550 OA
ENDBRANCH  14  15
ENDBRANCH  13  14
ENDBRANCH  12  13
ENDBRANCH  11  12
ENDBRANCH  10  11
ENDBRANCH   9  10
ENDBRANCH   8   9
ENDBRANCH   7   8
ENDBRANCH   6   7
ENDBRANCH   5   6
ENDBRANCH   4   5
ENDBRANCH   3   4
ENDBRANCH   2   3
ENDBRANCH   1   2
BRANCH   1  18
ATOM     18  C   UNL     1      62.408  33.537  59.318  1.00  0.00     0.000 C 
BRANCH  18  19
ATOM     19  C   UNL     1      62.416  34.156  60.721  1.00  0.00     0.000 C 
BRANCH  19  20
ATOM     20  C   UNL     1      62.072  35.652  60.661  1.00  0.00     0.000 C 
BRANCH  20  21
ATOM     21  C   UNL     1      63.194  36.536  61.227  1.00  0.00     0.000 C 
BRANCH  21  22
ATOM     22  C   UNL     1      64.463  35.737  61.569  1.00  0.00     0.000 C 
BRANCH  22  23
ATOM     23  C   UNL     1      65.618  36.002  60.589  1.00  0.00     0.000 C 
BRANCH  23  24
ATOM     24  C   UNL     1      65.184  36.726  59.297  1.00  0.00    -0.000 C 
BRANCH  24  25
ATOM     25  C   UNL     1      65.103  35.772  58.092  1.00  0.00    -0.000 C 
BRANCH  25  26
ATOM     26  C   UNL     1      66.234  34.731  58.084  1.00  0.00    -0.000 C 
BRANCH  26  27
ATOM     27  C   UNL     1      66.406  34.060  56.712  1.00  0.00    -0.000 C 
BRANCH  27  28
ATOM     28  C   UNL     1      66.946  32.630  56.864  1.00  0.00    -0.000 C 
BRANCH  28  29
ATOM     29  C   UNL     1      65.870  31.555  56.629  1.00  0.00    -0.000 C 
BRANCH  29  30
ATOM     30  C   UNL     1      66.053  30.257  57.443  1.00  0.00    -0.000 C 
BRANCH  30  31
ATOM     31  C   UNL     1      67.126  30.331  58.545  1.00  0.00    -0.003 C 
ATOM     32  C   UNL     1      68.380  29.527  58.207  1.00  0.00     0.004 C 
ENDBRANCH  30  31
ENDBRANCH  29  30
ENDBRANCH  28  29
ENDBRANCH  27  28
ENDBRANCH  26  27
ENDBRANCH  25  26
ENDBRANCH  24  25
ENDBRANCH  23  24
ENDBRANCH  22  23
ENDBRANCH  21  22
ENDBRANCH  20  21
ENDBRANCH  19  20
ENDBRANCH  18  19
ENDBRANCH   1  18
TORSDOF 28
ENDMDL
MODEL 6
REMARK VINA RESULT:    -2.941      7.800     11.518
REMARK INTER + INTRA:         -13.599
REMARK INTER:                  -6.874
REMARK INTRA:                  -6.725
REMARK UNBOUND:                -5.843
REMARK SMILES CCCCCCCCCCCCCCCCCCCCCCCCCCCCCC(=O)[O-]
REMARK SMILES IDX 16 1 17 2 18 3 19 4 20 5 21 6 22 7 23 8 24 9 25 10 26 11
REMARK SMILES IDX 27 12 28 13 29 14 30 15 31 16 32 17 15 18 14 19 13 20 12 21
REMARK SMILES IDX 11 22 10 23 9 24 8 25 7 26 6 27 5 28 4 29 3 30 2 31 1 32
REMARK H PARENT
REMARK Flexibility Score: inf
ROOT
ATOM      1  C   UNL     1      57.997  24.962  51.513  1.00  0.00     0.000 C 
ENDROOT
BRANCH   1   2
ATOM      2  C   UNL     1      56.534  25.393  51.703  1.00  0.00     0.000 C 
BRANCH   2   3
ATOM      3  C   UNL     1      55.849  25.764  50.376  1.00  0.00     0.000 C 
BRANCH   3   4
ATOM      4  C   UNL     1      55.329  27.210  50.362  1.00  0.00     0.000 C 
BRANCH   4   5
ATOM      5  C   UNL     1      53.840  27.302  49.983  1.00  0.00     0.000 C 
BRANCH   5   6
ATOM      6  C   UNL     1      53.225  28.664  50.346  1.00  0.00     0.000 C 
BRANCH   6   7
ATOM      7  C   UNL     1      54.289  29.708  50.732  1.00  0.00     0.000 C 
BRANCH   7   8
ATOM      8  C   UNL     1      54.152  30.185  52.189  1.00  0.00     0.000 C 
BRANCH   8   9
ATOM      9  C   UNL     1      53.787  29.084  53.206  1.00  0.00     0.000 C 
BRANCH   9  10
ATOM     10  C   UNL     1      54.988  28.343  53.821  1.00  0.00     0.000 C 
BRANCH  10  11
ATOM     11  C   UNL     1      54.650  26.986  54.468  1.00  0.00     0.000 C 
BRANCH  11  12
ATOM     12  C   UNL     1      55.518  26.608  55.686  1.00  0.00     0.000 C 
BRANCH  12  13
ATOM     13  C   UNL     1      56.916  26.063  55.342  1.00  0.00     0.006 C 
BRANCH  13  14
ATOM     14  C   UNL     1      56.961  24.530  55.289  1.00  0.00     0.053 C 
BRANCH  14  15
ATOM     15  C   UNL     1      58.374  24.041  55.349  1.00  0.00     0.041 C 
ATOM     16  O   UNL     1      58.784  23.177  54.530  1.00  0.00    -0.550 OA
ATOM     17  O   UNL     1      59.238  24.532  56.320  1.00  0.00    -0.550 OA
ENDBRANCH  14  15
ENDBRANCH  13  14
ENDBRANCH  12  13
ENDBRANCH  11  12
ENDBRANCH  10  11
ENDBRANCH   9  10
ENDBRANCH   8   9
ENDBRANCH   7   8
ENDBRANCH   6   7
ENDBRANCH   5   6
ENDBRANCH   4   5
ENDBRANCH   3   4
ENDBRANCH   2   3
ENDBRANCH   1   2
BRANCH   1  18
ATOM     18  C   UNL     1      58.588  25.436  50.178  1.00  0.00     0.000 C 
BRANCH  18  19
ATOM     19  C   UNL     1      60.095  25.691  50.302  1.00  0.00     0.000 C 
BRANCH  19  20
ATOM     20  C   UNL     1      60.445  27.126  49.882  1.00  0.00     0.000 C 
BRANCH  20  21
ATOM     21  C   UNL     1      59.263  27.848  49.217  1.00  0.00     0.000 C 
BRANCH  21  22
ATOM     22  C   UNL     1      59.112  29.302  49.693  1.00  0.00     0.000 C 
BRANCH  22  23
ATOM     23  C   UNL     1      57.827  29.534  50.506  1.00  0.00     0.000 C 
BRANCH  23  24
ATOM     24  C   UNL     1      58.078  29.773  52.010  1.00  0.00    -0.000 C 
BRANCH  24  25
ATOM     25  C   UNL     1      58.174  28.458  52.803  1.00  0.00    -0.000 C 
BRANCH  25  26
ATOM     26  C   UNL     1      59.390  28.419  53.742  1.00  0.00    -0.000 C 
BRANCH  26  27
ATOM     27  C   UNL     1      60.095  27.054  53.735  1.00  0.00    -0.000 C 
BRANCH  27  28
ATOM     28  C   UNL     1      61.620  27.224  53.669  1.00  0.00    -0.000 C 
BRANCH  28  29
ATOM     29  C   UNL     1      62.052  28.690  53.482  1.00  0.00    -0.000 C 
BRANCH  29  30
ATOM     30  C   UNL     1      62.684  29.015  52.112  1.00  0.00    -0.000 C 
BRANCH  30  31
ATOM     31  C   UNL     1      61.999  30.154  51.337  1.00  0.00    -0.003 C 
ATOM     32  C   UNL     1      61.433  31.239  52.253  1.00  0.00     0.004 C 
ENDBRANCH  30  31
ENDBRANCH  29  30
ENDBRANCH  28  29
ENDBRANCH  27  28
ENDBRANCH  26  27
ENDBRANCH  25  26
ENDBRANCH  24  25
ENDBRANCH  23  24
ENDBRANCH  22  23
ENDBRANCH  21  22
ENDBRANCH  20  21
ENDBRANCH  19  20
ENDBRANCH  18  19
ENDBRANCH   1  18
TORSDOF 28
ENDMDL
MODEL 7
REMARK VINA RESULT:    -2.929      8.949     12.325
REMARK INTER + INTRA:         -13.566
REMARK INTER:                  -7.766
REMARK INTRA:                  -5.799
REMARK UNBOUND:                -5.843
REMARK SMILES CCCCCCCCCCCCCCCCCCCCCCCCCCCCCC(=O)[O-]
REMARK SMILES IDX 16 1 17 2 18 3 19 4 20 5 21 6 22 7 23 8 24 9 25 10 26 11
REMARK SMILES IDX 27 12 28 13 29 14 30 15 31 16 32 17 15 18 14 19 13 20 12 21
REMARK SMILES IDX 11 22 10 23 9 24 8 25 7 26 6 27 5 28 4 29 3 30 2 31 1 32
REMARK H PARENT
REMARK Flexibility Score: inf
ROOT
ATOM      1  C   UNL     1      57.343  29.532  51.540  1.00  0.00     0.000 C 
ENDROOT
BRANCH   1   2
ATOM      2  C   UNL     1      55.893  29.591  52.046  1.00  0.00     0.000 C 
BRANCH   2   3
ATOM      3  C   UNL     1      54.879  29.825  50.912  1.00  0.00     0.000 C 
BRANCH   3   4
ATOM      4  C   UNL     1      53.615  28.965  51.061  1.00  0.00     0.000 C 
BRANCH   4   5
ATOM      5  C   UNL     1      53.518  27.862  49.992  1.00  0.00     0.000 C 
BRANCH   5   6
ATOM      6  C   UNL     1      53.686  26.453  50.587  1.00  0.00     0.000 C 
BRANCH   6   7
ATOM      7  C   UNL     1      54.601  25.557  49.732  1.00  0.00     0.000 C 
BRANCH   7   8
ATOM      8  C   UNL     1      56.096  25.798  50.008  1.00  0.00     0.000 C 
BRANCH   8   9
ATOM      9  C   UNL     1      56.504  25.740  51.495  1.00  0.00     0.000 C 
BRANCH   9  10
ATOM     10  C   UNL     1      57.990  25.428  51.750  1.00  0.00     0.000 C 
BRANCH  10  11
ATOM     11  C   UNL     1      58.666  26.317  52.811  1.00  0.00     0.000 C 
BRANCH  11  12
ATOM     12  C   UNL     1      60.005  25.779  53.358  1.00  0.00     0.000 C 
BRANCH  12  13
ATOM     13  C   UNL     1      60.916  25.118  52.308  1.00  0.00     0.006 C 
BRANCH  13  14
ATOM     14  C   UNL     1      61.580  23.833  52.819  1.00  0.00     0.053 C 
BRANCH  14  15
ATOM     15  C   UNL     1      62.140  23.039  51.680  1.00  0.00     0.041 C 
ATOM     16  O   UNL     1      62.902  22.061  51.902  1.00  0.00    -0.550 OA
ATOM     17  O   UNL     1      61.831  23.388  50.373  1.00  0.00    -0.550 OA
ENDBRANCH  14  15
ENDBRANCH  13  14
ENDBRANCH  12  13
ENDBRANCH  11  12
ENDBRANCH  10  11
ENDBRANCH   9  10
ENDBRANCH   8   9
ENDBRANCH   7   8
ENDBRANCH   6   7
ENDBRANCH   5   6
ENDBRANCH   4   5
ENDBRANCH   3   4
ENDBRANCH   2   3
ENDBRANCH   1   2
BRANCH   1  18
ATOM     18  C   UNL     1      57.443  29.107  50.067  1.00  0.00     0.000 C 
BRANCH  18  19
ATOM     19  C   UNL     1      58.888  29.201  49.563  1.00  0.00     0.000 C 
BRANCH  19  20
ATOM     20  C   UNL     1      59.476  27.802  49.322  1.00  0.00     0.000 C 
BRANCH  20  21
ATOM     21  C   UNL     1      60.904  27.663  49.871  1.00  0.00     0.000 C 
BRANCH  21  22
ATOM     22  C   UNL     1      61.417  28.957  50.525  1.00  0.00     0.000 C 
BRANCH  22  23
ATOM     23  C   UNL     1      61.696  28.796  52.028  1.00  0.00     0.000 C 
BRANCH  23  24
ATOM     24  C   UNL     1      62.700  29.827  52.588  1.00  0.00    -0.000 C 
BRANCH  24  25
ATOM     25  C   UNL     1      64.148  29.521  52.167  1.00  0.00    -0.000 C 
BRANCH  25  26
ATOM     26  C   UNL     1      64.754  28.339  52.942  1.00  0.00    -0.000 C 
BRANCH  26  27
ATOM     27  C   UNL     1      65.387  27.290  52.015  1.00  0.00    -0.000 C 
BRANCH  27  28
ATOM     28  C   UNL     1      64.372  26.197  51.650  1.00  0.00    -0.000 C 
BRANCH  28  29
ATOM     29  C   UNL     1      64.138  26.080  50.132  1.00  0.00    -0.000 C 
BRANCH  29  30
ATOM     30  C   UNL     1      65.036  26.983  49.261  1.00  0.00    -0.000 C 
BRANCH  30  31
ATOM     31  C   UNL     1      64.285  27.835  48.223  1.00  0.00    -0.003 C 
ATOM     32  C   UNL     1      64.463  29.337  48.446  1.00  0.00     0.004 C 
ENDBRANCH  30  31
ENDBRANCH  29  30
ENDBRANCH  28  29
ENDBRANCH  27  28
ENDBRANCH  26  27
ENDBRANCH  25  26
ENDBRANCH  24  25
ENDBRANCH  23  24
ENDBRANCH  22  23
ENDBRANCH  21  22
ENDBRANCH  20  21
ENDBRANCH  19  20
ENDBRANCH  18  19
ENDBRANCH   1  18
TORSDOF 28
ENDMDL
MODEL 8
REMARK VINA RESULT:    -2.887      7.266     10.459
REMARK INTER + INTRA:         -13.457
REMARK INTER:                  -6.914
REMARK INTRA:                  -6.543
REMARK UNBOUND:                -5.843
REMARK SMILES CCCCCCCCCCCCCCCCCCCCCCCCCCCCCC(=O)[O-]
REMARK SMILES IDX 16 1 17 2 18 3 19 4 20 5 21 6 22 7 23 8 24 9 25 10 26 11
REMARK SMILES IDX 27 12 28 13 29 14 30 15 31 16 32 17 15 18 14 19 13 20 12 21
REMARK SMILES IDX 11 22 10 23 9 24 8 25 7 26 6 27 5 28 4 29 3 30 2 31 1 32
REMARK H PARENT
REMARK Flexibility Score: inf
ROOT
ATOM      1  C   UNL     1      55.747  26.572  50.360  1.00  0.00     0.000 C 
ENDROOT
BRANCH   1   2
ATOM      2  C   UNL     1      54.238  26.471  50.088  1.00  0.00     0.000 C 
BRANCH   2   3
ATOM      3  C   UNL     1      53.537  27.842  50.117  1.00  0.00     0.000 C 
BRANCH   3   4
ATOM      4  C   UNL     1      54.499  28.991  50.459  1.00  0.00     0.000 C 
BRANCH   4   5
ATOM      5  C   UNL     1      53.889  30.002  51.447  1.00  0.00     0.000 C 
BRANCH   5   6
ATOM      6  C   UNL     1      53.676  29.398  52.846  1.00  0.00     0.000 C 
BRANCH   6   7
ATOM      7  C   UNL     1      54.699  29.913  53.874  1.00  0.00     0.000 C 
BRANCH   7   8
ATOM      8  C   UNL     1      55.154  31.356  53.589  1.00  0.00     0.000 C 
BRANCH   8   9
ATOM      9  C   UNL     1      54.849  32.370  54.710  1.00  0.00     0.000 C 
BRANCH   9  10
ATOM     10  C   UNL     1      54.839  31.782  56.133  1.00  0.00     0.000 C 
BRANCH  10  11
ATOM     11  C   UNL     1      56.215  31.734  56.825  1.00  0.00     0.000 C 
BRANCH  11  12
ATOM     12  C   UNL     1      56.945  30.378  56.734  1.00  0.00     0.000 C 
BRANCH  12  13
ATOM     13  C   UNL     1      58.343  30.437  56.090  1.00  0.00     0.006 C 
BRANCH  13  14
ATOM     14  C   UNL     1      58.542  31.680  55.213  1.00  0.00     0.053 C 
BRANCH  14  15
ATOM     15  C   UNL     1      59.854  31.614  54.494  1.00  0.00     0.041 C 
ATOM     16  O   UNL     1      60.057  32.326  53.476  1.00  0.00    -0.550 OA
ATOM     17  O   UNL     1      60.848  30.756  54.943  1.00  0.00    -0.550 OA
ENDBRANCH  14  15
ENDBRANCH  13  14
ENDBRANCH  12  13
ENDBRANCH  11  12
ENDBRANCH  10  11
ENDBRANCH   9  10
ENDBRANCH   8   9
ENDBRANCH   7   8
ENDBRANCH   6   7
ENDBRANCH   5   6
ENDBRANCH   4   5
ENDBRANCH   3   4
ENDBRANCH   2   3
ENDBRANCH   1   2
BRANCH   1  18
ATOM     18  C   UNL     1      56.278  25.406  51.207  1.00  0.00     0.000 C 
BRANCH  18  19
ATOM     19  C   UNL     1      55.933  25.599  52.689  1.00  0.00     0.000 C 
BRANCH  19  20
ATOM     20  C   UNL     1      56.633  26.842  53.256  1.00  0.00     0.000 C 
BRANCH  20  21
ATOM     21  C   UNL     1      58.163  26.709  53.251  1.00  0.00     0.000 C 
BRANCH  21  22
ATOM     22  C   UNL     1      58.876  28.060  53.074  1.00  0.00     0.000 C 
BRANCH  22  23
ATOM     23  C   UNL     1      57.943  29.162  52.546  1.00  0.00     0.000 C 
BRANCH  23  24
ATOM     24  C   UNL     1      58.480  29.884  51.293  1.00  0.00    -0.000 C 
BRANCH  24  25
ATOM     25  C   UNL     1      58.077  29.171  49.990  1.00  0.00    -0.000 C 
BRANCH  25  26
ATOM     26  C   UNL     1      59.262  28.464  49.310  1.00  0.00    -0.000 C 
BRANCH  26  27
ATOM     27  C   UNL     1      59.313  26.963  49.631  1.00  0.00    -0.000 C 
BRANCH  27  28
ATOM     28  C   UNL     1      60.700  26.559  50.153  1.00  0.00    -0.000 C 
BRANCH  28  29
ATOM     29  C   UNL     1      61.697  27.732  50.171  1.00  0.00    -0.000 C 
BRANCH  29  30
ATOM     30  C   UNL     1      62.384  27.985  51.529  1.00  0.00    -0.000 C 
BRANCH  30  31
ATOM     31  C   UNL     1      62.273  29.429  52.052  1.00  0.00    -0.003 C 
ATOM     32  C   UNL     1      62.019  30.445  50.939  1.00  0.00     0.004 C 
ENDBRANCH  30  31
ENDBRANCH  29  30
ENDBRANCH  28  29
ENDBRANCH  27  28
ENDBRANCH  26  27
ENDBRANCH  25  26
ENDBRANCH  24  25
ENDBRANCH  23  24
ENDBRANCH  22  23
ENDBRANCH  21  22
ENDBRANCH  20  21
ENDBRANCH  19  20
ENDBRANCH  18  19
ENDBRANCH   1  18
TORSDOF 28
ENDMDL
MODEL 9
REMARK VINA RESULT:    -2.882      7.920     10.634
REMARK INTER + INTRA:         -13.444
REMARK INTER:                  -7.811
REMARK INTRA:                  -5.633
REMARK UNBOUND:                -5.843
REMARK SMILES CCCCCCCCCCCCCCCCCCCCCCCCCCCCCC(=O)[O-]
REMARK SMILES IDX 16 1 17 2 18 3 19 4 20 5 21 6 22 7 23 8 24 9 25 10 26 11
REMARK SMILES IDX 27 12 28 13 29 14 30 15 31 16 32 17 15 18 14 19 13 20 12 21
REMARK SMILES IDX 11 22 10 23 9 24 8 25 7 26 6 27 5 28 4 29 3 30 2 31 1 32
REMARK H PARENT
REMARK Flexibility Score: inf
ROOT
ATOM      1  C   UNL     1      57.610  28.522  50.512  1.00  0.00     0.000 C 
ENDROOT
BRANCH   1   2
ATOM      2  C   UNL     1      58.705  29.248  49.716  1.00  0.00     0.000 C 
BRANCH   2   3
ATOM      3  C   UNL     1      59.838  28.305  49.271  1.00  0.00     0.000 C 
BRANCH   3   4
ATOM      4  C   UNL     1      59.568  26.839  49.643  1.00  0.00     0.000 C 
BRANCH   4   5
ATOM      5  C   UNL     1      60.718  26.211  50.451  1.00  0.00     0.000 C 
BRANCH   5   6
ATOM      6  C   UNL     1      61.564  27.266  51.184  1.00  0.00     0.000 C 
BRANCH   6   7
ATOM      7  C   UNL     1      63.037  26.844  51.332  1.00  0.00     0.000 C 
BRANCH   7   8
ATOM      8  C   UNL     1      63.619  26.253  50.035  1.00  0.00     0.000 C 
BRANCH   8   9
ATOM      9  C   UNL     1      64.232  27.284  49.065  1.00  0.00     0.000 C 
BRANCH   9  10
ATOM     10  C   UNL     1      64.649  28.618  49.712  1.00  0.00     0.000 C 
BRANCH  10  11
ATOM     11  C   UNL     1      63.800  29.834  49.294  1.00  0.00     0.000 C 
BRANCH  11  12
ATOM     12  C   UNL     1      63.250  30.680  50.461  1.00  0.00     0.000 C 
BRANCH  12  13
ATOM     13  C   UNL     1      62.110  31.643  50.082  1.00  0.00     0.006 C 
BRANCH  13  14
ATOM     14  C   UNL     1      62.595  32.849  49.267  1.00  0.00     0.053 C 
BRANCH  14  15
ATOM     15  C   UNL     1      63.603  33.639  50.043  1.00  0.00     0.041 C 
ATOM     16  O   UNL     1      63.292  34.154  51.149  1.00  0.00    -0.550 OA
ATOM     17  O   UNL     1      64.884  33.816  49.537  1.00  0.00    -0.550 OA
ENDBRANCH  14  15
ENDBRANCH  13  14
ENDBRANCH  12  13
ENDBRANCH  11  12
ENDBRANCH  10  11
ENDBRANCH   9  10
ENDBRANCH   8   9
ENDBRANCH   7   8
ENDBRANCH   6   7
ENDBRANCH   5   6
ENDBRANCH   4   5
ENDBRANCH   3   4
ENDBRANCH   2   3
ENDBRANCH   1   2
BRANCH   1  18
ATOM     18  C   UNL     1      56.651  29.490  51.223  1.00  0.00     0.000 C 
BRANCH  18  19
ATOM     19  C   UNL     1      55.224  29.350  50.678  1.00  0.00     0.000 C 
BRANCH  19  20
ATOM     20  C   UNL     1      54.331  28.591  51.670  1.00  0.00     0.000 C 
BRANCH  20  21
ATOM     21  C   UNL     1      53.581  27.423  51.011  1.00  0.00     0.000 C 
BRANCH  21  22
ATOM     22  C   UNL     1      54.446  26.663  49.992  1.00  0.00     0.000 C 
BRANCH  22  23
ATOM     23  C   UNL     1      54.990  25.335  50.544  1.00  0.00     0.000 C 
BRANCH  23  24
ATOM     24  C   UNL     1      56.383  25.457  51.198  1.00  0.00    -0.000 C 
BRANCH  24  25
ATOM     25  C   UNL     1      56.319  25.350  52.732  1.00  0.00    -0.000 C 
BRANCH  25  26
ATOM     26  C   UNL     1      57.073  26.490  53.437  1.00  0.00    -0.000 C 
BRANCH  26  27
ATOM     27  C   UNL     1      58.598  26.323  53.361  1.00  0.00    -0.000 C 
BRANCH  27  28
ATOM     28  C   UNL     1      59.308  27.335  54.272  1.00  0.00    -0.000 C 
BRANCH  28  29
ATOM     29  C   UNL     1      58.954  28.796  53.935  1.00  0.00    -0.000 C 
BRANCH  29  30
ATOM     30  C   UNL     1      60.062  29.585  53.206  1.00  0.00    -0.000 C 
BRANCH  30  31
ATOM     31  C   UNL     1      59.754  31.076  52.982  1.00  0.00    -0.003 C 
ATOM     32  C   UNL     1      58.438  31.513  53.624  1.00  0.00     0.004 C 
ENDBRANCH  30  31
ENDBRANCH  29  30
ENDBRANCH  28  29
ENDBRANCH  27  28
ENDBRANCH  26  27
ENDBRANCH  25  26
ENDBRANCH  24  25
ENDBRANCH  23  24
ENDBRANCH  22  23
ENDBRANCH  21  22
ENDBRANCH  20  21
ENDBRANCH  19  20
ENDBRANCH  18  19
ENDBRANCH   1  18
TORSDOF 28
ENDMDL
