MODEL 1
REMARK VINA RESULT:     2.707      0.000      0.000
REMARK INTER + INTRA:           4.782
REMARK INTER:                   5.872
REMARK INTRA:                  -1.089
REMARK UNBOUND:                -1.089
REMARK SMILES CCCCCCCCCCCCCCCCCCCCCC(=O)[O-]
REMARK SMILES IDX 12 1 11 2 10 3 9 4 8 5 7 6 6 7 5 8 4 9 3 10 2 11 1 12 13 13
REMARK SMILES IDX 14 14 15 15 16 16 17 17 18 18 19 19 20 20 21 21 22 22 23 23
REMARK SMILES IDX 24 24
REMARK H PARENT
REMARK Flexibility Score: inf
ROOT
ATOM      1  C   UNL     1       6.116 -34.223  23.941  1.00  0.00     0.000 C 
ENDROOT
BRANCH   1   2
ATOM      2  C   UNL     1       6.124 -35.749  24.097  1.00  0.00     0.000 C 
BRANCH   2   3
ATOM      3  C   UNL     1       4.825 -36.240  24.753  1.00  0.00     0.000 C 
BRANCH   3   4
ATOM      4  C   UNL     1       5.067 -37.326  25.818  1.00  0.00    -0.000 C 
BRANCH   4   5
ATOM      5  C   UNL     1       4.326 -38.657  25.577  1.00  0.00    -0.000 C 
BRANCH   5   6
ATOM      6  C   UNL     1       5.090 -39.689  24.729  1.00  0.00    -0.000 C 
BRANCH   6   7
ATOM      7  C   UNL     1       4.397 -39.998  23.394  1.00  0.00    -0.000 C 
BRANCH   7   8
ATOM      8  C   UNL     1       5.311 -40.834  22.486  1.00  0.00    -0.000 C 
BRANCH   8   9
ATOM      9  C   UNL     1       5.948 -40.006  21.357  1.00  0.00    -0.000 C 
BRANCH   9  10
ATOM     10  C   UNL     1       5.718 -38.495  21.530  1.00  0.00    -0.000 C 
BRANCH  10  11
ATOM     11  C   UNL     1       4.498 -37.994  20.741  1.00  0.00    -0.003 C 
ATOM     12  C   UNL     1       4.743 -37.957  19.233  1.00  0.00     0.004 C 
ENDBRANCH  10  11
ENDBRANCH   9  10
ENDBRANCH   8   9
ENDBRANCH   7   8
ENDBRANCH   6   7
ENDBRANCH   5   6
ENDBRANCH   4   5
ENDBRANCH   3   4
ENDBRANCH   2   3
ENDBRANCH   1   2
BRANCH   1  13
ATOM     13  C   UNL     1       5.503 -33.759  22.607  1.00  0.00     0.000 C 
BRANCH  13  14
ATOM     14  C   UNL     1       4.280 -34.591  22.166  1.00  0.00     0.000 C 
BRANCH  14  15
ATOM     15  C   UNL     1       4.108 -34.605  20.640  1.00  0.00     0.000 C 
BRANCH  15  16
ATOM     16  C   UNL     1       5.459 -34.456  19.932  1.00  0.00     0.000 C 
BRANCH  16  17
ATOM     17  C   UNL     1       5.288 -34.475  18.405  1.00  0.00     0.000 C 
BRANCH  17  18
ATOM     18  C   UNL     1       4.222 -35.481  17.944  1.00  0.00     0.000 C 
BRANCH  18  19
ATOM     19  C   UNL     1       3.164 -34.842  17.029  1.00  0.00     0.000 C 
BRANCH  19  20
ATOM     20  C   UNL     1       3.088 -35.515  15.646  1.00  0.00     0.006 C 
BRANCH  20  21
ATOM     21  C   UNL     1       3.960 -36.774  15.506  1.00  0.00     0.053 C 
BRANCH  21  22
ATOM     22  C   UNL     1       3.451 -37.697  14.441  1.00  0.00     0.041 C 
ATOM     23  O   UNL     1       2.349 -37.468  13.877  1.00  0.00    -0.550 OA
ATOM     24  O   UNL     1       4.215 -38.788  14.044  1.00  0.00    -0.550 OA
ENDBRANCH  21  22
ENDBRANCH  20  21
ENDBRANCH  19  20
ENDBRANCH  18  19
ENDBRANCH  17  18
ENDBRANCH  16  17
ENDBRANCH  15  16
ENDBRANCH  14  15
ENDBRANCH  13  14
ENDBRANCH   1  13
TORSDOF 20
ENDMDL
MODEL 2
REMARK VINA RESULT:     2.765      2.322      6.996
REMARK INTER + INTRA:           4.909
REMARK INTER:                   6.140
REMARK INTRA:                  -1.232
REMARK UNBOUND:                -1.089
REMARK SMILES CCCCCCCCCCCCCCCCCCCCCC(=O)[O-]
REMARK SMILES IDX 12 1 11 2 10 3 9 4 8 5 7 6 6 7 5 8 4 9 3 10 2 11 1 12 13 13
REMARK SMILES IDX 14 14 15 15 16 16 17 17 18 18 19 19 20 20 21 21 22 22 23 23
REMARK SMILES IDX 24 24
REMARK H PARENT
REMARK Flexibility Score: inf
ROOT
ATOM      1  C   UNL     1       4.268 -35.003  21.182  1.00  0.00     0.000 C 
ENDROOT
BRANCH   1   2
ATOM      2  C   UNL     1       5.603 -35.118  20.433  1.00  0.00     0.000 C 
BRANCH   2   3
ATOM      3  C   UNL     1       5.428 -34.774  18.946  1.00  0.00     0.000 C 
BRANCH   3   4
ATOM      4  C   UNL     1       4.339 -35.619  18.261  1.00  0.00    -0.000 C 
BRANCH   4   5
ATOM      5  C   UNL     1       3.958 -35.167  16.836  1.00  0.00    -0.000 C 
BRANCH   5   6
ATOM      6  C   UNL     1       2.638 -35.745  16.296  1.00  0.00    -0.000 C 
BRANCH   6   7
ATOM      7  C   UNL     1       2.597 -35.812  14.762  1.00  0.00    -0.000 C 
BRANCH   7   8
ATOM      8  C   UNL     1       2.590 -37.270  14.280  1.00  0.00    -0.000 C 
BRANCH   8   9
ATOM      9  C   UNL     1       3.908 -38.003  14.582  1.00  0.00    -0.000 C 
BRANCH   9  10
ATOM     10  C   UNL     1       4.003 -39.366  13.875  1.00  0.00    -0.000 C 
BRANCH  10  11
ATOM     11  C   UNL     1       5.397 -39.998  14.005  1.00  0.00    -0.003 C 
ATOM     12  C   UNL     1       5.342 -41.492  14.325  1.00  0.00     0.004 C 
ENDBRANCH  10  11
ENDBRANCH   9  10
ENDBRANCH   8   9
ENDBRANCH   7   8
ENDBRANCH   6   7
ENDBRANCH   5   6
ENDBRANCH   4   5
ENDBRANCH   3   4
ENDBRANCH   2   3
ENDBRANCH   1   2
BRANCH   1  13
ATOM     13  C   UNL     1       4.283 -33.916  22.270  1.00  0.00     0.000 C 
BRANCH  13  14
ATOM     14  C   UNL     1       5.645 -33.773  22.983  1.00  0.00     0.000 C 
BRANCH  14  15
ATOM     15  C   UNL     1       6.104 -35.089  23.627  1.00  0.00     0.000 C 
BRANCH  15  16
ATOM     16  C   UNL     1       5.215 -35.457  24.820  1.00  0.00     0.000 C 
BRANCH  16  17
ATOM     17  C   UNL     1       5.523 -36.876  25.322  1.00  0.00     0.000 C 
BRANCH  17  18
ATOM     18  C   UNL     1       4.747 -37.955  24.552  1.00  0.00     0.000 C 
BRANCH  18  19
ATOM     19  C   UNL     1       5.674 -38.975  23.868  1.00  0.00     0.000 C 
BRANCH  19  20
ATOM     20  C   UNL     1       4.906 -39.990  23.002  1.00  0.00     0.006 C 
BRANCH  20  21
ATOM     21  C   UNL     1       5.380 -40.061  21.541  1.00  0.00     0.053 C 
BRANCH  21  22
ATOM     22  C   UNL     1       4.993 -38.840  20.763  1.00  0.00     0.041 C 
ATOM     23  O   UNL     1       5.749 -38.400  19.856  1.00  0.00    -0.550 OA
ATOM     24  O   UNL     1       3.780 -38.212  21.013  1.00  0.00    -0.550 OA
ENDBRANCH  21  22
ENDBRANCH  20  21
ENDBRANCH  19  20
ENDBRANCH  18  19
ENDBRANCH  17  18
ENDBRANCH  16  17
ENDBRANCH  15  16
ENDBRANCH  14  15
ENDBRANCH  13  14
ENDBRANCH   1  13
TORSDOF 20
ENDMDL
MODEL 3
REMARK VINA RESULT:     3.054      1.114      3.350
REMARK INTER + INTRA:           5.536
REMARK INTER:                   6.662
REMARK INTRA:                  -1.126
REMARK UNBOUND:                -1.089
REMARK SMILES CCCCCCCCCCCCCCCCCCCCCC(=O)[O-]
REMARK SMILES IDX 12 1 11 2 10 3 9 4 8 5 7 6 6 7 5 8 4 9 3 10 2 11 1 12 13 13
REMARK SMILES IDX 14 14 15 15 16 16 17 17 18 18 19 19 20 20 21 21 22 22 23 23
REMARK SMILES IDX 24 24
REMARK H PARENT
REMARK Flexibility Score: inf
ROOT
ATOM      1  C   UNL     1       5.392 -35.989  23.211  1.00  0.00     0.000 C 
ENDROOT
BRANCH   1   2
ATOM      2  C   UNL     1       5.885 -36.607  21.896  1.00  0.00     0.000 C 
BRANCH   2   3
ATOM      3  C   UNL     1       4.716 -37.207  21.100  1.00  0.00     0.000 C 
BRANCH   3   4
ATOM      4  C   UNL     1       5.122 -38.449  20.286  1.00  0.00    -0.000 C 
BRANCH   4   5
ATOM      5  C   UNL     1       5.561 -39.667  21.125  1.00  0.00    -0.000 C 
BRANCH   5   6
ATOM      6  C   UNL     1       4.687 -39.965  22.356  1.00  0.00    -0.000 C 
BRANCH   6   7
ATOM      7  C   UNL     1       5.496 -40.049  23.659  1.00  0.00    -0.000 C 
BRANCH   7   8
ATOM      8  C   UNL     1       4.715 -39.430  24.827  1.00  0.00    -0.000 C 
BRANCH   8   9
ATOM      9  C   UNL     1       5.105 -37.967  25.095  1.00  0.00    -0.000 C 
BRANCH   9  10
ATOM     10  C   UNL     1       4.372 -37.372  26.309  1.00  0.00    -0.000 C 
BRANCH  10  11
ATOM     11  C   UNL     1       3.118 -38.174  26.688  1.00  0.00    -0.003 C 
ATOM     12  C   UNL     1       2.046 -37.315  27.358  1.00  0.00     0.004 C 
ENDBRANCH  10  11
ENDBRANCH   9  10
ENDBRANCH   8   9
ENDBRANCH   7   8
ENDBRANCH   6   7
ENDBRANCH   5   6
ENDBRANCH   4   5
ENDBRANCH   3   4
ENDBRANCH   2   3
ENDBRANCH   1   2
BRANCH   1  13
ATOM     13  C   UNL     1       5.952 -34.577  23.456  1.00  0.00     0.000 C 
BRANCH  13  14
ATOM     14  C   UNL     1       5.408 -33.517  22.475  1.00  0.00     0.000 C 
BRANCH  14  15
ATOM     15  C   UNL     1       3.955 -33.799  22.063  1.00  0.00     0.000 C 
BRANCH  15  16
ATOM     16  C   UNL     1       3.806 -33.799  20.537  1.00  0.00     0.000 C 
BRANCH  16  17
ATOM     17  C   UNL     1       5.139 -34.139  19.852  1.00  0.00     0.000 C 
BRANCH  17  18
ATOM     18  C   UNL     1       4.970 -34.452  18.358  1.00  0.00     0.000 C 
BRANCH  18  19
ATOM     19  C   UNL     1       4.004 -35.622  18.105  1.00  0.00     0.000 C 
BRANCH  19  20
ATOM     20  C   UNL     1       3.390 -35.592  16.692  1.00  0.00     0.006 C 
BRANCH  20  21
ATOM     21  C   UNL     1       4.175 -36.399  15.645  1.00  0.00     0.053 C 
BRANCH  21  22
ATOM     22  C   UNL     1       3.269 -37.102  14.681  1.00  0.00     0.041 C 
ATOM     23  O   UNL     1       2.199 -36.556  14.302  1.00  0.00    -0.550 OA
ATOM     24  O   UNL     1       3.626 -38.344  14.170  1.00  0.00    -0.550 OA
ENDBRANCH  21  22
ENDBRANCH  20  21
ENDBRANCH  19  20
ENDBRANCH  18  19
ENDBRANCH  17  18
ENDBRANCH  16  17
ENDBRANCH  15  16
ENDBRANCH  14  15
ENDBRANCH  13  14
ENDBRANCH   1  13
TORSDOF 20
ENDMDL
MODEL 4
REMARK VINA RESULT:     3.223      3.704      7.589
REMARK INTER + INTRA:           5.902
REMARK INTER:                   6.134
REMARK INTRA:                  -0.232
REMARK UNBOUND:                -1.089
REMARK SMILES CCCCCCCCCCCCCCCCCCCCCC(=O)[O-]
REMARK SMILES IDX 12 1 11 2 10 3 9 4 8 5 7 6 6 7 5 8 4 9 3 10 2 11 1 12 13 13
REMARK SMILES IDX 14 14 15 15 16 16 17 17 18 18 19 19 20 20 21 21 22 22 23 23
REMARK SMILES IDX 24 24
REMARK H PARENT
REMARK Flexibility Score: inf
ROOT
ATOM      1  C   UNL     1       4.976 -33.809  22.514  1.00  0.00     0.000 C 
ENDROOT
BRANCH   1   2
ATOM      2  C   UNL     1       3.938 -33.302  21.503  1.00  0.00     0.000 C 
BRANCH   2   3
ATOM      3  C   UNL     1       3.868 -34.228  20.279  1.00  0.00     0.000 C 
BRANCH   3   4
ATOM      4  C   UNL     1       5.111 -34.122  19.377  1.00  0.00    -0.000 C 
BRANCH   4   5
ATOM      5  C   UNL     1       4.846 -34.316  17.870  1.00  0.00    -0.000 C 
BRANCH   5   6
ATOM      6  C   UNL     1       4.080 -35.599  17.500  1.00  0.00    -0.000 C 
BRANCH   6   7
ATOM      7  C   UNL     1       2.909 -35.341  16.541  1.00  0.00    -0.000 C 
BRANCH   7   8
ATOM      8  C   UNL     1       3.278 -35.748  15.107  1.00  0.00    -0.000 C 
BRANCH   8   9
ATOM      9  C   UNL     1       2.656 -37.091  14.689  1.00  0.00    -0.000 C 
BRANCH   9  10
ATOM     10  C   UNL     1       3.626 -37.964  13.875  1.00  0.00    -0.000 C 
BRANCH  10  11
ATOM     11  C   UNL     1       4.049 -39.233  14.632  1.00  0.00    -0.003 C 
ATOM     12  C   UNL     1       5.150 -40.012  13.912  1.00  0.00     0.004 C 
ENDBRANCH  10  11
ENDBRANCH   9  10
ENDBRANCH   8   9
ENDBRANCH   7   8
ENDBRANCH   6   7
ENDBRANCH   5   6
ENDBRANCH   4   5
ENDBRANCH   3   4
ENDBRANCH   2   3
ENDBRANCH   1   2
BRANCH   1  13
ATOM     13  C   UNL     1       4.705 -35.250  22.980  1.00  0.00     0.000 C 
BRANCH  13  14
ATOM     14  C   UNL     1       5.713 -36.279  22.426  1.00  0.00     0.000 C 
BRANCH  14  15
ATOM     15  C   UNL     1       5.723 -36.314  20.891  1.00  0.00     0.000 C 
BRANCH  15  16
ATOM     16  C   UNL     1       5.135 -37.629  20.367  1.00  0.00     0.000 C 
BRANCH  16  17
ATOM     17  C   UNL     1       4.487 -38.436  21.502  1.00  0.00     0.000 C 
BRANCH  17  18
ATOM     18  C   UNL     1       5.154 -39.805  21.707  1.00  0.00     0.000 C 
BRANCH  18  19
ATOM     19  C   UNL     1       5.050 -40.301  23.159  1.00  0.00     0.000 C 
BRANCH  19  20
ATOM     20  C   UNL     1       5.529 -39.255  24.182  1.00  0.00     0.006 C 
BRANCH  20  21
ATOM     21  C   UNL     1       4.556 -39.018  25.349  1.00  0.00     0.053 C 
BRANCH  21  22
ATOM     22  C   UNL     1       4.601 -37.604  25.843  1.00  0.00     0.041 C 
ATOM     23  O   UNL     1       3.593 -37.094  26.398  1.00  0.00    -0.550 OA
ATOM     24  O   UNL     1       5.772 -36.864  25.726  1.00  0.00    -0.550 OA
ENDBRANCH  21  22
ENDBRANCH  20  21
ENDBRANCH  19  20
ENDBRANCH  18  19
ENDBRANCH  17  18
ENDBRANCH  16  17
ENDBRANCH  15  16
ENDBRANCH  14  15
ENDBRANCH  13  14
ENDBRANCH   1  13
TORSDOF 20
ENDMDL
MODEL 5
REMARK VINA RESULT:     3.362      4.082      7.959
REMARK INTER + INTRA:           6.204
REMARK INTER:                   7.612
REMARK INTRA:                  -1.408
REMARK UNBOUND:                -1.089
REMARK SMILES CCCCCCCCCCCCCCCCCCCCCC(=O)[O-]
REMARK SMILES IDX 12 1 11 2 10 3 9 4 8 5 7 6 6 7 5 8 4 9 3 10 2 11 1 12 13 13
REMARK SMILES IDX 14 14 15 15 16 16 17 17 18 18 19 19 20 20 21 21 22 22 23 23
REMARK SMILES IDX 24 24
REMARK H PARENT
REMARK Flexibility Score: inf
ROOT
ATOM      1  C   UNL     1       5.490 -35.318  22.951  1.00  0.00     0.000 C 
ENDROOT
BRANCH   1   2
ATOM      2  C   UNL     1       4.081 -34.773  22.680  1.00  0.00     0.000 C 
BRANCH   2   3
ATOM      3  C   UNL     1       4.136 -33.548  21.754  1.00  0.00     0.000 C 
BRANCH   3   4
ATOM      4  C   UNL     1       3.945 -33.911  20.271  1.00  0.00    -0.000 C 
BRANCH   4   5
ATOM      5  C   UNL     1       5.243 -34.236  19.503  1.00  0.00    -0.000 C 
BRANCH   5   6
ATOM      6  C   UNL     1       5.057 -34.564  18.010  1.00  0.00    -0.000 C 
BRANCH   6   7
ATOM      7  C   UNL     1       3.937 -35.584  17.757  1.00  0.00    -0.000 C 
BRANCH   7   8
ATOM      8  C   UNL     1       3.954 -36.061  16.297  1.00  0.00    -0.000 C 
BRANCH   8   9
ATOM      9  C   UNL     1       2.579 -35.950  15.618  1.00  0.00    -0.000 C 
BRANCH   9  10
ATOM     10  C   UNL     1       2.522 -36.693  14.272  1.00  0.00    -0.000 C 
BRANCH  10  11
ATOM     11  C   UNL     1       3.851 -37.381  13.925  1.00  0.00    -0.003 C 
ATOM     12  C   UNL     1       3.946 -38.800  14.485  1.00  0.00     0.004 C 
ENDBRANCH  10  11
ENDBRANCH   9  10
ENDBRANCH   8   9
ENDBRANCH   7   8
ENDBRANCH   6   7
ENDBRANCH   5   6
ENDBRANCH   4   5
ENDBRANCH   3   4
ENDBRANCH   2   3
ENDBRANCH   1   2
BRANCH   1  13
ATOM     13  C   UNL     1       5.862 -36.497  22.035  1.00  0.00     0.000 C 
BRANCH  13  14
ATOM     14  C   UNL     1       4.654 -37.116  21.300  1.00  0.00     0.000 C 
BRANCH  14  15
ATOM     15  C   UNL     1       4.985 -38.486  20.689  1.00  0.00     0.000 C 
BRANCH  15  16
ATOM     16  C   UNL     1       5.722 -39.374  21.698  1.00  0.00     0.000 C 
BRANCH  16  17
ATOM     17  C   UNL     1       4.732 -40.186  22.546  1.00  0.00     0.000 C 
BRANCH  17  18
ATOM     18  C   UNL     1       4.930 -39.970  24.054  1.00  0.00     0.000 C 
BRANCH  18  19
ATOM     19  C   UNL     1       4.813 -38.490  24.458  1.00  0.00     0.000 C 
BRANCH  19  20
ATOM     20  C   UNL     1       4.622 -38.301  25.974  1.00  0.00     0.006 C 
BRANCH  20  21
ATOM     21  C   UNL     1       3.880 -37.011  26.362  1.00  0.00     0.053 C 
BRANCH  21  22
ATOM     22  C   UNL     1       2.602 -37.294  27.091  1.00  0.00     0.041 C 
ATOM     23  O   UNL     1       2.013 -38.396  26.934  1.00  0.00    -0.550 OA
ATOM     24  O   UNL     1       2.082 -36.355  27.973  1.00  0.00    -0.550 OA
ENDBRANCH  21  22
ENDBRANCH  20  21
ENDBRANCH  19  20
ENDBRANCH  18  19
ENDBRANCH  17  18
ENDBRANCH  16  17
ENDBRANCH  15  16
ENDBRANCH  14  15
ENDBRANCH  13  14
ENDBRANCH   1  13
TORSDOF 20
ENDMDL
MODEL 6
REMARK VINA RESULT:     3.574      1.054      2.934
REMARK INTER + INTRA:           6.663
REMARK INTER:                   6.728
REMARK INTRA:                  -0.066
REMARK UNBOUND:                -1.089
REMARK SMILES CCCCCCCCCCCCCCCCCCCCCC(=O)[O-]
REMARK SMILES IDX 12 1 11 2 10 3 9 4 8 5 7 6 6 7 5 8 4 9 3 10 2 11 1 12 13 13
REMARK SMILES IDX 14 14 15 15 16 16 17 17 18 18 19 19 20 20 21 21 22 22 23 23
REMARK SMILES IDX 24 24
REMARK H PARENT
REMARK Flexibility Score: inf
ROOT
ATOM      1  C   UNL     1       5.029 -33.718  22.525  1.00  0.00     0.000 C 
ENDROOT
BRANCH   1   2
ATOM      2  C   UNL     1       5.785 -34.952  23.035  1.00  0.00     0.000 C 
BRANCH   2   3
ATOM      3  C   UNL     1       5.124 -36.245  22.536  1.00  0.00     0.000 C 
BRANCH   3   4
ATOM      4  C   UNL     1       5.712 -36.742  21.203  1.00  0.00    -0.000 C 
BRANCH   4   5
ATOM      5  C   UNL     1       4.885 -37.828  20.485  1.00  0.00    -0.000 C 
BRANCH   5   6
ATOM      6  C   UNL     1       5.311 -39.278  20.780  1.00  0.00    -0.000 C 
BRANCH   6   7
ATOM      7  C   UNL     1       4.521 -39.911  21.936  1.00  0.00    -0.000 C 
BRANCH   7   8
ATOM      8  C   UNL     1       5.440 -40.192  23.134  1.00  0.00    -0.000 C 
BRANCH   8   9
ATOM      9  C   UNL     1       4.908 -39.590  24.446  1.00  0.00    -0.000 C 
BRANCH   9  10
ATOM     10  C   UNL     1       4.944 -38.052  24.449  1.00  0.00    -0.000 C 
BRANCH  10  11
ATOM     11  C   UNL     1       4.974 -37.469  25.870  1.00  0.00    -0.003 C 
ATOM     12  C   UNL     1       5.990 -36.337  26.023  1.00  0.00     0.004 C 
ENDBRANCH  10  11
ENDBRANCH   9  10
ENDBRANCH   8   9
ENDBRANCH   7   8
ENDBRANCH   6   7
ENDBRANCH   5   6
ENDBRANCH   4   5
ENDBRANCH   3   4
ENDBRANCH   2   3
ENDBRANCH   1   2
BRANCH   1  13
ATOM     13  C   UNL     1       3.754 -34.078  21.741  1.00  0.00     0.000 C 
BRANCH  13  14
ATOM     14  C   UNL     1       3.892 -33.884  20.216  1.00  0.00     0.000 C 
BRANCH  14  15
ATOM     15  C   UNL     1       5.319 -34.164  19.721  1.00  0.00     0.000 C 
BRANCH  15  16
ATOM     16  C   UNL     1       5.330 -34.470  18.219  1.00  0.00     0.000 C 
BRANCH  16  17
ATOM     17  C   UNL     1       4.216 -35.459  17.848  1.00  0.00     0.000 C 
BRANCH  17  18
ATOM     18  C   UNL     1       3.500 -35.078  16.543  1.00  0.00     0.000 C 
BRANCH  18  19
ATOM     19  C   UNL     1       2.325 -36.017  16.218  1.00  0.00     0.000 C 
BRANCH  19  20
ATOM     20  C   UNL     1       2.197 -36.311  14.712  1.00  0.00     0.006 C 
BRANCH  20  21
ATOM     21  C   UNL     1       3.510 -36.746  14.039  1.00  0.00     0.053 C 
BRANCH  21  22
ATOM     22  C   UNL     1       3.860 -38.168  14.353  1.00  0.00     0.041 C 
ATOM     23  O   UNL     1       3.067 -38.884  15.020  1.00  0.00    -0.550 OA
ATOM     24  O   UNL     1       5.045 -38.714  13.876  1.00  0.00    -0.550 OA
ENDBRANCH  21  22
ENDBRANCH  20  21
ENDBRANCH  19  20
ENDBRANCH  18  19
ENDBRANCH  17  18
ENDBRANCH  16  17
ENDBRANCH  15  16
ENDBRANCH  14  15
ENDBRANCH  13  14
ENDBRANCH   1  13
TORSDOF 20
ENDMDL
MODEL 7
REMARK VINA RESULT:     3.580      3.722      7.182
REMARK INTER + INTRA:           6.675
REMARK INTER:                   5.994
REMARK INTRA:                   0.682
REMARK UNBOUND:                -1.089
REMARK SMILES CCCCCCCCCCCCCCCCCCCCCC(=O)[O-]
REMARK SMILES IDX 12 1 11 2 10 3 9 4 8 5 7 6 6 7 5 8 4 9 3 10 2 11 1 12 13 13
REMARK SMILES IDX 14 14 15 15 16 16 17 17 18 18 19 19 20 20 21 21 22 22 23 23
REMARK SMILES IDX 24 24
REMARK H PARENT
REMARK Flexibility Score: inf
ROOT
ATOM      1  C   UNL     1       5.755 -35.586  23.761  1.00  0.00     0.000 C 
ENDROOT
BRANCH   1   2
ATOM      2  C   UNL     1       5.950 -34.076  23.952  1.00  0.00     0.000 C 
BRANCH   2   3
ATOM      3  C   UNL     1       5.573 -33.308  22.676  1.00  0.00     0.000 C 
BRANCH   3   4
ATOM      4  C   UNL     1       4.098 -33.498  22.278  1.00  0.00    -0.000 C 
BRANCH   4   5
ATOM      5  C   UNL     1       3.813 -33.426  20.763  1.00  0.00    -0.000 C 
BRANCH   5   6
ATOM      6  C   UNL     1       4.213 -34.677  19.960  1.00  0.00    -0.000 C 
BRANCH   6   7
ATOM      7  C   UNL     1       5.028 -34.345  18.701  1.00  0.00    -0.000 C 
BRANCH   7   8
ATOM      8  C   UNL     1       4.158 -34.471  17.441  1.00  0.00    -0.000 C 
BRANCH   8   9
ATOM      9  C   UNL     1       3.930 -35.932  17.019  1.00  0.00    -0.000 C 
BRANCH   9  10
ATOM     10  C   UNL     1       2.936 -36.062  15.853  1.00  0.00    -0.000 C 
BRANCH  10  11
ATOM     11  C   UNL     1       3.599 -36.595  14.574  1.00  0.00    -0.003 C 
ATOM     12  C   UNL     1       3.670 -38.122  14.536  1.00  0.00     0.004 C 
ENDBRANCH  10  11
ENDBRANCH   9  10
ENDBRANCH   8   9
ENDBRANCH   7   8
ENDBRANCH   6   7
ENDBRANCH   5   6
ENDBRANCH   4   5
ENDBRANCH   3   4
ENDBRANCH   2   3
ENDBRANCH   1   2
BRANCH   1  13
ATOM     13  C   UNL     1       6.079 -36.056  22.332  1.00  0.00     0.000 C 
BRANCH  13  14
ATOM     14  C   UNL     1       4.978 -36.939  21.707  1.00  0.00     0.000 C 
BRANCH  14  15
ATOM     15  C   UNL     1       5.339 -37.399  20.287  1.00  0.00     0.000 C 
BRANCH  15  16
ATOM     16  C   UNL     1       4.826 -38.818  20.020  1.00  0.00     0.000 C 
BRANCH  16  17
ATOM     17  C   UNL     1       5.708 -39.865  20.717  1.00  0.00     0.000 C 
BRANCH  17  18
ATOM     18  C   UNL     1       5.792 -39.649  22.236  1.00  0.00     0.000 C 
BRANCH  18  19
ATOM     19  C   UNL     1       4.706 -40.422  23.004  1.00  0.00     0.000 C 
BRANCH  19  20
ATOM     20  C   UNL     1       4.331 -39.753  24.339  1.00  0.00     0.006 C 
BRANCH  20  21
ATOM     21  C   UNL     1       5.356 -38.722  24.840  1.00  0.00     0.053 C 
BRANCH  21  22
ATOM     22  C   UNL     1       4.780 -37.819  25.888  1.00  0.00     0.041 C 
ATOM     23  O   UNL     1       5.408 -36.791  26.255  1.00  0.00    -0.550 OA
ATOM     24  O   UNL     1       3.531 -38.094  26.432  1.00  0.00    -0.550 OA
ENDBRANCH  21  22
ENDBRANCH  20  21
ENDBRANCH  19  20
ENDBRANCH  18  19
ENDBRANCH  17  18
ENDBRANCH  16  17
ENDBRANCH  15  16
ENDBRANCH  14  15
ENDBRANCH  13  14
ENDBRANCH   1  13
TORSDOF 20
ENDMDL
MODEL 8
REMARK VINA RESULT:     3.686      5.267      8.585
REMARK INTER + INTRA:           6.907
REMARK INTER:                   7.971
REMARK INTRA:                  -1.064
REMARK UNBOUND:                -1.089
REMARK SMILES CCCCCCCCCCCCCCCCCCCCCC(=O)[O-]
REMARK SMILES IDX 12 1 11 2 10 3 9 4 8 5 7 6 6 7 5 8 4 9 3 10 2 11 1 12 13 13
REMARK SMILES IDX 14 14 15 15 16 16 17 17 18 18 19 19 20 20 21 21 22 22 23 23
REMARK SMILES IDX 24 24
REMARK H PARENT
REMARK Flexibility Score: inf
ROOT
ATOM      1  C   UNL     1       5.421 -34.665  22.509  1.00  0.00     0.000 C 
ENDROOT
BRANCH   1   2
ATOM      2  C   UNL     1       3.916 -34.908  22.682  1.00  0.00     0.000 C 
BRANCH   2   3
ATOM      3  C   UNL     1       3.132 -34.376  21.473  1.00  0.00     0.000 C 
BRANCH   3   4
ATOM      4  C   UNL     1       3.968 -33.435  20.586  1.00  0.00    -0.000 C 
BRANCH   4   5
ATOM      5  C   UNL     1       4.788 -34.132  19.481  1.00  0.00    -0.000 C 
BRANCH   5   6
ATOM      6  C   UNL     1       4.091 -35.324  18.800  1.00  0.00    -0.000 C 
BRANCH   6   7
ATOM      7  C   UNL     1       4.927 -36.611  18.845  1.00  0.00    -0.000 C 
BRANCH   7   8
ATOM      8  C   UNL     1       5.512 -36.832  20.247  1.00  0.00    -0.000 C 
BRANCH   8   9
ATOM      9  C   UNL     1       4.960 -38.094  20.931  1.00  0.00    -0.000 C 
BRANCH   9  10
ATOM     10  C   UNL     1       5.487 -39.391  20.295  1.00  0.00    -0.000 C 
BRANCH  10  11
ATOM     11  C   UNL     1       5.780 -40.480  21.339  1.00  0.00    -0.003 C 
ATOM     12  C   UNL     1       5.269 -40.115  22.733  1.00  0.00     0.004 C 
ENDBRANCH  10  11
ENDBRANCH   9  10
ENDBRANCH   8   9
ENDBRANCH   7   8
ENDBRANCH   6   7
ENDBRANCH   5   6
ENDBRANCH   4   5
ENDBRANCH   3   4
ENDBRANCH   2   3
ENDBRANCH   1   2
BRANCH   1  13
ATOM     13  C   UNL     1       6.025 -33.813  23.640  1.00  0.00     0.000 C 
BRANCH  13  14
ATOM     14  C   UNL     1       6.125 -34.558  24.989  1.00  0.00     0.000 C 
BRANCH  14  15
ATOM     15  C   UNL     1       5.816 -36.056  24.849  1.00  0.00     0.000 C 
BRANCH  15  16
ATOM     16  C   UNL     1       5.677 -36.720  26.224  1.00  0.00     0.000 C 
BRANCH  16  17
ATOM     17  C   UNL     1       4.637 -37.850  26.189  1.00  0.00     0.000 C 
BRANCH  17  18
ATOM     18  C   UNL     1       3.194 -37.325  26.217  1.00  0.00     0.000 C 
BRANCH  18  19
ATOM     19  C   UNL     1       2.558 -37.419  27.615  1.00  0.00     0.000 C 
BRANCH  19  20
ATOM     20  C   UNL     1       1.701 -36.189  27.964  1.00  0.00     0.006 C 
BRANCH  20  21
ATOM     21  C   UNL     1       2.460 -35.082  28.714  1.00  0.00     0.053 C 
BRANCH  21  22
ATOM     22  C   UNL     1       1.605 -34.412  29.746  1.00  0.00     0.041 C 
ATOM     23  O   UNL     1       0.479 -33.943  29.429  1.00  0.00    -0.550 OA
ATOM     24  O   UNL     1       2.034 -34.341  31.066  1.00  0.00    -0.550 OA
ENDBRANCH  21  22
ENDBRANCH  20  21
ENDBRANCH  19  20
ENDBRANCH  18  19
ENDBRANCH  17  18
ENDBRANCH  16  17
ENDBRANCH  15  16
ENDBRANCH  14  15
ENDBRANCH  13  14
ENDBRANCH   1  13
TORSDOF 20
ENDMDL
