MODEL 1
REMARK VINA RESULT:    -3.798      0.000      0.000
REMARK INTER + INTRA:          -4.881
REMARK INTER:                  -4.575
REMARK INTRA:                  -0.306
REMARK UNBOUND:                -0.306
REMARK SMILES O=c1c(O)c(-c2ccc(O)cc2O)oc2cc(O)cc(O)c12
REMARK SMILES IDX 5 1 3 2 2 3 1 4 22 5 20 6 19 7 17 8 16 9 15 10 14 11 6 12
REMARK SMILES IDX 8 13 7 14 9 15 11 16 12 17 10 18 13 20 4 22 21 24 18 26
REMARK H PARENT 10 19 13 21 4 23 21 25 18 27
REMARK Flexibility Score: inf
ROOT
ATOM      1  C   UNL     1      76.150  34.683  52.353  1.00  0.00     0.184 A 
ATOM      2  C   UNL     1      76.123  35.408  51.151  1.00  0.00     0.208 A 
ATOM      3  C   UNL     1      77.271  35.429  50.344  1.00  0.00     0.238 A 
ATOM      4  O   UNL     1      77.259  36.125  49.295  1.00  0.00    -0.285 OA
ATOM      5  C   UNL     1      78.424  34.710  50.741  1.00  0.00     0.111 A 
ATOM      6  C   UNL     1      79.629  34.627  49.980  1.00  0.00     0.134 A 
ATOM      7  C   UNL     1      80.751  33.994  50.530  1.00  0.00     0.093 A 
ATOM      8  C   UNL     1      80.691  33.385  51.786  1.00  0.00     0.123 A 
ATOM      9  C   UNL     1      79.502  33.409  52.510  1.00  0.00     0.094 A 
ATOM     10  C   UNL     1      78.376  34.063  52.003  1.00  0.00     0.146 A 
ATOM     11  O   UNL     1      77.267  34.072  52.732  1.00  0.00    -0.451 OA
ENDROOT
BRANCH   1  12
ATOM     12  C   UNL     1      74.971  34.606  53.241  1.00  0.00     0.063 A 
ATOM     13  C   UNL     1      73.335  35.756  54.624  1.00  0.00     0.047 A 
ATOM     14  C   UNL     1      74.446  35.793  53.776  1.00  0.00     0.020 A 
ATOM     15  C   UNL     1      72.745  34.532  54.957  1.00  0.00     0.119 A 
ATOM     16  C   UNL     1      73.276  33.344  54.447  1.00  0.00     0.093 A 
ATOM     17  C   UNL     1      74.395  33.370  53.601  1.00  0.00     0.130 A 
BRANCH  15  18
ATOM     18  O   UNL     1      71.635  34.484  55.798  1.00  0.00    -0.508 OA
ATOM     19  H   UNL     1      70.836  35.090  55.654  1.00  0.00     0.293 HD
ENDBRANCH  15  18
BRANCH  17  20
ATOM     20  O   UNL     1      74.944  32.174  53.139  1.00  0.00    -0.507 OA
ATOM     21  H   UNL     1      74.368  31.365  52.944  1.00  0.00     0.293 HD
ENDBRANCH  17  20
ENDBRANCH   1  12
BRANCH   2  22
ATOM     22  O   UNL     1      74.978  36.125  50.794  1.00  0.00    -0.502 OA
ATOM     23  H   UNL     1      74.976  36.808  50.046  1.00  0.00     0.293 HD
ENDBRANCH   2  22
BRANCH   6  24
ATOM     24  O   UNL     1      79.767  35.122  48.680  1.00  0.00    -0.507 OA
ATOM     25  H   UNL     1      79.015  35.508  48.129  1.00  0.00     0.293 HD
ENDBRANCH   6  24
BRANCH   8  26
ATOM     26  O   UNL     1      81.808  32.744  52.319  1.00  0.00    -0.508 OA
ATOM     27  H   UNL     1      81.859  31.734  52.381  1.00  0.00     0.293 HD
ENDBRANCH   8  26
TORSDOF 6
ENDMDL
MODEL 2
REMARK VINA RESULT:    -2.120      1.489      3.239
REMARK INTER + INTRA:          -2.860
REMARK INTER:                  -3.471
REMARK INTRA:                   0.611
REMARK UNBOUND:                -0.306
REMARK SMILES O=c1c(O)c(-c2ccc(O)cc2O)oc2cc(O)cc(O)c12
REMARK SMILES IDX 5 1 3 2 2 3 1 4 22 5 20 6 19 7 17 8 16 9 15 10 14 11 6 12
REMARK SMILES IDX 8 13 7 14 9 15 11 16 12 17 10 18 13 20 4 22 21 24 18 26
REMARK H PARENT 10 19 13 21 4 23 21 25 18 27
REMARK Flexibility Score: inf
ROOT
ATOM      1  C   UNL     1      76.688  33.406  52.218  1.00  0.00     0.184 A 
ATOM      2  C   UNL     1      77.534  32.365  52.633  1.00  0.00     0.208 A 
ATOM      3  C   UNL     1      78.831  32.290  52.103  1.00  0.00     0.238 A 
ATOM      4  O   UNL     1      79.566  31.324  52.437  1.00  0.00    -0.285 OA
ATOM      5  C   UNL     1      79.271  33.267  51.177  1.00  0.00     0.111 A 
ATOM      6  C   UNL     1      80.578  33.313  50.606  1.00  0.00     0.134 A 
ATOM      7  C   UNL     1      80.862  34.249  49.604  1.00  0.00     0.093 A 
ATOM      8  C   UNL     1      79.906  35.182  49.198  1.00  0.00     0.123 A 
ATOM      9  C   UNL     1      78.646  35.184  49.791  1.00  0.00     0.094 A 
ATOM     10  C   UNL     1      78.321  34.240  50.769  1.00  0.00     0.146 A 
ATOM     11  O   UNL     1      77.105  34.270  51.300  1.00  0.00    -0.451 OA
ENDROOT
BRANCH   1  12
ATOM     12  C   UNL     1      75.318  33.552  52.750  1.00  0.00     0.063 A 
ATOM     13  C   UNL     1      73.516  32.664  54.121  1.00  0.00     0.047 A 
ATOM     14  C   UNL     1      74.811  32.560  53.606  1.00  0.00     0.020 A 
ATOM     15  C   UNL     1      72.707  33.753  53.778  1.00  0.00     0.119 A 
ATOM     16  C   UNL     1      73.195  34.733  52.907  1.00  0.00     0.093 A 
ATOM     17  C   UNL     1      74.491  34.633  52.379  1.00  0.00     0.130 A 
BRANCH  15  18
ATOM     18  O   UNL     1      71.417  33.869  54.289  1.00  0.00    -0.508 OA
ATOM     19  H   UNL     1      71.009  33.142  54.865  1.00  0.00     0.293 HD
ENDBRANCH  15  18
BRANCH  17  20
ATOM     20  O   UNL     1      74.947  35.592  51.474  1.00  0.00    -0.507 OA
ATOM     21  H   UNL     1      75.569  35.351  50.713  1.00  0.00     0.293 HD
ENDBRANCH  17  20
ENDBRANCH   1  12
BRANCH   2  22
ATOM     22  O   UNL     1      77.067  31.403  53.533  1.00  0.00    -0.502 OA
ATOM     23  H   UNL     1      77.675  30.707  53.947  1.00  0.00     0.293 HD
ENDBRANCH   2  22
BRANCH   6  24
ATOM     24  O   UNL     1      81.633  32.486  51.005  1.00  0.00    -0.507 OA
ATOM     25  H   UNL     1      82.581  32.563  50.670  1.00  0.00     0.293 HD
ENDBRANCH   6  24
BRANCH   8  26
ATOM     26  O   UNL     1      80.202  36.120  48.211  1.00  0.00    -0.508 OA
ATOM     27  H   UNL     1      80.218  35.869  47.229  1.00  0.00     0.293 HD
ENDBRANCH   8  26
TORSDOF 6
ENDMDL
MODEL 3
REMARK VINA RESULT:    -1.996      1.440      2.003
REMARK INTER + INTRA:          -2.711
REMARK INTER:                  -2.517
REMARK INTRA:                  -0.194
REMARK UNBOUND:                -0.306
REMARK SMILES O=c1c(O)c(-c2ccc(O)cc2O)oc2cc(O)cc(O)c12
REMARK SMILES IDX 5 1 3 2 2 3 1 4 22 5 20 6 19 7 17 8 16 9 15 10 14 11 6 12
REMARK SMILES IDX 8 13 7 14 9 15 11 16 12 17 10 18 13 20 4 22 21 24 18 26
REMARK H PARENT 10 19 13 21 4 23 21 25 18 27
REMARK Flexibility Score: inf
ROOT
ATOM      1  C   UNL     1      75.198  34.052  53.063  1.00  0.00     0.184 A 
ATOM      2  C   UNL     1      75.382  35.110  52.158  1.00  0.00     0.208 A 
ATOM      3  C   UNL     1      76.552  35.146  51.383  1.00  0.00     0.238 A 
ATOM      4  O   UNL     1      76.737  36.125  50.614  1.00  0.00    -0.285 OA
ATOM      5  C   UNL     1      77.514  34.115  51.512  1.00  0.00     0.111 A 
ATOM      6  C   UNL     1      78.717  34.029  50.749  1.00  0.00     0.134 A 
ATOM      7  C   UNL     1      79.657  33.036  51.051  1.00  0.00     0.093 A 
ATOM      8  C   UNL     1      79.409  32.088  52.045  1.00  0.00     0.123 A 
ATOM      9  C   UNL     1      78.212  32.127  52.756  1.00  0.00     0.094 A 
ATOM     10  C   UNL     1      77.270  33.127  52.501  1.00  0.00     0.146 A 
ATOM     11  O   UNL     1      76.147  33.135  53.210  1.00  0.00    -0.451 OA
ENDROOT
BRANCH   1  12
ATOM     12  C   UNL     1      73.982  33.946  53.895  1.00  0.00     0.063 A 
ATOM     13  C   UNL     1      71.959  32.725  54.471  1.00  0.00     0.047 A 
ATOM     14  C   UNL     1      73.121  32.853  53.705  1.00  0.00     0.020 A 
ATOM     15  C   UNL     1      71.637  33.694  55.428  1.00  0.00     0.119 A 
ATOM     16  C   UNL     1      72.477  34.798  55.608  1.00  0.00     0.093 A 
ATOM     17  C   UNL     1      73.641  34.938  54.838  1.00  0.00     0.130 A 
BRANCH  15  18
ATOM     18  O   UNL     1      70.484  33.575  56.200  1.00  0.00    -0.508 OA
ATOM     19  H   UNL     1      69.758  32.908  55.967  1.00  0.00     0.293 HD
ENDBRANCH  15  18
BRANCH  17  20
ATOM     20  O   UNL     1      74.444  36.068  54.994  1.00  0.00    -0.507 OA
ATOM     21  H   UNL     1      74.096  36.999  54.798  1.00  0.00     0.293 HD
ENDBRANCH  17  20
ENDBRANCH   1  12
BRANCH   2  22
ATOM     22  O   UNL     1      74.425  36.125  52.065  1.00  0.00    -0.502 OA
ATOM     23  H   UNL     1      74.662  37.071  51.793  1.00  0.00     0.293 HD
ENDBRANCH   2  22
BRANCH   6  24
ATOM     24  O   UNL     1      79.021  34.870  49.674  1.00  0.00    -0.507 OA
ATOM     25  H   UNL     1      79.123  34.566  48.718  1.00  0.00     0.293 HD
ENDBRANCH   6  24
BRANCH   8  26
ATOM     26  O   UNL     1      80.343  31.093  52.329  1.00  0.00    -0.508 OA
ATOM     27  H   UNL     1      80.176  30.124  52.084  1.00  0.00     0.293 HD
ENDBRANCH   8  26
TORSDOF 6
ENDMDL
MODEL 4
REMARK VINA RESULT:    -1.755      1.522      6.305
REMARK INTER + INTRA:          -2.421
REMARK INTER:                  -2.278
REMARK INTRA:                  -0.143
REMARK UNBOUND:                -0.306
REMARK SMILES O=c1c(O)c(-c2ccc(O)cc2O)oc2cc(O)cc(O)c12
REMARK SMILES IDX 5 1 3 2 2 3 1 4 22 5 20 6 19 7 17 8 16 9 15 10 14 11 6 12
REMARK SMILES IDX 8 13 7 14 9 15 11 16 12 17 10 18 13 20 4 22 21 24 18 26
REMARK H PARENT 10 19 13 21 4 23 21 25 18 27
REMARK Flexibility Score: inf
ROOT
ATOM      1  C   UNL     1      76.834  34.038  52.113  1.00  0.00     0.184 A 
ATOM      2  C   UNL     1      76.311  34.996  51.230  1.00  0.00     0.208 A 
ATOM      3  C   UNL     1      74.942  35.303  51.292  1.00  0.00     0.238 A 
ATOM      4  O   UNL     1      74.468  36.121  50.462  1.00  0.00    -0.285 OA
ATOM      5  C   UNL     1      74.119  34.659  52.248  1.00  0.00     0.111 A 
ATOM      6  C   UNL     1      72.728  34.921  52.428  1.00  0.00     0.134 A 
ATOM      7  C   UNL     1      71.986  34.134  53.316  1.00  0.00     0.093 A 
ATOM      8  C   UNL     1      72.597  33.136  54.078  1.00  0.00     0.123 A 
ATOM      9  C   UNL     1      73.966  32.912  53.954  1.00  0.00     0.094 A 
ATOM     10  C   UNL     1      74.727  33.658  53.050  1.00  0.00     0.146 A 
ATOM     11  O   UNL     1      76.027  33.404  52.955  1.00  0.00    -0.451 OA
ENDROOT
BRANCH   1  12
ATOM     12  C   UNL     1      78.268  33.682  52.112  1.00  0.00     0.063 A 
ATOM     13  C   UNL     1      80.589  34.408  52.065  1.00  0.00     0.047 A 
ATOM     14  C   UNL     1      79.224  34.711  52.074  1.00  0.00     0.020 A 
ATOM     15  C   UNL     1      81.014  33.075  52.080  1.00  0.00     0.119 A 
ATOM     16  C   UNL     1      80.069  32.045  52.094  1.00  0.00     0.093 A 
ATOM     17  C   UNL     1      78.697  32.339  52.096  1.00  0.00     0.130 A 
BRANCH  15  18
ATOM     18  O   UNL     1      82.372  32.763  52.075  1.00  0.00    -0.508 OA
ATOM     19  H   UNL     1      82.833  32.399  52.900  1.00  0.00     0.293 HD
ENDBRANCH  15  18
BRANCH  17  20
ATOM     20  O   UNL     1      77.766  31.301  52.061  1.00  0.00    -0.507 OA
ATOM     21  H   UNL     1      77.658  30.657  52.835  1.00  0.00     0.293 HD
ENDBRANCH  17  20
ENDBRANCH   1  12
BRANCH   2  22
ATOM     22  O   UNL     1      77.142  35.601  50.283  1.00  0.00    -0.502 OA
ATOM     23  H   UNL     1      78.148  35.484  50.290  1.00  0.00     0.293 HD
ENDBRANCH   2  22
BRANCH   6  24
ATOM     24  O   UNL     1      72.039  35.954  51.783  1.00  0.00    -0.507 OA
ATOM     25  H   UNL     1      72.306  36.357  50.898  1.00  0.00     0.293 HD
ENDBRANCH   6  24
BRANCH   8  26
ATOM     26  O   UNL     1      71.854  32.367  54.972  1.00  0.00    -0.508 OA
ATOM     27  H   UNL     1      71.260  32.795  55.672  1.00  0.00     0.293 HD
ENDBRANCH   8  26
TORSDOF 6
ENDMDL
MODEL 5
REMARK VINA RESULT:    -1.642     13.422     15.716
REMARK INTER + INTRA:          -2.284
REMARK INTER:                  -2.138
REMARK INTRA:                  -0.145
REMARK UNBOUND:                -0.306
REMARK SMILES O=c1c(O)c(-c2ccc(O)cc2O)oc2cc(O)cc(O)c12
REMARK SMILES IDX 5 1 3 2 2 3 1 4 22 5 20 6 19 7 17 8 16 9 15 10 14 11 6 12
REMARK SMILES IDX 8 13 7 14 9 15 11 16 12 17 10 18 13 20 4 22 21 24 18 26
REMARK H PARENT 10 19 13 21 4 23 21 25 18 27
REMARK Flexibility Score: inf
ROOT
ATOM      1  C   UNL     1      85.522  31.498  64.473  1.00  0.00     0.184 A 
ATOM      2  C   UNL     1      86.523  31.966  65.339  1.00  0.00     0.208 A 
ATOM      3  C   UNL     1      87.047  33.253  65.141  1.00  0.00     0.238 A 
ATOM      4  O   UNL     1      87.983  33.646  65.886  1.00  0.00    -0.285 OA
ATOM      5  C   UNL     1      86.550  34.061  64.090  1.00  0.00     0.111 A 
ATOM      6  C   UNL     1      86.978  35.396  63.822  1.00  0.00     0.134 A 
ATOM      7  C   UNL     1      86.511  36.055  62.679  1.00  0.00     0.093 A 
ATOM      8  C   UNL     1      85.582  35.452  61.829  1.00  0.00     0.123 A 
ATOM      9  C   UNL     1      85.112  34.172  62.114  1.00  0.00     0.094 A 
ATOM     10  C   UNL     1      85.586  33.475  63.229  1.00  0.00     0.146 A 
ATOM     11  O   UNL     1      85.121  32.253  63.457  1.00  0.00    -0.451 OA
ENDROOT
BRANCH   1  12
ATOM     12  C   UNL     1      84.916  30.161  64.637  1.00  0.00     0.063 A 
ATOM     13  C   UNL     1      85.219  27.768  64.950  1.00  0.00     0.047 A 
ATOM     14  C   UNL     1      85.759  29.049  64.799  1.00  0.00     0.020 A 
ATOM     15  C   UNL     1      83.832  27.582  64.927  1.00  0.00     0.119 A 
ATOM     16  C   UNL     1      82.987  28.680  64.743  1.00  0.00     0.093 A 
ATOM     17  C   UNL     1      83.520  29.968  64.584  1.00  0.00     0.130 A 
BRANCH  15  18
ATOM     18  O   UNL     1      83.284  26.311  65.081  1.00  0.00    -0.508 OA
ATOM     19  H   UNL     1      83.491  25.562  64.431  1.00  0.00     0.293 HD
ENDBRANCH  15  18
BRANCH  17  20
ATOM     20  O   UNL     1      82.668  31.048  64.353  1.00  0.00    -0.507 OA
ATOM     21  H   UNL     1      82.194  31.171  63.466  1.00  0.00     0.293 HD
ENDBRANCH  17  20
ENDBRANCH   1  12
BRANCH   2  22
ATOM     22  O   UNL     1      87.009  31.139  66.356  1.00  0.00    -0.502 OA
ATOM     23  H   UNL     1      87.717  31.445  67.013  1.00  0.00     0.293 HD
ENDBRANCH   2  22
BRANCH   6  24
ATOM     24  O   UNL     1      87.833  36.123  64.656  1.00  0.00    -0.507 OA
ATOM     25  H   UNL     1      88.299  36.979  64.395  1.00  0.00     0.293 HD
ENDBRANCH   6  24
BRANCH   8  26
ATOM     26  O   UNL     1      85.110  36.121  60.701  1.00  0.00    -0.508 OA
ATOM     27  H   UNL     1      84.839  35.620  59.862  1.00  0.00     0.293 HD
ENDBRANCH   8  26
TORSDOF 6
ENDMDL
MODEL 6
REMARK VINA RESULT:    -1.622      1.727      2.464
REMARK INTER + INTRA:          -2.260
REMARK INTER:                  -1.845
REMARK INTRA:                  -0.415
REMARK UNBOUND:                -0.306
REMARK SMILES O=c1c(O)c(-c2ccc(O)cc2O)oc2cc(O)cc(O)c12
REMARK SMILES IDX 5 1 3 2 2 3 1 4 22 5 20 6 19 7 17 8 16 9 15 10 14 11 6 12
REMARK SMILES IDX 8 13 7 14 9 15 11 16 12 17 10 18 13 20 4 22 21 24 18 26
REMARK H PARENT 10 19 13 21 4 23 21 25 18 27
REMARK Flexibility Score: inf
ROOT
ATOM      1  C   UNL     1      74.274  34.831  53.284  1.00  0.00     0.184 A 
ATOM      2  C   UNL     1      73.755  35.290  52.062  1.00  0.00     0.208 A 
ATOM      3  C   UNL     1      74.644  35.648  51.037  1.00  0.00     0.238 A 
ATOM      4  O   UNL     1      74.175  36.109  49.964  1.00  0.00    -0.285 OA
ATOM      5  C   UNL     1      76.040  35.527  51.242  1.00  0.00     0.111 A 
ATOM      6  C   UNL     1      77.032  35.823  50.260  1.00  0.00     0.134 A 
ATOM      7  C   UNL     1      78.387  35.791  50.614  1.00  0.00     0.093 A 
ATOM      8  C   UNL     1      78.787  35.411  51.897  1.00  0.00     0.123 A 
ATOM      9  C   UNL     1      77.829  35.063  52.846  1.00  0.00     0.094 A 
ATOM     10  C   UNL     1      76.468  35.120  52.533  1.00  0.00     0.146 A 
ATOM     11  O   UNL     1      75.588  34.791  53.471  1.00  0.00    -0.451 OA
ENDROOT
BRANCH   1  12
ATOM     12  C   UNL     1      73.393  34.423  54.397  1.00  0.00     0.063 A 
ATOM     13  C   UNL     1      71.904  35.062  56.210  1.00  0.00     0.047 A 
ATOM     14  C   UNL     1      72.739  35.414  55.147  1.00  0.00     0.020 A 
ATOM     15  C   UNL     1      71.721  33.716  56.546  1.00  0.00     0.119 A 
ATOM     16  C   UNL     1      72.386  32.723  55.820  1.00  0.00     0.093 A 
ATOM     17  C   UNL     1      73.232  33.068  54.755  1.00  0.00     0.130 A 
BRANCH  15  18
ATOM     18  O   UNL     1      70.887  33.354  57.601  1.00  0.00    -0.508 OA
ATOM     19  H   UNL     1      71.047  33.692  58.542  1.00  0.00     0.293 HD
ENDBRANCH  15  18
BRANCH  17  20
ATOM     20  O   UNL     1      73.927  32.070  54.071  1.00  0.00    -0.507 OA
ATOM     21  H   UNL     1      74.290  32.220  53.137  1.00  0.00     0.293 HD
ENDBRANCH  17  20
ENDBRANCH   1  12
BRANCH   2  22
ATOM     22  O   UNL     1      72.373  35.417  51.894  1.00  0.00    -0.502 OA
ATOM     23  H   UNL     1      71.741  34.630  51.975  1.00  0.00     0.293 HD
ENDBRANCH   2  22
BRANCH   6  24
ATOM     24  O   UNL     1      76.743  36.125  48.925  1.00  0.00    -0.507 OA
ATOM     25  H   UNL     1      76.333  36.990  48.608  1.00  0.00     0.293 HD
ENDBRANCH   6  24
BRANCH   8  26
ATOM     26  O   UNL     1      80.137  35.367  52.237  1.00  0.00    -0.508 OA
ATOM     27  H   UNL     1      80.847  35.782  51.644  1.00  0.00     0.293 HD
ENDBRANCH   8  26
TORSDOF 6
ENDMDL
