MODEL 1
REMARK VINA RESULT:    -3.910      0.000      0.000
REMARK INTER + INTRA:          -6.868
REMARK INTER:                  -6.196
REMARK INTRA:                  -0.672
REMARK UNBOUND:                -0.672
REMARK SMILES CCCCCCCCCCCC(=O)[O-]
REMARK SMILES IDX 7 1 8 2 9 3 10 4 11 5 12 6 13 7 14 8 6 9 5 10 4 11 3 12 2 13
REMARK SMILES IDX 1 14
REMARK H PARENT
REMARK Flexibility Score: inf
ROOT
ATOM      1  C   UNL     1      11.636  -9.968  16.576  1.00  0.00     0.000 C 
ENDROOT
BRANCH   1   2
ATOM      2  C   UNL     1      12.000 -10.397  15.147  1.00  0.00     0.000 C 
BRANCH   2   3
ATOM      3  C   UNL     1      10.767 -10.726  14.286  1.00  0.00     0.000 C 
BRANCH   3   4
ATOM      4  C   UNL     1      10.956 -10.524  12.770  1.00  0.00     0.006 C 
BRANCH   4   5
ATOM      5  C   UNL     1      10.519  -9.144  12.250  1.00  0.00     0.053 C 
BRANCH   5   6
ATOM      6  C   UNL     1       9.440  -9.250  11.217  1.00  0.00     0.041 C 
ATOM      7  O   UNL     1       8.382  -9.885  11.469  1.00  0.00    -0.550 OA
ATOM      8  O   UNL     1       9.587  -8.618   9.989  1.00  0.00    -0.550 OA
ENDBRANCH   5   6
ENDBRANCH   4   5
ENDBRANCH   3   4
ENDBRANCH   2   3
ENDBRANCH   1   2
BRANCH   1   9
ATOM      9  C   UNL     1      12.811 -10.205  17.536  1.00  0.00     0.000 C 
BRANCH   9  10
ATOM     10  C   UNL     1      12.476 -11.199  18.662  1.00  0.00    -0.000 C 
BRANCH  10  11
ATOM     11  C   UNL     1      11.459 -12.291  18.284  1.00  0.00    -0.000 C 
BRANCH  11  12
ATOM     12  C   UNL     1      10.576 -12.723  19.464  1.00  0.00    -0.000 C 
BRANCH  12  13
ATOM     13  C   UNL     1       9.730 -11.551  19.975  1.00  0.00    -0.003 C 
ATOM     14  C   UNL     1       8.655 -11.165  18.963  1.00  0.00     0.004 C 
ENDBRANCH  12  13
ENDBRANCH  11  12
ENDBRANCH  10  11
ENDBRANCH   9  10
ENDBRANCH   1   9
TORSDOF 10
ENDMDL
MODEL 2
REMARK VINA RESULT:    -3.767      1.682      2.589
REMARK INTER + INTRA:          -6.641
REMARK INTER:                  -6.048
REMARK INTRA:                  -0.593
REMARK UNBOUND:                -0.672
REMARK SMILES CCCCCCCCCCCC(=O)[O-]
REMARK SMILES IDX 7 1 8 2 9 3 10 4 11 5 12 6 13 7 14 8 6 9 5 10 4 11 3 12 2 13
REMARK SMILES IDX 1 14
REMARK H PARENT
REMARK Flexibility Score: inf
ROOT
ATOM      1  C   UNL     1      11.957 -10.136  16.574  1.00  0.00     0.000 C 
ENDROOT
BRANCH   1   2
ATOM      2  C   UNL     1      11.867 -11.118  15.397  1.00  0.00     0.000 C 
BRANCH   2   3
ATOM      3  C   UNL     1      10.766 -10.746  14.388  1.00  0.00     0.000 C 
BRANCH   3   4
ATOM      4  C   UNL     1      11.271 -10.368  12.980  1.00  0.00     0.006 C 
BRANCH   4   5
ATOM      5  C   UNL     1      10.703  -9.050  12.431  1.00  0.00     0.053 C 
BRANCH   5   6
ATOM      6  C   UNL     1       9.619  -9.282  11.424  1.00  0.00     0.041 C 
ATOM      7  O   UNL     1       9.686  -8.745  10.287  1.00  0.00    -0.550 OA
ATOM      8  O   UNL     1       8.554 -10.120  11.728  1.00  0.00    -0.550 OA
ENDBRANCH   5   6
ENDBRANCH   4   5
ENDBRANCH   3   4
ENDBRANCH   2   3
ENDBRANCH   1   2
BRANCH   1   9
ATOM      9  C   UNL     1      13.324 -10.235  17.267  1.00  0.00     0.000 C 
BRANCH   9  10
ATOM     10  C   UNL     1      13.214 -10.367  18.797  1.00  0.00    -0.000 C 
BRANCH  10  11
ATOM     11  C   UNL     1      13.645 -11.732  19.364  1.00  0.00    -0.000 C 
BRANCH  11  12
ATOM     12  C   UNL     1      12.719 -12.880  18.934  1.00  0.00    -0.000 C 
BRANCH  12  13
ATOM     13  C   UNL     1      13.383 -13.748  17.860  1.00  0.00    -0.003 C 
ATOM     14  C   UNL     1      14.610 -14.467  18.413  1.00  0.00     0.004 C 
ENDBRANCH  12  13
ENDBRANCH  11  12
ENDBRANCH  10  11
ENDBRANCH   9  10
ENDBRANCH   1   9
TORSDOF 10
ENDMDL
MODEL 3
REMARK VINA RESULT:    -3.747      1.306      1.983
REMARK INTER + INTRA:          -6.610
REMARK INTER:                  -6.319
REMARK INTRA:                  -0.291
REMARK UNBOUND:                -0.672
REMARK SMILES CCCCCCCCCCCC(=O)[O-]
REMARK SMILES IDX 7 1 8 2 9 3 10 4 11 5 12 6 13 7 14 8 6 9 5 10 4 11 3 12 2 13
REMARK SMILES IDX 1 14
REMARK H PARENT
REMARK Flexibility Score: inf
ROOT
ATOM      1  C   UNL     1      11.713 -10.369  16.415  1.00  0.00     0.000 C 
ENDROOT
BRANCH   1   2
ATOM      2  C   UNL     1      11.122 -11.009  15.150  1.00  0.00     0.000 C 
BRANCH   2   3
ATOM      3  C   UNL     1      11.499 -10.252  13.863  1.00  0.00     0.000 C 
BRANCH   3   4
ATOM      4  C   UNL     1      10.454 -10.329  12.731  1.00  0.00     0.006 C 
BRANCH   4   5
ATOM      5  C   UNL     1      10.413  -9.094  11.816  1.00  0.00     0.053 C 
BRANCH   5   6
ATOM      6  C   UNL     1       9.257  -9.139  10.865  1.00  0.00     0.041 C 
ATOM      7  O   UNL     1       8.239  -9.827  11.139  1.00  0.00    -0.550 OA
ATOM      8  O   UNL     1       9.290  -8.393   9.694  1.00  0.00    -0.550 OA
ENDBRANCH   5   6
ENDBRANCH   4   5
ENDBRANCH   3   4
ENDBRANCH   2   3
ENDBRANCH   1   2
BRANCH   1   9
ATOM      9  C   UNL     1      12.284 -11.441  17.356  1.00  0.00     0.000 C 
BRANCH   9  10
ATOM     10  C   UNL     1      11.192 -12.216  18.116  1.00  0.00    -0.000 C 
BRANCH  10  11
ATOM     11  C   UNL     1      11.670 -12.926  19.395  1.00  0.00    -0.000 C 
BRANCH  11  12
ATOM     12  C   UNL     1      10.521 -13.544  20.204  1.00  0.00    -0.000 C 
BRANCH  12  13
ATOM     13  C   UNL     1      10.810 -15.013  20.535  1.00  0.00    -0.003 C 
ATOM     14  C   UNL     1      11.928 -15.566  19.657  1.00  0.00     0.004 C 
ENDBRANCH  12  13
ENDBRANCH  11  12
ENDBRANCH  10  11
ENDBRANCH   9  10
ENDBRANCH   1   9
TORSDOF 10
ENDMDL
MODEL 4
REMARK VINA RESULT:    -3.607      4.352      6.926
REMARK INTER + INTRA:          -6.388
REMARK INTER:                  -5.599
REMARK INTRA:                  -0.789
REMARK UNBOUND:                -0.672
REMARK SMILES CCCCCCCCCCCC(=O)[O-]
REMARK SMILES IDX 7 1 8 2 9 3 10 4 11 5 12 6 13 7 14 8 6 9 5 10 4 11 3 12 2 13
REMARK SMILES IDX 1 14
REMARK H PARENT
REMARK Flexibility Score: inf
ROOT
ATOM      1  C   UNL     1      11.750  -9.816  17.196  1.00  0.00     0.000 C 
ENDROOT
BRANCH   1   2
ATOM      2  C   UNL     1      12.630 -10.561  18.210  1.00  0.00     0.000 C 
BRANCH   2   3
ATOM      3  C   UNL     1      13.897 -11.164  17.576  1.00  0.00     0.000 C 
BRANCH   3   4
ATOM      4  C   UNL     1      14.071 -12.682  17.780  1.00  0.00     0.006 C 
BRANCH   4   5
ATOM      5  C   UNL     1      12.758 -13.482  17.766  1.00  0.00     0.053 C 
BRANCH   5   6
ATOM      6  C   UNL     1      12.530 -14.209  19.055  1.00  0.00     0.041 C 
ATOM      7  O   UNL     1      11.603 -13.850  19.829  1.00  0.00    -0.550 OA
ATOM      8  O   UNL     1      13.317 -15.304  19.387  1.00  0.00    -0.550 OA
ENDBRANCH   5   6
ENDBRANCH   4   5
ENDBRANCH   3   4
ENDBRANCH   2   3
ENDBRANCH   1   2
BRANCH   1   9
ATOM      9  C   UNL     1      11.956 -10.372  15.779  1.00  0.00     0.000 C 
BRANCH   9  10
ATOM     10  C   UNL     1      10.845 -11.346  15.348  1.00  0.00    -0.000 C 
BRANCH  10  11
ATOM     11  C   UNL     1      10.164 -11.005  14.010  1.00  0.00    -0.000 C 
BRANCH  11  12
ATOM     12  C   UNL     1      11.090 -10.257  13.039  1.00  0.00    -0.000 C 
BRANCH  12  13
ATOM     13  C   UNL     1      10.278  -9.473  12.001  1.00  0.00    -0.003 C 
ATOM     14  C   UNL     1       8.929 -10.136  11.741  1.00  0.00     0.004 C 
ENDBRANCH  12  13
ENDBRANCH  11  12
ENDBRANCH  10  11
ENDBRANCH   9  10
ENDBRANCH   1   9
TORSDOF 10
ENDMDL
MODEL 5
REMARK VINA RESULT:    -3.545      5.175      7.004
REMARK INTER + INTRA:          -6.289
REMARK INTER:                  -4.885
REMARK INTRA:                  -1.405
REMARK UNBOUND:                -0.672
REMARK SMILES CCCCCCCCCCCC(=O)[O-]
REMARK SMILES IDX 7 1 8 2 9 3 10 4 11 5 12 6 13 7 14 8 6 9 5 10 4 11 3 12 2 13
REMARK SMILES IDX 1 14
REMARK H PARENT
REMARK Flexibility Score: inf
ROOT
ATOM      1  C   UNL     1      10.961 -11.393  16.890  1.00  0.00     0.000 C 
ENDROOT
BRANCH   1   2
ATOM      2  C   UNL     1      10.171 -11.227  18.195  1.00  0.00     0.000 C 
BRANCH   2   3
ATOM      3  C   UNL     1      10.439 -12.356  19.207  1.00  0.00     0.000 C 
BRANCH   3   4
ATOM      4  C   UNL     1      11.658 -13.244  18.886  1.00  0.00     0.006 C 
BRANCH   4   5
ATOM      5  C   UNL     1      12.191 -14.052  20.080  1.00  0.00     0.053 C 
BRANCH   5   6
ATOM      6  C   UNL     1      11.102 -14.810  20.775  1.00  0.00     0.041 C 
ATOM      7  O   UNL     1      10.601 -15.833  20.239  1.00  0.00    -0.550 OA
ATOM      8  O   UNL     1      10.665 -14.408  22.030  1.00  0.00    -0.550 OA
ENDBRANCH   5   6
ENDBRANCH   4   5
ENDBRANCH   3   4
ENDBRANCH   2   3
ENDBRANCH   1   2
BRANCH   1   9
ATOM      9  C   UNL     1      12.000 -10.272  16.732  1.00  0.00     0.000 C 
BRANCH   9  10
ATOM     10  C   UNL     1      13.443 -10.752  16.970  1.00  0.00    -0.000 C 
BRANCH  10  11
ATOM     11  C   UNL     1      14.180 -10.045  18.122  1.00  0.00    -0.000 C 
BRANCH  11  12
ATOM     12  C   UNL     1      13.232  -9.314  19.084  1.00  0.00    -0.000 C 
BRANCH  12  13
ATOM     13  C   UNL     1      13.504  -9.720  20.537  1.00  0.00    -0.003 C 
ATOM     14  C   UNL     1      14.245 -11.051  20.609  1.00  0.00     0.004 C 
ENDBRANCH  12  13
ENDBRANCH  11  12
ENDBRANCH  10  11
ENDBRANCH   9  10
ENDBRANCH   1   9
TORSDOF 10
ENDMDL
MODEL 6
REMARK VINA RESULT:    -3.526      4.422      6.008
REMARK INTER + INTRA:          -6.259
REMARK INTER:                  -4.551
REMARK INTRA:                  -1.708
REMARK UNBOUND:                -0.672
REMARK SMILES CCCCCCCCCCCC(=O)[O-]
REMARK SMILES IDX 7 1 8 2 9 3 10 4 11 5 12 6 13 7 14 8 6 9 5 10 4 11 3 12 2 13
REMARK SMILES IDX 1 14
REMARK H PARENT
REMARK Flexibility Score: inf
ROOT
ATOM      1  C   UNL     1      13.888 -10.473  20.560  1.00  0.00     0.000 C 
ENDROOT
BRANCH   1   2
ATOM      2  C   UNL     1      12.780 -11.526  20.708  1.00  0.00     0.000 C 
BRANCH   2   3
ATOM      3  C   UNL     1      13.307 -12.969  20.609  1.00  0.00     0.000 C 
BRANCH   3   4
ATOM      4  C   UNL     1      13.044 -13.670  19.261  1.00  0.00     0.006 C 
BRANCH   4   5
ATOM      5  C   UNL     1      14.278 -13.788  18.352  1.00  0.00     0.053 C 
BRANCH   5   6
ATOM      6  C   UNL     1      13.901 -14.012  16.920  1.00  0.00     0.041 C 
ATOM      7  O   UNL     1      12.743 -14.409  16.625  1.00  0.00    -0.550 OA
ATOM      8  O   UNL     1      14.816 -13.750  15.910  1.00  0.00    -0.550 OA
ENDBRANCH   5   6
ENDBRANCH   4   5
ENDBRANCH   3   4
ENDBRANCH   2   3
ENDBRANCH   1   2
BRANCH   1   9
ATOM      9  C   UNL     1      13.627  -9.570  19.345  1.00  0.00     0.000 C 
BRANCH   9  10
ATOM     10  C   UNL     1      14.237 -10.121  18.044  1.00  0.00    -0.000 C 
BRANCH  10  11
ATOM     11  C   UNL     1      13.218 -10.468  16.944  1.00  0.00    -0.000 C 
BRANCH  11  12
ATOM     12  C   UNL     1      11.771 -10.146  17.343  1.00  0.00    -0.000 C 
BRANCH  12  13
ATOM     13  C   UNL     1      10.879 -11.387  17.226  1.00  0.00    -0.003 C 
ATOM     14  C   UNL     1       9.905 -11.478  18.396  1.00  0.00     0.004 C 
ENDBRANCH  12  13
ENDBRANCH  11  12
ENDBRANCH  10  11
ENDBRANCH   9  10
ENDBRANCH   1   9
TORSDOF 10
ENDMDL
MODEL 7
REMARK VINA RESULT:    -3.519      4.318      6.427
REMARK INTER + INTRA:          -6.249
REMARK INTER:                  -4.539
REMARK INTRA:                  -1.710
REMARK UNBOUND:                -0.672
REMARK SMILES CCCCCCCCCCCC(=O)[O-]
REMARK SMILES IDX 7 1 8 2 9 3 10 4 11 5 12 6 13 7 14 8 6 9 5 10 4 11 3 12 2 13
REMARK SMILES IDX 1 14
REMARK H PARENT
REMARK Flexibility Score: inf
ROOT
ATOM      1  C   UNL     1       9.869 -11.301  18.741  1.00  0.00     0.000 C 
ENDROOT
BRANCH   1   2
ATOM      2  C   UNL     1      10.586 -11.929  19.945  1.00  0.00     0.000 C 
BRANCH   2   3
ATOM      3  C   UNL     1      10.969 -13.402  19.715  1.00  0.00     0.000 C 
BRANCH   3   4
ATOM      4  C   UNL     1      12.438 -13.751  20.027  1.00  0.00     0.006 C 
BRANCH   4   5
ATOM      5  C   UNL     1      13.356 -13.811  18.795  1.00  0.00     0.053 C 
BRANCH   5   6
ATOM      6  C   UNL     1      12.838 -14.756  17.756  1.00  0.00     0.041 C 
ATOM      7  O   UNL     1      12.575 -14.341  16.597  1.00  0.00    -0.550 OA
ATOM      8  O   UNL     1      12.678 -16.103  18.056  1.00  0.00    -0.550 OA
ENDBRANCH   5   6
ENDBRANCH   4   5
ENDBRANCH   3   4
ENDBRANCH   2   3
ENDBRANCH   1   2
BRANCH   1   9
ATOM      9  C   UNL     1      10.678 -11.512  17.451  1.00  0.00     0.000 C 
BRANCH   9  10
ATOM     10  C   UNL     1      11.668 -10.368  17.169  1.00  0.00    -0.000 C 
BRANCH  10  11
ATOM     11  C   UNL     1      13.108 -10.817  16.860  1.00  0.00    -0.000 C 
BRANCH  11  12
ATOM     12  C   UNL     1      14.150 -10.173  17.786  1.00  0.00    -0.000 C 
BRANCH  12  13
ATOM     13  C   UNL     1      13.488  -9.607  19.048  1.00  0.00    -0.003 C 
ATOM     14  C   UNL     1      13.920 -10.378  20.290  1.00  0.00     0.004 C 
ENDBRANCH  12  13
ENDBRANCH  11  12
ENDBRANCH  10  11
ENDBRANCH   9  10
ENDBRANCH   1   9
TORSDOF 10
ENDMDL
MODEL 8
REMARK VINA RESULT:    -3.504      5.235      7.244
REMARK INTER + INTRA:          -6.224
REMARK INTER:                  -4.721
REMARK INTRA:                  -1.502
REMARK UNBOUND:                -0.672
REMARK SMILES CCCCCCCCCCCC(=O)[O-]
REMARK SMILES IDX 7 1 8 2 9 3 10 4 11 5 12 6 13 7 14 8 6 9 5 10 4 11 3 12 2 13
REMARK SMILES IDX 1 14
REMARK H PARENT
REMARK Flexibility Score: inf
ROOT
ATOM      1  C   UNL     1      13.857  -9.995  18.289  1.00  0.00     0.000 C 
ENDROOT
BRANCH   1   2
ATOM      2  C   UNL     1      13.953 -10.595  19.699  1.00  0.00     0.000 C 
BRANCH   2   3
ATOM      3  C   UNL     1      12.593 -11.066  20.245  1.00  0.00     0.000 C 
BRANCH   3   4
ATOM      4  C   UNL     1      12.532 -12.552  20.654  1.00  0.00     0.006 C 
BRANCH   4   5
ATOM      5  C   UNL     1      11.283 -13.299  20.158  1.00  0.00     0.053 C 
BRANCH   5   6
ATOM      6  C   UNL     1      10.992 -14.515  20.983  1.00  0.00     0.041 C 
ATOM      7  O   UNL     1      11.136 -14.481  22.233  1.00  0.00    -0.550 OA
ATOM      8  O   UNL     1      10.530 -15.674  20.375  1.00  0.00    -0.550 OA
ENDBRANCH   5   6
ENDBRANCH   4   5
ENDBRANCH   3   4
ENDBRANCH   2   3
ENDBRANCH   1   2
BRANCH   1   9
ATOM      9  C   UNL     1      12.421  -9.543  17.983  1.00  0.00     0.000 C 
BRANCH   9  10
ATOM     10  C   UNL     1      11.914 -10.038  16.616  1.00  0.00    -0.000 C 
BRANCH  10  11
ATOM     11  C   UNL     1      12.544 -11.354  16.127  1.00  0.00    -0.000 C 
BRANCH  11  12
ATOM     12  C   UNL     1      11.737 -12.595  16.535  1.00  0.00    -0.000 C 
BRANCH  12  13
ATOM     13  C   UNL     1      12.657 -13.801  16.758  1.00  0.00    -0.003 C 
ATOM     14  C   UNL     1      14.098 -13.359  16.991  1.00  0.00     0.004 C 
ENDBRANCH  12  13
ENDBRANCH  11  12
ENDBRANCH  10  11
ENDBRANCH   9  10
ENDBRANCH   1   9
TORSDOF 10
ENDMDL
MODEL 9
REMARK VINA RESULT:    -3.469      4.366      4.895
REMARK INTER + INTRA:          -6.168
REMARK INTER:                  -4.615
REMARK INTRA:                  -1.553
REMARK UNBOUND:                -0.672
REMARK SMILES CCCCCCCCCCCC(=O)[O-]
REMARK SMILES IDX 7 1 8 2 9 3 10 4 11 5 12 6 13 7 14 8 6 9 5 10 4 11 3 12 2 13
REMARK SMILES IDX 1 14
REMARK H PARENT
REMARK Flexibility Score: inf
ROOT
ATOM      1  C   UNL     1      13.725  -9.889  18.677  1.00  0.00     0.000 C 
ENDROOT
BRANCH   1   2
ATOM      2  C   UNL     1      12.287  -9.503  18.301  1.00  0.00     0.000 C 
BRANCH   2   3
ATOM      3  C   UNL     1      11.926  -9.874  16.851  1.00  0.00     0.000 C 
BRANCH   3   4
ATOM      4  C   UNL     1      12.727 -11.052  16.260  1.00  0.00     0.006 C 
BRANCH   4   5
ATOM      5  C   UNL     1      12.103 -12.435  16.506  1.00  0.00     0.053 C 
BRANCH   5   6
ATOM      6  C   UNL     1      13.124 -13.441  16.939  1.00  0.00     0.041 C 
ATOM      7  O   UNL     1      14.301 -13.078  17.200  1.00  0.00    -0.550 OA
ATOM      8  O   UNL     1      12.768 -14.775  17.089  1.00  0.00    -0.550 OA
ENDBRANCH   5   6
ENDBRANCH   4   5
ENDBRANCH   3   4
ENDBRANCH   2   3
ENDBRANCH   1   2
BRANCH   1   9
ATOM      9  C   UNL     1      13.742 -10.804  19.911  1.00  0.00     0.000 C 
BRANCH   9  10
ATOM     10  C   UNL     1      12.332 -11.155  20.418  1.00  0.00    -0.000 C 
BRANCH  10  11
ATOM     11  C   UNL     1      11.972 -12.651  20.355  1.00  0.00    -0.000 C 
BRANCH  11  12
ATOM     12  C   UNL     1      10.575 -12.908  19.773  1.00  0.00    -0.000 C 
BRANCH  12  13
ATOM     13  C   UNL     1       9.664 -11.691  19.972  1.00  0.00    -0.003 C 
ATOM     14  C   UNL     1       8.622 -11.953  21.054  1.00  0.00     0.004 C 
ENDBRANCH  12  13
ENDBRANCH  11  12
ENDBRANCH  10  11
ENDBRANCH   9  10
ENDBRANCH   1   9
TORSDOF 10
ENDMDL
