MODEL 1
REMARK VINA RESULT:    -5.961      0.000      0.000
REMARK INTER + INTRA:          -7.136
REMARK INTER:                  -7.006
REMARK INTRA:                  -0.129
REMARK UNBOUND:                -0.129
REMARK SMILES O=C([O-])C=Cc1ccc(O)c(O)c1
REMARK SMILES IDX 6 1 13 2 7 3 11 4 8 5 9 6 5 7 4 8 2 9 1 10 3 11 12 12 10 14
REMARK H PARENT 12 13 10 15
REMARK Flexibility Score: inf
ROOT
ATOM      1  C   UNL     1     -24.166 -17.202 -13.962  1.00  0.00    -0.022 A 
ATOM      2  C   UNL     1     -22.932 -16.566 -14.180  1.00  0.00     0.058 A 
ATOM      3  C   UNL     1     -25.244 -16.907 -14.819  1.00  0.00     0.012 A 
ATOM      4  C   UNL     1     -22.766 -15.672 -15.248  1.00  0.00     0.157 A 
ATOM      5  C   UNL     1     -25.078 -16.015 -15.883  1.00  0.00     0.051 A 
ATOM      6  C   UNL     1     -23.841 -15.398 -16.102  1.00  0.00     0.157 A 
ENDROOT
BRANCH   1   7
ATOM      7  C   UNL     1     -24.292 -18.132 -12.811  1.00  0.00     0.010 C 
ATOM      8  C   UNL     1     -23.817 -17.869 -11.585  1.00  0.00     0.025 C 
BRANCH   8   9
ATOM      9  C   UNL     1     -23.970 -18.811 -10.464  1.00  0.00     0.064 C 
ATOM     10  O   UNL     1     -25.081 -19.349 -10.212  1.00  0.00    -0.545 OA
ATOM     11  O   UNL     1     -22.871 -19.113  -9.671  1.00  0.00    -0.545 OA
ENDBRANCH   8   9
ENDBRANCH   1   7
BRANCH   4  12
ATOM     12  O   UNL     1     -21.537 -15.052 -15.465  1.00  0.00    -0.504 OA
ATOM     13  H   UNL     1     -20.770 -15.537 -15.916  1.00  0.00     0.293 HD
ENDBRANCH   4  12
BRANCH   6  14
ATOM     14  O   UNL     1     -23.673 -14.510 -17.162  1.00  0.00    -0.504 OA
ATOM     15  H   UNL     1     -23.085 -13.689 -17.079  1.00  0.00     0.293 HD
ENDBRANCH   6  14
TORSDOF 4
ENDMDL
MODEL 2
REMARK VINA RESULT:    -5.292      1.038      1.961
REMARK INTER + INTRA:          -6.349
REMARK INTER:                  -6.215
REMARK INTRA:                  -0.134
REMARK UNBOUND:                -0.129
REMARK SMILES O=C([O-])C=Cc1ccc(O)c(O)c1
REMARK SMILES IDX 6 1 13 2 7 3 11 4 8 5 9 6 5 7 4 8 2 9 1 10 3 11 12 12 10 14
REMARK H PARENT 12 13 10 15
REMARK Flexibility Score: inf
ROOT
ATOM      1  C   UNL     1     -23.203 -16.486 -13.214  1.00  0.00    -0.022 A 
ATOM      2  C   UNL     1     -24.254 -16.716 -14.120  1.00  0.00     0.058 A 
ATOM      3  C   UNL     1     -22.202 -15.556 -13.556  1.00  0.00     0.012 A 
ATOM      4  C   UNL     1     -24.319 -16.015 -15.333  1.00  0.00     0.157 A 
ATOM      5  C   UNL     1     -22.269 -14.858 -14.766  1.00  0.00     0.051 A 
ATOM      6  C   UNL     1     -23.327 -15.083 -15.655  1.00  0.00     0.157 A 
ENDROOT
BRANCH   1   7
ATOM      7  C   UNL     1     -23.175 -17.262 -11.949  1.00  0.00     0.010 C 
ATOM      8  C   UNL     1     -24.100 -18.171 -11.611  1.00  0.00     0.025 C 
BRANCH   8   9
ATOM      9  C   UNL     1     -24.033 -18.930 -10.352  1.00  0.00     0.064 C 
ATOM     10  O   UNL     1     -25.068 -19.441  -9.842  1.00  0.00    -0.545 OA
ATOM     11  O   UNL     1     -22.811 -19.090  -9.714  1.00  0.00    -0.545 OA
ENDBRANCH   8   9
ENDBRANCH   1   7
BRANCH   4  12
ATOM     12  O   UNL     1     -25.368 -16.242 -16.222  1.00  0.00    -0.504 OA
ATOM     13  H   UNL     1     -25.649 -15.543 -16.900  1.00  0.00     0.293 HD
ENDBRANCH   4  12
BRANCH   6  14
ATOM     14  O   UNL     1     -23.395 -14.387 -16.860  1.00  0.00    -0.504 OA
ATOM     15  H   UNL     1     -24.275 -14.248 -17.343  1.00  0.00     0.293 HD
ENDBRANCH   6  14
TORSDOF 4
ENDMDL
MODEL 3
REMARK VINA RESULT:    -4.824      1.111      5.782
REMARK INTER + INTRA:          -5.799
REMARK INTER:                  -5.665
REMARK INTRA:                  -0.133
REMARK UNBOUND:                -0.129
REMARK SMILES O=C([O-])C=Cc1ccc(O)c(O)c1
REMARK SMILES IDX 6 1 13 2 7 3 11 4 8 5 9 6 5 7 4 8 2 9 1 10 3 11 12 12 10 14
REMARK H PARENT 12 13 10 15
REMARK Flexibility Score: inf
ROOT
ATOM      1  C   UNL     1     -23.873 -17.211 -13.450  1.00  0.00    -0.022 A 
ATOM      2  C   UNL     1     -23.109 -17.222 -12.271  1.00  0.00     0.058 A 
ATOM      3  C   UNL     1     -25.039 -17.999 -13.513  1.00  0.00     0.012 A 
ATOM      4  C   UNL     1     -23.512 -17.984 -11.164  1.00  0.00     0.157 A 
ATOM      5  C   UNL     1     -25.440 -18.759 -12.410  1.00  0.00     0.051 A 
ATOM      6  C   UNL     1     -24.680 -18.752 -11.233  1.00  0.00     0.157 A 
ENDROOT
BRANCH   1   7
ATOM      7  C   UNL     1     -23.398 -16.395 -14.596  1.00  0.00     0.010 C 
ATOM      8  C   UNL     1     -24.215 -15.764 -15.451  1.00  0.00     0.025 C 
BRANCH   8   9
ATOM      9  C   UNL     1     -23.708 -14.954 -16.571  1.00  0.00     0.064 C 
ATOM     10  O   UNL     1     -23.075 -13.883 -16.366  1.00  0.00    -0.545 OA
ATOM     11  O   UNL     1     -23.928 -15.376 -17.875  1.00  0.00    -0.545 OA
ENDBRANCH   8   9
ENDBRANCH   1   7
BRANCH   4  12
ATOM     12  O   UNL     1     -22.755 -17.984  -9.994  1.00  0.00    -0.504 OA
ATOM     13  H   UNL     1     -23.185 -17.872  -9.084  1.00  0.00     0.293 HD
ENDBRANCH   4  12
BRANCH   6  14
ATOM     14  O   UNL     1     -25.078 -19.507 -10.132  1.00  0.00    -0.504 OA
ATOM     15  H   UNL     1     -24.419 -20.070  -9.609  1.00  0.00     0.293 HD
ENDBRANCH   6  14
TORSDOF 4
ENDMDL
MODEL 4
REMARK VINA RESULT:    -4.812      3.016      4.910
REMARK INTER + INTRA:          -5.786
REMARK INTER:                  -5.655
REMARK INTRA:                  -0.130
REMARK UNBOUND:                -0.129
REMARK SMILES O=C([O-])C=Cc1ccc(O)c(O)c1
REMARK SMILES IDX 6 1 13 2 7 3 11 4 8 5 9 6 5 7 4 8 2 9 1 10 3 11 12 12 10 14
REMARK H PARENT 12 13 10 15
REMARK Flexibility Score: inf
ROOT
ATOM      1  C   UNL     1     -22.103 -14.730 -14.469  1.00  0.00    -0.022 A 
ATOM      2  C   UNL     1     -22.625 -15.972 -14.073  1.00  0.00     0.058 A 
ATOM      3  C   UNL     1     -22.822 -13.955 -15.400  1.00  0.00     0.012 A 
ATOM      4  C   UNL     1     -23.854 -16.425 -14.575  1.00  0.00     0.157 A 
ATOM      5  C   UNL     1     -24.047 -14.408 -15.900  1.00  0.00     0.051 A 
ATOM      6  C   UNL     1     -24.567 -15.640 -15.488  1.00  0.00     0.157 A 
ENDROOT
BRANCH   1   7
ATOM      7  C   UNL     1     -20.793 -14.301 -13.916  1.00  0.00     0.010 C 
ATOM      8  C   UNL     1     -19.742 -15.120 -13.771  1.00  0.00     0.025 C 
BRANCH   8   9
ATOM      9  C   UNL     1     -18.454 -14.657 -13.229  1.00  0.00     0.064 C 
ATOM     10  O   UNL     1     -18.405 -13.875 -12.242  1.00  0.00    -0.545 OA
ATOM     11  O   UNL     1     -17.271 -15.090 -13.814  1.00  0.00    -0.545 OA
ENDBRANCH   8   9
ENDBRANCH   1   7
BRANCH   4  12
ATOM     12  O   UNL     1     -24.371 -17.655 -14.170  1.00  0.00    -0.504 OA
ATOM     13  H   UNL     1     -23.786 -18.478 -14.096  1.00  0.00     0.293 HD
ENDBRANCH   4  12
BRANCH   6  14
ATOM     14  O   UNL     1     -25.788 -16.093 -15.984  1.00  0.00    -0.504 OA
ATOM     15  H   UNL     1     -25.954 -17.074 -16.173  1.00  0.00     0.293 HD
ENDBRANCH   6  14
TORSDOF 4
ENDMDL
MODEL 5
REMARK VINA RESULT:    -4.617      1.337      5.695
REMARK INTER + INTRA:          -5.556
REMARK INTER:                  -5.425
REMARK INTRA:                  -0.131
REMARK UNBOUND:                -0.129
REMARK SMILES O=C([O-])C=Cc1ccc(O)c(O)c1
REMARK SMILES IDX 6 1 13 2 7 3 11 4 8 5 9 6 5 7 4 8 2 9 1 10 3 11 12 12 10 14
REMARK H PARENT 12 13 10 15
REMARK Flexibility Score: inf
ROOT
ATOM      1  C   UNL     1     -23.837 -17.252 -13.175  1.00  0.00    -0.022 A 
ATOM      2  C   UNL     1     -23.119 -17.326 -11.970  1.00  0.00     0.058 A 
ATOM      3  C   UNL     1     -25.027 -17.994 -13.305  1.00  0.00     0.012 A 
ATOM      4  C   UNL     1     -23.590 -18.105 -10.903  1.00  0.00     0.157 A 
ATOM      5  C   UNL     1     -25.496 -18.771 -12.241  1.00  0.00     0.051 A 
ATOM      6  C   UNL     1     -24.781 -18.827 -11.038  1.00  0.00     0.157 A 
ENDROOT
BRANCH   1   7
ATOM      7  C   UNL     1     -23.290 -16.421 -14.278  1.00  0.00     0.010 C 
ATOM      8  C   UNL     1     -22.534 -15.331 -14.085  1.00  0.00     0.025 C 
BRANCH   8   9
ATOM      9  C   UNL     1     -21.999 -14.537 -15.202  1.00  0.00     0.064 C 
ATOM     10  O   UNL     1     -20.933 -13.876 -15.080  1.00  0.00    -0.545 OA
ATOM     11  O   UNL     1     -22.678 -14.517 -16.413  1.00  0.00    -0.545 OA
ENDBRANCH   8   9
ENDBRANCH   1   7
BRANCH   4  12
ATOM     12  O   UNL     1     -22.878 -18.167  -9.706  1.00  0.00    -0.504 OA
ATOM     13  H   UNL     1     -23.239 -18.659  -8.898  1.00  0.00     0.293 HD
ENDBRANCH   4  12
BRANCH   6  14
ATOM     14  O   UNL     1     -25.247 -19.599  -9.976  1.00  0.00    -0.504 OA
ATOM     15  H   UNL     1     -26.231 -19.636  -9.738  1.00  0.00     0.293 HD
ENDBRANCH   6  14
TORSDOF 4
ENDMDL
MODEL 6
REMARK VINA RESULT:    -4.458      1.182      6.016
REMARK INTER + INTRA:          -5.369
REMARK INTER:                  -5.242
REMARK INTRA:                  -0.128
REMARK UNBOUND:                -0.129
REMARK SMILES O=C([O-])C=Cc1ccc(O)c(O)c1
REMARK SMILES IDX 6 1 13 2 7 3 11 4 8 5 9 6 5 7 4 8 2 9 1 10 3 11 12 12 10 14
REMARK H PARENT 12 13 10 15
REMARK Flexibility Score: inf
ROOT
ATOM      1  C   UNL     1     -23.457 -17.052 -13.016  1.00  0.00    -0.022 A 
ATOM      2  C   UNL     1     -24.549 -17.935 -13.061  1.00  0.00     0.058 A 
ATOM      3  C   UNL     1     -22.791 -16.856 -11.790  1.00  0.00     0.012 A 
ATOM      4  C   UNL     1     -24.956 -18.630 -11.913  1.00  0.00     0.157 A 
ATOM      5  C   UNL     1     -23.197 -17.549 -10.646  1.00  0.00     0.051 A 
ATOM      6  C   UNL     1     -24.277 -18.438 -10.704  1.00  0.00     0.157 A 
ENDROOT
BRANCH   1   7
ATOM      7  C   UNL     1     -23.073 -16.333 -14.257  1.00  0.00     0.010 C 
ATOM      8  C   UNL     1     -23.929 -15.614 -14.997  1.00  0.00     0.025 C 
BRANCH   8   9
ATOM      9  C   UNL     1     -23.511 -14.905 -16.216  1.00  0.00     0.064 C 
ATOM     10  O   UNL     1     -22.611 -14.022 -16.182  1.00  0.00    -0.545 OA
ATOM     11  O   UNL     1     -24.116 -15.213 -17.428  1.00  0.00    -0.545 OA
ENDBRANCH   8   9
ENDBRANCH   1   7
BRANCH   4  12
ATOM     12  O   UNL     1     -26.034 -19.511 -11.967  1.00  0.00    -0.504 OA
ATOM     13  H   UNL     1     -25.983 -20.382 -12.482  1.00  0.00     0.293 HD
ENDBRANCH   4  12
BRANCH   6  14
ATOM     14  O   UNL     1     -24.683 -19.131  -9.565  1.00  0.00    -0.504 OA
ATOM     15  H   UNL     1     -24.495 -20.119  -9.450  1.00  0.00     0.293 HD
ENDBRANCH   6  14
TORSDOF 4
ENDMDL
MODEL 7
REMARK VINA RESULT:    -4.232      3.351      4.903
REMARK INTER + INTRA:          -5.103
REMARK INTER:                  -4.971
REMARK INTRA:                  -0.131
REMARK UNBOUND:                -0.129
REMARK SMILES O=C([O-])C=Cc1ccc(O)c(O)c1
REMARK SMILES IDX 6 1 13 2 7 3 11 4 8 5 9 6 5 7 4 8 2 9 1 10 3 11 12 12 10 14
REMARK H PARENT 12 13 10 15
REMARK Flexibility Score: inf
ROOT
ATOM      1  C   UNL     1     -22.030 -15.082 -14.377  1.00  0.00    -0.022 A 
ATOM      2  C   UNL     1     -22.601 -14.461 -15.501  1.00  0.00     0.058 A 
ATOM      3  C   UNL     1     -22.712 -16.156 -13.774  1.00  0.00     0.012 A 
ATOM      4  C   UNL     1     -23.816 -14.918 -16.031  1.00  0.00     0.157 A 
ATOM      5  C   UNL     1     -23.924 -16.611 -14.303  1.00  0.00     0.051 A 
ATOM      6  C   UNL     1     -24.478 -15.996 -15.432  1.00  0.00     0.157 A 
ENDROOT
BRANCH   1   7
ATOM      7  C   UNL     1     -20.747 -14.553 -13.849  1.00  0.00     0.010 C 
ATOM      8  C   UNL     1     -19.606 -15.256 -13.823  1.00  0.00     0.025 C 
BRANCH   8   9
ATOM      9  C   UNL     1     -18.349 -14.696 -13.302  1.00  0.00     0.064 C 
ATOM     10  O   UNL     1     -17.244 -14.948 -13.855  1.00  0.00    -0.545 OA
ATOM     11  O   UNL     1     -18.378 -13.875 -12.183  1.00  0.00    -0.545 OA
ENDBRANCH   8   9
ENDBRANCH   1   7
BRANCH   4  12
ATOM     12  O   UNL     1     -24.372 -14.303 -17.152  1.00  0.00    -0.504 OA
ATOM     13  H   UNL     1     -24.145 -14.608 -18.091  1.00  0.00     0.293 HD
ENDBRANCH   4  12
BRANCH   6  14
ATOM     14  O   UNL     1     -25.685 -16.448 -15.962  1.00  0.00    -0.504 OA
ATOM     15  H   UNL     1     -26.435 -15.808 -16.195  1.00  0.00     0.293 HD
ENDBRANCH   6  14
TORSDOF 4
ENDMDL
MODEL 8
REMARK VINA RESULT:    -3.920      2.552      4.868
REMARK INTER + INTRA:          -4.736
REMARK INTER:                  -4.611
REMARK INTRA:                  -0.125
REMARK UNBOUND:                -0.129
REMARK SMILES O=C([O-])C=Cc1ccc(O)c(O)c1
REMARK SMILES IDX 6 1 13 2 7 3 11 4 8 5 9 6 5 7 4 8 2 9 1 10 3 11 12 12 10 14
REMARK H PARENT 12 13 10 15
REMARK Flexibility Score: inf
ROOT
ATOM      1  C   UNL     1     -22.687 -16.389 -14.183  1.00  0.00    -0.022 A 
ATOM      2  C   UNL     1     -23.256 -17.032 -13.071  1.00  0.00     0.058 A 
ATOM      3  C   UNL     1     -23.412 -16.349 -15.390  1.00  0.00     0.012 A 
ATOM      4  C   UNL     1     -24.534 -17.605 -13.151  1.00  0.00     0.157 A 
ATOM      5  C   UNL     1     -24.685 -16.921 -15.470  1.00  0.00     0.051 A 
ATOM      6  C   UNL     1     -25.250 -17.547 -14.352  1.00  0.00     0.157 A 
ENDROOT
BRANCH   1   7
ATOM      7  C   UNL     1     -21.328 -15.807 -14.048  1.00  0.00     0.010 C 
ATOM      8  C   UNL     1     -21.065 -14.673 -13.385  1.00  0.00     0.025 C 
BRANCH   8   9
ATOM      9  C   UNL     1     -19.702 -14.131 -13.262  1.00  0.00     0.064 C 
ATOM     10  O   UNL     1     -19.000 -13.894 -14.282  1.00  0.00    -0.545 OA
ATOM     11  O   UNL     1     -19.179 -13.876 -12.001  1.00  0.00    -0.545 OA
ENDBRANCH   8   9
ENDBRANCH   1   7
BRANCH   4  12
ATOM     12  O   UNL     1     -25.096 -18.234 -12.042  1.00  0.00    -0.504 OA
ATOM     13  H   UNL     1     -24.754 -19.128 -11.709  1.00  0.00     0.293 HD
ENDBRANCH   4  12
BRANCH   6  14
ATOM     14  O   UNL     1     -26.520 -18.116 -14.429  1.00  0.00    -0.504 OA
ATOM     15  H   UNL     1     -26.759 -18.786 -15.150  1.00  0.00     0.293 HD
ENDBRANCH   6  14
TORSDOF 4
ENDMDL
MODEL 9
REMARK VINA RESULT:    -3.899      2.078      5.401
REMARK INTER + INTRA:          -4.712
REMARK INTER:                  -4.574
REMARK INTRA:                  -0.138
REMARK UNBOUND:                -0.129
REMARK SMILES O=C([O-])C=Cc1ccc(O)c(O)c1
REMARK SMILES IDX 6 1 13 2 7 3 11 4 8 5 9 6 5 7 4 8 2 9 1 10 3 11 12 12 10 14
REMARK H PARENT 12 13 10 15
REMARK Flexibility Score: inf
ROOT
ATOM      1  C   UNL     1     -23.491 -16.602 -13.330  1.00  0.00    -0.022 A 
ATOM      2  C   UNL     1     -24.580 -17.048 -14.100  1.00  0.00     0.058 A 
ATOM      3  C   UNL     1     -23.309 -17.132 -12.038  1.00  0.00     0.012 A 
ATOM      4  C   UNL     1     -25.458 -18.022 -13.601  1.00  0.00     0.157 A 
ATOM      5  C   UNL     1     -24.185 -18.103 -11.542  1.00  0.00     0.051 A 
ATOM      6  C   UNL     1     -25.258 -18.551 -12.321  1.00  0.00     0.157 A 
ENDROOT
BRANCH   1   7
ATOM      7  C   UNL     1     -22.598 -15.562 -13.901  1.00  0.00     0.010 C 
ATOM      8  C   UNL     1     -21.327 -15.380 -13.517  1.00  0.00     0.025 C 
BRANCH   8   9
ATOM      9  C   UNL     1     -20.466 -14.346 -14.112  1.00  0.00     0.064 C 
ATOM     10  O   UNL     1     -20.708 -13.875 -15.257  1.00  0.00    -0.545 OA
ATOM     11  O   UNL     1     -19.369 -13.877 -13.402  1.00  0.00    -0.545 OA
ENDBRANCH   8   9
ENDBRANCH   1   7
BRANCH   4  12
ATOM     12  O   UNL     1     -26.530 -18.466 -14.373  1.00  0.00    -0.504 OA
ATOM     13  H   UNL     1     -26.521 -18.396 -15.383  1.00  0.00     0.293 HD
ENDBRANCH   4  12
BRANCH   6  14
ATOM     14  O   UNL     1     -26.131 -19.520 -11.829  1.00  0.00    -0.504 OA
ATOM     15  H   UNL     1     -27.043 -19.672 -12.243  1.00  0.00     0.293 HD
ENDBRANCH   6  14
TORSDOF 4
ENDMDL
